REMARK SMILES CC[C@@H]1C=CCN1S(=O)(=O)c1sc2c(c1C(=O)OCCOCCOCCOC(=O)c1ccc(-c3c4nc(c(-c5ccc(S(=O)(=O)[O-])cc5)c5ccc([nH]5)c(-c5ccc(S(=O)(=O)[O-])cc5)c5nc(c(-c6ccc(S(=O)(=O)[O-])cc6)c6ccc3[nH]6)C=C5)C=C4)cc1)CC[NH2+]C2
REMARK SMILES IDX 22 1 21 2 20 3 19 4 18 5 16 6 17 7 15 8 11 9 12 10 13 11
REMARK SMILES IDX 14 12 93 13 90 14 92 15 91 16 8 19 9 20 10 21 7 22 3 23 4 24
REMARK SMILES IDX 5 25 6 26 2 27 1 28 23 29 24 30 25 31 26 32 27 33 28 34
REMARK SMILES IDX 29 35 30 36 31 37 89 38 32 39 88 40 33 41 34 42 35 43 82 44
REMARK SMILES IDX 36 45 87 46 81 47 83 48 37 49 86 50 80 51 79 52 38 54 68 55
REMARK SMILES IDX 49 56 67 57 50 58 53 59 66 60 84 61 51 62 52 63 65 65 85 66
REMARK SMILES IDX 54 67 39 68 40 69 48 70 41 71 47 72 42 73 43 74 44 75 45 76
REMARK SMILES IDX 46 77 69 78 70 79 78 80 71 81 77 82 72 83 73 84 74 85 75 86
REMARK SMILES IDX 76 87 55 88 56 89 64 90 57 91 63 92 58 93 59 94 60 95 61 96
REMARK SMILES IDX 62 97
REMARK H PARENT 92 17 92 18 83 53 53 64
REMARK Flexibility Score: inf
ROOT
ATOM      1  C   UNL     1      -2.230   5.739   2.874  1.00  0.00     0.188 C 
ENDROOT
BRANCH   1   2
ATOM      2  O   UNL     1      -3.558   5.744   2.401  1.00  0.00    -0.376 OA
BRANCH   2   3
ATOM      3  C   UNL     1      -3.956   4.852   1.374  1.00  0.00     0.202 C 
BRANCH   3   4
ATOM      4  C   UNL     1      -2.993   4.266   0.319  1.00  0.00     0.261 C 
BRANCH   4   5
ATOM      5  O   UNL     1      -1.675   3.923   0.771  1.00  0.00    -0.460 OA
BRANCH   5   6
ATOM      6  C   UNL     1      -0.639   4.607   0.206  1.00  0.00     0.340 C 
ATOM      7  O   UNL     1      -0.768   5.441  -0.663  1.00  0.00    -0.246 OA
BRANCH   6   8
ATOM      8  C   UNL     1       0.653   4.395   0.878  1.00  0.00     0.095 A 
ATOM      9  C   UNL     1       1.266   3.167   1.144  1.00  0.00     0.150 A 
ATOM     10  S   UNL     1       2.892   3.412   1.658  1.00  0.00    -0.120 S 
ATOM     11  C   UNL     1       2.734   5.078   1.738  1.00  0.00     0.064 A 
ATOM     12  C   UNL     1       1.482   5.500   1.352  1.00  0.00    -0.007 A 
ATOM     13  C   UNL     1       3.871   5.966   2.142  1.00  0.00     0.308 C 
ATOM     14  C   UNL     1       1.136   6.962   1.476  1.00  0.00     0.099 C 
ATOM     15  N   UNL     1       3.385   7.280   2.588  1.00  0.00    -0.342 N 
ATOM     16  C   UNL     1       2.408   7.831   1.628  1.00  0.00     0.265 C 
ATOM     17  H   UNL     1       2.939   7.181   3.500  1.00  0.00     0.346 HD
ATOM     18  H   UNL     1       4.179   7.918   2.649  1.00  0.00     0.346 HD
BRANCH   9  19
ATOM     19  S   UNL     1       0.840   1.432   0.899  1.00  0.00     0.254 S 
ATOM     20  O   UNL     1       1.671   1.016  -0.214  1.00  0.00    -0.206 OA
ATOM     21  O   UNL     1      -0.599   1.397   0.766  1.00  0.00    -0.206 OA
BRANCH  19  22
ATOM     22  N   UNL     1       1.267   0.463   2.257  1.00  0.00    -0.186 NA
ATOM     23  C   UNL     1       0.752  -0.949   2.189  1.00  0.00     0.096 C 
ATOM     24  C   UNL     1       1.973  -1.784   2.445  1.00  0.00    -0.010 C 
ATOM     25  C   UNL     1       3.032  -1.031   2.733  1.00  0.00    -0.013 C 
ATOM     26  C   UNL     1       2.714   0.410   2.601  1.00  0.00     0.130 C 
BRANCH  23  27
ATOM     27  C   UNL     1      -0.251  -1.266   3.307  1.00  0.00     0.021 C 
ATOM     28  C   UNL     1      -1.409  -0.298   3.429  1.00  0.00     0.006 C 
ENDBRANCH  23  27
ENDBRANCH  19  22
ENDBRANCH   9  19
ENDBRANCH   6   8
ENDBRANCH   5   6
ENDBRANCH   4   5
ENDBRANCH   3   4
ENDBRANCH   2   3
ENDBRANCH   1   2
BRANCH   1  29
ATOM     29  C   UNL     1      -1.643   4.479   3.543  1.00  0.00     0.188 C 
BRANCH  29  30
ATOM     30  O   UNL     1      -2.232   3.219   3.321  1.00  0.00    -0.376 OA
BRANCH  30  31
ATOM     31  C   UNL     1      -3.435   2.768   3.916  1.00  0.00     0.202 C 
BRANCH  31  32
ATOM     32  C   UNL     1      -4.242   3.505   4.977  1.00  0.00     0.261 C 
BRANCH  32  33
ATOM     33  O   UNL     1      -3.812   4.809   5.273  1.00  0.00    -0.460 OA
BRANCH  33  34
ATOM     34  C   UNL     1      -2.873   4.840   6.239  1.00  0.00     0.338 C 
ATOM     35  O   UNL     1      -2.219   3.906   6.670  1.00  0.00    -0.246 OA
BRANCH  34  36
ATOM     36  C   UNL     1      -2.820   6.197   6.772  1.00  0.00     0.060 A 
ATOM     37  C   UNL     1      -1.756   6.473   7.631  1.00  0.00     0.016 A 
ATOM     38  C   UNL     1      -4.019   6.919   6.776  1.00  0.00     0.016 A 
ATOM     39  C   UNL     1      -2.013   7.283   8.707  1.00  0.00     0.010 A 
ATOM     40  C   UNL     1      -4.289   7.680   7.877  1.00  0.00     0.010 A 
ATOM     41  C   UNL     1      -3.313   7.769   8.868  1.00  0.00    -0.014 A 
BRANCH  41  42
ATOM     42  C   UNL     1      -3.621   8.514  10.062  1.00  0.00     0.031 A 
ATOM     43  C   UNL     1      -3.161   9.907   9.937  1.00  0.00     0.074 A 
ATOM     44  C   UNL     1      -4.354   7.998  11.064  1.00  0.00     0.049 A 
ATOM     45  N   UNL     1      -2.087  10.420  10.440  1.00  0.00    -0.248 NA
ATOM     46  C   UNL     1      -3.801  10.742   8.901  1.00  0.00     0.031 C 
ATOM     47  C   UNL     1      -5.066   6.717  11.097  1.00  0.00     0.029 A 
ATOM     48  N   UNL     1      -4.725   8.580  12.232  1.00  0.00    -0.354 N 
ATOM     49  C   UNL     1      -2.113  11.741  10.019  1.00  0.00     0.074 A 
ATOM     50  C   UNL     1      -2.953  11.768   8.851  1.00  0.00     0.031 C 
ATOM     51  C   UNL     1      -5.970   6.740  12.104  1.00  0.00     0.029 A 
ATOM     52  C   UNL     1      -5.819   7.982  12.848  1.00  0.00     0.049 A 
ATOM     53  H   UNL     1      -4.260   9.360  12.612  1.00  0.00     0.167 HD
ATOM     54  C   UNL     1      -1.830  12.746  10.894  1.00  0.00     0.031 A 
ATOM     55  C   UNL     1      -6.588   8.527  13.828  1.00  0.00     0.031 A 
ATOM     56  C   UNL     1      -1.138  12.247  12.060  1.00  0.00     0.049 A 
ATOM     57  C   UNL     1      -5.808   9.640  14.428  1.00  0.00     0.074 A 
ATOM     58  C   UNL     1       0.004  11.498  12.274  1.00  0.00     0.029 A 
ATOM     59  N   UNL     1      -1.871  12.166  13.222  1.00  0.00    -0.354 N 
ATOM     60  N   UNL     1      -4.719   9.459  15.121  1.00  0.00    -0.248 NA
ATOM     61  C   UNL     1      -5.965  10.972  13.860  1.00  0.00     0.031 C 
ATOM     62  C   UNL     1      -0.301  10.658  13.384  1.00  0.00     0.029 A 
ATOM     63  C   UNL     1      -1.578  10.983  13.844  1.00  0.00     0.049 A 
ATOM     64  H   UNL     1      -2.503  12.846  13.550  1.00  0.00     0.167 HD
ATOM     65  C   UNL     1      -3.861  10.467  14.703  1.00  0.00     0.074 A 
ATOM     66  C   UNL     1      -4.718  11.428  14.009  1.00  0.00     0.031 C 
ATOM     67  C   UNL     1      -2.507  10.275  14.700  1.00  0.00     0.031 A 
BRANCH  54  68
ATOM     68  C   UNL     1      -2.636  14.030  10.932  1.00  0.00    -0.014 A 
ATOM     69  C   UNL     1      -2.291  15.002  11.889  1.00  0.00     0.010 A 
ATOM     70  C   UNL     1      -3.880  14.195  10.282  1.00  0.00     0.010 A 
ATOM     71  C   UNL     1      -3.187  16.017  12.247  1.00  0.00     0.020 A 
ATOM     72  C   UNL     1      -4.759  15.228  10.594  1.00  0.00     0.020 A 
ATOM     73  C   UNL     1      -4.422  16.112  11.604  1.00  0.00     0.054 A 
BRANCH  73  74
ATOM     74  S   UNL     1      -5.610  17.365  12.131  1.00  0.00     0.124 S 
ATOM     75  O   UNL     1      -5.942  16.909  13.476  1.00  0.00    -0.237 OA
ATOM     76  O   UNL     1      -4.817  18.588  12.048  1.00  0.00    -0.237 OA
ATOM     77  O   UNL     1      -6.682  17.253  11.145  1.00  0.00    -0.744 OA
ENDBRANCH  73  74
ENDBRANCH  54  68
BRANCH  55  78
ATOM     78  C   UNL     1      -8.052   8.376  14.049  1.00  0.00    -0.014 A 
ATOM     79  C   UNL     1      -8.666   8.895  15.207  1.00  0.00     0.010 A 
ATOM     80  C   UNL     1      -8.896   7.974  12.994  1.00  0.00     0.010 A 
ATOM     81  C   UNL     1     -10.060   9.072  15.276  1.00  0.00     0.020 A 
ATOM     82  C   UNL     1     -10.285   8.137  13.059  1.00  0.00     0.020 A 
ATOM     83  C   UNL     1     -10.860   8.712  14.189  1.00  0.00     0.054 A 
BRANCH  83  84
ATOM     84  S   UNL     1     -12.633   9.116  14.200  1.00  0.00     0.124 S 
ATOM     85  O   UNL     1     -13.160   8.182  15.191  1.00  0.00    -0.237 OA
ATOM     86  O   UNL     1     -12.638  10.523  14.592  1.00  0.00    -0.237 OA
ATOM     87  O   UNL     1     -13.053   8.859  12.823  1.00  0.00    -0.744 OA
ENDBRANCH  83  84
ENDBRANCH  55  78
BRANCH  67  88
ATOM     88  C   UNL     1      -1.945   9.121  15.496  1.00  0.00    -0.014 A 
ATOM     89  C   UNL     1      -2.273   7.768  15.284  1.00  0.00     0.010 A 
ATOM     90  C   UNL     1      -0.948   9.428  16.438  1.00  0.00     0.010 A 
ATOM     91  C   UNL     1      -1.652   6.756  16.034  1.00  0.00     0.020 A 
ATOM     92  C   UNL     1      -0.311   8.427  17.171  1.00  0.00     0.020 A 
ATOM     93  C   UNL     1      -0.679   7.096  16.979  1.00  0.00     0.054 A 
BRANCH  93  94
ATOM     94  S   UNL     1       0.122   5.790  17.952  1.00  0.00     0.124 S 
ATOM     95  O   UNL     1      -0.973   5.297  18.783  1.00  0.00    -0.237 OA
ATOM     96  O   UNL     1       0.599   4.867  16.925  1.00  0.00    -0.237 OA
ATOM     97  O   UNL     1       1.179   6.495  18.677  1.00  0.00    -0.744 OA
ENDBRANCH  93  94
ENDBRANCH  67  88
ENDBRANCH  41  42
ENDBRANCH  34  36
ENDBRANCH  33  34
ENDBRANCH  32  33
ENDBRANCH  31  32
ENDBRANCH  30  31
ENDBRANCH  29  30
ENDBRANCH   1  29
TORSDOF 23
