REMARK SMILES O=C(Cn1nc(C(=O)OCCOCCOCCOC(=O)c2ccc(-c3c4nc(c(-c5ccc(S(=O)(=O)[O-])cc5)c5ccc([nH]5)c(-c5ccc(S(=O)(=O)[O-])cc5)c5nc(c(-c6ccc(S(=O)(=O)[O-])cc6)c6ccc3[nH]6)C=C5)C=C4)cc2)c2ccccc2c1=O)NCc1ccc(F)cc1
REMARK SMILES IDX 13 1 12 2 11 3 10 4 9 5 7 6 8 7 6 8 4 9 5 10 87 11 86 12
REMARK SMILES IDX 88 13 81 14 85 15 82 16 84 17 83 18 3 19 2 20 1 21 89 22
REMARK SMILES IDX 90 24 91 25 92 26 97 27 93 28 96 29 94 30 95 31 14 32 15 33
REMARK SMILES IDX 16 34 17 35 18 36 19 37 20 38 21 39 22 40 80 41 23 42 79 43
REMARK SMILES IDX 24 44 25 45 26 46 73 47 27 48 78 49 72 50 74 51 28 52 77 53
REMARK SMILES IDX 71 54 70 55 29 57 59 58 40 59 58 60 41 61 44 62 57 63 75 64
REMARK SMILES IDX 42 65 43 66 56 68 76 69 45 70 30 71 31 72 39 73 32 74 38 75
REMARK SMILES IDX 33 76 34 77 35 78 36 79 37 80 60 81 61 82 69 83 62 84 68 85
REMARK SMILES IDX 63 86 64 87 65 88 66 89 67 90 46 91 47 92 55 93 48 94 54 95
REMARK SMILES IDX 49 96 50 97 51 98 52 99 53 100
REMARK H PARENT 89 23 74 56 44 67
REMARK Flexibility Score: inf
ROOT
ATOM      1  C   UNL     1       8.970   3.044  -1.013  1.00  0.00     0.188 C 
ENDROOT
BRANCH   1   2
ATOM      2  O   UNL     1      10.165   2.445  -0.573  1.00  0.00    -0.376 OA
BRANCH   2   3
ATOM      3  C   UNL     1      10.173   1.563   0.535  1.00  0.00     0.202 C 
BRANCH   3   4
ATOM      4  C   UNL     1       8.922   0.961   1.206  1.00  0.00     0.261 C 
BRANCH   4   5
ATOM      5  O   UNL     1       7.663   1.251   0.601  1.00  0.00    -0.458 OA
BRANCH   5   6
ATOM      6  C   UNL     1       6.797   1.997   1.318  1.00  0.00     0.359 C 
ATOM      7  O   UNL     1       6.939   2.446   2.438  1.00  0.00    -0.244 OA
BRANCH   6   8
ATOM      8  C   UNL     1       5.564   2.286   0.470  1.00  0.00     0.176 A 
ATOM      9  N   UNL     1       3.762   1.458  -0.713  1.00  0.00    -0.219 N 
ATOM     10  N   UNL     1       4.893   1.252   0.052  1.00  0.00    -0.161 NA
ATOM     11  C   UNL     1       3.237   2.713  -1.008  1.00  0.00     0.275 A 
ATOM     12  C   UNL     1       4.034   3.875  -0.581  1.00  0.00     0.051 A 
ATOM     13  O   UNL     1       2.179   2.891  -1.605  1.00  0.00    -0.267 OA
ATOM     14  C   UNL     1       5.201   3.680   0.153  1.00  0.00     0.022 A 
ATOM     15  C   UNL     1       3.621   5.168  -0.930  1.00  0.00     0.014 A 
ATOM     16  C   UNL     1       5.969   4.787   0.532  1.00  0.00     0.011 A 
ATOM     17  C   UNL     1       4.391   6.268  -0.558  1.00  0.00     0.001 A 
ATOM     18  C   UNL     1       5.562   6.076   0.170  1.00  0.00     0.001 A 
BRANCH   9  19
ATOM     19  C   UNL     1       3.020   0.268  -1.144  1.00  0.00     0.248 C 
BRANCH  19  20
ATOM     20  C   UNL     1       2.170  -0.275   0.006  1.00  0.00     0.242 C 
ATOM     21  O   UNL     1       1.080  -0.816  -0.164  1.00  0.00    -0.273 OA
ATOM     22  N   UNL     1       2.830  -0.277   1.215  1.00  0.00    -0.350 N 
ATOM     23  H   UNL     1       3.745   0.086   1.243  1.00  0.00     0.163 HD
BRANCH  22  24
ATOM     24  C   UNL     1       2.265  -0.776   2.437  1.00  0.00     0.151 C 
BRANCH  24  25
ATOM     25  C   UNL     1       2.659  -2.210   2.678  1.00  0.00    -0.029 A 
ATOM     26  C   UNL     1       3.932  -2.531   3.177  1.00  0.00     0.008 A 
ATOM     27  C   UNL     1       1.760  -3.247   2.380  1.00  0.00     0.008 A 
ATOM     28  C   UNL     1       4.286  -3.863   3.399  1.00  0.00     0.039 A 
ATOM     29  C   UNL     1       2.114  -4.576   2.608  1.00  0.00     0.039 A 
ATOM     30  C   UNL     1       3.372  -4.872   3.118  1.00  0.00     0.123 A 
ATOM     31  F   UNL     1       3.711  -6.149   3.338  1.00  0.00    -0.207 F 
ENDBRANCH  24  25
ENDBRANCH  22  24
ENDBRANCH  19  20
ENDBRANCH   9  19
ENDBRANCH   6   8
ENDBRANCH   5   6
ENDBRANCH   4   5
ENDBRANCH   3   4
ENDBRANCH   2   3
ENDBRANCH   1   2
BRANCH   1  32
ATOM     32  C   UNL     1       8.166   2.253  -2.069  1.00  0.00     0.188 C 
BRANCH  32  33
ATOM     33  O   UNL     1       8.596   0.966  -2.479  1.00  0.00    -0.376 OA
BRANCH  33  34
ATOM     34  C   UNL     1       9.944   0.770  -2.881  1.00  0.00     0.202 C 
BRANCH  34  35
ATOM     35  C   UNL     1      10.631   1.726  -3.870  1.00  0.00     0.261 C 
BRANCH  35  36
ATOM     36  O   UNL     1      10.481   3.126  -3.598  1.00  0.00    -0.460 OA
BRANCH  36  37
ATOM     37  C   UNL     1       9.688   3.813  -4.459  1.00  0.00     0.338 C 
ATOM     38  O   UNL     1       9.084   3.366  -5.420  1.00  0.00    -0.246 OA
BRANCH  37  39
ATOM     39  C   UNL     1       9.493   5.181  -3.938  1.00  0.00     0.060 A 
ATOM     40  C   UNL     1      10.586   6.020  -3.722  1.00  0.00     0.016 A 
ATOM     41  C   UNL     1       8.190   5.625  -3.664  1.00  0.00     0.016 A 
ATOM     42  C   UNL     1      10.370   7.317  -3.251  1.00  0.00     0.010 A 
ATOM     43  C   UNL     1       7.978   6.917  -3.178  1.00  0.00     0.010 A 
ATOM     44  C   UNL     1       9.066   7.781  -2.990  1.00  0.00    -0.014 A 
BRANCH  44  45
ATOM     45  C   UNL     1       8.847   9.219  -2.697  1.00  0.00     0.031 A 
ATOM     46  C   UNL     1       8.593   9.723  -1.310  1.00  0.00     0.074 A 
ATOM     47  C   UNL     1       8.893  10.082  -3.730  1.00  0.00     0.049 A 
ATOM     48  N   UNL     1       8.488  10.959  -0.895  1.00  0.00    -0.248 NA
ATOM     49  C   UNL     1       8.421   8.716  -0.255  1.00  0.00     0.031 C 
ATOM     50  C   UNL     1       9.106   9.696  -5.125  1.00  0.00     0.029 A 
ATOM     51  N   UNL     1       8.796  11.450  -3.769  1.00  0.00    -0.354 N 
ATOM     52  C   UNL     1       8.246  10.886   0.470  1.00  0.00     0.074 A 
ATOM     53  C   UNL     1       8.165   9.478   0.804  1.00  0.00     0.031 C 
ATOM     54  C   UNL     1       9.177  10.803  -5.877  1.00  0.00     0.029 A 
ATOM     55  C   UNL     1       8.983  11.975  -5.026  1.00  0.00     0.049 A 
ATOM     56  H   UNL     1       8.610  12.002  -2.975  1.00  0.00     0.167 HD
ATOM     57  C   UNL     1       8.131  11.903   1.359  1.00  0.00     0.031 A 
ATOM     58  C   UNL     1       9.020  13.254  -5.452  1.00  0.00     0.031 A 
ATOM     59  C   UNL     1       8.233  13.300   1.005  1.00  0.00     0.049 A 
ATOM     60  C   UNL     1       8.890  14.364  -4.450  1.00  0.00     0.074 A 
ATOM     61  C   UNL     1       8.203  14.398   1.849  1.00  0.00     0.029 A 
ATOM     62  N   UNL     1       8.385  13.795  -0.283  1.00  0.00    -0.354 N 
ATOM     63  N   UNL     1       8.747  14.281  -3.148  1.00  0.00    -0.248 NA
ATOM     64  C   UNL     1       8.948  15.739  -4.963  1.00  0.00     0.031 C 
ATOM     65  C   UNL     1       8.254  15.554   1.067  1.00  0.00     0.029 A 
ATOM     66  C   UNL     1       8.409  15.181  -0.259  1.00  0.00     0.049 A 
ATOM     67  H   UNL     1       8.463  13.243  -1.094  1.00  0.00     0.167 HD
ATOM     68  C   UNL     1       8.713  15.591  -2.685  1.00  0.00     0.074 A 
ATOM     69  C   UNL     1       8.873  16.447  -3.843  1.00  0.00     0.031 C 
ATOM     70  C   UNL     1       8.559  16.037  -1.414  1.00  0.00     0.031 A 
BRANCH  57  71
ATOM     71  C   UNL     1       7.909  11.571   2.816  1.00  0.00    -0.014 A 
ATOM     72  C   UNL     1       6.739  12.008   3.467  1.00  0.00     0.010 A 
ATOM     73  C   UNL     1       8.918  10.956   3.579  1.00  0.00     0.010 A 
ATOM     74  C   UNL     1       6.596  11.868   4.851  1.00  0.00     0.020 A 
ATOM     75  C   UNL     1       8.765  10.781   4.958  1.00  0.00     0.020 A 
ATOM     76  C   UNL     1       7.615  11.262   5.589  1.00  0.00     0.054 A 
BRANCH  76  77
ATOM     77  S   UNL     1       7.426  11.111   7.388  1.00  0.00     0.124 S 
ATOM     78  O   UNL     1       7.633  12.484   7.837  1.00  0.00    -0.237 OA
ATOM     79  O   UNL     1       6.064  10.599   7.521  1.00  0.00    -0.237 OA
ATOM     80  O   UNL     1       8.475  10.165   7.762  1.00  0.00    -0.744 OA
ENDBRANCH  76  77
ENDBRANCH  57  71
BRANCH  58  81
ATOM     81  C   UNL     1       9.274  13.515  -6.895  1.00  0.00    -0.014 A 
ATOM     82  C   UNL     1       8.329  13.128  -7.865  1.00  0.00     0.010 A 
ATOM     83  C   UNL     1      10.515  14.024  -7.315  1.00  0.00     0.010 A 
ATOM     84  C   UNL     1       8.651  13.169  -9.224  1.00  0.00     0.020 A 
ATOM     85  C   UNL     1      10.827  14.099  -8.676  1.00  0.00     0.020 A 
ATOM     86  C   UNL     1       9.907  13.635  -9.618  1.00  0.00     0.054 A 
BRANCH  86  87
ATOM     87  S   UNL     1      10.339  13.580 -11.379  1.00  0.00     0.124 S 
ATOM     88  O   UNL     1      10.524  12.148 -11.596  1.00  0.00    -0.237 OA
ATOM     89  O   UNL     1       9.161  14.166 -12.012  1.00  0.00    -0.237 OA
ATOM     90  O   UNL     1      11.554  14.387 -11.460  1.00  0.00    -0.744 OA
ENDBRANCH  86  87
ENDBRANCH  58  81
BRANCH  70  91
ATOM     91  C   UNL     1       8.535  17.527  -1.174  1.00  0.00    -0.014 A 
ATOM     92  C   UNL     1       9.545  18.130  -0.399  1.00  0.00     0.010 A 
ATOM     93  C   UNL     1       7.441  18.307  -1.590  1.00  0.00     0.010 A 
ATOM     94  C   UNL     1       9.436  19.465  -0.001  1.00  0.00     0.020 A 
ATOM     95  C   UNL     1       7.346  19.653  -1.224  1.00  0.00     0.020 A 
ATOM     96  C   UNL     1       8.329  20.215  -0.405  1.00  0.00     0.054 A 
BRANCH  96  97
ATOM     97  S   UNL     1       8.176  21.928   0.173  1.00  0.00     0.124 S 
ATOM     98  O   UNL     1       7.828  21.748   1.579  1.00  0.00    -0.237 OA
ATOM     99  O   UNL     1       9.508  22.472  -0.083  1.00  0.00    -0.237 OA
ATOM    100  O   UNL     1       7.114  22.480  -0.666  1.00  0.00    -0.744 OA
ENDBRANCH  96  97
ENDBRANCH  70  91
ENDBRANCH  44  45
ENDBRANCH  37  39
ENDBRANCH  36  37
ENDBRANCH  35  36
ENDBRANCH  34  35
ENDBRANCH  33  34
ENDBRANCH  32  33
ENDBRANCH   1  32
TORSDOF 24
