REMARK SMILES Cc1ccc(N2C(=O)N=C(OCCOCCOCCOC(=O)c3ccc(-c4c5nc(c(-c6ccc(S(=O)(=O)[O-])cc6)c6ccc([nH]6)c(-c6ccc(S(=O)(=O)[O-])cc6)c6nc(c(-c7ccc(S(=O)(=O)[O-])cc7)c7ccc4[nH]7)C=C6)C=C5)cc3)/C(=C/c3ccccc3OCc3cccc(C(=O)[O-])c3)C2=O)cc1
REMARK SMILES IDX 15 1 14 2 13 3 12 4 11 5 10 6 6 7 7 8 102 9 8 10 9 11 83 12
REMARK SMILES IDX 103 13 84 14 5 15 1 16 2 17 3 18 105 19 4 20 104 21 85 22
REMARK SMILES IDX 86 23 90 24 87 25 89 26 88 27 91 28 92 29 93 30 94 31 101 32
REMARK SMILES IDX 95 33 97 34 96 35 98 36 99 37 100 38 16 39 17 40 18 41 19 42
REMARK SMILES IDX 20 43 21 44 22 45 23 46 24 47 82 48 25 49 81 50 26 51 27 52
REMARK SMILES IDX 28 53 75 54 29 55 80 56 74 57 76 58 30 59 79 60 73 61 72 62
REMARK SMILES IDX 31 64 61 65 42 66 60 67 43 68 46 69 59 70 77 71 44 72 45 73
REMARK SMILES IDX 58 75 78 76 47 77 32 78 33 79 41 80 34 81 40 82 35 83 36 84
REMARK SMILES IDX 37 85 38 86 39 87 62 88 63 89 71 90 64 91 70 92 65 93 66 94
REMARK SMILES IDX 67 95 68 96 69 97 48 98 49 99 57 100 50 101 56 102 51 103
REMARK SMILES IDX 52 104 53 105 54 106 55 107
REMARK H PARENT 76 63 46 74
REMARK Flexibility Score: inf
ROOT
ATOM      1  C   UNL     1      -6.729   6.194  -0.435  1.00  0.00     0.188 C 
ENDROOT
BRANCH   1   2
ATOM      2  O   UNL     1      -8.150   6.012  -0.527  1.00  0.00    -0.376 OA
BRANCH   2   3
ATOM      3  C   UNL     1      -8.491   4.726  -1.058  1.00  0.00     0.201 C 
BRANCH   3   4
ATOM      4  C   UNL     1      -8.231   3.593  -0.064  1.00  0.00     0.260 C 
BRANCH   4   5
ATOM      5  O   UNL     1      -6.840   3.603   0.397  1.00  0.00    -0.475 OA
BRANCH   5   6
ATOM      6  C   UNL     1      -5.642   3.028   0.168  1.00  0.00     0.231 C 
ATOM      7  N   UNL     1      -3.142   1.812   0.242  1.00  0.00    -0.226 N 
ATOM      8  C   UNL     1      -3.517   2.799   1.138  1.00  0.00     0.358 C 
ATOM      9  C   UNL     1      -4.178   1.123  -0.334  1.00  0.00     0.272 C 
ATOM     10  O   UNL     1      -2.863   3.005   2.165  1.00  0.00    -0.245 OA
ATOM     11  N   UNL     1      -4.748   3.389   1.020  1.00  0.00    -0.156 NA
ATOM     12  C   UNL     1      -5.498   1.922  -0.816  1.00  0.00     0.103 C 
ATOM     13  O   UNL     1      -4.053  -0.105  -0.366  1.00  0.00    -0.268 OA
ATOM     14  C   UNL     1      -6.707   1.778  -1.519  1.00  0.00     0.031 C 
BRANCH   7  15
ATOM     15  C   UNL     1      -1.762   1.259   0.277  1.00  0.00     0.054 A 
ATOM     16  C   UNL     1       2.414  -0.093   0.034  1.00  0.00     0.044 C 
ATOM     17  C   UNL     1       0.988   0.368   0.127  1.00  0.00    -0.051 A 
ATOM     18  C   UNL     1      -0.060  -0.511  -0.125  1.00  0.00     0.005 A 
ATOM     19  C   UNL     1       0.664   1.675   0.490  1.00  0.00     0.005 A 
ATOM     20  C   UNL     1      -1.399  -0.069  -0.063  1.00  0.00     0.027 A 
ATOM     21  C   UNL     1      -0.678   2.105   0.566  1.00  0.00     0.027 A 
ENDBRANCH   7  15
BRANCH  14  22
ATOM     22  C   UNL     1      -7.987   0.922  -2.269  1.00  0.00     0.018 A 
ATOM     23  C   UNL     1      -8.732   1.842  -3.061  1.00  0.00     0.012 A 
ATOM     24  C   UNL     1      -8.613  -0.497  -2.246  1.00  0.00     0.127 A 
ATOM     25  C   UNL     1      -9.999   1.559  -3.593  1.00  0.00     0.001 A 
ATOM     26  C   UNL     1      -9.925  -0.694  -2.739  1.00  0.00     0.047 A 
ATOM     27  C   UNL     1     -10.615   0.332  -3.375  1.00  0.00     0.004 A 
BRANCH  24  28
ATOM     28  O   UNL     1      -7.972  -2.029  -2.281  1.00  0.00    -0.488 OA
BRANCH  28  29
ATOM     29  C   UNL     1      -6.522  -2.915  -2.069  1.00  0.00     0.265 C 
BRANCH  29  30
ATOM     30  C   UNL     1      -5.777  -3.771  -0.959  1.00  0.00    -0.010 A 
ATOM     31  C   UNL     1      -4.407  -3.556  -0.712  1.00  0.00     0.007 A 
ATOM     32  C   UNL     1      -6.300  -4.955  -0.423  1.00  0.00     0.017 A 
ATOM     33  C   UNL     1      -3.631  -4.481   0.015  1.00  0.00     0.001 A 
ATOM     34  C   UNL     1      -5.560  -5.865   0.344  1.00  0.00    -0.002 A 
ATOM     35  C   UNL     1      -4.205  -5.641   0.539  1.00  0.00     0.010 A 
BRANCH  34  36
ATOM     36  C   UNL     1      -6.200  -7.093   0.886  1.00  0.00     0.071 C 
ATOM     37  O   UNL     1      -5.631  -8.083   1.293  1.00  0.00    -0.545 OA
ATOM     38  O   UNL     1      -7.544  -6.982   0.924  1.00  0.00    -0.545 OA
ENDBRANCH  34  36
ENDBRANCH  29  30
ENDBRANCH  28  29
ENDBRANCH  24  28
ENDBRANCH  14  22
ENDBRANCH   5   6
ENDBRANCH   4   5
ENDBRANCH   3   4
ENDBRANCH   2   3
ENDBRANCH   1   2
BRANCH   1  39
ATOM     39  C   UNL     1      -6.245   6.437   1.006  1.00  0.00     0.188 C 
BRANCH  39  40
ATOM     40  O   UNL     1      -6.700   5.559   2.033  1.00  0.00    -0.376 OA
BRANCH  40  41
ATOM     41  C   UNL     1      -7.999   5.784   2.557  1.00  0.00     0.202 C 
BRANCH  41  42
ATOM     42  C   UNL     1      -8.104   5.017   3.885  1.00  0.00     0.261 C 
BRANCH  42  43
ATOM     43  O   UNL     1      -8.127   3.598   3.614  1.00  0.00    -0.460 OA
BRANCH  43  44
ATOM     44  C   UNL     1      -7.033   2.855   3.956  1.00  0.00     0.338 C 
ATOM     45  O   UNL     1      -6.204   3.140   4.799  1.00  0.00    -0.246 OA
BRANCH  44  46
ATOM     46  C   UNL     1      -6.974   1.648   3.064  1.00  0.00     0.060 A 
ATOM     47  C   UNL     1      -5.797   0.899   2.908  1.00  0.00     0.016 A 
ATOM     48  C   UNL     1      -8.054   1.331   2.253  1.00  0.00     0.016 A 
ATOM     49  C   UNL     1      -5.655  -0.035   1.845  1.00  0.00     0.010 A 
ATOM     50  C   UNL     1      -7.867   0.491   1.153  1.00  0.00     0.010 A 
ATOM     51  C   UNL     1      -6.629  -0.135   0.845  1.00  0.00    -0.014 A 
BRANCH  51  52
ATOM     52  C   UNL     1      -6.653  -0.957  -0.491  1.00  0.00     0.031 A 
ATOM     53  C   UNL     1      -7.928  -2.061   0.018  1.00  0.00     0.074 A 
ATOM     54  C   UNL     1      -6.040  -0.647  -1.917  1.00  0.00     0.049 A 
ATOM     55  N   UNL     1      -9.071  -2.363  -0.546  1.00  0.00    -0.248 NA
ATOM     56  C   UNL     1      -7.793  -2.873   1.240  1.00  0.00     0.031 C 
ATOM     57  C   UNL     1      -6.631  -0.772  -3.506  1.00  0.00     0.029 A 
ATOM     58  N   UNL     1      -4.836  -0.144  -2.459  1.00  0.00    -0.354 N 
ATOM     59  C   UNL     1      -9.367  -3.669  -0.289  1.00  0.00     0.074 A 
ATOM     60  C   UNL     1      -8.729  -3.823   1.033  1.00  0.00     0.031 C 
ATOM     61  C   UNL     1      -6.045  -0.005  -4.402  1.00  0.00     0.029 A 
ATOM     62  C   UNL     1      -4.768   0.120  -3.828  1.00  0.00     0.049 A 
ATOM     63  H   UNL     1      -4.057   0.017  -1.880  1.00  0.00     0.167 HD
ATOM     64  C   UNL     1      -9.553  -4.676  -1.245  1.00  0.00     0.031 A 
ATOM     65  C   UNL     1      -3.799  -0.289  -4.663  1.00  0.00     0.031 A 
ATOM     66  C   UNL     1      -9.030  -4.595  -2.697  1.00  0.00     0.049 A 
ATOM     67  C   UNL     1      -4.039  -1.765  -5.115  1.00  0.00     0.074 A 
ATOM     68  C   UNL     1      -9.454  -3.976  -3.873  1.00  0.00     0.029 A 
ATOM     69  N   UNL     1      -7.881  -5.321  -3.184  1.00  0.00    -0.354 N 
ATOM     70  N   UNL     1      -5.169  -2.457  -4.949  1.00  0.00    -0.248 NA
ATOM     71  C   UNL     1      -3.038  -2.589  -5.768  1.00  0.00     0.031 C 
ATOM     72  C   UNL     1      -8.391  -3.985  -4.861  1.00  0.00     0.029 A 
ATOM     73  C   UNL     1      -7.303  -4.694  -4.373  1.00  0.00     0.049 A 
ATOM     74  H   UNL     1      -7.528  -6.139  -2.766  1.00  0.00     0.167 HD
ATOM     75  C   UNL     1      -4.997  -3.806  -5.196  1.00  0.00     0.074 A 
ATOM     76  C   UNL     1      -3.660  -3.786  -5.822  1.00  0.00     0.031 C 
ATOM     77  C   UNL     1      -5.832  -4.867  -4.802  1.00  0.00     0.031 A 
BRANCH  64  78
ATOM     78  C   UNL     1     -10.741  -5.567  -0.909  1.00  0.00    -0.014 A 
ATOM     79  C   UNL     1     -11.541  -6.052  -1.961  1.00  0.00     0.010 A 
ATOM     80  C   UNL     1     -11.197  -5.826   0.402  1.00  0.00     0.010 A 
ATOM     81  C   UNL     1     -12.756  -6.705  -1.721  1.00  0.00     0.020 A 
ATOM     82  C   UNL     1     -12.408  -6.481   0.656  1.00  0.00     0.020 A 
ATOM     83  C   UNL     1     -13.190  -6.902  -0.412  1.00  0.00     0.054 A 
BRANCH  83  84
ATOM     84  S   UNL     1     -14.805  -7.665  -0.127  1.00  0.00     0.124 S 
ATOM     85  O   UNL     1     -15.705  -6.777  -0.858  1.00  0.00    -0.237 OA
ATOM     86  O   UNL     1     -14.625  -8.995  -0.702  1.00  0.00    -0.237 OA
ATOM     87  O   UNL     1     -14.953  -7.633   1.327  1.00  0.00    -0.744 OA
ENDBRANCH  83  84
ENDBRANCH  64  78
BRANCH  65  88
ATOM     88  C   UNL     1      -2.871   0.889  -4.694  1.00  0.00    -0.014 A 
ATOM     89  C   UNL     1      -3.481   2.134  -5.094  1.00  0.00     0.010 A 
ATOM     90  C   UNL     1      -1.846   0.986  -3.739  1.00  0.00     0.010 A 
ATOM     91  C   UNL     1      -3.250   3.343  -4.409  1.00  0.00     0.020 A 
ATOM     92  C   UNL     1      -1.567   2.219  -3.097  1.00  0.00     0.020 A 
ATOM     93  C   UNL     1      -2.318   3.368  -3.382  1.00  0.00     0.054 A 
BRANCH  93  94
ATOM     94  S   UNL     1      -2.201   4.832  -2.294  1.00  0.00     0.124 S 
ATOM     95  O   UNL     1      -0.806   5.227  -2.438  1.00  0.00    -0.237 OA
ATOM     96  O   UNL     1      -3.186   5.762  -2.844  1.00  0.00    -0.237 OA
ATOM     97  O   UNL     1      -2.572   4.275  -1.001  1.00  0.00    -0.744 OA
ENDBRANCH  93  94
ENDBRANCH  65  88
BRANCH  77  98
ATOM     98  C   UNL     1      -5.242  -6.276  -4.753  1.00  0.00    -0.014 A 
ATOM     99  C   UNL     1      -3.865  -6.553  -4.608  1.00  0.00     0.010 A 
ATOM    100  C   UNL     1      -6.103  -7.391  -4.762  1.00  0.00     0.010 A 
ATOM    101  C   UNL     1      -3.361  -7.859  -4.646  1.00  0.00     0.020 A 
ATOM    102  C   UNL     1      -5.619  -8.704  -4.708  1.00  0.00     0.020 A 
ATOM    103  C   UNL     1      -4.246  -8.928  -4.715  1.00  0.00     0.054 A 
BRANCH 103 104
ATOM    104  S   UNL     1      -3.602 -10.617  -4.800  1.00  0.00     0.124 S 
ATOM    105  O   UNL     1      -3.449 -10.802  -6.240  1.00  0.00    -0.237 OA
ATOM    106  O   UNL     1      -2.354 -10.534  -4.045  1.00  0.00    -0.237 OA
ATOM    107  O   UNL     1      -4.654 -11.410  -4.171  1.00  0.00    -0.744 OA
ENDBRANCH 103 104
ENDBRANCH  77  98
ENDBRANCH  51  52
ENDBRANCH  44  46
ENDBRANCH  43  44
ENDBRANCH  42  43
ENDBRANCH  41  42
ENDBRANCH  40  41
ENDBRANCH  39  40
ENDBRANCH   1  39
TORSDOF 25
