REMARK SMILES CC(C)(C)c1cc(Nc2ccccc2C(=O)OCCOCCOCCOC(=O)c2ccc(-c3c4nc(c(-c5ccc(S(=O)(=O)[O-])cc5)c5ccc([nH]5)c(-c5ccc(S(=O)(=O)[O-])cc5)c5nc(c(-c6ccc(S(=O)(=O)[O-])cc6)c6ccc3[nH]6)C=C5)C=C4)cc2)cc2c1OCC2(C)C
REMARK SMILES IDX 21 1 20 2 19 3 18 4 17 5 15 6 16 7 14 8 9 9 10 10 11 11
REMARK SMILES IDX 13 12 12 13 8 14 7 16 5 17 6 18 91 19 90 20 92 21 89 22
REMARK SMILES IDX 94 23 93 24 95 25 96 26 2 27 1 28 3 29 4 30 22 31 23 32
REMARK SMILES IDX 24 33 25 34 26 35 27 36 28 37 29 38 30 39 88 40 31 41 87 42
REMARK SMILES IDX 32 43 33 44 34 45 81 46 35 47 86 48 80 49 82 50 36 51 85 52
REMARK SMILES IDX 79 53 78 54 37 56 67 57 48 58 66 59 49 60 52 61 65 62 83 63
REMARK SMILES IDX 50 64 51 65 64 67 84 68 53 69 38 70 39 71 47 72 40 73 46 74
REMARK SMILES IDX 41 75 42 76 43 77 44 78 45 79 68 80 69 81 77 82 70 83 76 84
REMARK SMILES IDX 71 85 72 86 73 87 74 88 75 89 54 90 55 91 63 92 56 93 62 94
REMARK SMILES IDX 57 95 58 96 59 97 60 98 61 99
REMARK H PARENT 8 15 82 55 52 66
REMARK Flexibility Score: inf
ROOT
ATOM      1  C   UNL     1       6.750  -3.507  -4.084  1.00  0.00     0.188 C 
ENDROOT
BRANCH   1   2
ATOM      2  O   UNL     1       7.586  -2.432  -3.696  1.00  0.00    -0.376 OA
BRANCH   2   3
ATOM      3  C   UNL     1       7.038  -1.131  -3.531  1.00  0.00     0.202 C 
BRANCH   3   4
ATOM      4  C   UNL     1       6.128  -0.547  -4.611  1.00  0.00     0.261 C 
BRANCH   4   5
ATOM      5  O   UNL     1       4.961  -1.352  -4.849  1.00  0.00    -0.460 OA
BRANCH   5   6
ATOM      6  C   UNL     1       4.752  -1.669  -6.151  1.00  0.00     0.340 C 
ATOM      7  O   UNL     1       5.379  -1.227  -7.102  1.00  0.00    -0.246 OA
BRANCH   6   8
ATOM      8  C   UNL     1       3.745  -2.744  -6.315  1.00  0.00     0.083 A 
ATOM      9  C   UNL     1       2.559  -2.862  -5.567  1.00  0.00     0.053 A 
ATOM     10  C   UNL     1       1.638  -3.849  -5.975  1.00  0.00     0.027 A 
ATOM     11  C   UNL     1       1.946  -4.787  -6.963  1.00  0.00     0.002 A 
ATOM     12  C   UNL     1       4.054  -3.697  -7.307  1.00  0.00     0.018 A 
ATOM     13  C   UNL     1       3.175  -4.736  -7.602  1.00  0.00     0.001 A 
BRANCH   9  14
ATOM     14  N   UNL     1       2.338  -2.161  -4.356  1.00  0.00    -0.355 N 
ATOM     15  H   UNL     1       2.542  -1.198  -4.370  1.00  0.00     0.167 HD
BRANCH  14  16
ATOM     16  C   UNL     1       1.857  -2.677  -3.124  1.00  0.00     0.039 A 
ATOM     17  C   UNL     1       0.896  -2.251  -0.869  1.00  0.00     0.002 A 
ATOM     18  C   UNL     1       1.463  -1.797  -2.090  1.00  0.00     0.034 A 
ATOM     19  C   UNL     1       0.697  -3.630  -0.771  1.00  0.00     0.127 A 
ATOM     20  C   UNL     1       1.097  -4.510  -1.761  1.00  0.00     0.006 A 
ATOM     21  O   UNL     1       0.054  -4.266   0.262  1.00  0.00    -0.492 OA
ATOM     22  C   UNL     1       1.695  -4.050  -2.918  1.00  0.00     0.034 A 
ATOM     23  C   UNL     1       0.722  -5.910  -1.421  1.00  0.00     0.028 C 
ATOM     24  C   UNL     1       0.236  -5.682   0.021  1.00  0.00     0.240 C 
ATOM     25  C   UNL     1      -0.409  -6.399  -2.336  1.00  0.00     0.020 C 
ATOM     26  C   UNL     1       1.905  -6.879  -1.475  1.00  0.00     0.020 C 
BRANCH  17  27
ATOM     27  C   UNL     1       0.495  -1.292   0.265  1.00  0.00    -0.009 C 
ATOM     28  C   UNL     1       0.992   0.158   0.050  1.00  0.00     0.016 C 
ATOM     29  C   UNL     1       1.089  -1.749   1.619  1.00  0.00     0.016 C 
ATOM     30  C   UNL     1      -1.042  -1.241   0.371  1.00  0.00     0.016 C 
ENDBRANCH  17  27
ENDBRANCH  14  16
ENDBRANCH   9  14
ENDBRANCH   6   8
ENDBRANCH   5   6
ENDBRANCH   4   5
ENDBRANCH   3   4
ENDBRANCH   2   3
ENDBRANCH   1   2
BRANCH   1  31
ATOM     31  C   UNL     1       5.511  -3.880  -3.245  1.00  0.00     0.188 C 
BRANCH  31  32
ATOM     32  O   UNL     1       5.229  -3.203  -2.035  1.00  0.00    -0.376 OA
BRANCH  32  33
ATOM     33  C   UNL     1       6.186  -3.230  -0.986  1.00  0.00     0.202 C 
BRANCH  33  34
ATOM     34  C   UNL     1       6.739  -4.572  -0.505  1.00  0.00     0.261 C 
BRANCH  34  35
ATOM     35  O   UNL     1       7.444  -5.286  -1.531  1.00  0.00    -0.460 OA
BRANCH  35  36
ATOM     36  C   UNL     1       6.960  -6.518  -1.824  1.00  0.00     0.338 C 
ATOM     37  O   UNL     1       6.023  -7.093  -1.293  1.00  0.00    -0.246 OA
BRANCH  36  38
ATOM     38  C   UNL     1       7.621  -7.000  -3.050  1.00  0.00     0.060 A 
ATOM     39  C   UNL     1       9.007  -7.150  -3.102  1.00  0.00     0.016 A 
ATOM     40  C   UNL     1       6.826  -7.298  -4.164  1.00  0.00     0.016 A 
ATOM     41  C   UNL     1       9.600  -7.622  -4.275  1.00  0.00     0.010 A 
ATOM     42  C   UNL     1       7.422  -7.749  -5.342  1.00  0.00     0.010 A 
ATOM     43  C   UNL     1       8.812  -7.930  -5.398  1.00  0.00    -0.014 A 
BRANCH  43  44
ATOM     44  C   UNL     1       9.426  -8.591  -6.572  1.00  0.00     0.031 A 
ATOM     45  C   UNL     1       9.833  -7.819  -7.788  1.00  0.00     0.074 A 
ATOM     46  C   UNL     1       9.613  -9.924  -6.517  1.00  0.00     0.049 A 
ATOM     47  N   UNL     1      10.446  -8.253  -8.859  1.00  0.00    -0.248 NA
ATOM     48  C   UNL     1       9.519  -6.382  -7.812  1.00  0.00     0.031 C 
ATOM     49  C   UNL     1       9.241 -10.771  -5.381  1.00  0.00     0.029 A 
ATOM     50  N   UNL     1      10.162 -10.796  -7.421  1.00  0.00    -0.354 N 
ATOM     51  C   UNL     1      10.627  -7.142  -9.671  1.00  0.00     0.074 A 
ATOM     52  C   UNL     1      10.011  -6.020  -8.993  1.00  0.00     0.031 C 
ATOM     53  C   UNL     1       9.583 -12.038  -5.652  1.00  0.00     0.029 A 
ATOM     54  C   UNL     1      10.176 -12.100  -6.987  1.00  0.00     0.049 A 
ATOM     55  H   UNL     1      10.513 -10.515  -8.297  1.00  0.00     0.167 HD
ATOM     56  C   UNL     1      11.272  -7.070 -10.859  1.00  0.00     0.031 A 
ATOM     57  C   UNL     1      10.615 -13.224  -7.587  1.00  0.00     0.031 A 
ATOM     58  C   UNL     1      11.860  -8.203 -11.531  1.00  0.00     0.049 A 
ATOM     59  C   UNL     1      11.265 -13.128  -8.937  1.00  0.00     0.074 A 
ATOM     60  C   UNL     1      12.561  -8.217 -12.725  1.00  0.00     0.029 A 
ATOM     61  N   UNL     1      11.812  -9.515 -11.084  1.00  0.00    -0.354 N 
ATOM     62  N   UNL     1      11.495 -12.057  -9.658  1.00  0.00    -0.248 NA
ATOM     63  C   UNL     1      11.729 -14.380  -9.552  1.00  0.00     0.031 C 
ATOM     64  C   UNL     1      12.871  -9.541 -13.036  1.00  0.00     0.029 A 
ATOM     65  C   UNL     1      12.434 -10.350 -11.998  1.00  0.00     0.049 A 
ATOM     66  H   UNL     1      11.397  -9.810 -10.241  1.00  0.00     0.167 HD
ATOM     67  C   UNL     1      12.138 -12.503 -10.806  1.00  0.00     0.074 A 
ATOM     68  C   UNL     1      12.281 -13.938 -10.676  1.00  0.00     0.031 C 
ATOM     69  C   UNL     1      12.565 -11.781 -11.870  1.00  0.00     0.031 A 
BRANCH  56  70
ATOM     70  C   UNL     1      11.425  -5.724 -11.521  1.00  0.00    -0.014 A 
ATOM     71  C   UNL     1      10.800  -5.469 -12.756  1.00  0.00     0.010 A 
ATOM     72  C   UNL     1      12.333  -4.781 -11.007  1.00  0.00     0.010 A 
ATOM     73  C   UNL     1      11.116  -4.321 -13.488  1.00  0.00     0.020 A 
ATOM     74  C   UNL     1      12.633  -3.619 -11.724  1.00  0.00     0.020 A 
ATOM     75  C   UNL     1      12.044  -3.410 -12.973  1.00  0.00     0.054 A 
BRANCH  75  76
ATOM     76  S   UNL     1      12.493  -1.961 -13.968  1.00  0.00     0.124 S 
ATOM     77  O   UNL     1      13.316  -2.550 -15.020  1.00  0.00    -0.237 OA
ATOM     78  O   UNL     1      11.192  -1.452 -14.395  1.00  0.00    -0.237 OA
ATOM     79  O   UNL     1      13.207  -1.104 -13.023  1.00  0.00    -0.744 OA
ENDBRANCH  75  76
ENDBRANCH  56  70
BRANCH  57  80
ATOM     80  C   UNL     1      10.464 -14.521  -6.874  1.00  0.00    -0.014 A 
ATOM     81  C   UNL     1       9.181 -15.054  -6.645  1.00  0.00     0.010 A 
ATOM     82  C   UNL     1      11.583 -15.171  -6.326  1.00  0.00     0.010 A 
ATOM     83  C   UNL     1       9.013 -16.174  -5.829  1.00  0.00     0.020 A 
ATOM     84  C   UNL     1      11.421 -16.312  -5.533  1.00  0.00     0.020 A 
ATOM     85  C   UNL     1      10.134 -16.786  -5.264  1.00  0.00     0.054 A 
BRANCH  85  86
ATOM     86  S   UNL     1       9.887 -18.198  -4.152  1.00  0.00     0.124 S 
ATOM     87  O   UNL     1       9.423 -17.541  -2.934  1.00  0.00    -0.237 OA
ATOM     88  O   UNL     1       8.885 -18.991  -4.861  1.00  0.00    -0.237 OA
ATOM     89  O   UNL     1      11.213 -18.805  -4.071  1.00  0.00    -0.744 OA
ENDBRANCH  85  86
ENDBRANCH  57  80
BRANCH  69  90
ATOM     90  C   UNL     1      13.214 -12.510 -13.019  1.00  0.00    -0.014 A 
ATOM     91  C   UNL     1      14.575 -12.295 -13.309  1.00  0.00     0.010 A 
ATOM     92  C   UNL     1      12.435 -13.268 -13.912  1.00  0.00     0.010 A 
ATOM     93  C   UNL     1      15.131 -12.775 -14.497  1.00  0.00     0.020 A 
ATOM     94  C   UNL     1      12.996 -13.774 -15.088  1.00  0.00     0.020 A 
ATOM     95  C   UNL     1      14.332 -13.496 -15.389  1.00  0.00     0.054 A 
BRANCH  95  96
ATOM     96  S   UNL     1      15.050 -14.039 -16.964  1.00  0.00     0.124 S 
ATOM     97  O   UNL     1      15.136 -12.787 -17.710  1.00  0.00    -0.237 OA
ATOM     98  O   UNL     1      16.328 -14.615 -16.552  1.00  0.00    -0.237 OA
ATOM     99  O   UNL     1      14.076 -15.002 -17.472  1.00  0.00    -0.744 OA
ENDBRANCH  95  96
ENDBRANCH  69  90
ENDBRANCH  43  44
ENDBRANCH  36  38
ENDBRANCH  35  36
ENDBRANCH  34  35
ENDBRANCH  33  34
ENDBRANCH  32  33
ENDBRANCH  31  32
ENDBRANCH   1  31
TORSDOF 23
