REMARK SMILES COc1cc([N+](=O)[O-])cc([C@H]2[NH2+][C@H](C(=O)OCCOCCOCCOC(=O)c3ccc(-c4c5nc(c(-c6ccc(S(=O)(=O)[O-])cc6)c6ccc([nH]6)c(-c6ccc(S(=O)(=O)[O-])cc6)c6nc(c(-c7ccc(S(=O)(=O)[O-])cc7)c7ccc4[nH]7)C=C6)C=C5)cc3)CS2)c1O
REMARK SMILES IDX 21 1 20 2 19 3 18 4 17 5 16 6 14 7 15 8 13 9 11 10 12 11
REMARK SMILES IDX 89 12 88 15 10 16 3 17 4 18 90 19 5 20 9 21 2 22 1 23 91 24
REMARK SMILES IDX 6 26 7 27 8 28 22 29 23 30 24 31 25 32 26 33 27 34 28 35
REMARK SMILES IDX 29 36 87 37 30 38 86 39 31 40 32 41 33 42 80 43 34 44 85 45
REMARK SMILES IDX 79 46 81 47 35 48 84 49 78 50 77 51 36 53 66 54 47 55 65 56
REMARK SMILES IDX 48 57 51 58 64 59 82 60 49 61 50 62 63 64 83 65 52 66 37 67
REMARK SMILES IDX 38 68 46 69 39 70 45 71 40 72 41 73 42 74 43 75 44 76 67 77
REMARK SMILES IDX 68 78 76 79 69 80 75 81 70 82 71 83 72 84 73 85 74 86 53 87
REMARK SMILES IDX 54 88 62 89 55 90 61 91 56 92 57 93 58 94 59 95 60 96
REMARK H PARENT 12 13 12 14 91 25 81 52 51 63
REMARK Flexibility Score: inf
ROOT
ATOM      1  C   UNL     1      -3.346   0.302  -1.114  1.00  0.00     0.188 C 
ENDROOT
BRANCH   1   2
ATOM      2  C   UNL     1      -2.993  -0.110   0.328  1.00  0.00     0.188 C 
BRANCH   2   3
ATOM      3  O   UNL     1      -2.223   0.768   1.137  1.00  0.00    -0.376 OA
BRANCH   3   4
ATOM      4  C   UNL     1      -1.025   1.327   0.618  1.00  0.00     0.202 C 
BRANCH   4   5
ATOM      5  C   UNL     1      -0.018   0.463  -0.163  1.00  0.00     0.261 C 
BRANCH   5   6
ATOM      6  O   UNL     1      -0.568  -0.416  -1.166  1.00  0.00    -0.459 OA
BRANCH   6   7
ATOM      7  C   UNL     1      -0.358  -1.742  -0.964  1.00  0.00     0.365 C 
ATOM      8  O   UNL     1       0.289  -2.193  -0.020  1.00  0.00    -0.245 OA
BRANCH   7   9
ATOM      9  C   UNL     1      -0.980  -2.692  -1.998  1.00  0.00     0.304 C 
ATOM     10  C   UNL     1      -1.104  -1.587  -4.145  1.00  0.00     0.278 C 
ATOM     11  N   UNL     1      -1.892  -2.139  -3.041  1.00  0.00    -0.319 N 
ATOM     12  S   UNL     1       0.524  -2.400  -4.133  1.00  0.00    -0.087 SA
ATOM     13  H   UNL     1      -2.494  -2.883  -3.393  1.00  0.00     0.348 HD
ATOM     14  H   UNL     1      -2.463  -1.400  -2.631  1.00  0.00     0.348 HD
ATOM     15  C   UNL     1       0.135  -3.442  -2.702  1.00  0.00     0.153 C 
BRANCH  10  16
ATOM     16  C   UNL     1      -1.862  -1.656  -5.480  1.00  0.00     0.073 A 
ATOM     17  C   UNL     1      -2.502  -2.658  -7.649  1.00  0.00     0.167 A 
ATOM     18  C   UNL     1      -3.350  -1.578  -7.902  1.00  0.00     0.136 A 
ATOM     19  C   UNL     1      -1.770  -2.697  -6.442  1.00  0.00     0.168 A 
ATOM     20  C   UNL     1      -3.488  -0.561  -6.958  1.00  0.00     0.273 A 
ATOM     21  C   UNL     1      -2.767  -0.601  -5.754  1.00  0.00     0.100 A 
BRANCH  17  22
ATOM     22  O   UNL     1      -2.513  -3.562  -8.679  1.00  0.00    -0.493 OA
ATOM     23  C   UNL     1      -1.624  -4.667  -8.649  1.00  0.00     0.278 C 
ENDBRANCH  17  22
BRANCH  19  24
ATOM     24  O   UNL     1      -0.974  -3.785  -6.212  1.00  0.00    -0.504 OA
ATOM     25  H   UNL     1      -0.918  -4.469  -6.850  1.00  0.00     0.293 HD
ENDBRANCH  19  24
BRANCH  20  26
ATOM     26  N   UNL     1      -4.380   0.570  -7.252  1.00  0.00     0.062 N 
ATOM     27  O   UNL     1      -4.863   0.643  -8.391  1.00  0.00    -0.258 OA
ATOM     28  O   UNL     1      -4.574   1.397  -6.352  1.00  0.00    -0.258 OA
ENDBRANCH  20  26
ENDBRANCH  10  16
ENDBRANCH   7   9
ENDBRANCH   6   7
ENDBRANCH   5   6
ENDBRANCH   4   5
ENDBRANCH   3   4
ENDBRANCH   2   3
ENDBRANCH   1   2
BRANCH   1  29
ATOM     29  O   UNL     1      -2.709   1.466  -1.583  1.00  0.00    -0.376 OA
BRANCH  29  30
ATOM     30  C   UNL     1      -3.400   2.703  -1.551  1.00  0.00     0.202 C 
BRANCH  30  31
ATOM     31  C   UNL     1      -4.576   3.043  -0.610  1.00  0.00     0.261 C 
BRANCH  31  32
ATOM     32  O   UNL     1      -5.198   1.986   0.126  1.00  0.00    -0.460 OA
BRANCH  32  33
ATOM     33  C   UNL     1      -6.282   1.417  -0.448  1.00  0.00     0.338 C 
ATOM     34  O   UNL     1      -6.758   1.687  -1.546  1.00  0.00    -0.246 OA
BRANCH  33  35
ATOM     35  C   UNL     1      -6.695   0.256   0.360  1.00  0.00     0.060 A 
ATOM     36  C   UNL     1      -6.613  -1.025  -0.205  1.00  0.00     0.016 A 
ATOM     37  C   UNL     1      -7.204   0.431   1.648  1.00  0.00     0.016 A 
ATOM     38  C   UNL     1      -7.086  -2.131   0.498  1.00  0.00     0.010 A 
ATOM     39  C   UNL     1      -7.701  -0.676   2.341  1.00  0.00     0.010 A 
ATOM     40  C   UNL     1      -7.686  -1.953   1.750  1.00  0.00    -0.014 A 
BRANCH  40  41
ATOM     41  C   UNL     1      -8.520  -3.039   2.321  1.00  0.00     0.031 A 
ATOM     42  C   UNL     1     -10.008  -2.980   2.086  1.00  0.00     0.074 A 
ATOM     43  C   UNL     1      -7.983  -4.067   3.002  1.00  0.00     0.049 A 
ATOM     44  N   UNL     1     -10.951  -3.772   2.524  1.00  0.00    -0.248 NA
ATOM     45  C   UNL     1     -10.495  -1.873   1.243  1.00  0.00     0.031 C 
ATOM     46  C   UNL     1      -6.556  -4.274   3.244  1.00  0.00     0.029 A 
ATOM     47  N   UNL     1      -8.588  -5.133   3.620  1.00  0.00    -0.354 N 
ATOM     48  C   UNL     1     -12.140  -3.254   2.022  1.00  0.00     0.074 A 
ATOM     49  C   UNL     1     -11.804  -2.064   1.273  1.00  0.00     0.031 C 
ATOM     50  C   UNL     1      -6.397  -5.396   3.969  1.00  0.00     0.029 A 
ATOM     51  C   UNL     1      -7.709  -5.966   4.272  1.00  0.00     0.049 A 
ATOM     52  H   UNL     1      -9.560  -5.287   3.599  1.00  0.00     0.167 HD
ATOM     53  C   UNL     1     -13.400  -3.729   2.163  1.00  0.00     0.031 A 
ATOM     54  C   UNL     1      -7.942  -7.049   5.041  1.00  0.00     0.031 A 
ATOM     55  C   UNL     1     -13.735  -4.905   2.920  1.00  0.00     0.049 A 
ATOM     56  C   UNL     1      -9.363  -7.510   5.257  1.00  0.00     0.074 A 
ATOM     57  C   UNL     1     -14.982  -5.467   3.129  1.00  0.00     0.029 A 
ATOM     58  N   UNL     1     -12.819  -5.697   3.595  1.00  0.00    -0.354 N 
ATOM     59  N   UNL     1     -10.477  -7.013   4.773  1.00  0.00    -0.248 NA
ATOM     60  C   UNL     1      -9.555  -8.688   6.116  1.00  0.00     0.031 C 
ATOM     61  C   UNL     1     -14.826  -6.568   3.976  1.00  0.00     0.029 A 
ATOM     62  C   UNL     1     -13.475  -6.734   4.236  1.00  0.00     0.049 A 
ATOM     63  H   UNL     1     -11.847  -5.545   3.616  1.00  0.00     0.167 HD
ATOM     64  C   UNL     1     -11.496  -7.845   5.233  1.00  0.00     0.074 A 
ATOM     65  C   UNL     1     -10.865  -8.878   6.027  1.00  0.00     0.031 C 
ATOM     66  C   UNL     1     -12.832  -7.765   5.011  1.00  0.00     0.031 A 
BRANCH  53  67
ATOM     67  C   UNL     1     -14.512  -2.953   1.510  1.00  0.00    -0.014 A 
ATOM     68  C   UNL     1     -14.658  -2.922   0.111  1.00  0.00     0.010 A 
ATOM     69  C   UNL     1     -15.446  -2.269   2.310  1.00  0.00     0.010 A 
ATOM     70  C   UNL     1     -15.696  -2.194  -0.476  1.00  0.00     0.020 A 
ATOM     71  C   UNL     1     -16.504  -1.565   1.728  1.00  0.00     0.020 A 
ATOM     72  C   UNL     1     -16.613  -1.520   0.337  1.00  0.00     0.054 A 
BRANCH  72  73
ATOM     73  S   UNL     1     -17.968  -0.609  -0.452  1.00  0.00     0.124 S 
ATOM     74  O   UNL     1     -17.264   0.529  -1.040  1.00  0.00    -0.237 OA
ATOM     75  O   UNL     1     -18.494  -1.582  -1.406  1.00  0.00    -0.237 OA
ATOM     76  O   UNL     1     -18.860  -0.283   0.657  1.00  0.00    -0.744 OA
ENDBRANCH  72  73
ENDBRANCH  53  67
BRANCH  54  77
ATOM     77  C   UNL     1      -6.808  -7.774   5.682  1.00  0.00    -0.014 A 
ATOM     78  C   UNL     1      -6.483  -9.085   5.293  1.00  0.00     0.010 A 
ATOM     79  C   UNL     1      -6.062  -7.163   6.707  1.00  0.00     0.010 A 
ATOM     80  C   UNL     1      -5.453  -9.782   5.933  1.00  0.00     0.020 A 
ATOM     81  C   UNL     1      -5.011  -7.845   7.329  1.00  0.00     0.020 A 
ATOM     82  C   UNL     1      -4.723  -9.156   6.947  1.00  0.00     0.054 A 
BRANCH  82  83
ATOM     83  S   UNL     1      -3.367 -10.067   7.737  1.00  0.00     0.124 S 
ATOM     84  O   UNL     1      -4.088 -11.052   8.537  1.00  0.00    -0.237 OA
ATOM     85  O   UNL     1      -2.634 -10.596   6.590  1.00  0.00    -0.237 OA
ATOM     86  O   UNL     1      -2.661  -9.037   8.498  1.00  0.00    -0.744 OA
ENDBRANCH  82  83
ENDBRANCH  54  77
BRANCH  66  87
ATOM     87  C   UNL     1     -13.703  -8.859   5.574  1.00  0.00    -0.014 A 
ATOM     88  C   UNL     1     -13.944  -8.978   6.954  1.00  0.00     0.010 A 
ATOM     89  C   UNL     1     -14.339  -9.752   4.691  1.00  0.00     0.010 A 
ATOM     90  C   UNL     1     -14.772  -9.994   7.442  1.00  0.00     0.020 A 
ATOM     91  C   UNL     1     -15.193 -10.747   5.171  1.00  0.00     0.020 A 
ATOM     92  C   UNL     1     -15.391 -10.873   6.547  1.00  0.00     0.054 A 
BRANCH  92  93
ATOM     93  S   UNL     1     -16.489 -12.159   7.202  1.00  0.00     0.124 S 
ATOM     94  O   UNL     1     -15.540 -13.089   7.807  1.00  0.00    -0.237 OA
ATOM     95  O   UNL     1     -17.328 -11.418   8.140  1.00  0.00    -0.237 OA
ATOM     96  O   UNL     1     -17.182 -12.661   6.017  1.00  0.00    -0.744 OA
ENDBRANCH  92  93
ENDBRANCH  66  87
ENDBRANCH  40  41
ENDBRANCH  33  35
ENDBRANCH  32  33
ENDBRANCH  31  32
ENDBRANCH  30  31
ENDBRANCH  29  30
ENDBRANCH   1  29
TORSDOF 24
