REMARK SMILES COc1ccc2c(c1)C=C(C(=O)OCCOCCOCCOC(=O)c1ccc(-c3c4nc(c(-c5ccc(S(=O)(=O)[O-])cc5)c5ccc([nH]5)c(-c5ccc(S(=O)(=O)[O-])cc5)c5nc(c(-c6ccc(S(=O)(=O)[O-])cc6)c6ccc3[nH]6)C=C5)C=C4)cc1)[C@H](C(F)(F)F)O2
REMARK SMILES IDX 18 1 17 2 16 3 15 4 14 5 13 6 11 7 12 8 10 9 3 10 4 11 8 12
REMARK SMILES IDX 5 13 7 14 6 15 9 16 90 17 85 18 2 19 1 20 86 21 87 22 88 23
REMARK SMILES IDX 89 24 19 25 20 26 21 27 22 28 23 29 24 30 25 31 26 32 84 33
REMARK SMILES IDX 27 34 83 35 28 36 29 37 30 38 77 39 31 40 82 41 76 42 78 43
REMARK SMILES IDX 32 44 81 45 75 46 74 47 33 49 63 50 44 51 62 52 45 53 48 54
REMARK SMILES IDX 61 55 79 56 46 57 47 58 60 60 80 61 49 62 34 63 35 64 43 65
REMARK SMILES IDX 36 66 42 67 37 68 38 69 39 70 40 71 41 72 64 73 65 74 73 75
REMARK SMILES IDX 66 76 72 77 67 78 68 79 69 80 70 81 71 82 50 83 51 84 59 85
REMARK SMILES IDX 52 86 58 87 53 88 54 89 55 90 56 91 57 92
REMARK H PARENT 78 48 48 59
REMARK Flexibility Score: inf
ROOT
ATOM      1  C   UNL     1      -2.561   7.007  -3.363  1.00  0.00     0.188 C 
ENDROOT
BRANCH   1   2
ATOM      2  C   UNL     1      -2.293   7.984  -4.526  1.00  0.00     0.188 C 
BRANCH   2   3
ATOM      3  O   UNL     1      -3.346   8.046  -5.477  1.00  0.00    -0.376 OA
BRANCH   3   4
ATOM      4  C   UNL     1      -3.040   7.548  -6.772  1.00  0.00     0.202 C 
BRANCH   4   5
ATOM      5  C   UNL     1      -3.091   6.021  -6.851  1.00  0.00     0.261 C 
BRANCH   5   6
ATOM      6  O   UNL     1      -2.183   5.364  -5.951  1.00  0.00    -0.460 OA
BRANCH   6   7
ATOM      7  C   UNL     1      -0.873   5.370  -6.290  1.00  0.00     0.338 C 
ATOM      8  O   UNL     1      -0.401   5.863  -7.298  1.00  0.00    -0.246 OA
BRANCH   7   9
ATOM      9  C   UNL     1      -0.081   4.762  -5.202  1.00  0.00     0.087 C 
ATOM     10  C   UNL     1       0.743   1.352  -1.891  1.00  0.00     0.119 A 
ATOM     11  C   UNL     1       2.059   1.804  -1.768  1.00  0.00     0.050 A 
ATOM     12  C   UNL     1      -0.109   1.948  -2.829  1.00  0.00     0.058 A 
ATOM     13  C   UNL     1       2.511   2.869  -2.551  1.00  0.00     0.051 A 
ATOM     14  C   UNL     1       0.337   3.014  -3.615  1.00  0.00     0.021 A 
ATOM     15  C   UNL     1       1.645   3.483  -3.451  1.00  0.00     0.128 A 
ATOM     16  C   UNL     1      -0.495   3.603  -4.661  1.00  0.00     0.027 C 
ATOM     17  O   UNL     1       2.150   4.512  -4.202  1.00  0.00    -0.475 OA
ATOM     18  C   UNL     1       1.148   5.462  -4.663  1.00  0.00     0.316 C 
BRANCH  10  19
ATOM     19  O   UNL     1       0.195   0.314  -1.186  1.00  0.00    -0.497 OA
ATOM     20  C   UNL     1       0.834  -0.010   0.045  1.00  0.00     0.278 C 
ENDBRANCH  10  19
BRANCH  18  21
ATOM     21  C   UNL     1       1.836   6.508  -5.553  1.00  0.00     0.430 C 
ATOM     22  F   UNL     1       1.002   7.547  -5.806  1.00  0.00    -0.167 F 
ATOM     23  F   UNL     1       2.906   7.038  -4.909  1.00  0.00    -0.167 F 
ATOM     24  F   UNL     1       2.272   6.000  -6.720  1.00  0.00    -0.167 F 
ENDBRANCH  18  21
ENDBRANCH   7   9
ENDBRANCH   6   7
ENDBRANCH   5   6
ENDBRANCH   4   5
ENDBRANCH   3   4
ENDBRANCH   2   3
ENDBRANCH   1   2
BRANCH   1  25
ATOM     25  O   UNL     1      -3.893   6.645  -3.015  1.00  0.00    -0.376 OA
BRANCH  25  26
ATOM     26  C   UNL     1      -4.927   7.612  -3.115  1.00  0.00     0.202 C 
BRANCH  26  27
ATOM     27  C   UNL     1      -4.866   8.827  -2.186  1.00  0.00     0.261 C 
BRANCH  27  28
ATOM     28  O   UNL     1      -3.629   9.556  -2.244  1.00  0.00    -0.460 OA
BRANCH  28  29
ATOM     29  C   UNL     1      -2.843   9.440  -1.145  1.00  0.00     0.338 C 
ATOM     30  O   UNL     1      -3.086   8.811  -0.129  1.00  0.00    -0.246 OA
BRANCH  29  31
ATOM     31  C   UNL     1      -1.527  10.062  -1.397  1.00  0.00     0.060 A 
ATOM     32  C   UNL     1      -0.383   9.281  -1.184  1.00  0.00     0.016 A 
ATOM     33  C   UNL     1      -1.410  11.406  -1.755  1.00  0.00     0.016 A 
ATOM     34  C   UNL     1       0.884   9.851  -1.293  1.00  0.00     0.010 A 
ATOM     35  C   UNL     1      -0.137  11.983  -1.841  1.00  0.00     0.010 A 
ATOM     36  C   UNL     1       1.012  11.216  -1.578  1.00  0.00    -0.014 A 
BRANCH  36  37
ATOM     37  C   UNL     1       2.332  11.875  -1.423  1.00  0.00     0.031 A 
ATOM     38  C   UNL     1       2.663  12.527  -0.107  1.00  0.00     0.074 A 
ATOM     39  C   UNL     1       3.232  11.877  -2.421  1.00  0.00     0.049 A 
ATOM     40  N   UNL     1       3.742  13.175   0.249  1.00  0.00    -0.248 NA
ATOM     41  C   UNL     1       1.640  12.432   0.947  1.00  0.00     0.031 C 
ATOM     42  C   UNL     1       3.056  11.236  -3.723  1.00  0.00     0.029 A 
ATOM     43  N   UNL     1       4.480  12.446  -2.490  1.00  0.00    -0.354 N 
ATOM     44  C   UNL     1       3.529  13.566   1.566  1.00  0.00     0.074 A 
ATOM     45  C   UNL     1       2.209  13.105   1.937  1.00  0.00     0.031 C 
ATOM     46  C   UNL     1       4.154  11.456  -4.467  1.00  0.00     0.029 A 
ATOM     47  C   UNL     1       5.096  12.277  -3.706  1.00  0.00     0.049 A 
ATOM     48  H   UNL     1       4.894  12.929  -1.738  1.00  0.00     0.167 HD
ATOM     49  C   UNL     1       4.357  14.247   2.394  1.00  0.00     0.031 A 
ATOM     50  C   UNL     1       6.275  12.746  -4.160  1.00  0.00     0.031 A 
ATOM     51  C   UNL     1       5.657  14.733   2.018  1.00  0.00     0.049 A 
ATOM     52  C   UNL     1       7.141  13.580  -3.251  1.00  0.00     0.074 A 
ATOM     53  C   UNL     1       6.571  15.432   2.788  1.00  0.00     0.029 A 
ATOM     54  N   UNL     1       6.223  14.584   0.761  1.00  0.00    -0.354 N 
ATOM     55  N   UNL     1       6.935  13.925  -2.002  1.00  0.00    -0.248 NA
ATOM     56  C   UNL     1       8.403  14.082  -3.814  1.00  0.00     0.031 C 
ATOM     57  C   UNL     1       7.668  15.750   1.980  1.00  0.00     0.029 A 
ATOM     58  C   UNL     1       7.462  15.201   0.724  1.00  0.00     0.049 A 
ATOM     59  H   UNL     1       5.805  14.110   0.007  1.00  0.00     0.167 HD
ATOM     60  C   UNL     1       8.054  14.662  -1.623  1.00  0.00     0.074 A 
ATOM     61  C   UNL     1       8.935  14.707  -2.771  1.00  0.00     0.031 C 
ATOM     62  C   UNL     1       8.328  15.242  -0.428  1.00  0.00     0.031 A 
BRANCH  49  63
ATOM     63  C   UNL     1       3.848  14.541   3.779  1.00  0.00    -0.014 A 
ATOM     64  C   UNL     1       3.734  13.524   4.744  1.00  0.00     0.010 A 
ATOM     65  C   UNL     1       3.479  15.855   4.121  1.00  0.00     0.010 A 
ATOM     66  C   UNL     1       3.212  13.806   6.009  1.00  0.00     0.020 A 
ATOM     67  C   UNL     1       2.980  16.145   5.393  1.00  0.00     0.020 A 
ATOM     68  C   UNL     1       2.829  15.114   6.322  1.00  0.00     0.054 A 
BRANCH  68  69
ATOM     69  S   UNL     1       2.145  15.453   7.967  1.00  0.00     0.124 S 
ATOM     70  O   UNL     1       0.797  14.900   7.852  1.00  0.00    -0.237 OA
ATOM     71  O   UNL     1       3.050  14.721   8.850  1.00  0.00    -0.237 OA
ATOM     72  O   UNL     1       2.213  16.908   8.078  1.00  0.00    -0.744 OA
ENDBRANCH  68  69
ENDBRANCH  49  63
BRANCH  50  73
ATOM     73  C   UNL     1       6.701  12.450  -5.554  1.00  0.00    -0.014 A 
ATOM     74  C   UNL     1       7.754  11.554  -5.805  1.00  0.00     0.010 A 
ATOM     75  C   UNL     1       6.046  13.059  -6.640  1.00  0.00     0.010 A 
ATOM     76  C   UNL     1       8.150  11.278  -7.118  1.00  0.00     0.020 A 
ATOM     77  C   UNL     1       6.424  12.768  -7.954  1.00  0.00     0.020 A 
ATOM     78  C   UNL     1       7.480  11.885  -8.184  1.00  0.00     0.054 A 
BRANCH  78  79
ATOM     79  S   UNL     1       7.971  11.467  -9.881  1.00  0.00     0.124 S 
ATOM     80  O   UNL     1       9.224  12.203 -10.024  1.00  0.00    -0.237 OA
ATOM     81  O   UNL     1       8.095  10.012  -9.826  1.00  0.00    -0.237 OA
ATOM     82  O   UNL     1       6.859  11.960 -10.689  1.00  0.00    -0.744 OA
ENDBRANCH  78  79
ENDBRANCH  50  73
BRANCH  62  83
ATOM     83  C   UNL     1       9.649  15.952  -0.284  1.00  0.00    -0.014 A 
ATOM     84  C   UNL     1       9.876  17.202  -0.885  1.00  0.00     0.010 A 
ATOM     85  C   UNL     1      10.655  15.385   0.520  1.00  0.00     0.010 A 
ATOM     86  C   UNL     1      11.096  17.860  -0.707  1.00  0.00     0.020 A 
ATOM     87  C   UNL     1      11.867  16.051   0.720  1.00  0.00     0.020 A 
ATOM     88  C   UNL     1      12.085  17.280   0.094  1.00  0.00     0.054 A 
BRANCH  88  89
ATOM     89  S   UNL     1      13.642  18.175   0.351  1.00  0.00     0.124 S 
ATOM     90  O   UNL     1      14.329  17.961  -0.919  1.00  0.00    -0.237 OA
ATOM     91  O   UNL     1      13.191  19.542   0.599  1.00  0.00    -0.237 OA
ATOM     92  O   UNL     1      14.240  17.505   1.504  1.00  0.00    -0.744 OA
ENDBRANCH  88  89
ENDBRANCH  62  83
ENDBRANCH  36  37
ENDBRANCH  29  31
ENDBRANCH  28  29
ENDBRANCH  27  28
ENDBRANCH  26  27
ENDBRANCH  25  26
ENDBRANCH   1  25
TORSDOF 22
