REMARK SMILES C[C@H]1[C@H](C(=O)OCCOCCOCCOC(=O)c2ccc(-c3c4nc(c(-c5ccc(S(=O)(=O)[O-])cc5)c5ccc([nH]5)c(-c5ccc(S(=O)(=O)[O-])cc5)c5nc(c(-c6ccc(S(=O)(=O)[O-])cc6)c6ccc3[nH]6)C=C5)C=C4)cc2)CC[N@H+]1[C@@H]1CCCC1(C)C
REMARK SMILES IDX 11 1 10 2 9 3 8 4 7 5 6 6 4 7 5 8 3 9 1 10 2 11 80 12 78 13
REMARK SMILES IDX 79 14 81 16 82 17 85 18 83 19 84 20 86 21 87 22 12 23 13 24
REMARK SMILES IDX 14 25 15 26 16 27 17 28 18 29 19 30 77 31 20 32 76 33 21 34
REMARK SMILES IDX 22 35 23 36 70 37 24 38 75 39 69 40 71 41 25 42 74 43 68 44
REMARK SMILES IDX 67 45 26 47 56 48 37 49 55 50 38 51 41 52 54 53 72 54 39 55
REMARK SMILES IDX 40 56 53 58 73 59 42 60 27 61 28 62 36 63 29 64 35 65 30 66
REMARK SMILES IDX 31 67 32 68 33 69 34 70 57 71 58 72 66 73 59 74 65 75 60 76
REMARK SMILES IDX 61 77 62 78 63 79 64 80 43 81 44 82 52 83 45 84 51 85 46 86
REMARK SMILES IDX 47 87 48 88 49 89 50 90
REMARK H PARENT 80 15 71 46 41 57
REMARK Flexibility Score: inf
ROOT
ATOM      1  C   UNL     1      -0.367  -5.378  -2.456  1.00  0.00     0.188 C 
ENDROOT
BRANCH   1   2
ATOM      2  C   UNL     1      -0.074  -6.866  -2.201  1.00  0.00     0.188 C 
BRANCH   2   3
ATOM      3  O   UNL     1      -1.029  -7.849  -2.588  1.00  0.00    -0.376 OA
BRANCH   3   4
ATOM      4  C   UNL     1      -2.404  -7.508  -2.653  1.00  0.00     0.202 C 
BRANCH   4   5
ATOM      5  C   UNL     1      -3.101  -7.056  -1.359  1.00  0.00     0.261 C 
BRANCH   5   6
ATOM      6  O   UNL     1      -2.446  -6.014  -0.595  1.00  0.00    -0.463 OA
BRANCH   6   7
ATOM      7  C   UNL     1      -1.866  -6.410   0.565  1.00  0.00     0.315 C 
ATOM      8  O   UNL     1      -1.905  -7.566   0.980  1.00  0.00    -0.252 OA
BRANCH   7   9
ATOM      9  C   UNL     1      -1.199  -5.322   1.400  1.00  0.00     0.162 C 
ATOM     10  C   UNL     1       0.675  -3.893   0.532  1.00  0.00     0.076 C 
ATOM     11  C   UNL     1      -0.824  -3.920   0.868  1.00  0.00     0.195 C 
ATOM     12  N   UNL     1      -1.262  -2.943   1.904  1.00  0.00    -0.329 N 
ATOM     13  C   UNL     1      -2.096  -5.044   2.587  1.00  0.00     0.083 C 
ATOM     14  C   UNL     1      -1.639  -3.696   3.093  1.00  0.00     0.263 C 
ATOM     15  H   UNL     1      -2.077  -2.457   1.530  1.00  0.00     0.348 HD
BRANCH  12  16
ATOM     16  C   UNL     1      -0.483  -1.704   2.106  1.00  0.00     0.189 C 
ATOM     17  C   UNL     1       0.889  -1.811   2.819  1.00  0.00     0.066 C 
ATOM     18  C   UNL     1      -1.177  -0.491   2.822  1.00  0.00     0.017 C 
ATOM     19  C   UNL     1       1.147  -0.473   3.512  1.00  0.00     0.007 C 
ATOM     20  C   UNL     1       0.024   0.449   3.065  1.00  0.00     0.013 C 
ATOM     21  C   UNL     1      -2.212   0.194   1.921  1.00  0.00     0.017 C 
ATOM     22  C   UNL     1      -1.834  -0.807   4.177  1.00  0.00     0.017 C 
ENDBRANCH  12  16
ENDBRANCH   7   9
ENDBRANCH   6   7
ENDBRANCH   5   6
ENDBRANCH   4   5
ENDBRANCH   3   4
ENDBRANCH   2   3
ENDBRANCH   1   2
BRANCH   1  23
ATOM     23  O   UNL     1      -1.306  -5.163  -3.486  1.00  0.00    -0.376 OA
BRANCH  23  24
ATOM     24  C   UNL     1      -0.919  -4.311  -4.539  1.00  0.00     0.202 C 
BRANCH  24  25
ATOM     25  C   UNL     1       0.180  -4.864  -5.453  1.00  0.00     0.261 C 
BRANCH  25  26
ATOM     26  O   UNL     1       1.311  -5.472  -4.803  1.00  0.00    -0.460 OA
BRANCH  26  27
ATOM     27  C   UNL     1       2.228  -4.652  -4.245  1.00  0.00     0.338 C 
ATOM     28  O   UNL     1       2.178  -3.431  -4.190  1.00  0.00    -0.246 OA
BRANCH  27  29
ATOM     29  C   UNL     1       3.211  -5.492  -3.525  1.00  0.00     0.060 A 
ATOM     30  C   UNL     1       3.353  -5.362  -2.136  1.00  0.00     0.016 A 
ATOM     31  C   UNL     1       3.990  -6.413  -4.226  1.00  0.00     0.016 A 
ATOM     32  C   UNL     1       4.278  -6.150  -1.442  1.00  0.00     0.010 A 
ATOM     33  C   UNL     1       4.935  -7.177  -3.537  1.00  0.00     0.010 A 
ATOM     34  C   UNL     1       5.100  -7.037  -2.145  1.00  0.00    -0.014 A 
BRANCH  34  35
ATOM     35  C   UNL     1       6.267  -7.690  -1.500  1.00  0.00     0.031 A 
ATOM     36  C   UNL     1       7.628  -7.102  -1.752  1.00  0.00     0.074 A 
ATOM     37  C   UNL     1       6.142  -8.807  -0.760  1.00  0.00     0.049 A 
ATOM     38  N   UNL     1       8.809  -7.607  -1.516  1.00  0.00    -0.248 NA
ATOM     39  C   UNL     1       7.654  -5.763  -2.366  1.00  0.00     0.031 C 
ATOM     40  C   UNL     1       4.880  -9.430  -0.368  1.00  0.00     0.029 A 
ATOM     41  N   UNL     1       7.105  -9.635  -0.232  1.00  0.00    -0.354 N 
ATOM     42  C   UNL     1       9.719  -6.668  -1.989  1.00  0.00     0.074 A 
ATOM     43  C   UNL     1       8.953  -5.566  -2.529  1.00  0.00     0.031 C 
ATOM     44  C   UNL     1       5.145 -10.559   0.315  1.00  0.00     0.029 A 
ATOM     45  C   UNL     1       6.592 -10.771   0.351  1.00  0.00     0.049 A 
ATOM     46  H   UNL     1       8.068  -9.434  -0.268  1.00  0.00     0.167 HD
ATOM     47  C   UNL     1      11.072  -6.727  -1.985  1.00  0.00     0.031 A 
ATOM     48  C   UNL     1       7.215 -11.877   0.810  1.00  0.00     0.031 A 
ATOM     49  C   UNL     1      11.822  -7.833  -1.456  1.00  0.00     0.049 A 
ATOM     50  C   UNL     1       8.720 -11.969   0.716  1.00  0.00     0.074 A 
ATOM     51  C   UNL     1      13.195  -7.993  -1.402  1.00  0.00     0.029 A 
ATOM     52  N   UNL     1      11.262  -8.971  -0.893  1.00  0.00    -0.354 N 
ATOM     53  N   UNL     1       9.573 -11.086   0.250  1.00  0.00    -0.248 NA
ATOM     54  C   UNL     1       9.348 -13.207   1.204  1.00  0.00     0.031 C 
ATOM     55  C   UNL     1      13.464  -9.255  -0.867  1.00  0.00     0.029 A 
ATOM     56  C   UNL     1      12.262  -9.847  -0.512  1.00  0.00     0.049 A 
ATOM     57  H   UNL     1      10.297  -9.131  -0.782  1.00  0.00     0.167 HD
ATOM     58  C   UNL     1      10.836 -11.644   0.430  1.00  0.00     0.074 A 
ATOM     59  C   UNL     1      10.638 -12.941   1.043  1.00  0.00     0.031 C 
ATOM     60  C   UNL     1      12.050 -11.124   0.124  1.00  0.00     0.031 A 
BRANCH  47  61
ATOM     61  C   UNL     1      11.824  -5.589  -2.624  1.00  0.00    -0.014 A 
ATOM     62  C   UNL     1      11.861  -4.311  -2.040  1.00  0.00     0.010 A 
ATOM     63  C   UNL     1      12.537  -5.817  -3.816  1.00  0.00     0.010 A 
ATOM     64  C   UNL     1      12.564  -3.272  -2.657  1.00  0.00     0.020 A 
ATOM     65  C   UNL     1      13.268  -4.791  -4.419  1.00  0.00     0.020 A 
ATOM     66  C   UNL     1      13.262  -3.519  -3.843  1.00  0.00     0.054 A 
BRANCH  66  67
ATOM     67  S   UNL     1      14.183  -2.158  -4.609  1.00  0.00     0.124 S 
ATOM     68  O   UNL     1      13.104  -1.305  -5.103  1.00  0.00    -0.237 OA
ATOM     69  O   UNL     1      14.947  -1.618  -3.487  1.00  0.00    -0.237 OA
ATOM     70  O   UNL     1      14.979  -2.814  -5.644  1.00  0.00    -0.744 OA
ENDBRANCH  66  67
ENDBRANCH  47  61
BRANCH  48  71
ATOM     71  C   UNL     1       6.419 -13.011   1.360  1.00  0.00    -0.014 A 
ATOM     72  C   UNL     1       6.500 -13.350   2.723  1.00  0.00     0.010 A 
ATOM     73  C   UNL     1       5.578 -13.766   0.521  1.00  0.00     0.010 A 
ATOM     74  C   UNL     1       5.767 -14.428   3.231  1.00  0.00     0.020 A 
ATOM     75  C   UNL     1       4.819 -14.824   1.032  1.00  0.00     0.020 A 
ATOM     76  C   UNL     1       4.927 -15.155   2.383  1.00  0.00     0.054 A 
BRANCH  76  77
ATOM     77  S   UNL     1       3.950 -16.517   3.079  1.00  0.00     0.124 S 
ATOM     78  O   UNL     1       4.976 -17.518   3.355  1.00  0.00    -0.237 OA
ATOM     79  O   UNL     1       3.339 -15.898   4.252  1.00  0.00    -0.237 OA
ATOM     80  O   UNL     1       3.019 -16.856   2.005  1.00  0.00    -0.744 OA
ENDBRANCH  76  77
ENDBRANCH  48  71
BRANCH  60  81
ATOM     81  C   UNL     1      13.280 -11.905   0.509  1.00  0.00    -0.014 A 
ATOM     82  C   UNL     1      13.681 -13.049  -0.200  1.00  0.00     0.010 A 
ATOM     83  C   UNL     1      14.116 -11.398   1.523  1.00  0.00     0.010 A 
ATOM     84  C   UNL     1      14.897 -13.672   0.099  1.00  0.00     0.020 A 
ATOM     85  C   UNL     1      15.344 -12.001   1.804  1.00  0.00     0.020 A 
ATOM     86  C   UNL     1      15.726 -13.137   1.091  1.00  0.00     0.054 A 
BRANCH  86  87
ATOM     87  S   UNL     1      17.344 -13.903   1.386  1.00  0.00     0.124 S 
ATOM     88  O   UNL     1      16.974 -15.163   2.024  1.00  0.00    -0.237 OA
ATOM     89  O   UNL     1      17.893 -14.019   0.037  1.00  0.00    -0.237 OA
ATOM     90  O   UNL     1      18.030 -12.946   2.251  1.00  0.00    -0.744 OA
ENDBRANCH  86  87
ENDBRANCH  60  81
ENDBRANCH  34  35
ENDBRANCH  27  29
ENDBRANCH  26  27
ENDBRANCH  25  26
ENDBRANCH  24  25
ENDBRANCH  23  24
ENDBRANCH   1  23
TORSDOF 21
