REMARK SMILES O=C(C[C@@H](NC(=O)C1CCC1)c1ccc(Cl)cc1)OCCOCCOCCOC(=O)c1ccc(-c2c3nc(c(-c4ccc(S(=O)(=O)[O-])cc4)c4ccc([nH]4)c(-c4ccc(S(=O)(=O)[O-])cc4)c4nc(c(-c5ccc(S(=O)(=O)[O-])cc5)c5ccc2[nH]5)C=C4)C=C3)cc1
REMARK SMILES IDX 23 1 22 2 21 3 20 4 19 5 2 6 1 7 3 8 4 9 5 10 6 11 7 13 8 14
REMARK SMILES IDX 9 15 11 16 10 17 12 18 13 19 18 20 14 21 17 22 15 23 16 24
REMARK SMILES IDX 24 25 25 26 26 27 27 28 28 29 29 30 30 31 31 32 32 33 90 34
REMARK SMILES IDX 33 35 89 36 34 37 35 38 36 39 83 40 37 41 88 42 82 43 84 44
REMARK SMILES IDX 38 45 87 46 81 47 80 48 39 50 69 51 50 52 68 53 51 54 54 55
REMARK SMILES IDX 67 56 85 57 52 58 53 59 66 61 86 62 55 63 40 64 41 65 49 66
REMARK SMILES IDX 42 67 48 68 43 69 44 70 45 71 46 72 47 73 70 74 71 75 79 76
REMARK SMILES IDX 72 77 78 78 73 79 74 80 75 81 76 82 77 83 56 84 57 85 65 86
REMARK SMILES IDX 58 87 64 88 59 89 60 90 61 91 62 92 63 93
REMARK H PARENT 5 12 84 49 54 60
REMARK Flexibility Score: inf
ROOT
ATOM      1  C   UNL     1       2.539  -0.580  -1.724  1.00  0.00     0.188 C 
ENDROOT
BRANCH   1   2
ATOM      2  O   UNL     1       3.889  -0.201  -1.504  1.00  0.00    -0.376 OA
BRANCH   2   3
ATOM      3  C   UNL     1       4.669  -0.912  -0.539  1.00  0.00     0.202 C 
BRANCH   3   4
ATOM      4  C   UNL     1       3.971  -1.599   0.642  1.00  0.00     0.261 C 
BRANCH   4   5
ATOM      5  O   UNL     1       3.639  -0.667   1.692  1.00  0.00    -0.463 OA
BRANCH   5   6
ATOM      6  C   UNL     1       2.552   0.119   1.499  1.00  0.00     0.308 C 
ATOM      7  O   UNL     1       1.409  -0.322   1.513  1.00  0.00    -0.252 OA
BRANCH   6   8
ATOM      8  C   UNL     1       2.905   1.542   1.120  1.00  0.00     0.152 C 
BRANCH   8   9
ATOM      9  C   UNL     1       4.156   2.197   1.755  1.00  0.00     0.123 C 
BRANCH   9  10
ATOM     10  N   UNL     1       5.236   1.243   2.026  1.00  0.00    -0.348 N 
ATOM     11  C   UNL     1       6.560   1.296   2.343  1.00  0.00     0.223 C 
ATOM     12  H   UNL     1       4.920   0.314   1.959  1.00  0.00     0.164 HD
ATOM     13  O   UNL     1       7.063   0.204   2.657  1.00  0.00    -0.275 OA
BRANCH  11  14
ATOM     14  C   UNL     1       7.381   2.583   2.253  1.00  0.00     0.078 C 
ATOM     15  C   UNL     1       6.975   3.859   3.032  1.00  0.00     0.013 C 
ATOM     16  C   UNL     1       8.679   2.607   3.121  1.00  0.00     0.013 C 
ATOM     17  C   UNL     1       8.477   4.123   3.246  1.00  0.00     0.002 C 
ENDBRANCH  11  14
ENDBRANCH   9  10
BRANCH   9  18
ATOM     18  C   UNL     1       4.551   3.364   0.864  1.00  0.00    -0.025 A 
ATOM     19  C   UNL     1       5.393   3.201  -0.249  1.00  0.00     0.007 A 
ATOM     20  C   UNL     1       4.046   4.646   1.141  1.00  0.00     0.007 A 
ATOM     21  C   UNL     1       5.823   4.309  -0.983  1.00  0.00     0.021 A 
ATOM     22  C   UNL     1       4.465   5.752   0.396  1.00  0.00     0.021 A 
ATOM     23  C   UNL     1       5.371   5.582  -0.646  1.00  0.00     0.041 A 
ATOM     24  Cl  UNL     1       5.952   6.950  -1.510  1.00  0.00    -0.084 Cl
ENDBRANCH   9  18
ENDBRANCH   8   9
ENDBRANCH   6   8
ENDBRANCH   5   6
ENDBRANCH   4   5
ENDBRANCH   3   4
ENDBRANCH   2   3
ENDBRANCH   1   2
BRANCH   1  25
ATOM     25  C   UNL     1       2.228  -1.583  -2.838  1.00  0.00     0.188 C 
BRANCH  25  26
ATOM     26  O   UNL     1       3.154  -2.633  -3.051  1.00  0.00    -0.376 OA
BRANCH  26  27
ATOM     27  C   UNL     1       4.388  -2.303  -3.689  1.00  0.00     0.202 C 
BRANCH  27  28
ATOM     28  C   UNL     1       4.375  -1.428  -4.947  1.00  0.00     0.261 C 
BRANCH  28  29
ATOM     29  O   UNL     1       4.039  -0.052  -4.668  1.00  0.00    -0.460 OA
BRANCH  29  30
ATOM     30  C   UNL     1       3.040   0.457  -5.424  1.00  0.00     0.338 C 
ATOM     31  O   UNL     1       2.400  -0.133  -6.289  1.00  0.00    -0.246 OA
BRANCH  30  32
ATOM     32  C   UNL     1       2.700   1.827  -5.015  1.00  0.00     0.060 A 
ATOM     33  C   UNL     1       1.454   2.060  -4.418  1.00  0.00     0.016 A 
ATOM     34  C   UNL     1       3.509   2.895  -5.407  1.00  0.00     0.016 A 
ATOM     35  C   UNL     1       0.994   3.368  -4.253  1.00  0.00     0.010 A 
ATOM     36  C   UNL     1       3.041   4.204  -5.249  1.00  0.00     0.010 A 
ATOM     37  C   UNL     1       1.764   4.446  -4.710  1.00  0.00    -0.014 A 
BRANCH  37  38
ATOM     38  C   UNL     1       1.183   5.811  -4.766  1.00  0.00     0.031 A 
ATOM     39  C   UNL     1       0.609   6.316  -6.065  1.00  0.00     0.074 A 
ATOM     40  C   UNL     1       1.161   6.599  -3.676  1.00  0.00     0.049 A 
ATOM     41  N   UNL     1       0.114   7.494  -6.349  1.00  0.00    -0.248 NA
ATOM     42  C   UNL     1       0.591   5.367  -7.191  1.00  0.00     0.031 C 
ATOM     43  C   UNL     1       1.639   6.221  -2.347  1.00  0.00     0.029 A 
ATOM     44  N   UNL     1       0.725   7.893  -3.523  1.00  0.00    -0.354 N 
ATOM     45  C   UNL     1      -0.266   7.433  -7.686  1.00  0.00     0.074 A 
ATOM     46  C   UNL     1       0.072   6.108  -8.160  1.00  0.00     0.031 C 
ATOM     47  C   UNL     1       1.484   7.267  -1.517  1.00  0.00     0.029 A 
ATOM     48  C   UNL     1       0.935   8.398  -2.263  1.00  0.00     0.049 A 
ATOM     49  H   UNL     1       0.303   8.409  -4.247  1.00  0.00     0.167 HD
ATOM     50  C   UNL     1      -0.843   8.392  -8.449  1.00  0.00     0.031 A 
ATOM     51  C   UNL     1       0.736   9.638  -1.772  1.00  0.00     0.031 A 
ATOM     52  C   UNL     1      -1.168   9.715  -7.987  1.00  0.00     0.049 A 
ATOM     53  C   UNL     1       0.166  10.711  -2.662  1.00  0.00     0.074 A 
ATOM     54  C   UNL     1      -1.770  10.747  -8.688  1.00  0.00     0.029 A 
ATOM     55  N   UNL     1      -0.912  10.195  -6.713  1.00  0.00    -0.354 N 
ATOM     56  N   UNL     1      -0.211  10.630  -3.916  1.00  0.00    -0.248 NA
ATOM     57  C   UNL     1      -0.013  12.044  -2.066  1.00  0.00     0.031 C 
ATOM     58  C   UNL     1      -1.830  11.867  -7.852  1.00  0.00     0.029 A 
ATOM     59  C   UNL     1      -1.319  11.515  -6.614  1.00  0.00     0.049 A 
ATOM     60  H   UNL     1      -0.502   9.675  -5.985  1.00  0.00     0.167 HD
ATOM     61  C   UNL     1      -0.697  11.891  -4.248  1.00  0.00     0.074 A 
ATOM     62  C   UNL     1      -0.577  12.713  -3.062  1.00  0.00     0.031 C 
ATOM     63  C   UNL     1      -1.200  12.327  -5.430  1.00  0.00     0.031 A 
BRANCH  50  64
ATOM     64  C   UNL     1      -1.136   8.055  -9.887  1.00  0.00    -0.014 A 
ATOM     65  C   UNL     1      -2.200   7.203 -10.232  1.00  0.00     0.010 A 
ATOM     66  C   UNL     1      -0.372   8.647 -10.909  1.00  0.00     0.010 A 
ATOM     67  C   UNL     1      -2.477   6.927 -11.574  1.00  0.00     0.020 A 
ATOM     68  C   UNL     1      -0.661   8.392 -12.253  1.00  0.00     0.020 A 
ATOM     69  C   UNL     1      -1.704   7.522 -12.576  1.00  0.00     0.054 A 
BRANCH  69  70
ATOM     70  S   UNL     1      -2.106   7.172 -14.310  1.00  0.00     0.124 S 
ATOM     71  O   UNL     1      -1.620   5.803 -14.461  1.00  0.00    -0.237 OA
ATOM     72  O   UNL     1      -3.558   7.331 -14.341  1.00  0.00    -0.237 OA
ATOM     73  O   UNL     1      -1.356   8.184 -15.051  1.00  0.00    -0.744 OA
ENDBRANCH  69  70
ENDBRANCH  50  64
BRANCH  51  74
ATOM     74  C   UNL     1       1.109   9.945  -0.365  1.00  0.00    -0.014 A 
ATOM     75  C   UNL     1       0.118  10.196   0.600  1.00  0.00     0.010 A 
ATOM     76  C   UNL     1       2.464  10.002   0.011  1.00  0.00     0.010 A 
ATOM     77  C   UNL     1       0.476  10.517   1.913  1.00  0.00     0.020 A 
ATOM     78  C   UNL     1       2.824  10.296   1.328  1.00  0.00     0.020 A 
ATOM     79  C   UNL     1       1.827  10.563   2.268  1.00  0.00     0.054 A 
BRANCH  79  80
ATOM     80  S   UNL     1       2.268  10.927   3.990  1.00  0.00     0.124 S 
ATOM     81  O   UNL     1       2.050  12.367   4.062  1.00  0.00    -0.237 OA
ATOM     82  O   UNL     1       1.322  10.102   4.739  1.00  0.00    -0.237 OA
ATOM     83  O   UNL     1       3.661  10.495   4.080  1.00  0.00    -0.744 OA
ENDBRANCH  79  80
ENDBRANCH  51  74
BRANCH  63  84
ATOM     84  C   UNL     1      -1.699  13.746  -5.497  1.00  0.00    -0.014 A 
ATOM     85  C   UNL     1      -0.809  14.834  -5.519  1.00  0.00     0.010 A 
ATOM     86  C   UNL     1      -3.082  13.991  -5.596  1.00  0.00     0.010 A 
ATOM     87  C   UNL     1      -1.294  16.142  -5.610  1.00  0.00     0.020 A 
ATOM     88  C   UNL     1      -3.569  15.295  -5.712  1.00  0.00     0.020 A 
ATOM     89  C   UNL     1      -2.672  16.365  -5.705  1.00  0.00     0.054 A 
BRANCH  89  90
ATOM     90  S   UNL     1      -3.275  18.069  -5.865  1.00  0.00     0.124 S 
ATOM     91  O   UNL     1      -3.119  18.576  -4.505  1.00  0.00    -0.237 OA
ATOM     92  O   UNL     1      -2.367  18.640  -6.857  1.00  0.00    -0.237 OA
ATOM     93  O   UNL     1      -4.656  17.906  -6.315  1.00  0.00    -0.744 OA
ENDBRANCH  89  90
ENDBRANCH  63  84
ENDBRANCH  37  38
ENDBRANCH  30  32
ENDBRANCH  29  30
ENDBRANCH  28  29
ENDBRANCH  27  28
ENDBRANCH  26  27
ENDBRANCH  25  26
ENDBRANCH   1  25
TORSDOF 24
