REMARK SMILES C=C(C(=O)OCCOCCOCCOC(=O)c1ccc(-c2c3nc(c(-c4ccc(S(=O)(=O)[O-])cc4)c4ccc([nH]4)c(-c4ccc(S(=O)(=O)[O-])cc4)c4nc(c(-c5ccc(S(=O)(=O)[O-])cc5)c5ccc2[nH]5)C=C4)C=C3)cc1)[C@@H]1CC[C@]2(C)CCCC(=C)[C@H]2[C@H]1O
REMARK SMILES IDX 10 1 9 2 8 3 7 4 6 5 5 6 3 7 4 8 2 9 1 10 77 11 78 12 88 13
REMARK SMILES IDX 79 14 87 15 80 16 85 17 81 18 82 19 84 20 86 21 83 22 89 23
REMARK SMILES IDX 11 25 12 26 13 27 14 28 15 29 16 30 17 31 18 32 76 33 19 34
REMARK SMILES IDX 75 35 20 36 21 37 22 38 69 39 23 40 74 41 68 42 70 43 24 44
REMARK SMILES IDX 73 45 67 46 66 47 25 49 55 50 36 51 54 52 37 53 40 54 53 55
REMARK SMILES IDX 71 56 38 57 39 58 52 60 72 61 41 62 26 63 27 64 35 65 28 66
REMARK SMILES IDX 34 67 29 68 30 69 31 70 32 71 33 72 56 73 57 74 65 75 58 76
REMARK SMILES IDX 64 77 59 78 60 79 61 80 62 81 63 82 42 83 43 84 51 85 44 86
REMARK SMILES IDX 50 87 45 88 46 89 47 90 48 91 49 92
REMARK H PARENT 89 24 70 48 40 59
REMARK Flexibility Score: inf
ROOT
ATOM      1  C   UNL     1      -1.675  -2.236   1.484  1.00  0.00     0.188 C 
ENDROOT
BRANCH   1   2
ATOM      2  C   UNL     1      -2.655  -1.256   2.157  1.00  0.00     0.188 C 
BRANCH   2   3
ATOM      3  O   UNL     1      -3.872  -1.039   1.453  1.00  0.00    -0.376 OA
BRANCH   3   4
ATOM      4  C   UNL     1      -4.009   0.246   0.857  1.00  0.00     0.202 C 
BRANCH   4   5
ATOM      5  C   UNL     1      -3.275   0.333  -0.483  1.00  0.00     0.261 C 
BRANCH   5   6
ATOM      6  O   UNL     1      -1.847   0.223  -0.354  1.00  0.00    -0.460 OA
BRANCH   6   7
ATOM      7  C   UNL     1      -1.219   1.259   0.257  1.00  0.00     0.333 C 
ATOM      8  O   UNL     1      -1.788   2.271   0.626  1.00  0.00    -0.247 OA
BRANCH   7   9
ATOM      9  C   UNL     1       0.221   0.938   0.485  1.00  0.00     0.036 C 
ATOM     10  C   UNL     1       0.847   0.242  -0.486  1.00  0.00     0.020 C 
BRANCH   9  11
ATOM     11  C   UNL     1       0.980   1.366   1.744  1.00  0.00     0.055 C 
ATOM     12  C   UNL     1       0.409   0.869   3.087  1.00  0.00     0.012 C 
ATOM     13  C   UNL     1       1.354   2.866   1.808  1.00  0.00     0.129 C 
ATOM     14  C   UNL     1      -0.704   1.733   3.675  1.00  0.00     0.008 C 
ATOM     15  C   UNL     1       0.231   3.746   2.412  1.00  0.00     0.050 C 
ATOM     16  C   UNL     1      -0.380   3.244   3.759  1.00  0.00    -0.024 C 
ATOM     17  C   UNL     1       0.411   5.256   2.429  1.00  0.00    -0.071 C 
ATOM     18  C   UNL     1       0.527   3.500   4.984  1.00  0.00     0.012 C 
ATOM     19  C   UNL     1      -1.727   4.001   3.990  1.00  0.00     0.008 C 
ATOM     20  C   UNL     1      -0.901   5.986   2.626  1.00  0.00     0.031 C 
ATOM     21  C   UNL     1       1.566   5.919   2.273  1.00  0.00     0.008 C 
ATOM     22  C   UNL     1      -1.602   5.526   3.904  1.00  0.00     0.005 C 
BRANCH  13  23
ATOM     23  O   UNL     1       2.606   2.978   2.496  1.00  0.00    -0.392 OA
ATOM     24  H   UNL     1       2.512   2.629   3.397  1.00  0.00     0.211 HD
ENDBRANCH  13  23
ENDBRANCH   9  11
ENDBRANCH   7   9
ENDBRANCH   6   7
ENDBRANCH   5   6
ENDBRANCH   4   5
ENDBRANCH   3   4
ENDBRANCH   2   3
ENDBRANCH   1   2
BRANCH   1  25
ATOM     25  O   UNL     1      -2.158  -3.303   0.678  1.00  0.00    -0.376 OA
BRANCH  25  26
ATOM     26  C   UNL     1      -3.417  -3.879   0.978  1.00  0.00     0.202 C 
BRANCH  26  27
ATOM     27  C   UNL     1      -3.526  -4.694   2.270  1.00  0.00     0.261 C 
BRANCH  27  28
ATOM     28  O   UNL     1      -3.142  -3.982   3.459  1.00  0.00    -0.460 OA
BRANCH  28  29
ATOM     29  C   UNL     1      -1.939  -4.337   3.976  1.00  0.00     0.338 C 
ATOM     30  O   UNL     1      -1.184  -5.193   3.545  1.00  0.00    -0.246 OA
BRANCH  29  31
ATOM     31  C   UNL     1      -1.557  -3.440   5.091  1.00  0.00     0.060 A 
ATOM     32  C   UNL     1      -0.252  -2.929   5.095  1.00  0.00     0.016 A 
ATOM     33  C   UNL     1      -2.409  -3.194   6.170  1.00  0.00     0.016 A 
ATOM     34  C   UNL     1       0.228  -2.230   6.203  1.00  0.00     0.010 A 
ATOM     35  C   UNL     1      -1.920  -2.506   7.291  1.00  0.00     0.010 A 
ATOM     36  C   UNL     1      -0.586  -2.063   7.332  1.00  0.00    -0.014 A 
BRANCH  36  37
ATOM     37  C   UNL     1       0.030  -1.623   8.611  1.00  0.00     0.031 A 
ATOM     38  C   UNL     1       0.531  -2.673   9.570  1.00  0.00     0.074 A 
ATOM     39  C   UNL     1       0.190  -0.321   8.909  1.00  0.00     0.049 A 
ATOM     40  N   UNL     1       1.133  -2.524  10.722  1.00  0.00    -0.248 NA
ATOM     41  C   UNL     1       0.330  -4.076   9.171  1.00  0.00     0.031 C 
ATOM     42  C   UNL     1      -0.208   0.798   8.060  1.00  0.00     0.029 A 
ATOM     43  N   UNL     1       0.736   0.275  10.020  1.00  0.00    -0.354 N 
ATOM     44  C   UNL     1       1.384  -3.811  11.186  1.00  0.00     0.074 A 
ATOM     45  C   UNL     1       0.845  -4.726  10.203  1.00  0.00     0.031 C 
ATOM     46  C   UNL     1       0.108   1.948   8.682  1.00  0.00     0.029 A 
ATOM     47  C   UNL     1       0.710   1.648   9.980  1.00  0.00     0.049 A 
ATOM     48  H   UNL     1       1.112  -0.234  10.774  1.00  0.00     0.167 HD
ATOM     49  C   UNL     1       2.009  -4.201  12.323  1.00  0.00     0.031 A 
ATOM     50  C   UNL     1       1.114   2.561  10.887  1.00  0.00     0.031 A 
ATOM     51  C   UNL     1       2.520  -3.301  13.322  1.00  0.00     0.049 A 
ATOM     52  C   UNL     1       1.728   2.103  12.185  1.00  0.00     0.074 A 
ATOM     53  C   UNL     1       3.171  -3.608  14.504  1.00  0.00     0.029 A 
ATOM     54  N   UNL     1       2.424  -1.920  13.265  1.00  0.00    -0.354 N 
ATOM     55  N   UNL     1       1.987   0.883  12.592  1.00  0.00    -0.248 NA
ATOM     56  C   UNL     1       2.109   3.150  13.145  1.00  0.00     0.031 C 
ATOM     57  C   UNL     1       3.422  -2.413  15.188  1.00  0.00     0.029 A 
ATOM     58  C   UNL     1       2.978  -1.360  14.405  1.00  0.00     0.049 A 
ATOM     59  H   UNL     1       2.021  -1.411  12.525  1.00  0.00     0.167 HD
ATOM     60  C   UNL     1       2.590   1.019  13.839  1.00  0.00     0.074 A 
ATOM     61  C   UNL     1       2.664   2.438  14.117  1.00  0.00     0.031 C 
ATOM     62  C   UNL     1       3.047   0.053  14.676  1.00  0.00     0.031 A 
BRANCH  49  63
ATOM     63  C   UNL     1       2.134  -5.681  12.561  1.00  0.00    -0.014 A 
ATOM     64  C   UNL     1       3.032  -6.465  11.814  1.00  0.00     0.010 A 
ATOM     65  C   UNL     1       1.348  -6.295  13.553  1.00  0.00     0.010 A 
ATOM     66  C   UNL     1       3.107  -7.845  12.023  1.00  0.00     0.020 A 
ATOM     67  C   UNL     1       1.438  -7.670  13.782  1.00  0.00     0.020 A 
ATOM     68  C   UNL     1       2.302  -8.440  13.000  1.00  0.00     0.054 A 
BRANCH  68  69
ATOM     69  S   UNL     1       2.414 -10.233  13.249  1.00  0.00     0.124 S 
ATOM     70  O   UNL     1       1.695 -10.742  12.084  1.00  0.00    -0.237 OA
ATOM     71  O   UNL     1       3.855 -10.469  13.250  1.00  0.00    -0.237 OA
ATOM     72  O   UNL     1       1.750 -10.446  14.533  1.00  0.00    -0.744 OA
ENDBRANCH  68  69
ENDBRANCH  49  63
BRANCH  50  73
ATOM     73  C   UNL     1       0.948   4.014  10.608  1.00  0.00    -0.014 A 
ATOM     74  C   UNL     1       2.068   4.829  10.367  1.00  0.00     0.010 A 
ATOM     75  C   UNL     1      -0.334   4.593  10.602  1.00  0.00     0.010 A 
ATOM     76  C   UNL     1       1.911   6.200  10.142  1.00  0.00     0.020 A 
ATOM     77  C   UNL     1      -0.497   5.958  10.352  1.00  0.00     0.020 A 
ATOM     78  C   UNL     1       0.628   6.756  10.136  1.00  0.00     0.054 A 
BRANCH  78  79
ATOM     79  S   UNL     1       0.441   8.529   9.800  1.00  0.00     0.124 S 
ATOM     80  O   UNL     1       0.870   9.124  11.062  1.00  0.00    -0.237 OA
ATOM     81  O   UNL     1       1.339   8.732   8.666  1.00  0.00    -0.237 OA
ATOM     82  O   UNL     1      -0.980   8.669   9.492  1.00  0.00    -0.744 OA
ENDBRANCH  78  79
ENDBRANCH  50  73
BRANCH  62  83
ATOM     83  C   UNL     1       3.705   0.494  15.957  1.00  0.00    -0.014 A 
ATOM     84  C   UNL     1       2.955   1.022  17.023  1.00  0.00     0.010 A 
ATOM     85  C   UNL     1       5.095   0.332  16.113  1.00  0.00     0.010 A 
ATOM     86  C   UNL     1       3.587   1.410  18.209  1.00  0.00     0.020 A 
ATOM     87  C   UNL     1       5.726   0.695  17.306  1.00  0.00     0.020 A 
ATOM     88  C   UNL     1       4.970   1.247  18.342  1.00  0.00     0.054 A 
BRANCH  88  89
ATOM     89  S   UNL     1       5.764   1.724  19.902  1.00  0.00     0.124 S 
ATOM     90  O   UNL     1       5.793   3.180  19.796  1.00  0.00    -0.237 OA
ATOM     91  O   UNL     1       4.851   1.185  20.907  1.00  0.00    -0.237 OA
ATOM     92  O   UNL     1       7.069   1.068  19.841  1.00  0.00    -0.744 OA
ENDBRANCH  88  89
ENDBRANCH  62  83
ENDBRANCH  36  37
ENDBRANCH  29  31
ENDBRANCH  28  29
ENDBRANCH  27  28
ENDBRANCH  26  27
ENDBRANCH  25  26
ENDBRANCH   1  25
TORSDOF 22
