REMARK SMILES Cc1ccc(C(=O)N2CCC3(CCC(=O)N(CC(=O)OCCOCCOCCOC(=O)c4ccc(-c5c6nc(c(-c7ccc(S(=O)(=O)[O-])cc7)c7ccc([nH]7)c(-c7ccc(S(=O)(=O)[O-])cc7)c7nc(c(-c8ccc(S(=O)(=O)[O-])cc8)c8ccc5[nH]8)C=C7)C=C6)cc4)C3)CC2)cc1O
REMARK SMILES IDX 24 1 23 2 22 3 21 4 20 5 18 6 19 7 17 8 16 9 6 10 7 11 8 12
REMARK SMILES IDX 9 13 94 14 10 15 93 16 11 17 12 18 92 19 13 20 14 21 15 22
REMARK SMILES IDX 5 23 1 24 2 25 3 26 96 27 4 28 95 29 97 30 25 32 26 33 27 34
REMARK SMILES IDX 28 35 29 36 30 37 31 38 32 39 33 40 91 41 34 42 90 43 35 44
REMARK SMILES IDX 36 45 37 46 84 47 38 48 89 49 83 50 85 51 39 52 88 53 82 54
REMARK SMILES IDX 81 55 40 57 70 58 51 59 69 60 52 61 55 62 68 63 86 64 53 65
REMARK SMILES IDX 54 66 67 68 87 69 56 70 41 71 42 72 50 73 43 74 49 75 44 76
REMARK SMILES IDX 45 77 46 78 47 79 48 80 71 81 72 82 80 83 73 84 79 85 74 86
REMARK SMILES IDX 75 87 76 88 77 89 78 90 57 91 58 92 66 93 59 94 65 95 60 96
REMARK SMILES IDX 61 97 62 98 63 99 64 100
REMARK H PARENT 97 31 85 56 55 67
REMARK Flexibility Score: inf
ROOT
ATOM      1  C   UNL     1      11.312  -3.030   4.963  1.00  0.00     0.188 C 
ENDROOT
BRANCH   1   2
ATOM      2  O   UNL     1      11.406  -4.277   5.641  1.00  0.00    -0.376 OA
BRANCH   2   3
ATOM      3  C   UNL     1      10.839  -5.436   5.043  1.00  0.00     0.202 C 
BRANCH   3   4
ATOM      4  C   UNL     1       9.309  -5.467   4.922  1.00  0.00     0.261 C 
BRANCH   4   5
ATOM      5  O   UNL     1       8.749  -4.504   3.991  1.00  0.00    -0.462 OA
BRANCH   5   6
ATOM      6  C   UNL     1       7.854  -3.616   4.498  1.00  0.00     0.325 C 
ATOM      7  O   UNL     1       7.455  -3.644   5.660  1.00  0.00    -0.250 OA
BRANCH   6   8
ATOM      8  C   UNL     1       7.464  -2.442   3.565  1.00  0.00     0.242 C 
BRANCH   8   9
ATOM      9  N   UNL     1       7.608  -2.462   2.099  1.00  0.00    -0.331 N 
ATOM     10  C   UNL     1       2.850   1.571   0.137  1.00  0.00     0.253 C 
ATOM     11  O   UNL     1       2.728   2.739   0.495  1.00  0.00    -0.269 OA
ATOM     12  N   UNL     1       4.081   0.935   0.089  1.00  0.00    -0.339 N 
ATOM     13  C   UNL     1       5.053   1.252   1.116  1.00  0.00     0.120 C 
ATOM     14  C   UNL     1       4.556   0.133  -1.032  1.00  0.00     0.120 C 
ATOM     15  C   UNL     1       5.557  -0.064   1.708  1.00  0.00     0.030 C 
ATOM     16  C   UNL     1       5.185  -1.176  -0.555  1.00  0.00     0.030 C 
ATOM     17  C   UNL     1       6.171  -1.001   0.631  1.00  0.00    -0.008 C 
ATOM     18  C   UNL     1       7.498  -0.400   0.085  1.00  0.00     0.019 C 
ATOM     19  C   UNL     1       6.432  -2.417   1.249  1.00  0.00     0.127 C 
ATOM     20  C   UNL     1       8.615  -0.502   1.112  1.00  0.00     0.101 C 
ATOM     21  C   UNL     1       8.728  -1.967   1.454  1.00  0.00     0.223 C 
ATOM     22  O   UNL     1       9.548  -2.698   0.915  1.00  0.00    -0.275 OA
BRANCH  10  23
ATOM     23  C   UNL     1       1.625   0.743  -0.061  1.00  0.00     0.043 A 
ATOM     24  C   UNL     1      -2.012  -1.587  -0.058  1.00  0.00     0.048 C 
ATOM     25  C   UNL     1      -0.763  -0.759  -0.088  1.00  0.00    -0.009 A 
ATOM     26  C   UNL     1       0.472  -1.393   0.069  1.00  0.00     0.008 A 
ATOM     27  C   UNL     1      -0.782   0.636  -0.217  1.00  0.00     0.119 A 
ATOM     28  C   UNL     1       1.647  -0.645   0.109  1.00  0.00     0.014 A 
ATOM     29  C   UNL     1       0.396   1.383  -0.222  1.00  0.00     0.060 A 
BRANCH  27  30
ATOM     30  O   UNL     1      -1.946   1.345  -0.311  1.00  0.00    -0.508 OA
ATOM     31  H   UNL     1      -2.769   0.897  -0.312  1.00  0.00     0.293 HD
ENDBRANCH  27  30
ENDBRANCH  10  23
ENDBRANCH   8   9
ENDBRANCH   6   8
ENDBRANCH   5   6
ENDBRANCH   4   5
ENDBRANCH   3   4
ENDBRANCH   2   3
ENDBRANCH   1   2
BRANCH   1  32
ATOM     32  C   UNL     1      11.229  -3.026   3.439  1.00  0.00     0.188 C 
BRANCH  32  33
ATOM     33  O   UNL     1      12.017  -4.044   2.847  1.00  0.00    -0.376 OA
BRANCH  33  34
ATOM     34  C   UNL     1      12.441  -3.764   1.519  1.00  0.00     0.202 C 
BRANCH  34  35
ATOM     35  C   UNL     1      13.826  -3.129   1.587  1.00  0.00     0.261 C 
BRANCH  35  36
ATOM     36  O   UNL     1      13.845  -1.898   2.343  1.00  0.00    -0.460 OA
BRANCH  36  37
ATOM     37  C   UNL     1      13.206  -0.845   1.787  1.00  0.00     0.338 C 
ATOM     38  O   UNL     1      12.709  -0.796   0.666  1.00  0.00    -0.246 OA
BRANCH  37  39
ATOM     39  C   UNL     1      13.003   0.196   2.818  1.00  0.00     0.060 A 
ATOM     40  C   UNL     1      11.714   0.713   3.009  1.00  0.00     0.016 A 
ATOM     41  C   UNL     1      14.065   0.677   3.582  1.00  0.00     0.016 A 
ATOM     42  C   UNL     1      11.489   1.746   3.919  1.00  0.00     0.010 A 
ATOM     43  C   UNL     1      13.843   1.722   4.486  1.00  0.00     0.010 A 
ATOM     44  C   UNL     1      12.563   2.289   4.632  1.00  0.00    -0.014 A 
BRANCH  44  45
ATOM     45  C   UNL     1      12.391   3.554   5.392  1.00  0.00     0.031 A 
ATOM     46  C   UNL     1      12.889   4.835   4.773  1.00  0.00     0.074 A 
ATOM     47  C   UNL     1      11.801   3.576   6.602  1.00  0.00     0.049 A 
ATOM     48  N   UNL     1      12.929   6.039   5.281  1.00  0.00    -0.248 NA
ATOM     49  C   UNL     1      13.415   4.745   3.400  1.00  0.00     0.031 C 
ATOM     50  C   UNL     1      11.232   2.418   7.291  1.00  0.00     0.029 A 
ATOM     51  N   UNL     1      11.598   4.618   7.474  1.00  0.00    -0.354 N 
ATOM     52  C   UNL     1      13.508   6.843   4.305  1.00  0.00     0.074 A 
ATOM     53  C   UNL     1      13.814   5.989   3.178  1.00  0.00     0.031 C 
ATOM     54  C   UNL     1      10.762   2.812   8.489  1.00  0.00     0.029 A 
ATOM     55  C   UNL     1      11.033   4.237   8.669  1.00  0.00     0.049 A 
ATOM     56  H   UNL     1      11.834   5.551   7.263  1.00  0.00     0.167 HD
ATOM     57  C   UNL     1      13.763   8.171   4.343  1.00  0.00     0.031 A 
ATOM     58  C   UNL     1      10.793   4.947   9.791  1.00  0.00     0.031 A 
ATOM     59  C   UNL     1      13.451   9.023   5.459  1.00  0.00     0.049 A 
ATOM     60  C   UNL     1      11.145   6.415   9.829  1.00  0.00     0.074 A 
ATOM     61  C   UNL     1      13.641  10.389   5.574  1.00  0.00     0.029 A 
ATOM     62  N   UNL     1      12.892   8.595   6.653  1.00  0.00    -0.354 N 
ATOM     63  N   UNL     1      11.661   7.166   8.884  1.00  0.00    -0.248 NA
ATOM     64  C   UNL     1      10.874   7.134  11.083  1.00  0.00     0.031 C 
ATOM     65  C   UNL     1      13.259  10.777   6.860  1.00  0.00     0.029 A 
ATOM     66  C   UNL     1      12.762   9.665   7.521  1.00  0.00     0.049 A 
ATOM     67  H   UNL     1      12.627   7.668   6.853  1.00  0.00     0.167 HD
ATOM     68  C   UNL     1      11.742   8.449   9.421  1.00  0.00     0.074 A 
ATOM     69  C   UNL     1      11.209   8.376  10.764  1.00  0.00     0.031 C 
ATOM     70  C   UNL     1      12.216   9.585   8.852  1.00  0.00     0.031 A 
BRANCH  57  71
ATOM     71  C   UNL     1      14.447   8.795   3.156  1.00  0.00    -0.014 A 
ATOM     72  C   UNL     1      13.768   9.005   1.944  1.00  0.00     0.010 A 
ATOM     73  C   UNL     1      15.769   9.261   3.292  1.00  0.00     0.010 A 
ATOM     74  C   UNL     1      14.402   9.660   0.885  1.00  0.00     0.020 A 
ATOM     75  C   UNL     1      16.396   9.940   2.245  1.00  0.00     0.020 A 
ATOM     76  C   UNL     1      15.710  10.130   1.044  1.00  0.00     0.054 A 
BRANCH  76  77
ATOM     77  S   UNL     1      16.481  11.038  -0.323  1.00  0.00     0.124 S 
ATOM     78  O   UNL     1      16.702   9.978  -1.303  1.00  0.00    -0.237 OA
ATOM     79  O   UNL     1      15.454  12.015  -0.676  1.00  0.00    -0.237 OA
ATOM     80  O   UNL     1      17.692  11.599   0.270  1.00  0.00    -0.744 OA
ENDBRANCH  76  77
ENDBRANCH  57  71
BRANCH  58  81
ATOM     81  C   UNL     1      10.234   4.280  11.002  1.00  0.00    -0.014 A 
ATOM     82  C   UNL     1       8.960   4.618  11.492  1.00  0.00     0.010 A 
ATOM     83  C   UNL     1      11.002   3.331  11.703  1.00  0.00     0.010 A 
ATOM     84  C   UNL     1       8.481   4.051  12.678  1.00  0.00     0.020 A 
ATOM     85  C   UNL     1      10.513   2.737  12.870  1.00  0.00     0.020 A 
ATOM     86  C   UNL     1       9.263   3.116  13.361  1.00  0.00     0.054 A 
BRANCH  86  87
ATOM     87  S   UNL     1       8.619   2.383  14.891  1.00  0.00     0.124 S 
ATOM     88  O   UNL     1       8.736   3.492  15.832  1.00  0.00    -0.237 OA
ATOM     89  O   UNL     1       7.257   2.014  14.514  1.00  0.00    -0.237 OA
ATOM     90  O   UNL     1       9.517   1.256  15.135  1.00  0.00    -0.744 OA
ENDBRANCH  86  87
ENDBRANCH  58  81
BRANCH  70  91
ATOM     91  C   UNL     1      12.133  10.861   9.651  1.00  0.00    -0.014 A 
ATOM     92  C   UNL     1      12.959  11.085  10.767  1.00  0.00     0.010 A 
ATOM     93  C   UNL     1      11.256  11.880   9.235  1.00  0.00     0.010 A 
ATOM     94  C   UNL     1      12.884  12.290  11.471  1.00  0.00     0.020 A 
ATOM     95  C   UNL     1      11.201  13.098   9.917  1.00  0.00     0.020 A 
ATOM     96  C   UNL     1      12.006  13.290  11.041  1.00  0.00     0.054 A 
BRANCH  96  97
ATOM     97  S   UNL     1      11.959  14.861  11.946  1.00  0.00     0.124 S 
ATOM     98  O   UNL     1      11.280  14.480  13.182  1.00  0.00    -0.237 OA
ATOM     99  O   UNL     1      13.374  15.195  12.083  1.00  0.00    -0.237 OA
ATOM    100  O   UNL     1      11.198  15.747  11.067  1.00  0.00    -0.744 OA
ENDBRANCH  96  97
ENDBRANCH  70  91
ENDBRANCH  44  45
ENDBRANCH  37  39
ENDBRANCH  36  37
ENDBRANCH  35  36
ENDBRANCH  34  35
ENDBRANCH  33  34
ENDBRANCH  32  33
ENDBRANCH   1  32
TORSDOF 23
