REMARK SMILES N#C/C(=C\c1ccc(-c2cc(C(=O)OCCOCCOCCOC(=O)c3ccc(-c4c5nc(c(-c6ccc(S(=O)(=O)[O-])cc6)c6ccc([nH]6)c(-c6ccc(S(=O)(=O)[O-])cc6)c6nc(c(-c7ccc(S(=O)(=O)[O-])cc7)c7ccc4[nH]7)C=C6)C=C5)cc3)ccc2Cl)o1)C(=O)N1CCOCC1
REMARK SMILES IDX 18 1 17 2 16 3 15 4 14 5 12 6 13 7 11 8 9 9 10 10 88 11
REMARK SMILES IDX 87 12 89 13 86 14 8 15 5 16 6 17 90 18 7 19 4 20 3 21 2 22
REMARK SMILES IDX 1 23 91 24 92 25 93 26 94 27 98 28 95 29 97 30 96 31 19 32
REMARK SMILES IDX 20 33 21 34 22 35 23 36 24 37 25 38 26 39 27 40 85 41 28 42
REMARK SMILES IDX 84 43 29 44 30 45 31 46 78 47 32 48 83 49 77 50 79 51 33 52
REMARK SMILES IDX 82 53 76 54 75 55 34 57 64 58 45 59 63 60 46 61 49 62 62 63
REMARK SMILES IDX 80 64 47 65 48 66 61 68 81 69 50 70 35 71 36 72 44 73 37 74
REMARK SMILES IDX 43 75 38 76 39 77 40 78 41 79 42 80 65 81 66 82 74 83 67 84
REMARK SMILES IDX 73 85 68 86 69 87 70 88 71 89 72 90 51 91 52 92 60 93 53 94
REMARK SMILES IDX 59 95 54 96 55 97 56 98 57 99 58 100
REMARK H PARENT 79 56 49 67
REMARK Flexibility Score: inf
ROOT
ATOM      1  C   UNL     1       3.823  -8.610  -2.266  1.00  0.00     0.188 C 
ENDROOT
BRANCH   1   2
ATOM      2  O   UNL     1       3.335  -9.861  -1.833  1.00  0.00    -0.376 OA
BRANCH   2   3
ATOM      3  C   UNL     1       2.402 -10.588  -2.614  1.00  0.00     0.202 C 
BRANCH   3   4
ATOM      4  C   UNL     1       1.378  -9.943  -3.563  1.00  0.00     0.261 C 
BRANCH   4   5
ATOM      5  O   UNL     1       1.810  -8.771  -4.263  1.00  0.00    -0.460 OA
BRANCH   5   6
ATOM      6  C   UNL     1       1.173  -7.617  -3.930  1.00  0.00     0.338 C 
ATOM      7  O   UNL     1       0.248  -7.491  -3.149  1.00  0.00    -0.246 OA
BRANCH   6   8
ATOM      8  C   UNL     1       1.885  -6.468  -4.542  1.00  0.00     0.060 A 
ATOM      9  C   UNL     1       2.787  -4.209  -4.307  1.00  0.00     0.037 A 
ATOM     10  C   UNL     1       2.107  -5.313  -3.767  1.00  0.00     0.029 A 
ATOM     11  C   UNL     1       3.242  -4.293  -5.639  1.00  0.00     0.052 A 
ATOM     12  C   UNL     1       3.030  -5.450  -6.403  1.00  0.00     0.022 A 
ATOM     13  Cl  UNL     1       4.053  -2.978  -6.422  1.00  0.00    -0.084 Cl
ATOM     14  C   UNL     1       2.349  -6.537  -5.859  1.00  0.00     0.017 A 
BRANCH   9  15
ATOM     15  C   UNL     1       2.837  -2.951  -3.567  1.00  0.00     0.136 A 
ATOM     16  C   UNL     1       3.575  -1.520  -2.005  1.00  0.00     0.129 A 
ATOM     17  C   UNL     1       2.640  -0.871  -2.813  1.00  0.00     0.051 A 
ATOM     18  O   UNL     1       3.712  -2.812  -2.519  1.00  0.00    -0.457 OA
ATOM     19  C   UNL     1       2.142  -1.783  -3.759  1.00  0.00     0.051 A 
BRANCH  16  20
ATOM     20  C   UNL     1       4.316  -0.987  -0.880  1.00  0.00     0.072 C 
ATOM     21  C   UNL     1       3.789  -0.099   0.011  1.00  0.00     0.121 C 
BRANCH  21  22
ATOM     22  C   UNL     1       2.269  -0.099   0.011  1.00  0.00     0.105 C 
ATOM     23  N   UNL     1       1.008  -0.099   0.011  1.00  0.00    -0.192 NA
ENDBRANCH  21  22
BRANCH  21  24
ATOM     24  C   UNL     1       4.543   0.491   1.133  1.00  0.00     0.264 C 
ATOM     25  O   UNL     1       3.979   0.641   2.213  1.00  0.00    -0.268 OA
ATOM     26  N   UNL     1       5.864   0.839   0.915  1.00  0.00    -0.333 N 
ATOM     27  C   UNL     1       6.545   1.110  -0.360  1.00  0.00     0.148 C 
ATOM     28  C   UNL     1       6.772   0.879   2.060  1.00  0.00     0.148 C 
ATOM     29  C   UNL     1       7.731   0.155  -0.556  1.00  0.00     0.181 C 
ATOM     30  C   UNL     1       7.910  -0.105   1.787  1.00  0.00     0.181 C 
ATOM     31  O   UNL     1       8.613   0.207   0.569  1.00  0.00    -0.378 OA
ENDBRANCH  21  24
ENDBRANCH  16  20
ENDBRANCH   9  15
ENDBRANCH   6   8
ENDBRANCH   5   6
ENDBRANCH   4   5
ENDBRANCH   3   4
ENDBRANCH   2   3
ENDBRANCH   1   2
BRANCH   1  32
ATOM     32  C   UNL     1       4.660  -8.524  -3.558  1.00  0.00     0.188 C 
BRANCH  32  33
ATOM     33  O   UNL     1       4.835  -9.670  -4.359  1.00  0.00    -0.376 OA
BRANCH  33  34
ATOM     34  C   UNL     1       5.590 -10.769  -3.881  1.00  0.00     0.202 C 
BRANCH  34  35
ATOM     35  C   UNL     1       6.673 -10.701  -2.787  1.00  0.00     0.261 C 
BRANCH  35  36
ATOM     36  O   UNL     1       6.572  -9.667  -1.805  1.00  0.00    -0.460 OA
BRANCH  36  37
ATOM     37  C   UNL     1       7.463  -8.655  -1.932  1.00  0.00     0.338 C 
ATOM     38  O   UNL     1       8.303  -8.517  -2.814  1.00  0.00    -0.246 OA
BRANCH  37  39
ATOM     39  C   UNL     1       7.159  -7.617  -0.934  1.00  0.00     0.060 A 
ATOM     40  C   UNL     1       6.696  -6.368  -1.371  1.00  0.00     0.016 A 
ATOM     41  C   UNL     1       7.362  -7.863   0.424  1.00  0.00     0.016 A 
ATOM     42  C   UNL     1       6.449  -5.353  -0.447  1.00  0.00     0.010 A 
ATOM     43  C   UNL     1       7.137  -6.837   1.345  1.00  0.00     0.010 A 
ATOM     44  C   UNL     1       6.704  -5.569   0.914  1.00  0.00    -0.014 A 
BRANCH  44  45
ATOM     45  C   UNL     1       6.677  -4.433   1.868  1.00  0.00     0.031 A 
ATOM     46  C   UNL     1       7.988  -3.862   2.342  1.00  0.00     0.074 A 
ATOM     47  C   UNL     1       5.513  -3.899   2.286  1.00  0.00     0.049 A 
ATOM     48  N   UNL     1       8.219  -2.988   3.287  1.00  0.00    -0.248 NA
ATOM     49  C   UNL     1       9.200  -4.335   1.651  1.00  0.00     0.031 C 
ATOM     50  C   UNL     1       4.180  -4.349   1.883  1.00  0.00     0.029 A 
ATOM     51  N   UNL     1       5.269  -2.873   3.167  1.00  0.00    -0.354 N 
ATOM     52  C   UNL     1       9.596  -2.788   3.289  1.00  0.00     0.074 A 
ATOM     53  C   UNL     1      10.156  -3.688   2.305  1.00  0.00     0.031 C 
ATOM     54  C   UNL     1       3.257  -3.637   2.554  1.00  0.00     0.029 A 
ATOM     55  C   UNL     1       3.932  -2.701   3.450  1.00  0.00     0.049 A 
ATOM     56  H   UNL     1       5.979  -2.316   3.559  1.00  0.00     0.167 HD
ATOM     57  C   UNL     1      10.317  -1.880   3.988  1.00  0.00     0.031 A 
ATOM     58  C   UNL     1       3.326  -1.911   4.360  1.00  0.00     0.031 A 
ATOM     59  C   UNL     1       9.746  -0.899   4.875  1.00  0.00     0.049 A 
ATOM     60  C   UNL     1       4.167  -0.980   5.200  1.00  0.00     0.074 A 
ATOM     61  C   UNL     1      10.385   0.162   5.495  1.00  0.00     0.029 A 
ATOM     62  N   UNL     1       8.407  -0.818   5.224  1.00  0.00    -0.354 N 
ATOM     63  N   UNL     1       5.474  -0.850   5.236  1.00  0.00    -0.248 NA
ATOM     64  C   UNL     1       3.450  -0.083   6.118  1.00  0.00     0.031 C 
ATOM     65  C   UNL     1       9.432   0.885   6.217  1.00  0.00     0.029 A 
ATOM     66  C   UNL     1       8.193   0.305   6.006  1.00  0.00     0.049 A 
ATOM     67  H   UNL     1       7.712  -1.462   4.955  1.00  0.00     0.167 HD
ATOM     68  C   UNL     1       5.724   0.184   6.135  1.00  0.00     0.074 A 
ATOM     69  C   UNL     1       4.441   0.631   6.632  1.00  0.00     0.031 C 
ATOM     70  C   UNL     1       6.909   0.729   6.503  1.00  0.00     0.031 A 
BRANCH  57  71
ATOM     71  C   UNL     1      11.804  -1.826   3.761  1.00  0.00    -0.014 A 
ATOM     72  C   UNL     1      12.343  -1.314   2.565  1.00  0.00     0.010 A 
ATOM     73  C   UNL     1      12.672  -2.182   4.808  1.00  0.00     0.010 A 
ATOM     74  C   UNL     1      13.726  -1.187   2.412  1.00  0.00     0.020 A 
ATOM     75  C   UNL     1      14.054  -2.030   4.668  1.00  0.00     0.020 A 
ATOM     76  C   UNL     1      14.573  -1.542   3.467  1.00  0.00     0.054 A 
BRANCH  76  77
ATOM     77  S   UNL     1      16.361  -1.314   3.265  1.00  0.00     0.124 S 
ATOM     78  O   UNL     1      16.692  -2.363   2.303  1.00  0.00    -0.237 OA
ATOM     79  O   UNL     1      16.454   0.053   2.760  1.00  0.00    -0.237 OA
ATOM     80  O   UNL     1      16.891  -1.516   4.611  1.00  0.00    -0.744 OA
ENDBRANCH  76  77
ENDBRANCH  57  71
BRANCH  58  81
ATOM     81  C   UNL     1       1.853  -2.002   4.576  1.00  0.00    -0.014 A 
ATOM     82  C   UNL     1       0.996  -0.933   4.263  1.00  0.00     0.010 A 
ATOM     83  C   UNL     1       1.306  -3.161   5.159  1.00  0.00     0.010 A 
ATOM     84  C   UNL     1      -0.368  -0.999   4.578  1.00  0.00     0.020 A 
ATOM     85  C   UNL     1      -0.059  -3.245   5.444  1.00  0.00     0.020 A 
ATOM     86  C   UNL     1      -0.885  -2.153   5.175  1.00  0.00     0.054 A 
BRANCH  86  87
ATOM     87  S   UNL     1      -2.650  -2.220   5.594  1.00  0.00     0.124 S 
ATOM     88  O   UNL     1      -2.724  -1.333   6.751  1.00  0.00    -0.237 OA
ATOM     89  O   UNL     1      -3.290  -1.728   4.378  1.00  0.00    -0.237 OA
ATOM     90  O   UNL     1      -2.881  -3.635   5.880  1.00  0.00    -0.744 OA
ENDBRANCH  86  87
ENDBRANCH  58  81
BRANCH  70  91
ATOM     91  C   UNL     1       6.874   1.899   7.452  1.00  0.00    -0.014 A 
ATOM     92  C   UNL     1       6.576   1.722   8.814  1.00  0.00     0.010 A 
ATOM     93  C   UNL     1       7.194   3.188   6.985  1.00  0.00     0.010 A 
ATOM     94  C   UNL     1       6.580   2.814   9.687  1.00  0.00     0.020 A 
ATOM     95  C   UNL     1       7.231   4.277   7.860  1.00  0.00     0.020 A 
ATOM     96  C   UNL     1       6.913   4.084   9.206  1.00  0.00     0.054 A 
BRANCH  96  97
ATOM     97  S   UNL     1       6.971   5.471  10.373  1.00  0.00     0.124 S 
ATOM     98  O   UNL     1       5.555   5.691  10.657  1.00  0.00    -0.237 OA
ATOM     99  O   UNL     1       7.756   4.926  11.478  1.00  0.00    -0.237 OA
ATOM    100  O   UNL     1       7.627   6.535   9.617  1.00  0.00    -0.744 OA
ENDBRANCH  96  97
ENDBRANCH  70  91
ENDBRANCH  44  45
ENDBRANCH  37  39
ENDBRANCH  36  37
ENDBRANCH  35  36
ENDBRANCH  34  35
ENDBRANCH  33  34
ENDBRANCH  32  33
ENDBRANCH   1  32
TORSDOF 24
