REMARK SMILES CCc1cc(OC(F)(F)F)cc2c1O[C@@H](C(F)(F)F)C(C(=O)OCCOCCOCCOC(=O)c1ccc(-c3c4nc(c(-c5ccc(S(=O)(=O)[O-])cc5)c5ccc([nH]5)c(-c5ccc(S(=O)(=O)[O-])cc5)c5nc(c(-c6ccc(S(=O)(=O)[O-])cc6)c6ccc3[nH]6)C=C5)C=C4)cc1)=C2
REMARK SMILES IDX 28 1 27 2 26 3 25 4 24 5 23 6 21 7 22 8 20 9 3 10 4 11 13 12
REMARK SMILES IDX 5 13 12 14 14 15 11 16 95 17 15 18 2 19 1 20 6 21 7 22 8 23
REMARK SMILES IDX 9 24 10 25 16 26 17 27 18 28 19 29 29 30 30 31 31 32 32 33
REMARK SMILES IDX 33 34 34 35 35 36 36 37 94 38 37 39 93 40 38 41 39 42 40 43
REMARK SMILES IDX 87 44 41 45 92 46 86 47 88 48 42 49 91 50 85 51 84 52 43 54
REMARK SMILES IDX 73 55 54 56 72 57 55 58 58 59 71 60 89 61 56 62 57 63 70 65
REMARK SMILES IDX 90 66 59 67 44 68 45 69 53 70 46 71 52 72 47 73 48 74 49 75
REMARK SMILES IDX 50 76 51 77 74 78 75 79 83 80 76 81 82 82 77 83 78 84 79 85
REMARK SMILES IDX 80 86 81 87 60 88 61 89 69 90 62 91 68 92 63 93 64 94 65 95
REMARK SMILES IDX 66 96 67 97
REMARK H PARENT 88 53 58 64
REMARK Flexibility Score: inf
ROOT
ATOM      1  C   UNL     1       1.004   5.412  -6.947  1.00  0.00     0.188 C 
ENDROOT
BRANCH   1   2
ATOM      2  C   UNL     1       1.637   6.712  -6.411  1.00  0.00     0.188 C 
BRANCH   2   3
ATOM      3  O   UNL     1       2.646   7.248  -7.256  1.00  0.00    -0.376 OA
BRANCH   3   4
ATOM      4  C   UNL     1       3.967   7.230  -6.734  1.00  0.00     0.202 C 
BRANCH   4   5
ATOM      5  C   UNL     1       4.628   5.851  -6.804  1.00  0.00     0.261 C 
BRANCH   5   6
ATOM      6  O   UNL     1       3.905   4.821  -6.110  1.00  0.00    -0.460 OA
BRANCH   6   7
ATOM      7  C   UNL     1       3.997   4.810  -4.761  1.00  0.00     0.338 C 
ATOM      8  O   UNL     1       4.651   5.584  -4.085  1.00  0.00    -0.246 OA
BRANCH   7   9
ATOM      9  C   UNL     1       3.110   3.764  -4.215  1.00  0.00     0.087 C 
ATOM     10  C   UNL     1       1.019   0.741  -2.209  1.00  0.00    -0.002 A 
ATOM     11  C   UNL     1       0.821  -0.492  -2.858  1.00  0.00     0.054 A 
ATOM     12  C   UNL     1       1.737   1.743  -2.878  1.00  0.00     0.131 A 
ATOM     13  C   UNL     1       1.361  -0.735  -4.124  1.00  0.00     0.130 A 
ATOM     14  C   UNL     1       2.283   1.511  -4.149  1.00  0.00     0.021 A 
ATOM     15  O   UNL     1       1.952   2.931  -2.225  1.00  0.00    -0.475 OA
ATOM     16  C   UNL     1       2.078   0.277  -4.771  1.00  0.00     0.058 A 
ATOM     17  C   UNL     1       3.136   2.533  -4.755  1.00  0.00     0.027 C 
ATOM     18  C   UNL     1       2.145   4.079  -3.095  1.00  0.00     0.316 C 
BRANCH  10  19
ATOM     19  C   UNL     1       0.448   0.957  -0.825  1.00  0.00     0.036 C 
ATOM     20  C   UNL     1       1.022  -0.008   0.206  1.00  0.00     0.009 C 
ENDBRANCH  10  19
BRANCH  13  21
ATOM     21  O   UNL     1       1.258  -1.903  -4.827  1.00  0.00    -0.406 OA
BRANCH  21  22
ATOM     22  C   UNL     1       0.920  -3.072  -4.097  1.00  0.00     0.573 C 
ATOM     23  F   UNL     1       1.730  -3.239  -3.029  1.00  0.00    -0.132 F 
ATOM     24  F   UNL     1      -0.366  -3.038  -3.690  1.00  0.00    -0.132 F 
ATOM     25  F   UNL     1       1.074  -4.145  -4.906  1.00  0.00    -0.132 F 
ENDBRANCH  21  22
ENDBRANCH  13  21
BRANCH  18  26
ATOM     26  C   UNL     1       2.425   5.314  -2.224  1.00  0.00     0.430 C 
ATOM     27  F   UNL     1       2.396   6.445  -2.969  1.00  0.00    -0.167 F 
ATOM     28  F   UNL     1       1.451   5.457  -1.290  1.00  0.00    -0.167 F 
ATOM     29  F   UNL     1       3.605   5.244  -1.578  1.00  0.00    -0.167 F 
ENDBRANCH  18  26
ENDBRANCH   7   9
ENDBRANCH   6   7
ENDBRANCH   5   6
ENDBRANCH   4   5
ENDBRANCH   3   4
ENDBRANCH   2   3
ENDBRANCH   1   2
BRANCH   1  30
ATOM     30  O   UNL     1       1.059   5.093  -8.332  1.00  0.00    -0.376 OA
BRANCH  30  31
ATOM     31  C   UNL     1       0.982   6.135  -9.293  1.00  0.00     0.202 C 
BRANCH  31  32
ATOM     32  C   UNL     1      -0.315   6.945  -9.380  1.00  0.00     0.261 C 
BRANCH  32  33
ATOM     33  O   UNL     1      -0.781   7.468  -8.126  1.00  0.00    -0.460 OA
BRANCH  33  34
ATOM     34  C   UNL     1      -1.891   6.865  -7.633  1.00  0.00     0.338 C 
ATOM     35  O   UNL     1      -2.527   5.962  -8.149  1.00  0.00    -0.246 OA
BRANCH  34  36
ATOM     36  C   UNL     1      -2.162   7.338  -6.260  1.00  0.00     0.060 A 
ATOM     37  C   UNL     1      -2.297   6.372  -5.254  1.00  0.00     0.016 A 
ATOM     38  C   UNL     1      -2.369   8.690  -5.973  1.00  0.00     0.016 A 
ATOM     39  C   UNL     1      -2.677   6.748  -3.967  1.00  0.00     0.010 A 
ATOM     40  C   UNL     1      -2.773   9.063  -4.685  1.00  0.00     0.010 A 
ATOM     41  C   UNL     1      -2.962   8.090  -3.687  1.00  0.00    -0.014 A 
BRANCH  41  42
ATOM     42  C   UNL     1      -3.624   8.435  -2.405  1.00  0.00     0.031 A 
ATOM     43  C   UNL     1      -5.127   8.522  -2.365  1.00  0.00     0.074 A 
ATOM     44  C   UNL     1      -2.910   8.619  -1.280  1.00  0.00     0.049 A 
ATOM     45  N   UNL     1      -5.916   8.776  -1.353  1.00  0.00    -0.248 NA
ATOM     46  C   UNL     1      -5.833   8.284  -3.636  1.00  0.00     0.031 C 
ATOM     47  C   UNL     1      -1.455   8.520  -1.173  1.00  0.00     0.029 A 
ATOM     48  N   UNL     1      -3.321   8.928  -0.007  1.00  0.00    -0.354 N 
ATOM     49  C   UNL     1      -7.209   8.726  -1.861  1.00  0.00     0.074 A 
ATOM     50  C   UNL     1      -7.098   8.446  -3.276  1.00  0.00     0.031 C 
ATOM     51  C   UNL     1      -1.094   8.770   0.098  1.00  0.00     0.029 A 
ATOM     52  C   UNL     1      -2.288   9.069   0.887  1.00  0.00     0.049 A 
ATOM     53  H   UNL     1      -4.268   9.038   0.241  1.00  0.00     0.167 HD
ATOM     54  C   UNL     1      -8.385   8.891  -1.210  1.00  0.00     0.031 A 
ATOM     55  C   UNL     1      -2.303   9.412   2.191  1.00  0.00     0.031 A 
ATOM     56  C   UNL     1      -8.500   9.194   0.192  1.00  0.00     0.049 A 
ATOM     57  C   UNL     1      -3.620   9.668   2.878  1.00  0.00     0.074 A 
ATOM     58  C   UNL     1      -9.649   9.374   0.942  1.00  0.00     0.029 A 
ATOM     59  N   UNL     1      -7.428   9.374   1.052  1.00  0.00    -0.354 N 
ATOM     60  N   UNL     1      -4.835   9.587   2.389  1.00  0.00    -0.248 NA
ATOM     61  C   UNL     1      -3.566  10.050   4.296  1.00  0.00     0.031 C 
ATOM     62  C   UNL     1      -9.271   9.711   2.247  1.00  0.00     0.029 A 
ATOM     63  C   UNL     1      -7.887   9.687   2.320  1.00  0.00     0.049 A 
ATOM     64  H   UNL     1      -6.481   9.290   0.799  1.00  0.00     0.167 HD
ATOM     65  C   UNL     1      -5.689   9.883   3.448  1.00  0.00     0.074 A 
ATOM     66  C   UNL     1      -4.853  10.132   4.604  1.00  0.00     0.031 C 
ATOM     67  C   UNL     1      -7.045   9.937   3.462  1.00  0.00     0.031 A 
BRANCH  54  68
ATOM     68  C   UNL     1      -9.646   8.780  -2.024  1.00  0.00    -0.014 A 
ATOM     69  C   UNL     1     -10.104   7.532  -2.484  1.00  0.00     0.010 A 
ATOM     70  C   UNL     1     -10.394   9.935  -2.313  1.00  0.00     0.010 A 
ATOM     71  C   UNL     1     -11.269   7.447  -3.252  1.00  0.00     0.020 A 
ATOM     72  C   UNL     1     -11.571   9.851  -3.061  1.00  0.00     0.020 A 
ATOM     73  C   UNL     1     -11.992   8.609  -3.540  1.00  0.00     0.054 A 
BRANCH  73  74
ATOM     74  S   UNL     1     -13.507   8.471  -4.529  1.00  0.00     0.124 S 
ATOM     75  O   UNL     1     -12.971   8.247  -5.869  1.00  0.00    -0.237 OA
ATOM     76  O   UNL     1     -14.182   7.325  -3.924  1.00  0.00    -0.237 OA
ATOM     77  O   UNL     1     -14.169   9.757  -4.329  1.00  0.00    -0.744 OA
ENDBRANCH  73  74
ENDBRANCH  54  68
BRANCH  55  78
ATOM     78  C   UNL     1      -1.022   9.550   2.938  1.00  0.00    -0.014 A 
ATOM     79  C   UNL     1      -0.662   8.619   3.927  1.00  0.00     0.010 A 
ATOM     80  C   UNL     1      -0.160  10.628   2.666  1.00  0.00     0.010 A 
ATOM     81  C   UNL     1       0.529   8.773   4.644  1.00  0.00     0.020 A 
ATOM     82  C   UNL     1       1.042  10.772   3.364  1.00  0.00     0.020 A 
ATOM     83  C   UNL     1       1.373   9.849   4.358  1.00  0.00     0.054 A 
BRANCH  83  84
ATOM     84  S   UNL     1       2.934  10.008   5.270  1.00  0.00     0.124 S 
ATOM     85  O   UNL     1       2.480  10.509   6.563  1.00  0.00    -0.237 OA
ATOM     86  O   UNL     1       3.446   8.640   5.265  1.00  0.00    -0.237 OA
ATOM     87  O   UNL     1       3.703  10.956   4.466  1.00  0.00    -0.744 OA
ENDBRANCH  83  84
ENDBRANCH  55  78
BRANCH  67  88
ATOM     88  C   UNL     1      -7.714  10.248   4.775  1.00  0.00    -0.014 A 
ATOM     89  C   UNL     1      -7.690  11.545   5.317  1.00  0.00     0.010 A 
ATOM     90  C   UNL     1      -8.419   9.236   5.451  1.00  0.00     0.010 A 
ATOM     91  C   UNL     1      -8.330  11.816   6.530  1.00  0.00     0.020 A 
ATOM     92  C   UNL     1      -9.082   9.508   6.651  1.00  0.00     0.020 A 
ATOM     93  C   UNL     1      -9.020  10.794   7.192  1.00  0.00     0.054 A 
BRANCH  93  94
ATOM     94  S   UNL     1      -9.873  11.175   8.747  1.00  0.00     0.124 S 
ATOM     95  O   UNL     1      -8.763  11.235   9.694  1.00  0.00    -0.237 OA
ATOM     96  O   UNL     1     -10.521  12.451   8.456  1.00  0.00    -0.237 OA
ATOM     97  O   UNL     1     -10.785  10.047   8.926  1.00  0.00    -0.744 OA
ENDBRANCH  93  94
ENDBRANCH  67  88
ENDBRANCH  41  42
ENDBRANCH  34  36
ENDBRANCH  33  34
ENDBRANCH  32  33
ENDBRANCH  31  32
ENDBRANCH  30  31
ENDBRANCH   1  30
TORSDOF 24
