REMARK SMILES Nc1ncc(C(=O)OCCOCCOCCOC(=O)c2ccc(-c3c4nc(c(-c5ccc(S(=O)(=O)[O-])cc5)c5ccc([nH]5)c(-c5ccc(S(=O)(=O)[O-])cc5)c5nc(c(-c6ccc(S(=O)(=O)[O-])cc6)c6ccc3[nH]6)C=C5)C=C4)cc2)c(-c2ccccc2)n1
REMARK SMILES IDX 13 1 12 2 11 3 10 4 9 5 8 6 6 7 7 8 5 9 2 10 3 11 87 12 4 13
REMARK SMILES IDX 80 14 1 15 81 18 82 19 86 20 83 21 85 22 84 23 14 24 15 25
REMARK SMILES IDX 16 26 17 27 18 28 19 29 20 30 21 31 79 32 22 33 78 34 23 35
REMARK SMILES IDX 24 36 25 37 72 38 26 39 77 40 71 41 73 42 27 43 76 44 70 45
REMARK SMILES IDX 69 46 28 48 58 49 39 50 57 51 40 52 43 53 56 54 74 55 41 56
REMARK SMILES IDX 42 57 55 59 75 60 44 61 29 62 30 63 38 64 31 65 37 66 32 67
REMARK SMILES IDX 33 68 34 69 35 70 36 71 59 72 60 73 68 74 61 75 67 76 62 77
REMARK SMILES IDX 63 78 64 79 65 80 66 81 45 82 46 83 54 84 47 85 53 86 48 87
REMARK SMILES IDX 49 88 50 89 51 90 52 91
REMARK H PARENT 1 16 1 17 73 47 43 58
REMARK Flexibility Score: inf
ROOT
ATOM      1  C   UNL     1       3.804  -0.175  -2.117  1.00  0.00     0.188 C 
ENDROOT
BRANCH   1   2
ATOM      2  C   UNL     1       4.468   1.022  -1.407  1.00  0.00     0.188 C 
BRANCH   2   3
ATOM      3  O   UNL     1       5.828   0.902  -0.992  1.00  0.00    -0.376 OA
BRANCH   3   4
ATOM      4  C   UNL     1       6.215  -0.239  -0.229  1.00  0.00     0.202 C 
BRANCH   4   5
ATOM      5  C   UNL     1       5.428  -0.513   1.054  1.00  0.00     0.261 C 
BRANCH   5   6
ATOM      6  O   UNL     1       4.037  -0.755   0.786  1.00  0.00    -0.460 OA
BRANCH   6   7
ATOM      7  C   UNL     1       3.160  -0.200   1.650  1.00  0.00     0.342 C 
ATOM      8  O   UNL     1       3.430   0.405   2.675  1.00  0.00    -0.246 OA
BRANCH   7   9
ATOM      9  C   UNL     1       1.791  -0.286   1.132  1.00  0.00     0.104 A 
ATOM     10  C   UNL     1      -0.749  -0.178   0.189  1.00  0.00     0.220 A 
ATOM     11  N   UNL     1      -0.219   0.948   0.663  1.00  0.00    -0.221 NA
ATOM     12  N   UNL     1      -0.106  -1.348   0.129  1.00  0.00    -0.212 NA
ATOM     13  C   UNL     1       1.042   0.871   1.135  1.00  0.00     0.133 A 
ATOM     14  C   UNL     1       1.172  -1.405   0.599  1.00  0.00     0.090 A 
BRANCH  10  15
ATOM     15  N   UNL     1      -2.036  -0.129  -0.253  1.00  0.00    -0.368 N 
ATOM     16  H   UNL     1      -2.535   0.719  -0.221  1.00  0.00     0.159 HD
ATOM     17  H   UNL     1      -2.468  -0.941  -0.603  1.00  0.00     0.159 HD
ENDBRANCH  10  15
BRANCH  14  18
ATOM     18  C   UNL     1       1.806  -2.729   0.438  1.00  0.00     0.001 A 
ATOM     19  C   UNL     1       2.555  -3.337   1.460  1.00  0.00     0.010 A 
ATOM     20  C   UNL     1       1.696  -3.417  -0.786  1.00  0.00     0.010 A 
ATOM     21  C   UNL     1       3.220  -4.548   1.245  1.00  0.00     0.001 A 
ATOM     22  C   UNL     1       2.350  -4.633  -0.999  1.00  0.00     0.001 A 
ATOM     23  C   UNL     1       3.123  -5.191   0.013  1.00  0.00     0.000 A 
ENDBRANCH  14  18
ENDBRANCH   7   9
ENDBRANCH   6   7
ENDBRANCH   5   6
ENDBRANCH   4   5
ENDBRANCH   3   4
ENDBRANCH   2   3
ENDBRANCH   1   2
BRANCH   1  24
ATOM     24  O   UNL     1       4.697  -1.244  -2.376  1.00  0.00    -0.376 OA
BRANCH  24  25
ATOM     25  C   UNL     1       5.013  -1.498  -3.735  1.00  0.00     0.202 C 
BRANCH  25  26
ATOM     26  C   UNL     1       5.785  -0.405  -4.489  1.00  0.00     0.261 C 
BRANCH  26  27
ATOM     27  O   UNL     1       5.248   0.923  -4.409  1.00  0.00    -0.460 OA
BRANCH  27  28
ATOM     28  C   UNL     1       4.122   1.184  -5.111  1.00  0.00     0.338 C 
ATOM     29  O   UNL     1       3.487   0.399  -5.790  1.00  0.00    -0.246 OA
BRANCH  28  30
ATOM     30  C   UNL     1       3.690   2.557  -4.764  1.00  0.00     0.060 A 
ATOM     31  C   UNL     1       2.411   2.756  -4.229  1.00  0.00     0.016 A 
ATOM     32  C   UNL     1       4.555   3.641  -4.946  1.00  0.00     0.016 A 
ATOM     33  C   UNL     1       1.986   4.046  -3.898  1.00  0.00     0.010 A 
ATOM     34  C   UNL     1       4.121   4.932  -4.632  1.00  0.00     0.010 A 
ATOM     35  C   UNL     1       2.825   5.145  -4.130  1.00  0.00    -0.014 A 
BRANCH  35  36
ATOM     36  C   UNL     1       2.298   6.528  -4.018  1.00  0.00     0.031 A 
ATOM     37  C   UNL     1       1.778   7.200  -5.260  1.00  0.00     0.074 A 
ATOM     38  C   UNL     1       2.288   7.184  -2.843  1.00  0.00     0.049 A 
ATOM     39  N   UNL     1       1.313   8.412  -5.415  1.00  0.00    -0.248 NA
ATOM     40  C   UNL     1       1.786   6.394  -6.492  1.00  0.00     0.031 C 
ATOM     41  C   UNL     1       2.733   6.638  -1.562  1.00  0.00     0.029 A 
ATOM     42  N   UNL     1       1.892   8.465  -2.543  1.00  0.00    -0.354 N 
ATOM     43  C   UNL     1       0.975   8.516  -6.759  1.00  0.00     0.074 A 
ATOM     44  C   UNL     1       1.311   7.254  -7.381  1.00  0.00     0.031 C 
ATOM     45  C   UNL     1       2.596   7.584  -0.614  1.00  0.00     0.029 A 
ATOM     46  C   UNL     1       2.082   8.809  -1.226  1.00  0.00     0.049 A 
ATOM     47  H   UNL     1       1.509   9.080  -3.210  1.00  0.00     0.167 HD
ATOM     48  C   UNL     1       0.431   9.566  -7.419  1.00  0.00     0.031 A 
ATOM     49  C   UNL     1       1.882   9.982  -0.591  1.00  0.00     0.031 A 
ATOM     50  C   UNL     1       0.119  10.830  -6.810  1.00  0.00     0.049 A 
ATOM     51  C   UNL     1       1.344  11.161  -1.362  1.00  0.00     0.074 A 
ATOM     52  C   UNL     1      -0.440  11.952  -7.396  1.00  0.00     0.029 A 
ATOM     53  N   UNL     1       0.350  11.145  -5.481  1.00  0.00    -0.354 N 
ATOM     54  N   UNL     1       1.002  11.234  -2.627  1.00  0.00    -0.248 NA
ATOM     55  C   UNL     1       1.159  12.416  -0.617  1.00  0.00     0.031 C 
ATOM     56  C   UNL     1      -0.503  12.963  -6.430  1.00  0.00     0.029 A 
ATOM     57  C   UNL     1      -0.034  12.451  -5.231  1.00  0.00     0.049 A 
ATOM     58  H   UNL     1       0.731  10.530  -4.812  1.00  0.00     0.167 HD
ATOM     59  C   UNL     1       0.534  12.531  -2.820  1.00  0.00     0.074 A 
ATOM     60  C   UNL     1       0.630  13.205  -1.542  1.00  0.00     0.031 C 
ATOM     61  C   UNL     1       0.062  13.108  -3.952  1.00  0.00     0.031 A 
BRANCH  48  62
ATOM     62  C   UNL     1       0.170   9.394  -8.890  1.00  0.00    -0.014 A 
ATOM     63  C   UNL     1      -0.884   8.584  -9.351  1.00  0.00     0.010 A 
ATOM     64  C   UNL     1       0.974  10.071  -9.825  1.00  0.00     0.010 A 
ATOM     65  C   UNL     1      -1.105   8.425 -10.721  1.00  0.00     0.020 A 
ATOM     66  C   UNL     1       0.741   9.933 -11.195  1.00  0.00     0.020 A 
ATOM     67  C   UNL     1      -0.287   9.096 -11.635  1.00  0.00     0.054 A 
BRANCH  67  68
ATOM     68  S   UNL     1      -0.605   8.884 -13.408  1.00  0.00     0.124 S 
ATOM     69  O   UNL     1      -0.091   7.538 -13.646  1.00  0.00    -0.237 OA
ATOM     70  O   UNL     1      -2.056   9.026 -13.494  1.00  0.00    -0.237 OA
ATOM     71  O   UNL     1       0.161   9.962 -14.029  1.00  0.00    -0.744 OA
ENDBRANCH  67  68
ENDBRANCH  48  62
BRANCH  49  72
ATOM     72  C   UNL     1       2.209  10.113   0.856  1.00  0.00    -0.014 A 
ATOM     73  C   UNL     1       1.189  10.248   1.813  1.00  0.00     0.010 A 
ATOM     74  C   UNL     1       3.550  10.115   1.282  1.00  0.00     0.010 A 
ATOM     75  C   UNL     1       1.503  10.399   3.167  1.00  0.00     0.020 A 
ATOM     76  C   UNL     1       3.868  10.241   2.637  1.00  0.00     0.020 A 
ATOM     77  C   UNL     1       2.841  10.395   3.571  1.00  0.00     0.054 A 
BRANCH  77  78
ATOM     78  S   UNL     1       3.226  10.546   5.338  1.00  0.00     0.124 S 
ATOM     79  O   UNL     1       2.989  11.965   5.580  1.00  0.00    -0.237 OA
ATOM     80  O   UNL     1       2.266   9.630   5.951  1.00  0.00    -0.237 OA
ATOM     81  O   UNL     1       4.621  10.120   5.421  1.00  0.00    -0.744 OA
ENDBRANCH  77  78
ENDBRANCH  49  72
BRANCH  61  82
ATOM     82  C   UNL     1      -0.428  14.529  -3.861  1.00  0.00    -0.014 A 
ATOM     83  C   UNL     1       0.468  15.606  -3.752  1.00  0.00     0.010 A 
ATOM     84  C   UNL     1      -1.807  14.791  -3.958  1.00  0.00     0.010 A 
ATOM     85  C   UNL     1      -0.008  16.920  -3.716  1.00  0.00     0.020 A 
ATOM     86  C   UNL     1      -2.286  16.104  -3.947  1.00  0.00     0.020 A 
ATOM     87  C   UNL     1      -1.383  17.161  -3.813  1.00  0.00     0.054 A 
BRANCH  87  88
ATOM     88  S   UNL     1      -1.975  18.876  -3.817  1.00  0.00     0.124 S 
ATOM     89  O   UNL     1      -1.851  19.243  -2.410  1.00  0.00    -0.237 OA
ATOM     90  O   UNL     1      -1.039  19.538  -4.724  1.00  0.00    -0.237 OA
ATOM     91  O   UNL     1      -3.344  18.769  -4.316  1.00  0.00    -0.744 OA
ENDBRANCH  87  88
ENDBRANCH  61  82
ENDBRANCH  35  36
ENDBRANCH  28  30
ENDBRANCH  27  28
ENDBRANCH  26  27
ENDBRANCH  25  26
ENDBRANCH  24  25
ENDBRANCH   1  24
TORSDOF 22
