REMARK SMILES O=C(OCCOCCOCCOC(=O)[C@@H](Cc1ccccc1F)C1CCOCC1)c1ccc(-c2c3nc(c(-c4ccc(S(=O)(=O)[O-])cc4)c4ccc([nH]4)c(-c4ccc(S(=O)(=O)[O-])cc4)c4nc(c(-c5ccc(S(=O)(=O)[O-])cc5)c5ccc2[nH]5)C=C4)C=C3)cc1
REMARK SMILES IDX 7 1 6 2 5 3 4 4 3 5 2 6 1 7 30 8 31 9 89 10 32 11 88 12
REMARK SMILES IDX 33 13 34 14 35 15 82 16 36 17 87 18 81 19 83 20 37 21 86 22
REMARK SMILES IDX 80 23 79 24 38 26 68 27 49 28 67 29 50 30 53 31 66 32 84 33
REMARK SMILES IDX 51 34 52 35 65 37 85 38 54 39 39 40 40 41 48 42 41 43 47 44
REMARK SMILES IDX 42 45 43 46 44 47 45 48 46 49 69 50 70 51 78 52 71 53 77 54
REMARK SMILES IDX 72 55 73 56 74 57 75 58 76 59 55 60 56 61 64 62 57 63 63 64
REMARK SMILES IDX 58 65 59 66 60 67 61 68 62 69 8 70 9 71 10 72 11 73 12 74
REMARK SMILES IDX 13 75 14 76 15 77 16 78 17 79 18 80 22 81 19 82 21 83 23 84
REMARK SMILES IDX 20 85 24 86 25 87 29 88 26 89 28 90 27 91
REMARK H PARENT 83 25 53 36
REMARK Flexibility Score: inf
ROOT
ATOM      1  C   UNL     1       2.431  -0.976  -1.439  1.00  0.00     0.188 C 
ENDROOT
BRANCH   1   2
ATOM      2  O   UNL     1       3.722  -0.439  -1.138  1.00  0.00    -0.376 OA
BRANCH   2   3
ATOM      3  C   UNL     1       4.586  -1.346  -0.459  1.00  0.00     0.202 C 
BRANCH   3   4
ATOM      4  C   UNL     1       4.440  -1.297   1.064  1.00  0.00     0.261 C 
BRANCH   4   5
ATOM      5  O   UNL     1       3.103  -0.986   1.487  1.00  0.00    -0.460 OA
BRANCH   5   6
ATOM      6  C   UNL     1       2.507   0.224   1.636  1.00  0.00     0.338 C 
ATOM      7  O   UNL     1       1.325   0.226   1.983  1.00  0.00    -0.246 OA
BRANCH   6   8
ATOM      8  C   UNL     1       3.163   1.563   1.423  1.00  0.00     0.060 A 
ATOM      9  C   UNL     1       4.391   1.802   0.804  1.00  0.00     0.016 A 
ATOM     10  C   UNL     1       2.444   2.692   1.874  1.00  0.00     0.016 A 
ATOM     11  C   UNL     1       4.907   3.096   0.686  1.00  0.00     0.010 A 
ATOM     12  C   UNL     1       2.951   3.995   1.754  1.00  0.00     0.010 A 
ATOM     13  C   UNL     1       4.205   4.196   1.182  1.00  0.00    -0.014 A 
BRANCH  13  14
ATOM     14  C   UNL     1       4.932   5.481   1.277  1.00  0.00     0.031 A 
ATOM     15  C   UNL     1       5.814   5.682   2.469  1.00  0.00     0.074 A 
ATOM     16  C   UNL     1       4.903   6.381   0.280  1.00  0.00     0.049 A 
ATOM     17  N   UNL     1       6.650   6.650   2.721  1.00  0.00    -0.248 NA
ATOM     18  C   UNL     1       5.718   4.667   3.532  1.00  0.00     0.031 C 
ATOM     19  C   UNL     1       4.045   6.291  -0.893  1.00  0.00     0.029 A 
ATOM     20  N   UNL     1       5.653   7.511   0.057  1.00  0.00    -0.354 N 
ATOM     21  C   UNL     1       7.122   6.405   4.003  1.00  0.00     0.074 A 
ATOM     22  C   UNL     1       6.524   5.168   4.453  1.00  0.00     0.031 C 
ATOM     23  C   UNL     1       4.410   7.240  -1.771  1.00  0.00     0.029 A 
ATOM     24  C   UNL     1       5.500   8.024  -1.214  1.00  0.00     0.049 A 
ATOM     25  H   UNL     1       6.241   7.913   0.736  1.00  0.00     0.167 HD
ATOM     26  C   UNL     1       7.929   7.185   4.756  1.00  0.00     0.031 A 
ATOM     27  C   UNL     1       6.183   8.996  -1.855  1.00  0.00     0.031 A 
ATOM     28  C   UNL     1       8.456   8.442   4.299  1.00  0.00     0.049 A 
ATOM     29  C   UNL     1       7.161   9.795  -1.037  1.00  0.00     0.074 A 
ATOM     30  C   UNL     1       9.204   9.372   4.996  1.00  0.00     0.029 A 
ATOM     31  N   UNL     1       8.275   8.948   3.018  1.00  0.00    -0.354 N 
ATOM     32  N   UNL     1       7.564   9.584   0.194  1.00  0.00    -0.248 NA
ATOM     33  C   UNL     1       7.714  11.005  -1.658  1.00  0.00     0.031 C 
ATOM     34  C   UNL     1       9.429  10.465   4.151  1.00  0.00     0.029 A 
ATOM     35  C   UNL     1       8.887  10.183   2.906  1.00  0.00     0.049 A 
ATOM     36  H   UNL     1       7.783   8.495   2.296  1.00  0.00     0.167 HD
ATOM     37  C   UNL     1       8.372  10.665   0.517  1.00  0.00     0.074 A 
ATOM     38  C   UNL     1       8.468  11.484  -0.677  1.00  0.00     0.031 C 
ATOM     39  C   UNL     1       8.943  10.981   1.705  1.00  0.00     0.031 A 
BRANCH  26  40
ATOM     40  C   UNL     1       8.141   6.755   6.181  1.00  0.00    -0.014 A 
ATOM     41  C   UNL     1       8.896   5.615   6.512  1.00  0.00     0.010 A 
ATOM     42  C   UNL     1       7.499   7.473   7.208  1.00  0.00     0.010 A 
ATOM     43  C   UNL     1       8.954   5.168   7.835  1.00  0.00     0.020 A 
ATOM     44  C   UNL     1       7.582   7.048   8.535  1.00  0.00     0.020 A 
ATOM     45  C   UNL     1       8.289   5.883   8.837  1.00  0.00     0.054 A 
BRANCH  45  46
ATOM     46  S   UNL     1       8.359   5.269  10.541  1.00  0.00     0.124 S 
ATOM     47  O   UNL     1       7.489   4.097  10.474  1.00  0.00    -0.237 OA
ATOM     48  O   UNL     1       9.781   4.985  10.719  1.00  0.00    -0.237 OA
ATOM     49  O   UNL     1       7.845   6.383  11.334  1.00  0.00    -0.744 OA
ENDBRANCH  45  46
ENDBRANCH  26  40
BRANCH  27  50
ATOM     50  C   UNL     1       5.972   9.287  -3.309  1.00  0.00    -0.014 A 
ATOM     51  C   UNL     1       7.040   9.164  -4.222  1.00  0.00     0.010 A 
ATOM     52  C   UNL     1       4.719   9.692  -3.804  1.00  0.00     0.010 A 
ATOM     53  C   UNL     1       6.859   9.437  -5.584  1.00  0.00     0.020 A 
ATOM     54  C   UNL     1       4.522   9.926  -5.170  1.00  0.00     0.020 A 
ATOM     55  C   UNL     1       5.596   9.808  -6.052  1.00  0.00     0.054 A 
BRANCH  55  56
ATOM     56  S   UNL     1       5.363  10.090  -7.830  1.00  0.00     0.124 S 
ATOM     57  O   UNL     1       6.008  11.386  -8.019  1.00  0.00    -0.237 OA
ATOM     58  O   UNL     1       6.052   8.946  -8.422  1.00  0.00    -0.237 OA
ATOM     59  O   UNL     1       3.911  10.084  -7.986  1.00  0.00    -0.744 OA
ENDBRANCH  55  56
ENDBRANCH  27  50
BRANCH  39  60
ATOM     60  C   UNL     1       9.706  12.274   1.771  1.00  0.00    -0.014 A 
ATOM     61  C   UNL     1       9.036  13.511   1.754  1.00  0.00     0.010 A 
ATOM     62  C   UNL     1      11.103  12.246   1.918  1.00  0.00     0.010 A 
ATOM     63  C   UNL     1       9.757  14.701   1.855  1.00  0.00     0.020 A 
ATOM     64  C   UNL     1      11.823  13.433   2.049  1.00  0.00     0.020 A 
ATOM     65  C   UNL     1      11.147  14.654   2.003  1.00  0.00     0.054 A 
BRANCH  65  66
ATOM     66  S   UNL     1      12.057  16.211   2.180  1.00  0.00     0.124 S 
ATOM     67  O   UNL     1      11.984  16.759   0.828  1.00  0.00    -0.237 OA
ATOM     68  O   UNL     1      11.278  16.923   3.191  1.00  0.00    -0.237 OA
ATOM     69  O   UNL     1      13.387  15.788   2.610  1.00  0.00    -0.744 OA
ENDBRANCH  65  66
ENDBRANCH  39  60
ENDBRANCH  13  14
ENDBRANCH   6   8
ENDBRANCH   5   6
ENDBRANCH   4   5
ENDBRANCH   3   4
ENDBRANCH   2   3
ENDBRANCH   1   2
BRANCH   1  70
ATOM     70  C   UNL     1       2.096  -0.722  -2.906  1.00  0.00     0.188 C 
BRANCH  70  71
ATOM     71  O   UNL     1       2.753  -1.604  -3.820  1.00  0.00    -0.376 OA
BRANCH  71  72
ATOM     72  C   UNL     1       4.137  -1.355  -4.076  1.00  0.00     0.202 C 
BRANCH  72  73
ATOM     73  C   UNL     1       4.423  -0.348  -5.197  1.00  0.00     0.261 C 
BRANCH  73  74
ATOM     74  O   UNL     1       4.287   1.006  -4.746  1.00  0.00    -0.463 OA
BRANCH  74  75
ATOM     75  C   UNL     1       3.094   1.597  -4.975  1.00  0.00     0.309 C 
ATOM     76  O   UNL     1       2.185   1.097  -5.624  1.00  0.00    -0.252 OA
BRANCH  75  77
ATOM     77  C   UNL     1       2.966   2.948  -4.286  1.00  0.00     0.107 C 
BRANCH  77  78
ATOM     78  C   UNL     1       3.790   3.049  -2.976  1.00  0.00     0.054 C 
BRANCH  78  79
ATOM     79  C   UNL     1       5.296   3.229  -2.971  1.00  0.00    -0.011 A 
ATOM     80  C   UNL     1       5.888   4.478  -3.191  1.00  0.00     0.007 A 
ATOM     81  C   UNL     1       6.145   2.190  -2.568  1.00  0.00     0.126 A 
ATOM     82  C   UNL     1       7.247   4.696  -2.930  1.00  0.00     0.000 A 
ATOM     83  C   UNL     1       7.505   2.388  -2.333  1.00  0.00     0.039 A 
ATOM     84  F   UNL     1       5.653   0.969  -2.334  1.00  0.00    -0.207 F 
ATOM     85  C   UNL     1       8.055   3.653  -2.489  1.00  0.00     0.003 A 
ENDBRANCH  78  79
ENDBRANCH  77  78
BRANCH  77  86
ATOM     86  C   UNL     1       3.086   4.121  -5.284  1.00  0.00     0.008 C 
ATOM     87  C   UNL     1       2.630   5.452  -4.656  1.00  0.00     0.033 C 
ATOM     88  C   UNL     1       2.234   3.914  -6.556  1.00  0.00     0.033 C 
ATOM     89  C   UNL     1       2.731   6.585  -5.670  1.00  0.00     0.160 C 
ATOM     90  C   UNL     1       2.309   5.130  -7.471  1.00  0.00     0.160 C 
ATOM     91  O   UNL     1       1.880   6.295  -6.776  1.00  0.00    -0.381 OA
ENDBRANCH  77  86
ENDBRANCH  75  77
ENDBRANCH  74  75
ENDBRANCH  73  74
ENDBRANCH  72  73
ENDBRANCH  71  72
ENDBRANCH  70  71
ENDBRANCH   1  70
TORSDOF 23
