REMARK SMILES Cc1cc(C)cc(N(C)S(=O)(=O)c2ccc(F)c(C(=O)OCCOCCOCCOC(=O)c3ccc(-c4c5nc(c(-c6ccc(S(=O)(=O)[O-])cc6)c6ccc([nH]6)c(-c6ccc(S(=O)(=O)[O-])cc6)c6nc(c(-c7ccc(S(=O)(=O)[O-])cc7)c7ccc4[nH]7)C=C6)C=C5)cc3)c2)c1
REMARK SMILES IDX 25 1 24 2 23 3 22 4 21 5 19 6 20 7 18 8 13 9 14 10 93 11
REMARK SMILES IDX 15 12 16 13 17 14 10 15 11 16 12 17 8 18 9 19 7 20 1 21 2 22
REMARK SMILES IDX 3 23 94 24 4 25 5 26 6 27 26 28 27 29 28 30 29 31 30 32
REMARK SMILES IDX 31 33 32 34 33 35 34 36 92 37 35 38 91 39 36 40 37 41 38 42
REMARK SMILES IDX 85 43 39 44 90 45 84 46 86 47 40 48 89 49 83 50 82 51 41 53
REMARK SMILES IDX 71 54 52 55 70 56 53 57 56 58 69 59 87 60 54 61 55 62 68 64
REMARK SMILES IDX 88 65 57 66 42 67 43 68 51 69 44 70 50 71 45 72 46 73 47 74
REMARK SMILES IDX 48 75 49 76 72 77 73 78 81 79 74 80 80 81 75 82 76 83 77 84
REMARK SMILES IDX 78 85 79 86 58 87 59 88 67 89 60 90 66 91 61 92 62 93 63 94
REMARK SMILES IDX 64 95 65 96
REMARK H PARENT 86 52 56 63
REMARK Flexibility Score: inf
ROOT
ATOM      1  C   UNL     1      -3.064  -7.641   1.249  1.00  0.00     0.188 C 
ENDROOT
BRANCH   1   2
ATOM      2  O   UNL     1      -4.299  -8.272   0.988  1.00  0.00    -0.376 OA
BRANCH   2   3
ATOM      3  C   UNL     1      -4.353  -9.442   0.187  1.00  0.00     0.202 C 
BRANCH   3   4
ATOM      4  C   UNL     1      -3.358  -9.748  -0.947  1.00  0.00     0.261 C 
BRANCH   4   5
ATOM      5  O   UNL     1      -1.990  -9.408  -0.686  1.00  0.00    -0.460 OA
BRANCH   5   6
ATOM      6  C   UNL     1      -1.415  -8.554  -1.572  1.00  0.00     0.341 C 
ATOM      7  O   UNL     1      -1.928  -8.080  -2.571  1.00  0.00    -0.246 OA
BRANCH   6   8
ATOM      8  C   UNL     1      -0.147  -8.045  -1.020  1.00  0.00     0.097 A 
ATOM      9  C   UNL     1       1.157  -6.115  -0.328  1.00  0.00     0.089 A 
ATOM     10  C   UNL     1       2.117  -6.989   0.213  1.00  0.00     0.025 A 
ATOM     11  C   UNL     1       0.053  -6.653  -0.996  1.00  0.00     0.041 A 
ATOM     12  C   UNL     1       1.955  -8.376   0.111  1.00  0.00     0.041 A 
ATOM     13  C   UNL     1       0.815  -8.900  -0.491  1.00  0.00     0.137 A 
ATOM     14  F   UNL     1       0.679 -10.230  -0.573  1.00  0.00    -0.206 F 
BRANCH   9  15
ATOM     15  S   UNL     1       1.552  -4.358  -0.387  1.00  0.00     0.264 S 
ATOM     16  O   UNL     1       1.741  -4.076  -1.794  1.00  0.00    -0.201 OA
ATOM     17  O   UNL     1       2.650  -4.208   0.552  1.00  0.00    -0.201 OA
BRANCH  15  18
ATOM     18  N   UNL     1       0.235  -3.388   0.211  1.00  0.00    -0.269 N 
ATOM     19  C   UNL     1      -1.118  -3.841  -0.196  1.00  0.00     0.164 C 
BRANCH  18  20
ATOM     20  C   UNL     1       0.474  -1.914   0.058  1.00  0.00     0.052 A 
ATOM     21  C   UNL     1       3.333   0.664   0.178  1.00  0.00     0.044 C 
ATOM     22  C   UNL     1       1.967   0.056   0.089  1.00  0.00    -0.049 A 
ATOM     23  C   UNL     1       0.885   0.903  -0.102  1.00  0.00     0.007 A 
ATOM     24  C   UNL     1       1.750  -1.333   0.198  1.00  0.00     0.030 A 
ATOM     25  C   UNL     1      -0.389   0.371  -0.212  1.00  0.00    -0.049 A 
ATOM     26  C   UNL     1      -1.536   1.298  -0.417  1.00  0.00     0.044 C 
ATOM     27  C   UNL     1      -0.592  -1.015  -0.102  1.00  0.00     0.030 A 
ENDBRANCH  18  20
ENDBRANCH  15  18
ENDBRANCH   9  15
ENDBRANCH   6   8
ENDBRANCH   5   6
ENDBRANCH   4   5
ENDBRANCH   3   4
ENDBRANCH   2   3
ENDBRANCH   1   2
BRANCH   1  28
ATOM     28  C   UNL     1      -1.996  -8.367   2.091  1.00  0.00     0.188 C 
BRANCH  28  29
ATOM     29  O   UNL     1      -2.143  -9.739   2.370  1.00  0.00    -0.376 OA
BRANCH  29  30
ATOM     30  C   UNL     1      -3.132 -10.191   3.279  1.00  0.00     0.202 C 
BRANCH  30  31
ATOM     31  C   UNL     1      -3.828  -9.335   4.352  1.00  0.00     0.261 C 
BRANCH  31  32
ATOM     32  O   UNL     1      -3.905  -7.924   4.142  1.00  0.00    -0.460 OA
BRANCH  32  33
ATOM     33  C   UNL     1      -3.068  -7.179   4.903  1.00  0.00     0.338 C 
ATOM     34  O   UNL     1      -2.222  -7.589   5.690  1.00  0.00    -0.246 OA
BRANCH  33  35
ATOM     35  C   UNL     1      -3.207  -5.765   4.522  1.00  0.00     0.060 A 
ATOM     36  C   UNL     1      -2.129  -5.105   3.913  1.00  0.00     0.016 A 
ATOM     37  C   UNL     1      -4.389  -5.082   4.807  1.00  0.00     0.016 A 
ATOM     38  C   UNL     1      -2.228  -3.748   3.599  1.00  0.00     0.010 A 
ATOM     39  C   UNL     1      -4.478  -3.721   4.512  1.00  0.00     0.010 A 
ATOM     40  C   UNL     1      -3.393  -3.042   3.929  1.00  0.00    -0.014 A 
BRANCH  40  41
ATOM     41  C   UNL     1      -3.435  -1.560   3.841  1.00  0.00     0.031 A 
ATOM     42  C   UNL     1      -3.061  -0.770   5.066  1.00  0.00     0.074 A 
ATOM     43  C   UNL     1      -3.870  -0.944   2.724  1.00  0.00     0.049 A 
ATOM     44  N   UNL     1      -3.026   0.524   5.237  1.00  0.00    -0.248 NA
ATOM     45  C   UNL     1      -2.699  -1.546   6.265  1.00  0.00     0.031 C 
ATOM     46  C   UNL     1      -4.248  -1.627   1.490  1.00  0.00     0.029 A 
ATOM     47  N   UNL     1      -4.064   0.388   2.441  1.00  0.00    -0.354 N 
ATOM     48  C   UNL     1      -2.684   0.718   6.571  1.00  0.00     0.074 A 
ATOM     49  C   UNL     1      -2.520  -0.590   7.164  1.00  0.00     0.031 C 
ATOM     50  C   UNL     1      -4.592  -0.708   0.569  1.00  0.00     0.029 A 
ATOM     51  C   UNL     1      -4.496   0.631   1.152  1.00  0.00     0.049 A 
ATOM     52  H   UNL     1      -3.909   1.104   3.098  1.00  0.00     0.167 HD
ATOM     53  C   UNL     1      -2.541   1.884   7.243  1.00  0.00     0.031 A 
ATOM     54  C   UNL     1      -4.726   1.803   0.512  1.00  0.00     0.031 A 
ATOM     55  C   UNL     1      -2.713   3.176   6.636  1.00  0.00     0.049 A 
ATOM     56  C   UNL     1      -4.468   3.088   1.276  1.00  0.00     0.074 A 
ATOM     57  C   UNL     1      -2.581   4.425   7.217  1.00  0.00     0.029 A 
ATOM     58  N   UNL     1      -3.061   3.384   5.309  1.00  0.00    -0.354 N 
ATOM     59  N   UNL     1      -4.006   3.250   2.496  1.00  0.00    -0.248 NA
ATOM     60  C   UNL     1      -4.720   4.350   0.565  1.00  0.00     0.031 C 
ATOM     61  C   UNL     1      -2.915   5.385   6.258  1.00  0.00     0.029 A 
ATOM     62  C   UNL     1      -3.185   4.739   5.061  1.00  0.00     0.049 A 
ATOM     63  H   UNL     1      -3.200   2.672   4.643  1.00  0.00     0.167 HD
ATOM     64  C   UNL     1      -3.887   4.625   2.682  1.00  0.00     0.074 A 
ATOM     65  C   UNL     1      -4.264   5.246   1.429  1.00  0.00     0.031 C 
ATOM     66  C   UNL     1      -3.532   5.323   3.790  1.00  0.00     0.031 A 
BRANCH  53  67
ATOM     67  C   UNL     1      -2.248   1.817   8.720  1.00  0.00    -0.014 A 
ATOM     68  C   UNL     1      -1.006   1.378   9.210  1.00  0.00     0.010 A 
ATOM     69  C   UNL     1      -3.231   2.242   9.634  1.00  0.00     0.010 A 
ATOM     70  C   UNL     1      -0.765   1.331  10.587  1.00  0.00     0.020 A 
ATOM     71  C   UNL     1      -2.984   2.225  11.010  1.00  0.00     0.020 A 
ATOM     72  C   UNL     1      -1.757   1.754  11.478  1.00  0.00     0.054 A 
BRANCH  72  73
ATOM     73  S   UNL     1      -1.409   1.705  13.258  1.00  0.00     0.124 S 
ATOM     74  O   UNL     1      -1.410   0.269  13.526  1.00  0.00    -0.237 OA
ATOM     75  O   UNL     1      -0.105   2.359  13.346  1.00  0.00    -0.237 OA
ATOM     76  O   UNL     1      -2.517   2.449  13.851  1.00  0.00    -0.744 OA
ENDBRANCH  72  73
ENDBRANCH  53  67
BRANCH  54  77
ATOM     77  C   UNL     1      -5.035   1.832  -0.962  1.00  0.00    -0.014 A 
ATOM     78  C   UNL     1      -4.177   2.518  -1.850  1.00  0.00     0.010 A 
ATOM     79  C   UNL     1      -6.125   1.141  -1.517  1.00  0.00     0.010 A 
ATOM     80  C   UNL     1      -4.362   2.477  -3.233  1.00  0.00     0.020 A 
ATOM     81  C   UNL     1      -6.307   1.075  -2.908  1.00  0.00     0.020 A 
ATOM     82  C   UNL     1      -5.418   1.738  -3.756  1.00  0.00     0.054 A 
BRANCH  82  83
ATOM     83  S   UNL     1      -5.583   1.638  -5.559  1.00  0.00     0.124 S 
ATOM     84  O   UNL     1      -5.808   3.033  -5.925  1.00  0.00    -0.237 OA
ATOM     85  O   UNL     1      -4.292   1.080  -5.955  1.00  0.00    -0.237 OA
ATOM     86  O   UNL     1      -6.726   0.749  -5.749  1.00  0.00    -0.744 OA
ENDBRANCH  82  83
ENDBRANCH  54  77
BRANCH  66  87
ATOM     87  C   UNL     1      -3.539   6.830   3.707  1.00  0.00    -0.014 A 
ATOM     88  C   UNL     1      -4.749   7.537   3.578  1.00  0.00     0.010 A 
ATOM     89  C   UNL     1      -2.341   7.552   3.864  1.00  0.00     0.010 A 
ATOM     90  C   UNL     1      -4.759   8.933   3.581  1.00  0.00     0.020 A 
ATOM     91  C   UNL     1      -2.351   8.950   3.903  1.00  0.00     0.020 A 
ATOM     92  C   UNL     1      -3.561   9.631   3.751  1.00  0.00     0.054 A 
BRANCH  92  93
ATOM     93  S   UNL     1      -3.619  11.442   3.830  1.00  0.00     0.124 S 
ATOM     94  O   UNL     1      -3.917  11.798   2.446  1.00  0.00    -0.237 OA
ATOM     95  O   UNL     1      -4.696  11.684   4.787  1.00  0.00    -0.237 OA
ATOM     96  O   UNL     1      -2.284  11.813   4.296  1.00  0.00    -0.744 OA
ENDBRANCH  92  93
ENDBRANCH  66  87
ENDBRANCH  40  41
ENDBRANCH  33  35
ENDBRANCH  32  33
ENDBRANCH  31  32
ENDBRANCH  30  31
ENDBRANCH  29  30
ENDBRANCH  28  29
ENDBRANCH   1  28
TORSDOF 23
