REMARK SMILES CC(C)C[C@H](NC(=O)CNC(=O)[C@@H]([NH3+])C(C)C)C(=O)OCCOCCOCCOC(=O)c1ccc(-c2c3nc(c(-c4ccc(S(=O)(=O)[O-])cc4)c4ccc([nH]4)c(-c4ccc(S(=O)(=O)[O-])cc4)c4nc(c(-c5ccc(S(=O)(=O)[O-])cc5)c5ccc2[nH]5)C=C4)C=C3)cc1
REMARK SMILES IDX 24 1 23 2 22 3 21 4 20 5 18 6 19 7 5 8 4 9 2 10 1 11 3 12
REMARK SMILES IDX 6 13 7 14 8 16 9 17 10 18 11 19 12 21 13 22 14 23 15 27
REMARK SMILES IDX 16 28 17 29 25 30 26 31 27 32 28 33 29 34 30 35 31 36 32 37
REMARK SMILES IDX 33 38 91 39 34 40 90 41 35 42 36 43 37 44 84 45 38 46 89 47
REMARK SMILES IDX 83 48 85 49 39 50 88 51 82 52 81 53 40 55 70 56 51 57 69 58
REMARK SMILES IDX 52 59 55 60 68 61 86 62 53 63 54 64 67 66 87 67 56 68 41 69
REMARK SMILES IDX 42 70 50 71 43 72 49 73 44 74 45 75 46 76 47 77 48 78 71 79
REMARK SMILES IDX 72 80 80 81 73 82 79 83 74 84 75 85 76 86 77 87 78 88 57 89
REMARK SMILES IDX 58 90 66 91 59 92 65 93 60 94 61 95 62 96 63 97 64 98
REMARK H PARENT 6 15 10 20 14 24 14 25 14 26 85 54 55 65
REMARK Flexibility Score: inf
ROOT
ATOM      1  C   UNL     1      -4.792   0.790   0.598  1.00  0.00     0.188 C 
ENDROOT
BRANCH   1   2
ATOM      2  O   UNL     1      -5.995   0.113   0.901  1.00  0.00    -0.376 OA
BRANCH   2   3
ATOM      3  C   UNL     1      -6.570  -0.698  -0.103  1.00  0.00     0.202 C 
BRANCH   3   4
ATOM      4  C   UNL     1      -5.753  -1.722  -0.904  1.00  0.00     0.261 C 
BRANCH   4   5
ATOM      5  O   UNL     1      -4.350  -1.832  -0.670  1.00  0.00    -0.462 OA
BRANCH   5   6
ATOM      6  C   UNL     1      -3.534  -1.128  -1.503  1.00  0.00     0.328 C 
ATOM      7  O   UNL     1      -3.900  -0.256  -2.281  1.00  0.00    -0.250 OA
BRANCH   6   8
ATOM      8  C   UNL     1      -2.105  -1.661  -1.456  1.00  0.00     0.192 C 
BRANCH   8   9
ATOM      9  C   UNL     1      -1.877  -2.406  -2.777  1.00  0.00     0.040 C 
BRANCH   9  10
ATOM     10  C   UNL     1      -2.975  -3.310  -3.385  1.00  0.00    -0.015 C 
ATOM     11  C   UNL     1      -4.038  -2.561  -4.196  1.00  0.00     0.007 C 
ATOM     12  C   UNL     1      -2.319  -4.291  -4.367  1.00  0.00     0.007 C 
ENDBRANCH   9  10
ENDBRANCH   8   9
BRANCH   8  13
ATOM     13  N   UNL     1      -1.789  -2.453  -0.235  1.00  0.00    -0.341 N 
ATOM     14  C   UNL     1      -0.617  -2.289   0.479  1.00  0.00     0.240 C 
ATOM     15  H   UNL     1      -2.442  -3.121   0.077  1.00  0.00     0.164 HD
ATOM     16  O   UNL     1      -0.610  -1.532   1.451  1.00  0.00    -0.273 OA
BRANCH  14  17
ATOM     17  C   UNL     1       0.681  -2.988   0.041  1.00  0.00     0.216 C 
BRANCH  17  18
ATOM     18  N   UNL     1       0.487  -4.160  -0.788  1.00  0.00    -0.342 N 
ATOM     19  C   UNL     1       0.749  -4.460  -2.080  1.00  0.00     0.278 C 
ATOM     20  H   UNL     1       0.069  -4.907  -0.300  1.00  0.00     0.164 HD
ATOM     21  O   UNL     1       0.403  -5.603  -2.411  1.00  0.00    -0.268 OA
BRANCH  19  22
ATOM     22  C   UNL     1       1.324  -3.466  -3.148  1.00  0.00     0.273 C 
BRANCH  22  23
ATOM     23  N   UNL     1       1.532  -2.098  -2.631  1.00  0.00    -0.347 N 
ATOM     24  H   UNL     1       2.247  -2.114  -1.905  1.00  0.00     0.345 HD
ATOM     25  H   UNL     1       0.658  -1.745  -2.241  1.00  0.00     0.345 HD
ATOM     26  H   UNL     1       1.834  -1.489  -3.392  1.00  0.00     0.345 HD
ENDBRANCH  22  23
BRANCH  22  27
ATOM     27  C   UNL     1       2.590  -4.034  -3.832  1.00  0.00     0.051 C 
ATOM     28  C   UNL     1       2.263  -5.289  -4.659  1.00  0.00     0.014 C 
ATOM     29  C   UNL     1       3.240  -3.016  -4.780  1.00  0.00     0.014 C 
ENDBRANCH  22  27
ENDBRANCH  19  22
ENDBRANCH  17  18
ENDBRANCH  14  17
ENDBRANCH   8  13
ENDBRANCH   6   8
ENDBRANCH   5   6
ENDBRANCH   4   5
ENDBRANCH   3   4
ENDBRANCH   2   3
ENDBRANCH   1   2
BRANCH   1  30
ATOM     30  C   UNL     1      -3.576   0.133   1.279  1.00  0.00     0.188 C 
BRANCH  30  31
ATOM     31  O   UNL     1      -3.757  -1.096   1.965  1.00  0.00    -0.376 OA
BRANCH  31  32
ATOM     32  C   UNL     1      -4.776  -1.174   2.960  1.00  0.00     0.202 C 
BRANCH  32  33
ATOM     33  C   UNL     1      -5.202   0.018   3.860  1.00  0.00     0.261 C 
BRANCH  33  34
ATOM     34  O   UNL     1      -4.886   1.349   3.425  1.00  0.00    -0.460 OA
BRANCH  34  35
ATOM     35  C   UNL     1      -3.742   1.892   3.916  1.00  0.00     0.338 C 
ATOM     36  O   UNL     1      -3.003   1.400   4.753  1.00  0.00    -0.246 OA
BRANCH  35  37
ATOM     37  C   UNL     1      -3.388   3.067   3.076  1.00  0.00     0.060 A 
ATOM     38  C   UNL     1      -2.165   3.055   2.379  1.00  0.00     0.016 A 
ATOM     39  C   UNL     1      -4.262   4.144   2.932  1.00  0.00     0.016 A 
ATOM     40  C   UNL     1      -1.805   4.121   1.554  1.00  0.00     0.010 A 
ATOM     41  C   UNL     1      -3.877   5.237   2.147  1.00  0.00     0.010 A 
ATOM     42  C   UNL     1      -2.633   5.245   1.485  1.00  0.00    -0.014 A 
BRANCH  42  43
ATOM     43  C   UNL     1      -2.088   6.535   0.992  1.00  0.00     0.031 A 
ATOM     44  C   UNL     1      -1.529   7.480   2.024  1.00  0.00     0.074 A 
ATOM     45  C   UNL     1      -2.094   6.882  -0.307  1.00  0.00     0.049 A 
ATOM     46  N   UNL     1      -1.139   8.720   1.894  1.00  0.00    -0.248 NA
ATOM     47  C   UNL     1      -1.410   6.949   3.393  1.00  0.00     0.031 C 
ATOM     48  C   UNL     1      -2.531   6.036  -1.414  1.00  0.00     0.029 A 
ATOM     49  N   UNL     1      -1.734   8.065  -0.907  1.00  0.00    -0.354 N 
ATOM     50  C   UNL     1      -0.759   9.126   3.169  1.00  0.00     0.074 A 
ATOM     51  C   UNL     1      -0.983   8.009   4.058  1.00  0.00     0.031 C 
ATOM     52  C   UNL     1      -2.439   6.737  -2.559  1.00  0.00     0.029 A 
ATOM     53  C   UNL     1      -1.982   8.095  -2.259  1.00  0.00     0.049 A 
ATOM     54  H   UNL     1      -1.335   8.819  -0.415  1.00  0.00     0.167 HD
ATOM     55  C   UNL     1      -0.273  10.324   3.567  1.00  0.00     0.031 A 
ATOM     56  C   UNL     1      -1.887   9.111  -3.142  1.00  0.00     0.031 A 
ATOM     57  C   UNL     1      -0.071  11.439   2.683  1.00  0.00     0.049 A 
ATOM     58  C   UNL     1      -1.426  10.468  -2.665  1.00  0.00     0.074 A 
ATOM     59  C   UNL     1       0.421  12.696   2.984  1.00  0.00     0.029 A 
ATOM     60  N   UNL     1      -0.358  11.434   1.326  1.00  0.00    -0.354 N 
ATOM     61  N   UNL     1      -1.071  10.844  -1.459  1.00  0.00    -0.248 NA
ATOM     62  C   UNL     1      -1.350  11.537  -3.672  1.00  0.00     0.031 C 
ATOM     63  C   UNL     1       0.370  13.472   1.823  1.00  0.00     0.029 A 
ATOM     64  C   UNL     1      -0.078  12.675   0.781  1.00  0.00     0.049 A 
ATOM     65  H   UNL     1      -0.709  10.663   0.825  1.00  0.00     0.167 HD
ATOM     66  C   UNL     1      -0.693  12.180  -1.570  1.00  0.00     0.074 A 
ATOM     67  C   UNL     1      -0.860  12.545  -2.962  1.00  0.00     0.031 C 
ATOM     68  C   UNL     1      -0.241  13.024  -0.609  1.00  0.00     0.031 A 
BRANCH  55  69
ATOM     69  C   UNL     1       0.012  10.501   5.035  1.00  0.00    -0.014 A 
ATOM     70  C   UNL     1       1.064   9.814   5.669  1.00  0.00     0.010 A 
ATOM     71  C   UNL     1      -0.786  11.377   5.793  1.00  0.00     0.010 A 
ATOM     72  C   UNL     1       1.280   9.963   7.041  1.00  0.00     0.020 A 
ATOM     73  C   UNL     1      -0.551  11.556   7.158  1.00  0.00     0.020 A 
ATOM     74  C   UNL     1       0.468  10.831   7.778  1.00  0.00     0.054 A 
BRANCH  74  75
ATOM     75  S   UNL     1       0.778  11.014   9.555  1.00  0.00     0.124 S 
ATOM     76  O   UNL     1       0.316   9.729  10.075  1.00  0.00    -0.237 OA
ATOM     77  O   UNL     1       2.222  11.230   9.607  1.00  0.00    -0.237 OA
ATOM     78  O   UNL     1      -0.036  12.166   9.933  1.00  0.00    -0.744 OA
ENDBRANCH  74  75
ENDBRANCH  55  69
BRANCH  56  79
ATOM     79  C   UNL     1      -2.262   8.895  -4.568  1.00  0.00    -0.014 A 
ATOM     80  C   UNL     1      -1.285   8.918  -5.579  1.00  0.00     0.010 A 
ATOM     81  C   UNL     1      -3.603   8.657  -4.924  1.00  0.00     0.010 A 
ATOM     82  C   UNL     1      -1.640   8.710  -6.916  1.00  0.00     0.020 A 
ATOM     83  C   UNL     1      -3.958   8.420  -6.255  1.00  0.00     0.020 A 
ATOM     84  C   UNL     1      -2.974   8.453  -7.245  1.00  0.00     0.054 A 
BRANCH  84  85
ATOM     85  S   UNL     1      -3.397   8.111  -8.976  1.00  0.00     0.124 S 
ATOM     86  O   UNL     1      -3.225   9.419  -9.598  1.00  0.00    -0.237 OA
ATOM     87  O   UNL     1      -2.410   7.099  -9.344  1.00  0.00    -0.237 OA
ATOM     88  O   UNL     1      -4.775   7.628  -8.903  1.00  0.00    -0.744 OA
ENDBRANCH  84  85
ENDBRANCH  56  79
BRANCH  68  89
ATOM     89  C   UNL     1       0.171  14.414  -1.025  1.00  0.00    -0.014 A 
ATOM     90  C   UNL     1      -0.774  15.385  -1.399  1.00  0.00     0.010 A 
ATOM     91  C   UNL     1       1.530  14.775  -0.957  1.00  0.00     0.010 A 
ATOM     92  C   UNL     1      -0.364  16.683  -1.722  1.00  0.00     0.020 A 
ATOM     93  C   UNL     1       1.941  16.078  -1.249  1.00  0.00     0.020 A 
ATOM     94  C   UNL     1       0.991  17.022  -1.641  1.00  0.00     0.054 A 
BRANCH  94  95
ATOM     95  S   UNL     1       1.490  18.726  -2.012  1.00  0.00     0.124 S 
ATOM     96  O   UNL     1       1.307  18.790  -3.459  1.00  0.00    -0.237 OA
ATOM     97  O   UNL     1       0.545  19.514  -1.224  1.00  0.00    -0.237 OA
ATOM     98  O   UNL     1       2.877  18.790  -1.557  1.00  0.00    -0.744 OA
ENDBRANCH  94  95
ENDBRANCH  68  89
ENDBRANCH  42  43
ENDBRANCH  35  37
ENDBRANCH  34  35
ENDBRANCH  33  34
ENDBRANCH  32  33
ENDBRANCH  31  32
ENDBRANCH  30  31
ENDBRANCH   1  30
TORSDOF 28
