REMARK SMILES COc1ccc(COc2cncc(C(=O)OCCOCCOCCOC(=O)c3ccc(-c4c5nc(c(-c6ccc(S(=O)(=O)[O-])cc6)c6ccc([nH]6)c(-c6ccc(S(=O)(=O)[O-])cc6)c6nc(c(-c7ccc(S(=O)(=O)[O-])cc7)c7ccc4[nH]7)C=C6)C=C5)cc3)n2)cc1
REMARK SMILES IDX 20 1 19 2 18 3 17 4 16 5 14 6 15 7 13 8 9 9 10 10 88 11
REMARK SMILES IDX 11 12 12 13 8 14 7 15 6 16 3 17 4 18 90 19 5 20 89 21 2 22
REMARK SMILES IDX 1 23 21 24 22 25 23 26 24 27 25 28 26 29 27 30 28 31 29 32
REMARK SMILES IDX 87 33 30 34 86 35 31 36 32 37 33 38 80 39 34 40 85 41 79 42
REMARK SMILES IDX 81 43 35 44 84 45 78 46 77 47 36 49 66 50 47 51 65 52 48 53
REMARK SMILES IDX 51 54 64 55 82 56 49 57 50 58 63 60 83 61 52 62 37 63 38 64
REMARK SMILES IDX 46 65 39 66 45 67 40 68 41 69 42 70 43 71 44 72 67 73 68 74
REMARK SMILES IDX 76 75 69 76 75 77 70 78 71 79 72 80 73 81 74 82 53 83 54 84
REMARK SMILES IDX 62 85 55 86 61 87 56 88 57 89 58 90 59 91 60 92
REMARK H PARENT 81 48 51 59
REMARK Flexibility Score: inf
ROOT
ATOM      1  C   UNL     1       6.581  -7.606   6.494  1.00  0.00     0.188 C 
ENDROOT
BRANCH   1   2
ATOM      2  O   UNL     1       6.900  -8.591   7.460  1.00  0.00    -0.376 OA
BRANCH   2   3
ATOM      3  C   UNL     1       6.136  -9.782   7.547  1.00  0.00     0.202 C 
BRANCH   3   4
ATOM      4  C   UNL     1       4.603  -9.754   7.551  1.00  0.00     0.261 C 
BRANCH   4   5
ATOM      5  O   UNL     1       4.021  -8.938   6.528  1.00  0.00    -0.458 OA
BRANCH   5   6
ATOM      6  C   UNL     1       3.194  -7.957   6.975  1.00  0.00     0.358 C 
ATOM      7  O   UNL     1       2.854  -7.759   8.131  1.00  0.00    -0.244 OA
BRANCH   6   8
ATOM      8  C   UNL     1       2.937  -6.985   5.896  1.00  0.00     0.170 A 
ATOM      9  C   UNL     1       2.283  -6.438   3.769  1.00  0.00     0.233 A 
ATOM     10  C   UNL     1       2.637  -5.114   4.035  1.00  0.00     0.179 A 
ATOM     11  N   UNL     1       2.447  -7.410   4.698  1.00  0.00    -0.203 NA
ATOM     12  N   UNL     1       3.166  -4.704   5.215  1.00  0.00    -0.257 NA
ATOM     13  C   UNL     1       3.280  -5.666   6.153  1.00  0.00     0.147 A 
BRANCH   9  14
ATOM     14  O   UNL     1       1.631  -6.851   2.638  1.00  0.00    -0.472 OA
BRANCH  14  15
ATOM     15  C   UNL     1       2.131  -6.342   1.395  1.00  0.00     0.267 C 
BRANCH  15  16
ATOM     16  C   UNL     1       1.616  -4.957   1.067  1.00  0.00    -0.010 A 
ATOM     17  C   UNL     1       0.750  -2.302   0.707  1.00  0.00     0.118 A 
ATOM     18  C   UNL     1      -0.136  -3.284   1.155  1.00  0.00     0.047 A 
ATOM     19  C   UNL     1       2.065  -2.656   0.408  1.00  0.00     0.047 A 
ATOM     20  C   UNL     1       0.284  -4.605   1.319  1.00  0.00     0.011 A 
ATOM     21  C   UNL     1       2.493  -3.978   0.575  1.00  0.00     0.011 A 
BRANCH  17  22
ATOM     22  O   UNL     1       0.223  -1.043   0.640  1.00  0.00    -0.497 OA
ATOM     23  C   UNL     1       0.964  -0.078  -0.096  1.00  0.00     0.278 C 
ENDBRANCH  17  22
ENDBRANCH  15  16
ENDBRANCH  14  15
ENDBRANCH   9  14
ENDBRANCH   6   8
ENDBRANCH   5   6
ENDBRANCH   4   5
ENDBRANCH   3   4
ENDBRANCH   2   3
ENDBRANCH   1   2
BRANCH   1  24
ATOM     24  C   UNL     1       6.438  -7.973   5.003  1.00  0.00     0.188 C 
BRANCH  24  25
ATOM     25  O   UNL     1       6.626  -9.304   4.585  1.00  0.00    -0.376 OA
BRANCH  25  26
ATOM     26  C   UNL     1       7.900  -9.920   4.598  1.00  0.00     0.202 C 
BRANCH  26  27
ATOM     27  C   UNL     1       9.255  -9.196   4.652  1.00  0.00     0.261 C 
BRANCH  27  28
ATOM     28  O   UNL     1       9.284  -7.873   5.183  1.00  0.00    -0.460 OA
BRANCH  28  29
ATOM     29  C   UNL     1       9.457  -6.898   4.263  1.00  0.00     0.338 C 
ATOM     30  O   UNL     1       9.529  -7.032   3.046  1.00  0.00    -0.246 OA
BRANCH  29  31
ATOM     31  C   UNL     1       9.385  -5.587   4.923  1.00  0.00     0.060 A 
ATOM     32  C   UNL     1       8.364  -4.709   4.542  1.00  0.00     0.016 A 
ATOM     33  C   UNL     1      10.349  -5.202   5.857  1.00  0.00     0.016 A 
ATOM     34  C   UNL     1       8.329  -3.418   5.063  1.00  0.00     0.010 A 
ATOM     35  C   UNL     1      10.322  -3.901   6.366  1.00  0.00     0.010 A 
ATOM     36  C   UNL     1       9.336  -2.993   5.940  1.00  0.00    -0.014 A 
BRANCH  36  37
ATOM     37  C   UNL     1       9.465  -1.549   6.249  1.00  0.00     0.031 A 
ATOM     38  C   UNL     1      10.438  -0.728   5.446  1.00  0.00     0.074 A 
ATOM     39  C   UNL     1       8.706  -0.968   7.195  1.00  0.00     0.049 A 
ATOM     40  N   UNL     1      10.714   0.547   5.531  1.00  0.00    -0.248 NA
ATOM     41  C   UNL     1      11.199  -1.442   4.406  1.00  0.00     0.031 C 
ATOM     42  C   UNL     1       7.699  -1.645   8.009  1.00  0.00     0.029 A 
ATOM     43  N   UNL     1       8.670   0.335   7.627  1.00  0.00    -0.354 N 
ATOM     44  C   UNL     1      11.681   0.788   4.562  1.00  0.00     0.074 A 
ATOM     45  C   UNL     1      11.967  -0.477   3.922  1.00  0.00     0.031 C 
ATOM     46  C   UNL     1       7.145  -0.751   8.848  1.00  0.00     0.029 A 
ATOM     47  C   UNL     1       7.777   0.552   8.648  1.00  0.00     0.049 A 
ATOM     48  H   UNL     1       9.231   1.046   7.241  1.00  0.00     0.167 HD
ATOM     49  C   UNL     1      12.274   1.959   4.228  1.00  0.00     0.031 A 
ATOM     50  C   UNL     1       7.512   1.672   9.350  1.00  0.00     0.031 A 
ATOM     51  C   UNL     1      12.005   3.213   4.877  1.00  0.00     0.049 A 
ATOM     52  C   UNL     1       8.238   2.948   9.010  1.00  0.00     0.074 A 
ATOM     53  C   UNL     1      12.548   4.457   4.605  1.00  0.00     0.029 A 
ATOM     54  N   UNL     1      11.123   3.384   5.933  1.00  0.00    -0.354 N 
ATOM     55  N   UNL     1       9.129   3.167   8.071  1.00  0.00    -0.248 NA
ATOM     56  C   UNL     1       7.913   4.133   9.818  1.00  0.00     0.031 C 
ATOM     57  C   UNL     1      12.035   5.369   5.532  1.00  0.00     0.029 A 
ATOM     58  C   UNL     1      11.125   4.707   6.341  1.00  0.00     0.049 A 
ATOM     59  H   UNL     1      10.576   2.670   6.333  1.00  0.00     0.167 HD
ATOM     60  C   UNL     1       9.448   4.519   8.157  1.00  0.00     0.074 A 
ATOM     61  C   UNL     1       8.646   5.070   9.230  1.00  0.00     0.031 C 
ATOM     62  C   UNL     1      10.321   5.241   7.412  1.00  0.00     0.031 A 
BRANCH  49  63
ATOM     63  C   UNL     1      13.302   1.923   3.129  1.00  0.00    -0.014 A 
ATOM     64  C   UNL     1      12.928   1.729   1.787  1.00  0.00     0.010 A 
ATOM     65  C   UNL     1      14.661   2.111   3.441  1.00  0.00     0.010 A 
ATOM     66  C   UNL     1      13.897   1.683   0.782  1.00  0.00     0.020 A 
ATOM     67  C   UNL     1      15.631   2.093   2.436  1.00  0.00     0.020 A 
ATOM     68  C   UNL     1      15.244   1.862   1.114  1.00  0.00     0.054 A 
BRANCH  68  69
ATOM     69  S   UNL     1      16.480   1.813  -0.212  1.00  0.00     0.124 S 
ATOM     70  O   UNL     1      16.522   0.389  -0.532  1.00  0.00    -0.237 OA
ATOM     71  O   UNL     1      15.886   2.669  -1.236  1.00  0.00    -0.237 OA
ATOM     72  O   UNL     1      17.686   2.345   0.418  1.00  0.00    -0.744 OA
ENDBRANCH  68  69
ENDBRANCH  49  63
BRANCH  50  73
ATOM     73  C   UNL     1       6.519   1.637  10.459  1.00  0.00    -0.014 A 
ATOM     74  C   UNL     1       5.287   2.305  10.344  1.00  0.00     0.010 A 
ATOM     75  C   UNL     1       6.809   0.941  11.647  1.00  0.00     0.010 A 
ATOM     76  C   UNL     1       4.373   2.293  11.402  1.00  0.00     0.020 A 
ATOM     77  C   UNL     1       5.887   0.904  12.696  1.00  0.00     0.020 A 
ATOM     78  C   UNL     1       4.678   1.591  12.571  1.00  0.00     0.054 A 
BRANCH  78  79
ATOM     79  S   UNL     1       3.459   1.553  13.915  1.00  0.00     0.124 S 
ATOM     80  O   UNL     1       3.567   2.902  14.460  1.00  0.00    -0.237 OA
ATOM     81  O   UNL     1       2.218   1.253  13.206  1.00  0.00    -0.237 OA
ATOM     82  O   UNL     1       3.944   0.484  14.786  1.00  0.00    -0.744 OA
ENDBRANCH  78  79
ENDBRANCH  50  73
BRANCH  62  83
ATOM     83  C   UNL     1      10.432   6.716   7.700  1.00  0.00    -0.014 A 
ATOM     84  C   UNL     1      11.064   7.190   8.862  1.00  0.00     0.010 A 
ATOM     85  C   UNL     1       9.944   7.642   6.759  1.00  0.00     0.010 A 
ATOM     86  C   UNL     1      11.176   8.564   9.095  1.00  0.00     0.020 A 
ATOM     87  C   UNL     1      10.079   9.016   6.974  1.00  0.00     0.020 A 
ATOM     88  C   UNL     1      10.682   9.469   8.149  1.00  0.00     0.054 A 
BRANCH  88  89
ATOM     89  S   UNL     1      10.875  11.247   8.454  1.00  0.00     0.124 S 
ATOM     90  O   UNL     1       9.870  11.489   9.485  1.00  0.00    -0.237 OA
ATOM     91  O   UNL     1      12.264  11.348   8.894  1.00  0.00    -0.237 OA
ATOM     92  O   UNL     1      10.594  11.854   7.155  1.00  0.00    -0.744 OA
ENDBRANCH  88  89
ENDBRANCH  62  83
ENDBRANCH  36  37
ENDBRANCH  29  31
ENDBRANCH  28  29
ENDBRANCH  27  28
ENDBRANCH  26  27
ENDBRANCH  25  26
ENDBRANCH  24  25
ENDBRANCH   1  24
TORSDOF 24
