REMARK SMILES O=C(OCCOCCOCCOC(=O)c1ccc(-c2c3nc(c(-c4ccc(S(=O)(=O)[O-])cc4)c4ccc([nH]4)c(-c4ccc(S(=O)(=O)[O-])cc4)c4nc(c(-c5ccc(S(=O)(=O)[O-])cc5)c5ccc2[nH]5)C=C4)C=C3)cc1)c1ccc(Nc2ccnc(Cl)n2)cc1
REMARK SMILES IDX 8 1 7 2 6 3 5 4 4 5 3 6 2 7 1 8 75 9 76 10 88 11 77 12 87 13
REMARK SMILES IDX 78 14 79 15 80 17 81 18 86 19 82 20 84 21 83 22 85 23 9 24
REMARK SMILES IDX 10 25 11 26 12 27 13 28 14 29 15 30 16 31 74 32 17 33 73 34
REMARK SMILES IDX 18 35 19 36 20 37 67 38 21 39 72 40 66 41 68 42 22 43 71 44
REMARK SMILES IDX 65 45 64 46 23 48 53 49 34 50 52 51 35 52 38 53 51 54 69 55
REMARK SMILES IDX 36 56 37 57 50 59 70 60 39 61 24 62 25 63 33 64 26 65 32 66
REMARK SMILES IDX 27 67 28 68 29 69 30 70 31 71 54 72 55 73 63 74 56 75 62 76
REMARK SMILES IDX 57 77 58 78 59 79 60 80 61 81 40 82 41 83 49 84 42 85 48 86
REMARK SMILES IDX 43 87 44 88 45 89 46 90 47 91
REMARK H PARENT 79 16 68 47 38 58
REMARK Flexibility Score: inf
ROOT
ATOM      1  C   UNL     1       2.013  -2.837   1.440  1.00  0.00     0.188 C 
ENDROOT
BRANCH   1   2
ATOM      2  C   UNL     1       2.501  -1.387   1.522  1.00  0.00     0.188 C 
BRANCH   2   3
ATOM      3  O   UNL     1       3.746  -1.246   0.824  1.00  0.00    -0.376 OA
BRANCH   3   4
ATOM      4  C   UNL     1       4.540  -0.149   1.275  1.00  0.00     0.202 C 
BRANCH   4   5
ATOM      5  C   UNL     1       4.279   1.166   0.534  1.00  0.00     0.261 C 
BRANCH   5   6
ATOM      6  O   UNL     1       2.883   1.339   0.229  1.00  0.00    -0.460 OA
BRANCH   6   7
ATOM      7  C   UNL     1       2.314   1.279  -1.004  1.00  0.00     0.338 C 
ATOM      8  O   UNL     1       1.132   1.575  -1.147  1.00  0.00    -0.246 OA
BRANCH   7   9
ATOM      9  C   UNL     1       3.110   0.909  -2.205  1.00  0.00     0.060 A 
ATOM     10  C   UNL     1       3.981  -0.176  -2.223  1.00  0.00     0.018 A 
ATOM     11  C   UNL     1       2.920   1.632  -3.389  1.00  0.00     0.018 A 
ATOM     12  C   UNL     1       4.752  -0.450  -3.352  1.00  0.00     0.027 A 
ATOM     13  C   UNL     1       3.664   1.324  -4.539  1.00  0.00     0.027 A 
ATOM     14  C   UNL     1       4.629   0.309  -4.520  1.00  0.00     0.040 A 
BRANCH  14  15
ATOM     15  N   UNL     1       5.415   0.069  -5.665  1.00  0.00    -0.340 N 
ATOM     16  H   UNL     1       5.228   0.643  -6.443  1.00  0.00     0.168 HD
BRANCH  15  17
ATOM     17  C   UNL     1       6.430  -0.883  -5.838  1.00  0.00     0.135 A 
ATOM     18  C   UNL     1       6.213  -2.223  -5.566  1.00  0.00     0.067 A 
ATOM     19  N   UNL     1       7.636  -0.418  -6.197  1.00  0.00    -0.200 NA
ATOM     20  C   UNL     1       7.309  -3.053  -5.609  1.00  0.00     0.118 A 
ATOM     21  C   UNL     1       8.626  -1.319  -6.201  1.00  0.00     0.224 A 
ATOM     22  N   UNL     1       8.544  -2.622  -5.901  1.00  0.00    -0.226 NA
ATOM     23  Cl  UNL     1      10.192  -0.718  -6.522  1.00  0.00    -0.041 Cl
ENDBRANCH  15  17
ENDBRANCH  14  15
ENDBRANCH   7   9
ENDBRANCH   6   7
ENDBRANCH   5   6
ENDBRANCH   4   5
ENDBRANCH   3   4
ENDBRANCH   2   3
ENDBRANCH   1   2
BRANCH   1  24
ATOM     24  O   UNL     1       2.719  -3.743   2.294  1.00  0.00    -0.376 OA
BRANCH  24  25
ATOM     25  C   UNL     1       4.101  -3.951   2.005  1.00  0.00     0.202 C 
BRANCH  25  26
ATOM     26  C   UNL     1       4.404  -4.897   0.839  1.00  0.00     0.261 C 
BRANCH  26  27
ATOM     27  O   UNL     1       3.948  -4.423  -0.442  1.00  0.00    -0.460 OA
BRANCH  27  28
ATOM     28  C   UNL     1       2.988  -5.191  -1.013  1.00  0.00     0.338 C 
ATOM     29  O   UNL     1       2.443  -6.173  -0.539  1.00  0.00    -0.246 OA
BRANCH  28  30
ATOM     30  C   UNL     1       2.661  -4.707  -2.364  1.00  0.00     0.060 A 
ATOM     31  C   UNL     1       1.469  -4.007  -2.570  1.00  0.00     0.016 A 
ATOM     32  C   UNL     1       3.418  -5.160  -3.448  1.00  0.00     0.016 A 
ATOM     33  C   UNL     1       1.001  -3.805  -3.872  1.00  0.00     0.010 A 
ATOM     34  C   UNL     1       2.950  -4.950  -4.749  1.00  0.00     0.010 A 
ATOM     35  C   UNL     1       1.716  -4.312  -4.968  1.00  0.00    -0.014 A 
BRANCH  35  36
ATOM     36  C   UNL     1       1.126  -4.298  -6.332  1.00  0.00     0.031 A 
ATOM     37  C   UNL     1       0.554  -5.568  -6.912  1.00  0.00     0.074 A 
ATOM     38  C   UNL     1       1.111  -3.169  -7.064  1.00  0.00     0.049 A 
ATOM     39  N   UNL     1       0.077  -5.790  -8.111  1.00  0.00    -0.248 NA
ATOM     40  C   UNL     1       0.522  -6.742  -6.025  1.00  0.00     0.031 C 
ATOM     41  C   UNL     1       1.599  -1.864  -6.620  1.00  0.00     0.029 A 
ATOM     42  N   UNL     1       0.673  -2.949  -8.347  1.00  0.00    -0.354 N 
ATOM     43  C   UNL     1      -0.297  -7.129  -8.130  1.00  0.00     0.074 A 
ATOM     44  C   UNL     1       0.027  -7.674  -6.828  1.00  0.00     0.031 C 
ATOM     45  C   UNL     1       1.441  -0.980  -7.620  1.00  0.00     0.029 A 
ATOM     46  C   UNL     1       0.874  -1.662  -8.782  1.00  0.00     0.049 A 
ATOM     47  H   UNL     1       0.256  -3.647  -8.901  1.00  0.00     0.167 HD
ATOM     48  C   UNL     1      -0.862  -7.843  -9.134  1.00  0.00     0.031 A 
ATOM     49  C   UNL     1       0.648  -1.100  -9.986  1.00  0.00     0.031 A 
ATOM     50  C   UNL     1      -1.191  -7.311 -10.430  1.00  0.00     0.049 A 
ATOM     51  C   UNL     1       0.070  -1.923 -11.106  1.00  0.00     0.074 A 
ATOM     52  C   UNL     1      -1.786  -7.957 -11.501  1.00  0.00     0.029 A 
ATOM     53  N   UNL     1      -0.953  -6.007 -10.835  1.00  0.00    -0.354 N 
ATOM     54  N   UNL     1      -0.285  -3.185 -11.102  1.00  0.00    -0.248 NA
ATOM     55  C   UNL     1      -0.136  -1.243 -12.393  1.00  0.00     0.031 C 
ATOM     56  C   UNL     1      -1.869  -7.055 -12.568  1.00  0.00     0.029 A 
ATOM     57  C   UNL     1      -1.367  -5.835 -12.146  1.00  0.00     0.049 A 
ATOM     58  H   UNL     1      -0.548  -5.306 -10.274  1.00  0.00     0.167 HD
ATOM     59  C   UNL     1      -0.776  -3.443 -12.378  1.00  0.00     0.074 A 
ATOM     60  C   UNL     1      -0.680  -2.206 -13.124  1.00  0.00     0.031 C 
ATOM     61  C   UNL     1      -1.265  -4.603 -12.883  1.00  0.00     0.031 A 
BRANCH  48  62
ATOM     62  C   UNL     1      -1.137  -9.300  -8.879  1.00  0.00    -0.014 A 
ATOM     63  C   UNL     1      -2.211  -9.705  -8.067  1.00  0.00     0.010 A 
ATOM     64  C   UNL     1      -0.332 -10.277  -9.491  1.00  0.00     0.010 A 
ATOM     65  C   UNL     1      -2.453 -11.063  -7.842  1.00  0.00     0.020 A 
ATOM     66  C   UNL     1      -0.583 -11.637  -9.285  1.00  0.00     0.020 A 
ATOM     67  C   UNL     1      -1.631 -12.021  -8.447  1.00  0.00     0.054 A 
BRANCH  67  68
ATOM     68  S   UNL     1      -1.971 -13.778  -8.151  1.00  0.00     0.124 S 
ATOM     69  O   UNL     1      -1.431 -13.965  -6.806  1.00  0.00    -0.237 OA
ATOM     70  O   UNL     1      -3.426 -13.850  -8.258  1.00  0.00    -0.237 OA
ATOM     71  O   UNL     1      -1.238 -14.456  -9.217  1.00  0.00    -0.744 OA
ENDBRANCH  67  68
ENDBRANCH  48  62
BRANCH  49  72
ATOM     72  C   UNL     1       0.996   0.329 -10.204  1.00  0.00    -0.014 A 
ATOM     73  C   UNL     1      -0.012   1.302 -10.300  1.00  0.00     0.010 A 
ATOM     74  C   UNL     1       2.344   0.719 -10.303  1.00  0.00     0.010 A 
ATOM     75  C   UNL     1       0.321   2.645 -10.498  1.00  0.00     0.020 A 
ATOM     76  C   UNL     1       2.681   2.063 -10.479  1.00  0.00     0.020 A 
ATOM     77  C   UNL     1       1.666   3.017 -10.583  1.00  0.00     0.054 A 
BRANCH  77  78
ATOM     78  S   UNL     1       2.087   4.772 -10.763  1.00  0.00     0.124 S 
ATOM     79  O   UNL     1       1.873   4.991 -12.189  1.00  0.00    -0.237 OA
ATOM     80  O   UNL     1       1.130   5.423  -9.870  1.00  0.00    -0.237 OA
ATOM     81  O   UNL     1       3.477   4.832 -10.317  1.00  0.00    -0.744 OA
ENDBRANCH  77  78
ENDBRANCH  49  72
BRANCH  61  82
ATOM     82  C   UNL     1      -1.761  -4.589 -14.304  1.00  0.00    -0.014 A 
ATOM     83  C   UNL     1      -0.863  -4.583 -15.386  1.00  0.00     0.010 A 
ATOM     84  C   UNL     1      -3.143  -4.636 -14.560  1.00  0.00     0.010 A 
ATOM     85  C   UNL     1      -1.341  -4.600 -16.701  1.00  0.00     0.020 A 
ATOM     86  C   UNL     1      -3.624  -4.673 -15.872  1.00  0.00     0.020 A 
ATOM     87  C   UNL     1      -2.719  -4.641 -16.935  1.00  0.00     0.054 A 
BRANCH  87  88
ATOM     88  S   UNL     1      -3.317  -4.707 -18.647  1.00  0.00     0.124 S 
ATOM     89  O   UNL     1      -3.176  -3.317 -19.072  1.00  0.00    -0.237 OA
ATOM     90  O   UNL     1      -2.398  -5.652 -19.276  1.00  0.00    -0.237 OA
ATOM     91  O   UNL     1      -4.693  -5.182 -18.514  1.00  0.00    -0.744 OA
ENDBRANCH  87  88
ENDBRANCH  61  82
ENDBRANCH  35  36
ENDBRANCH  28  30
ENDBRANCH  27  28
ENDBRANCH  26  27
ENDBRANCH  25  26
ENDBRANCH  24  25
ENDBRANCH   1  24
TORSDOF 22
