REMARK SMILES O=C(OCCOCCOCCOC(=O)c1nn(Cc2ccc(F)cc2)c2c1CN(C(=O)[C@H]1CC1(F)F)CC2)c1ccc(-c2c3nc(c(-c4ccc(S(=O)(=O)[O-])cc4)c4ccc([nH]4)c(-c4ccc(S(=O)(=O)[O-])cc4)c4nc(c(-c5ccc(S(=O)(=O)[O-])cc5)c5ccc2[nH]5)C=C4)C=C3)cc1
REMARK SMILES IDX 7 1 6 2 5 3 4 4 3 5 2 6 1 7 39 8 40 9 98 10 41 11 97 12
REMARK SMILES IDX 42 13 43 14 44 15 91 16 45 17 96 18 90 19 92 20 46 21 95 22
REMARK SMILES IDX 89 23 88 24 47 26 77 27 58 28 76 29 59 30 62 31 75 32 93 33
REMARK SMILES IDX 60 34 61 35 74 37 94 38 63 39 48 40 49 41 57 42 50 43 56 44
REMARK SMILES IDX 51 45 52 46 53 47 54 48 55 49 78 50 79 51 87 52 80 53 86 54
REMARK SMILES IDX 81 55 82 56 83 57 84 58 85 59 64 60 65 61 73 62 66 63 72 64
REMARK SMILES IDX 67 65 68 66 69 67 70 68 71 69 8 70 9 71 10 72 11 73 12 74
REMARK SMILES IDX 13 75 14 76 15 77 16 78 27 79 17 80 26 81 28 82 38 83 29 84
REMARK SMILES IDX 37 85 18 86 19 87 20 88 25 89 21 90 24 91 22 92 23 93 30 94
REMARK SMILES IDX 31 95 32 96 33 97 34 98 35 99 36 100
REMARK H PARENT 92 25 62 36
REMARK Flexibility Score: inf
ROOT
ATOM      1  C   UNL     1      -5.473  -2.158   1.278  1.00  0.00     0.188 C 
ENDROOT
BRANCH   1   2
ATOM      2  O   UNL     1      -5.691  -3.326   2.057  1.00  0.00    -0.376 OA
BRANCH   2   3
ATOM      3  C   UNL     1      -4.585  -4.179   2.271  1.00  0.00     0.202 C 
BRANCH   3   4
ATOM      4  C   UNL     1      -3.560  -3.663   3.285  1.00  0.00     0.261 C 
BRANCH   4   5
ATOM      5  O   UNL     1      -3.402  -2.235   3.301  1.00  0.00    -0.460 OA
BRANCH   5   6
ATOM      6  C   UNL     1      -2.466  -1.438   2.754  1.00  0.00     0.338 C 
ATOM      7  O   UNL     1      -2.240  -0.350   3.279  1.00  0.00    -0.246 OA
BRANCH   6   8
ATOM      8  C   UNL     1      -1.837  -1.722   1.435  1.00  0.00     0.060 A 
ATOM      9  C   UNL     1      -1.651  -2.986   0.876  1.00  0.00     0.016 A 
ATOM     10  C   UNL     1      -1.341  -0.598   0.742  1.00  0.00     0.016 A 
ATOM     11  C   UNL     1      -0.883  -3.141  -0.273  1.00  0.00     0.010 A 
ATOM     12  C   UNL     1      -0.575  -0.747  -0.407  1.00  0.00     0.010 A 
ATOM     13  C   UNL     1      -0.285  -2.029  -0.865  1.00  0.00    -0.014 A 
BRANCH  13  14
ATOM     14  C   UNL     1       0.748  -2.278  -1.864  1.00  0.00     0.031 A 
ATOM     15  C   UNL     1       0.336  -2.815  -3.185  1.00  0.00     0.074 A 
ATOM     16  C   UNL     1       2.041  -1.984  -1.623  1.00  0.00     0.049 A 
ATOM     17  N   UNL     1       0.668  -3.938  -3.735  1.00  0.00    -0.248 NA
ATOM     18  C   UNL     1      -0.596  -2.007  -3.982  1.00  0.00     0.031 C 
ATOM     19  C   UNL     1       2.583  -1.202  -0.506  1.00  0.00     0.029 A 
ATOM     20  N   UNL     1       3.135  -2.222  -2.400  1.00  0.00    -0.354 N 
ATOM     21  C   UNL     1       0.137  -3.912  -5.021  1.00  0.00     0.074 A 
ATOM     22  C   UNL     1      -0.722  -2.752  -5.081  1.00  0.00     0.031 C 
ATOM     23  C   UNL     1       3.843  -0.825  -0.806  1.00  0.00     0.029 A 
ATOM     24  C   UNL     1       4.235  -1.452  -2.056  1.00  0.00     0.049 A 
ATOM     25  H   UNL     1       3.144  -2.878  -3.135  1.00  0.00     0.167 HD
ATOM     26  C   UNL     1       0.568  -4.733  -6.019  1.00  0.00     0.031 A 
ATOM     27  C   UNL     1       5.359  -1.266  -2.787  1.00  0.00     0.031 A 
ATOM     28  C   UNL     1       1.366  -5.826  -5.540  1.00  0.00     0.049 A 
ATOM     29  C   UNL     1       5.470  -2.382  -3.754  1.00  0.00     0.074 A 
ATOM     30  C   UNL     1       1.158  -6.901  -4.701  1.00  0.00     0.029 A 
ATOM     31  N   UNL     1       2.726  -5.746  -5.724  1.00  0.00    -0.354 N 
ATOM     32  N   UNL     1       5.705  -3.618  -3.412  1.00  0.00    -0.248 NA
ATOM     33  C   UNL     1       4.958  -2.201  -5.104  1.00  0.00     0.031 C 
ATOM     34  C   UNL     1       2.414  -7.132  -4.069  1.00  0.00     0.029 A 
ATOM     35  C   UNL     1       3.318  -6.193  -4.571  1.00  0.00     0.049 A 
ATOM     36  H   UNL     1       3.188  -5.427  -6.532  1.00  0.00     0.167 HD
ATOM     37  C   UNL     1       5.003  -4.386  -4.328  1.00  0.00     0.074 A 
ATOM     38  C   UNL     1       4.674  -3.469  -5.413  1.00  0.00     0.031 C 
ATOM     39  C   UNL     1       4.515  -5.617  -3.992  1.00  0.00     0.031 A 
BRANCH  26  40
ATOM     40  C   UNL     1       0.537  -4.365  -7.480  1.00  0.00    -0.014 A 
ATOM     41  C   UNL     1       0.791  -5.355  -8.453  1.00  0.00     0.010 A 
ATOM     42  C   UNL     1       0.537  -3.023  -7.912  1.00  0.00     0.010 A 
ATOM     43  C   UNL     1       1.081  -5.011  -9.780  1.00  0.00     0.020 A 
ATOM     44  C   UNL     1       0.780  -2.673  -9.241  1.00  0.00     0.020 A 
ATOM     45  C   UNL     1       1.088  -3.668 -10.160  1.00  0.00     0.054 A 
BRANCH  45  46
ATOM     46  S   UNL     1       1.580  -3.220 -11.845  1.00  0.00     0.124 S 
ATOM     47  O   UNL     1       3.011  -3.504 -11.822  1.00  0.00    -0.237 OA
ATOM     48  O   UNL     1       0.766  -4.120 -12.658  1.00  0.00    -0.237 OA
ATOM     49  O   UNL     1       1.219  -1.808 -11.937  1.00  0.00    -0.744 OA
ENDBRANCH  45  46
ENDBRANCH  26  40
BRANCH  27  50
ATOM     50  C   UNL     1       6.151  -0.018  -2.883  1.00  0.00    -0.014 A 
ATOM     51  C   UNL     1       7.433  -0.012  -3.458  1.00  0.00     0.010 A 
ATOM     52  C   UNL     1       5.537   1.229  -2.634  1.00  0.00     0.010 A 
ATOM     53  C   UNL     1       8.053   1.196  -3.818  1.00  0.00     0.020 A 
ATOM     54  C   UNL     1       6.153   2.435  -2.975  1.00  0.00     0.020 A 
ATOM     55  C   UNL     1       7.400   2.411  -3.590  1.00  0.00     0.054 A 
BRANCH  55  56
ATOM     56  S   UNL     1       8.126   3.950  -4.221  1.00  0.00     0.124 S 
ATOM     57  O   UNL     1       9.265   4.144  -3.329  1.00  0.00    -0.237 OA
ATOM     58  O   UNL     1       8.453   3.603  -5.601  1.00  0.00    -0.237 OA
ATOM     59  O   UNL     1       7.047   4.926  -4.072  1.00  0.00    -0.744 OA
ENDBRANCH  55  56
ENDBRANCH  27  50
BRANCH  39  60
ATOM     60  C   UNL     1       5.043  -6.284  -2.743  1.00  0.00    -0.014 A 
ATOM     61  C   UNL     1       4.905  -5.724  -1.458  1.00  0.00     0.010 A 
ATOM     62  C   UNL     1       5.551  -7.591  -2.854  1.00  0.00     0.010 A 
ATOM     63  C   UNL     1       5.286  -6.444  -0.318  1.00  0.00     0.020 A 
ATOM     64  C   UNL     1       5.916  -8.321  -1.719  1.00  0.00     0.020 A 
ATOM     65  C   UNL     1       5.787  -7.741  -0.456  1.00  0.00     0.054 A 
BRANCH  65  66
ATOM     66  S   UNL     1       6.199  -8.693   1.033  1.00  0.00     0.124 S 
ATOM     67  O   UNL     1       7.411  -8.031   1.506  1.00  0.00    -0.237 OA
ATOM     68  O   UNL     1       5.015  -8.514   1.871  1.00  0.00    -0.237 OA
ATOM     69  O   UNL     1       6.391 -10.054   0.533  1.00  0.00    -0.744 OA
ENDBRANCH  65  66
ENDBRANCH  39  60
ENDBRANCH  13  14
ENDBRANCH   6   8
ENDBRANCH   5   6
ENDBRANCH   4   5
ENDBRANCH   3   4
ENDBRANCH   2   3
ENDBRANCH   1   2
BRANCH   1  70
ATOM     70  C   UNL     1      -5.828  -0.864   2.039  1.00  0.00     0.188 C 
BRANCH  70  71
ATOM     71  O   UNL     1      -6.877  -0.855   3.004  1.00  0.00    -0.376 OA
BRANCH  71  72
ATOM     72  C   UNL     1      -7.920  -1.808   2.932  1.00  0.00     0.202 C 
BRANCH  72  73
ATOM     73  C   UNL     1      -8.952  -1.605   1.825  1.00  0.00     0.261 C 
BRANCH  73  74
ATOM     74  O   UNL     1      -8.420  -1.555   0.495  1.00  0.00    -0.458 OA
BRANCH  74  75
ATOM     75  C   UNL     1      -8.235  -0.307  -0.041  1.00  0.00     0.359 C 
ATOM     76  O   UNL     1      -8.391   0.745   0.561  1.00  0.00    -0.244 OA
BRANCH  75  77
ATOM     77  C   UNL     1      -7.780  -0.372  -1.434  1.00  0.00     0.175 A 
ATOM     78  N   UNL     1      -8.576  -0.890  -2.392  1.00  0.00    -0.165 NA
ATOM     79  C   UNL     1      -6.550   0.084  -1.992  1.00  0.00     0.028 A 
ATOM     80  N   UNL     1      -7.872  -0.764  -3.538  1.00  0.00    -0.264 N 
ATOM     81  C   UNL     1      -6.634  -0.238  -3.332  1.00  0.00     0.046 A 
ATOM     82  C   UNL     1      -5.352   0.731  -1.372  1.00  0.00     0.159 C 
ATOM     83  C   UNL     1      -5.563   0.007  -4.332  1.00  0.00     0.078 C 
ATOM     84  N   UNL     1      -4.390   1.114  -2.429  1.00  0.00    -0.337 N 
ATOM     85  C   UNL     1      -4.235   0.186  -3.568  1.00  0.00     0.126 C 
BRANCH  80  86
ATOM     86  C   UNL     1      -8.524  -1.035  -4.814  1.00  0.00     0.180 C 
BRANCH  86  87
ATOM     87  C   UNL     1      -8.668  -2.510  -5.091  1.00  0.00    -0.026 A 
ATOM     88  C   UNL     1      -9.607  -3.276  -4.376  1.00  0.00     0.008 A 
ATOM     89  C   UNL     1      -7.891  -3.135  -6.078  1.00  0.00     0.008 A 
ATOM     90  C   UNL     1      -9.770  -4.633  -4.648  1.00  0.00     0.039 A 
ATOM     91  C   UNL     1      -8.059  -4.494  -6.351  1.00  0.00     0.039 A 
ATOM     92  C   UNL     1      -8.998  -5.229  -5.637  1.00  0.00     0.123 A 
ATOM     93  F   UNL     1      -9.166  -6.529  -5.908  1.00  0.00    -0.207 F 
ENDBRANCH  86  87
ENDBRANCH  80  86
BRANCH  84  94
ATOM     94  C   UNL     1      -3.612   2.247  -2.224  1.00  0.00     0.232 C 
ATOM     95  O   UNL     1      -3.652   2.908  -1.195  1.00  0.00    -0.274 OA
BRANCH  94  96
ATOM     96  C   UNL     1      -2.666   2.627  -3.295  1.00  0.00     0.154 C 
ATOM     97  C   UNL     1      -3.173   3.182  -4.617  1.00  0.00     0.097 C 
ATOM     98  C   UNL     1      -2.479   4.056  -3.643  1.00  0.00     0.260 C 
ATOM     99  F   UNL     1      -3.186   5.080  -3.059  1.00  0.00    -0.206 F 
ATOM    100  F   UNL     1      -1.235   4.549  -3.966  1.00  0.00    -0.206 F 
ENDBRANCH  94  96
ENDBRANCH  84  94
ENDBRANCH  75  77
ENDBRANCH  74  75
ENDBRANCH  73  74
ENDBRANCH  72  73
ENDBRANCH  71  72
ENDBRANCH  70  71
ENDBRANCH   1  70
TORSDOF 24
