REMARK SMILES Cc1cccc(C(=O)OCCOCCOCCOC(=O)c2ccc(-c3c4nc(c(-c5ccc(S(=O)(=O)[O-])cc5)c5ccc([nH]5)c(-c5ccc(S(=O)(=O)[O-])cc5)c5nc(c(-c6ccc(S(=O)(=O)[O-])cc6)c6ccc3[nH]6)C=C5)C=C4)cc2)c1OC[C@@H]1C[C@H]2CC[C@@H]1C2
REMARK SMILES IDX 13 1 12 2 11 3 10 4 9 5 7 6 8 7 6 8 1 9 2 10 3 11 81 12 4 13
REMARK SMILES IDX 5 14 82 15 83 16 84 17 85 18 89 19 86 20 88 21 90 22 87 23
REMARK SMILES IDX 14 24 15 25 16 26 17 27 18 28 19 29 20 30 21 31 22 32 80 33
REMARK SMILES IDX 23 34 79 35 24 36 25 37 26 38 73 39 27 40 78 41 72 42 74 43
REMARK SMILES IDX 28 44 77 45 71 46 70 47 29 49 59 50 40 51 58 52 41 53 44 54
REMARK SMILES IDX 57 55 75 56 42 57 43 58 56 60 76 61 45 62 30 63 31 64 39 65
REMARK SMILES IDX 32 66 38 67 33 68 34 69 35 70 36 71 37 72 60 73 61 74 69 75
REMARK SMILES IDX 62 76 68 77 63 78 64 79 65 80 66 81 67 82 46 83 47 84 55 85
REMARK SMILES IDX 48 86 54 87 49 88 50 89 51 90 52 91 53 92
REMARK H PARENT 74 48 44 59
REMARK Flexibility Score: inf
ROOT
ATOM      1  C   UNL     1      -3.952   5.126  -2.004  1.00  0.00     0.188 C 
ENDROOT
BRANCH   1   2
ATOM      2  O   UNL     1      -2.851   5.316  -1.102  1.00  0.00    -0.376 OA
BRANCH   2   3
ATOM      3  C   UNL     1      -1.682   6.091  -1.326  1.00  0.00     0.202 C 
BRANCH   3   4
ATOM      4  C   UNL     1      -0.070   5.529  -1.219  1.00  0.00     0.261 C 
BRANCH   4   5
ATOM      5  O   UNL     1       0.553   3.932  -1.038  1.00  0.00    -0.460 OA
BRANCH   5   6
ATOM      6  C   UNL     1       0.853   2.873  -0.150  1.00  0.00     0.342 C 
ATOM      7  O   UNL     1       1.322   2.981   0.978  1.00  0.00    -0.246 OA
BRANCH   6   8
ATOM      8  C   UNL     1       0.681   1.404  -0.478  1.00  0.00     0.102 A 
ATOM      9  C   UNL     1       2.643  -1.479  -2.070  1.00  0.00     0.048 C 
ATOM     10  C   UNL     1       1.592  -0.708  -1.324  1.00  0.00    -0.008 A 
ATOM     11  C   UNL     1       0.520  -1.428  -0.778  1.00  0.00     0.007 A 
ATOM     12  C   UNL     1       1.701   0.691  -1.105  1.00  0.00     0.136 A 
ATOM     13  C   UNL     1      -0.411  -0.773   0.009  1.00  0.00     0.001 A 
ATOM     14  C   UNL     1      -0.302   0.616   0.187  1.00  0.00     0.019 A 
BRANCH  12  15
ATOM     15  O   UNL     1       2.908   1.250  -1.428  1.00  0.00    -0.492 OA
BRANCH  15  16
ATOM     16  C   UNL     1       3.596   1.909  -0.349  1.00  0.00     0.233 C 
BRANCH  16  17
ATOM     17  C   UNL     1       3.582   1.251   1.056  1.00  0.00     0.030 C 
ATOM     18  C   UNL     1       4.431   2.091   2.038  1.00  0.00     0.011 C 
ATOM     19  C   UNL     1       4.237  -0.141   1.153  1.00  0.00    -0.004 C 
ATOM     20  C   UNL     1       5.474   1.082   2.542  1.00  0.00    -0.010 C 
ATOM     21  C   UNL     1       3.912  -0.740   2.542  1.00  0.00     0.004 C 
ATOM     22  C   UNL     1       5.710   0.212   1.307  1.00  0.00     0.007 C 
ATOM     23  C   UNL     1       4.777   0.099   3.494  1.00  0.00     0.004 C 
ENDBRANCH  16  17
ENDBRANCH  15  16
ENDBRANCH  12  15
ENDBRANCH   6   8
ENDBRANCH   5   6
ENDBRANCH   4   5
ENDBRANCH   3   4
ENDBRANCH   2   3
ENDBRANCH   1   2
BRANCH   1  24
ATOM     24  C   UNL     1      -3.750   5.279  -3.506  1.00  0.00     0.188 C 
BRANCH  24  25
ATOM     25  O   UNL     1      -2.397   5.017  -3.826  1.00  0.00    -0.376 OA
BRANCH  25  26
ATOM     26  C   UNL     1      -2.056   5.106  -5.193  1.00  0.00     0.202 C 
BRANCH  26  27
ATOM     27  C   UNL     1      -2.517   3.885  -6.006  1.00  0.00     0.261 C 
BRANCH  27  28
ATOM     28  O   UNL     1      -1.883   2.673  -5.533  1.00  0.00    -0.460 OA
BRANCH  28  29
ATOM     29  C   UNL     1      -2.694   1.725  -4.916  1.00  0.00     0.338 C 
ATOM     30  O   UNL     1      -3.480   1.059  -5.516  1.00  0.00    -0.246 OA
BRANCH  29  31
ATOM     31  C   UNL     1      -2.398   1.710  -3.424  1.00  0.00     0.060 A 
ATOM     32  C   UNL     1      -3.239   1.342  -2.365  1.00  0.00     0.016 A 
ATOM     33  C   UNL     1      -1.304   2.393  -3.046  1.00  0.00     0.016 A 
ATOM     34  C   UNL     1      -3.050   1.836  -0.979  1.00  0.00     0.010 A 
ATOM     35  C   UNL     1      -1.423   3.059  -1.825  1.00  0.00     0.010 A 
ATOM     36  C   UNL     1      -2.108   2.814  -0.626  1.00  0.00    -0.014 A 
BRANCH  36  37
ATOM     37  C   UNL     1      -1.977   3.709   0.794  1.00  0.00     0.031 A 
ATOM     38  C   UNL     1      -0.743   4.273   1.784  1.00  0.00     0.074 A 
ATOM     39  C   UNL     1      -3.142   4.076   1.377  1.00  0.00     0.049 A 
ATOM     40  N   UNL     1      -0.654   4.059   3.098  1.00  0.00    -0.248 NA
ATOM     41  C   UNL     1       0.402   5.163   1.427  1.00  0.00     0.031 C 
ATOM     42  C   UNL     1      -3.332   5.029   2.474  1.00  0.00     0.029 A 
ATOM     43  N   UNL     1      -4.416   3.604   1.132  1.00  0.00    -0.354 N 
ATOM     44  C   UNL     1       0.505   4.705   3.598  1.00  0.00     0.074 A 
ATOM     45  C   UNL     1       1.173   5.263   2.497  1.00  0.00     0.031 C 
ATOM     46  C   UNL     1      -4.581   4.904   2.945  1.00  0.00     0.029 A 
ATOM     47  C   UNL     1      -5.201   3.784   2.263  1.00  0.00     0.049 A 
ATOM     48  H   UNL     1      -4.721   3.203   0.287  1.00  0.00     0.167 HD
ATOM     49  C   UNL     1       0.873   5.013   4.876  1.00  0.00     0.031 A 
ATOM     50  C   UNL     1      -5.801   2.721   2.866  1.00  0.00     0.031 A 
ATOM     51  C   UNL     1      -0.295   5.033   5.695  1.00  0.00     0.049 A 
ATOM     52  C   UNL     1      -5.312   2.489   4.278  1.00  0.00     0.074 A 
ATOM     53  C   UNL     1      -1.220   6.042   5.898  1.00  0.00     0.029 A 
ATOM     54  N   UNL     1      -0.887   3.842   6.040  1.00  0.00    -0.354 N 
ATOM     55  N   UNL     1      -4.258   3.057   4.800  1.00  0.00    -0.248 NA
ATOM     56  C   UNL     1      -5.975   1.588   5.217  1.00  0.00     0.031 C 
ATOM     57  C   UNL     1      -2.439   5.423   6.259  1.00  0.00     0.029 A 
ATOM     58  C   UNL     1      -2.207   4.063   6.369  1.00  0.00     0.049 A 
ATOM     59  H   UNL     1      -0.438   2.966   6.051  1.00  0.00     0.167 HD
ATOM     60  C   UNL     1      -4.067   2.589   6.074  1.00  0.00     0.074 A 
ATOM     61  C   UNL     1      -5.187   1.698   6.301  1.00  0.00     0.031 C 
ATOM     62  C   UNL     1      -3.001   2.952   6.842  1.00  0.00     0.031 A 
BRANCH  49  63
ATOM     63  C   UNL     1       2.197   5.743   5.155  1.00  0.00    -0.014 A 
ATOM     64  C   UNL     1       2.255   6.930   5.905  1.00  0.00     0.010 A 
ATOM     65  C   UNL     1       3.416   5.322   4.560  1.00  0.00     0.010 A 
ATOM     66  C   UNL     1       3.414   7.737   5.923  1.00  0.00     0.020 A 
ATOM     67  C   UNL     1       4.563   6.142   4.530  1.00  0.00     0.020 A 
ATOM     68  C   UNL     1       4.547   7.363   5.196  1.00  0.00     0.054 A 
BRANCH  68  69
ATOM     69  S   UNL     1       5.939   8.530   5.030  1.00  0.00     0.124 S 
ATOM     70  O   UNL     1       5.268   9.815   4.845  1.00  0.00    -0.237 OA
ATOM     71  O   UNL     1       6.643   8.367   6.298  1.00  0.00    -0.237 OA
ATOM     72  O   UNL     1       6.657   8.047   3.851  1.00  0.00    -0.744 OA
ENDBRANCH  68  69
ENDBRANCH  49  63
BRANCH  50  73
ATOM     73  C   UNL     1      -6.305   1.695   1.903  1.00  0.00    -0.014 A 
ATOM     74  C   UNL     1      -7.357   2.102   1.050  1.00  0.00     0.010 A 
ATOM     75  C   UNL     1      -5.553   0.562   1.541  1.00  0.00     0.010 A 
ATOM     76  C   UNL     1      -7.552   1.501  -0.195  1.00  0.00     0.020 A 
ATOM     77  C   UNL     1      -5.764  -0.062   0.293  1.00  0.00     0.020 A 
ATOM     78  C   UNL     1      -6.724   0.452  -0.586  1.00  0.00     0.054 A 
BRANCH  78  79
ATOM     79  S   UNL     1      -6.795  -0.050  -2.336  1.00  0.00     0.124 S 
ATOM     80  O   UNL     1      -8.170  -0.517  -2.476  1.00  0.00    -0.237 OA
ATOM     81  O   UNL     1      -6.489   1.210  -3.012  1.00  0.00    -0.237 OA
ATOM     82  O   UNL     1      -5.766  -1.081  -2.434  1.00  0.00    -0.744 OA
ENDBRANCH  78  79
ENDBRANCH  50  73
BRANCH  62  83
ATOM     83  C   UNL     1      -2.586   2.336   8.154  1.00  0.00    -0.014 A 
ATOM     84  C   UNL     1      -2.894   1.023   8.528  1.00  0.00     0.010 A 
ATOM     85  C   UNL     1      -1.699   3.058   8.995  1.00  0.00     0.010 A 
ATOM     86  C   UNL     1      -2.401   0.480   9.721  1.00  0.00     0.020 A 
ATOM     87  C   UNL     1      -1.157   2.508  10.155  1.00  0.00     0.020 A 
ATOM     88  C   UNL     1      -1.542   1.228  10.530  1.00  0.00     0.054 A 
BRANCH  88  89
ATOM     89  S   UNL     1      -0.877   0.511  12.050  1.00  0.00     0.124 S 
ATOM     90  O   UNL     1      -1.861   0.947  13.038  1.00  0.00    -0.237 OA
ATOM     91  O   UNL     1      -0.869  -0.922  11.767  1.00  0.00    -0.237 OA
ATOM     92  O   UNL     1       0.444   1.124  12.166  1.00  0.00    -0.744 OA
ENDBRANCH  88  89
ENDBRANCH  62  83
ENDBRANCH  36  37
ENDBRANCH  29  31
ENDBRANCH  28  29
ENDBRANCH  27  28
ENDBRANCH  26  27
ENDBRANCH  25  26
ENDBRANCH  24  25
ENDBRANCH   1  24
TORSDOF 23
