REMARK SMILES Cc1nsc(NC(=O)c2ccc(N)cc2)c1C(=O)OCCOCCOCCOC(=O)c1ccc(-c2c3nc(c(-c4ccc(S(=O)(=O)[O-])cc4)c4ccc([nH]4)c(-c4ccc(S(=O)(=O)[O-])cc4)c4nc(c(-c5ccc(S(=O)(=O)[O-])cc5)c5ccc2[nH]5)C=C4)C=C3)cc1
REMARK SMILES IDX 23 1 22 2 21 3 20 4 19 5 17 6 18 7 16 8 1 9 2 10 3 11 4 12
REMARK SMILES IDX 5 13 6 14 7 15 8 17 9 18 10 19 15 20 11 21 14 22 12 23 13 24
REMARK SMILES IDX 24 27 25 28 26 29 27 30 28 31 29 32 30 33 31 34 32 35 90 36
REMARK SMILES IDX 33 37 89 38 34 39 35 40 36 41 83 42 37 43 88 44 82 45 84 46
REMARK SMILES IDX 38 47 87 48 81 49 80 50 39 52 69 53 50 54 68 55 51 56 54 57
REMARK SMILES IDX 67 58 85 59 52 60 53 61 66 63 86 64 55 65 40 66 41 67 49 68
REMARK SMILES IDX 42 69 48 70 43 71 44 72 45 73 46 74 47 75 70 76 71 77 79 78
REMARK SMILES IDX 72 79 78 80 73 81 74 82 75 83 76 84 77 85 56 86 57 87 65 88
REMARK SMILES IDX 58 89 64 90 59 91 60 92 61 93 62 94 63 95
REMARK H PARENT 6 16 13 25 13 26 84 51 54 62
REMARK Flexibility Score: inf
ROOT
ATOM      1  C   UNL     1       3.165   4.113  -0.341  1.00  0.00     0.188 C 
ENDROOT
BRANCH   1   2
ATOM      2  O   UNL     1       3.314   4.801   0.895  1.00  0.00    -0.376 OA
BRANCH   2   3
ATOM      3  C   UNL     1       2.965   4.173   2.121  1.00  0.00     0.202 C 
BRANCH   3   4
ATOM      4  C   UNL     1       1.562   3.560   2.308  1.00  0.00     0.261 C 
BRANCH   4   5
ATOM      5  O   UNL     1       1.169   2.608   1.306  1.00  0.00    -0.460 OA
BRANCH   5   6
ATOM      6  C   UNL     1       0.193   3.007   0.438  1.00  0.00     0.343 C 
ATOM      7  O   UNL     1      -0.467   4.021   0.557  1.00  0.00    -0.246 OA
BRANCH   6   8
ATOM      8  C   UNL     1       0.166   2.192  -0.773  1.00  0.00     0.117 A 
ATOM      9  C   UNL     1       0.729  -0.192   0.187  1.00  0.00     0.069 C 
ATOM     10  C   UNL     1       0.413   0.773  -0.902  1.00  0.00     0.068 A 
ATOM     11  N   UNL     1       0.424   0.296  -2.147  1.00  0.00    -0.195 NA
ATOM     12  S   UNL     1       0.286   1.551  -3.202  1.00  0.00    -0.017 S 
ATOM     13  C   UNL     1       0.049   2.768  -2.036  1.00  0.00     0.131 A 
BRANCH  13  14
ATOM     14  N   UNL     1      -0.042   4.120  -2.340  1.00  0.00    -0.312 N 
ATOM     15  C   UNL     1      -0.123   4.779  -3.547  1.00  0.00     0.256 C 
ATOM     16  H   UNL     1      -0.050   4.713  -1.554  1.00  0.00     0.171 HD
ATOM     17  O   UNL     1       0.204   5.962  -3.625  1.00  0.00    -0.269 OA
BRANCH  15  18
ATOM     18  C   UNL     1      -0.685   4.124  -4.740  1.00  0.00     0.040 A 
ATOM     19  C   UNL     1      -1.897   3.436  -4.646  1.00  0.00     0.016 A 
ATOM     20  C   UNL     1      -0.007   4.198  -5.957  1.00  0.00     0.016 A 
ATOM     21  C   UNL     1      -2.353   2.696  -5.736  1.00  0.00     0.026 A 
ATOM     22  C   UNL     1      -0.487   3.471  -7.050  1.00  0.00     0.026 A 
ATOM     23  C   UNL     1      -1.619   2.658  -6.924  1.00  0.00     0.031 A 
BRANCH  23  24
ATOM     24  N   UNL     1      -2.084   1.924  -8.005  1.00  0.00    -0.399 N 
ATOM     25  H   UNL     1      -2.881   1.354  -7.906  1.00  0.00     0.156 HD
ATOM     26  H   UNL     1      -1.618   1.972  -8.870  1.00  0.00     0.156 HD
ENDBRANCH  23  24
ENDBRANCH  15  18
ENDBRANCH  13  14
ENDBRANCH   6   8
ENDBRANCH   5   6
ENDBRANCH   4   5
ENDBRANCH   3   4
ENDBRANCH   2   3
ENDBRANCH   1   2
BRANCH   1  27
ATOM     27  C   UNL     1       3.550   2.625  -0.471  1.00  0.00     0.188 C 
BRANCH  27  28
ATOM     28  O   UNL     1       3.807   1.984   0.761  1.00  0.00    -0.376 OA
BRANCH  28  29
ATOM     29  C   UNL     1       5.131   1.555   1.036  1.00  0.00     0.202 C 
BRANCH  29  30
ATOM     30  C   UNL     1       6.308   2.521   0.886  1.00  0.00     0.261 C 
BRANCH  30  31
ATOM     31  O   UNL     1       6.171   3.524  -0.105  1.00  0.00    -0.460 OA
BRANCH  31  32
ATOM     32  C   UNL     1       6.479   3.139  -1.360  1.00  0.00     0.338 C 
ATOM     33  O   UNL     1       6.581   1.996  -1.770  1.00  0.00    -0.246 OA
BRANCH  32  34
ATOM     34  C   UNL     1       6.734   4.343  -2.153  1.00  0.00     0.060 A 
ATOM     35  C   UNL     1       6.723   4.227  -3.544  1.00  0.00     0.016 A 
ATOM     36  C   UNL     1       7.251   5.471  -1.498  1.00  0.00     0.016 A 
ATOM     37  C   UNL     1       7.433   5.154  -4.276  1.00  0.00     0.010 A 
ATOM     38  C   UNL     1       7.974   6.380  -2.226  1.00  0.00     0.010 A 
ATOM     39  C   UNL     1       8.132   6.153  -3.590  1.00  0.00    -0.014 A 
BRANCH  39  40
ATOM     40  C   UNL     1       9.059   6.978  -4.331  1.00  0.00     0.031 A 
ATOM     41  C   UNL     1       8.408   8.027  -5.132  1.00  0.00     0.074 A 
ATOM     42  C   UNL     1      10.391   6.847  -4.187  1.00  0.00     0.049 A 
ATOM     43  N   UNL     1       8.317   8.090  -6.417  1.00  0.00    -0.248 NA
ATOM     44  C   UNL     1       7.617   9.038  -4.412  1.00  0.00     0.031 C 
ATOM     45  C   UNL     1      11.103   6.014  -3.209  1.00  0.00     0.029 A 
ATOM     46  N   UNL     1      11.394   7.524  -4.807  1.00  0.00    -0.354 N 
ATOM     47  C   UNL     1       7.659   9.285  -6.673  1.00  0.00     0.074 A 
ATOM     48  C   UNL     1       7.069   9.704  -5.428  1.00  0.00     0.031 C 
ATOM     49  C   UNL     1      12.396   6.406  -3.150  1.00  0.00     0.029 A 
ATOM     50  C   UNL     1      12.627   7.406  -4.179  1.00  0.00     0.049 A 
ATOM     51  H   UNL     1      11.258   8.050  -5.628  1.00  0.00     0.167 HD
ATOM     52  C   UNL     1       7.915   9.998  -7.802  1.00  0.00     0.031 A 
ATOM     53  C   UNL     1      13.745   8.121  -4.451  1.00  0.00     0.031 A 
ATOM     54  C   UNL     1       8.633   9.219  -8.777  1.00  0.00     0.049 A 
ATOM     55  C   UNL     1      13.609   8.647  -5.828  1.00  0.00     0.074 A 
ATOM     56  C   UNL     1       8.353   8.125  -9.566  1.00  0.00     0.029 A 
ATOM     57  N   UNL     1      10.000   9.351  -8.733  1.00  0.00    -0.354 N 
ATOM     58  N   UNL     1      13.576   7.879  -6.881  1.00  0.00    -0.248 NA
ATOM     59  C   UNL     1      13.122  10.004  -6.039  1.00  0.00     0.031 C 
ATOM     60  C   UNL     1       9.594   7.443  -9.732  1.00  0.00     0.029 A 
ATOM     61  C   UNL     1      10.591   8.160  -9.068  1.00  0.00     0.049 A 
ATOM     62  H   UNL     1      10.482  10.176  -8.496  1.00  0.00     0.167 HD
ATOM     63  C   UNL     1      12.682   8.495  -7.740  1.00  0.00     0.074 A 
ATOM     64  C   UNL     1      12.572   9.864  -7.250  1.00  0.00     0.031 C 
ATOM     65  C   UNL     1      11.897   7.757  -8.578  1.00  0.00     0.031 A 
BRANCH  52  66
ATOM     66  C   UNL     1       7.956  11.507  -7.815  1.00  0.00    -0.014 A 
ATOM     67  C   UNL     1       8.142  12.171  -9.042  1.00  0.00     0.010 A 
ATOM     68  C   UNL     1       8.111  12.275  -6.640  1.00  0.00     0.010 A 
ATOM     69  C   UNL     1       8.516  13.522  -9.085  1.00  0.00     0.020 A 
ATOM     70  C   UNL     1       8.440  13.629  -6.672  1.00  0.00     0.020 A 
ATOM     71  C   UNL     1       8.674  14.236  -7.896  1.00  0.00     0.054 A 
BRANCH  71  72
ATOM     72  S   UNL     1       9.262  15.945  -7.952  1.00  0.00     0.124 S 
ATOM     73  O   UNL     1      10.623  15.777  -8.452  1.00  0.00    -0.237 OA
ATOM     74  O   UNL     1       8.317  16.567  -8.875  1.00  0.00    -0.237 OA
ATOM     75  O   UNL     1       9.155  16.390  -6.564  1.00  0.00    -0.744 OA
ENDBRANCH  71  72
ENDBRANCH  52  66
BRANCH  53  76
ATOM     76  C   UNL     1      14.780   8.582  -3.497  1.00  0.00    -0.014 A 
ATOM     77  C   UNL     1      16.045   9.015  -3.934  1.00  0.00     0.010 A 
ATOM     78  C   UNL     1      14.423   8.845  -2.158  1.00  0.00     0.010 A 
ATOM     79  C   UNL     1      16.900   9.727  -3.076  1.00  0.00     0.020 A 
ATOM     80  C   UNL     1      15.270   9.550  -1.296  1.00  0.00     0.020 A 
ATOM     81  C   UNL     1      16.499  10.006  -1.766  1.00  0.00     0.054 A 
BRANCH  81  82
ATOM     82  S   UNL     1      17.541  11.059  -0.713  1.00  0.00     0.124 S 
ATOM     83  O   UNL     1      18.694  10.200  -0.459  1.00  0.00    -0.237 OA
ATOM     84  O   UNL     1      17.790  12.216  -1.567  1.00  0.00    -0.237 OA
ATOM     85  O   UNL     1      16.698  11.323   0.452  1.00  0.00    -0.744 OA
ENDBRANCH  81  82
ENDBRANCH  53  76
BRANCH  65  86
ATOM     86  C   UNL     1      12.320   6.333  -8.852  1.00  0.00    -0.014 A 
ATOM     87  C   UNL     1      12.326   5.317  -7.876  1.00  0.00     0.010 A 
ATOM     88  C   UNL     1      12.617   5.990 -10.182  1.00  0.00     0.010 A 
ATOM     89  C   UNL     1      12.642   3.995  -8.223  1.00  0.00     0.020 A 
ATOM     90  C   UNL     1      12.915   4.672 -10.536  1.00  0.00     0.020 A 
ATOM     91  C   UNL     1      12.933   3.681  -9.554  1.00  0.00     0.054 A 
BRANCH  91  92
ATOM     92  S   UNL     1      13.287   1.960 -10.009  1.00  0.00     0.124 S 
ATOM     93  O   UNL     1      14.592   1.730  -9.397  1.00  0.00    -0.237 OA
ATOM     94  O   UNL     1      12.172   1.229  -9.408  1.00  0.00    -0.237 OA
ATOM     95  O   UNL     1      13.284   1.979 -11.472  1.00  0.00    -0.744 OA
ENDBRANCH  91  92
ENDBRANCH  65  86
ENDBRANCH  39  40
ENDBRANCH  32  34
ENDBRANCH  31  32
ENDBRANCH  30  31
ENDBRANCH  29  30
ENDBRANCH  28  29
ENDBRANCH  27  28
ENDBRANCH   1  27
TORSDOF 23
