REMARK SMILES COc1cc(OC)cc(-c2ccc([C@@H](C)C(=O)OCCOCCOCCOC(=O)c3ccc(-c4c5nc(c(-c6ccc(S(=O)(=O)[O-])cc6)c6ccc([nH]6)c(-c6ccc(S(=O)(=O)[O-])cc6)c6nc(c(-c7ccc(S(=O)(=O)[O-])cc7)c7ccc4[nH]7)C=C6)C=C5)cc3)cc2F)c1
REMARK SMILES IDX 22 1 21 2 20 3 19 4 18 5 16 6 17 7 14 8 15 9 13 10 10 11
REMARK SMILES IDX 11 12 91 13 12 14 90 15 92 16 9 17 3 18 4 19 93 20 5 21 8 22
REMARK SMILES IDX 2 23 1 24 6 25 7 26 23 27 24 28 25 29 26 30 27 31 28 32
REMARK SMILES IDX 29 33 30 34 31 35 89 36 32 37 88 38 33 39 34 40 35 41 82 42
REMARK SMILES IDX 36 43 87 44 81 45 83 46 37 47 86 48 80 49 79 50 38 52 68 53
REMARK SMILES IDX 49 54 67 55 50 56 53 57 66 58 84 59 51 60 52 61 65 63 85 64
REMARK SMILES IDX 54 65 39 66 40 67 48 68 41 69 47 70 42 71 43 72 44 73 45 74
REMARK SMILES IDX 46 75 69 76 70 77 78 78 71 79 77 80 72 81 73 82 74 83 75 84
REMARK SMILES IDX 76 85 55 86 56 87 64 88 57 89 63 90 58 91 59 92 60 93 61 94
REMARK SMILES IDX 62 95
REMARK H PARENT 83 51 53 62
REMARK Flexibility Score: inf
ROOT
ATOM      1  C   UNL     1       8.687  -3.932  -0.432  1.00  0.00     0.188 C 
ENDROOT
BRANCH   1   2
ATOM      2  O   UNL     1       9.246  -4.871  -1.343  1.00  0.00    -0.376 OA
BRANCH   2   3
ATOM      3  C   UNL     1       8.818  -6.227  -1.292  1.00  0.00     0.202 C 
BRANCH   3   4
ATOM      4  C   UNL     1       8.878  -6.974   0.052  1.00  0.00     0.261 C 
BRANCH   4   5
ATOM      5  O   UNL     1       8.158  -6.356   1.145  1.00  0.00    -0.463 OA
BRANCH   5   6
ATOM      6  C   UNL     1       8.875  -6.084   2.265  1.00  0.00     0.313 C 
ATOM      7  O   UNL     1      10.054  -6.406   2.401  1.00  0.00    -0.252 OA
BRANCH   6   8
ATOM      8  C   UNL     1       8.142  -5.320   3.376  1.00  0.00     0.126 C 
ATOM      9  C   UNL     1       8.242  -6.129   4.668  1.00  0.00     0.025 C 
BRANCH   8  10
ATOM     10  C   UNL     1       6.713  -4.810   3.183  1.00  0.00    -0.031 A 
ATOM     11  C   UNL     1       4.072  -3.732   2.841  1.00  0.00     0.018 A 
ATOM     12  C   UNL     1       4.359  -5.088   2.588  1.00  0.00     0.012 A 
ATOM     13  C   UNL     1       5.138  -2.931   3.259  1.00  0.00     0.131 A 
ATOM     14  C   UNL     1       5.651  -5.622   2.766  1.00  0.00     0.005 A 
ATOM     15  C   UNL     1       6.426  -3.453   3.440  1.00  0.00     0.044 A 
ATOM     16  F   UNL     1       4.942  -1.632   3.533  1.00  0.00    -0.206 F 
BRANCH  11  17
ATOM     17  C   UNL     1       2.685  -3.223   2.788  1.00  0.00    -0.008 A 
ATOM     18  C   UNL     1       0.967  -1.672   2.009  1.00  0.00     0.123 A 
ATOM     19  C   UNL     1       0.044  -2.268   2.873  1.00  0.00     0.092 A 
ATOM     20  C   UNL     1       2.287  -2.145   1.970  1.00  0.00     0.055 A 
ATOM     21  C   UNL     1       0.413  -3.330   3.692  1.00  0.00     0.123 A 
ATOM     22  C   UNL     1       1.722  -3.808   3.634  1.00  0.00     0.055 A 
BRANCH  18  23
ATOM     23  O   UNL     1       0.458  -0.612   1.310  1.00  0.00    -0.497 OA
ATOM     24  C   UNL     1       1.150  -0.206   0.137  1.00  0.00     0.278 C 
ENDBRANCH  18  23
BRANCH  21  25
ATOM     25  O   UNL     1      -0.577  -3.817   4.502  1.00  0.00    -0.497 OA
ATOM     26  C   UNL     1      -0.157  -4.668   5.562  1.00  0.00     0.278 C 
ENDBRANCH  21  25
ENDBRANCH  11  17
ENDBRANCH   8  10
ENDBRANCH   6   8
ENDBRANCH   5   6
ENDBRANCH   4   5
ENDBRANCH   3   4
ENDBRANCH   2   3
ENDBRANCH   1   2
BRANCH   1  27
ATOM     27  C   UNL     1       7.189  -4.014  -0.110  1.00  0.00     0.188 C 
BRANCH  27  28
ATOM     28  O   UNL     1       6.473  -4.963  -0.869  1.00  0.00    -0.376 OA
BRANCH  28  29
ATOM     29  C   UNL     1       5.386  -4.492  -1.639  1.00  0.00     0.202 C 
BRANCH  29  30
ATOM     30  C   UNL     1       5.704  -3.452  -2.723  1.00  0.00     0.261 C 
BRANCH  30  31
ATOM     31  O   UNL     1       6.528  -2.342  -2.325  1.00  0.00    -0.460 OA
BRANCH  31  32
ATOM     32  C   UNL     1       5.968  -1.400  -1.531  1.00  0.00     0.338 C 
ATOM     33  O   UNL     1       4.817  -1.384  -1.118  1.00  0.00    -0.246 OA
BRANCH  32  34
ATOM     34  C   UNL     1       7.054  -0.510  -1.055  1.00  0.00     0.060 A 
ATOM     35  C   UNL     1       7.298  -0.394   0.322  1.00  0.00     0.016 A 
ATOM     36  C   UNL     1       7.839   0.198  -1.968  1.00  0.00     0.016 A 
ATOM     37  C   UNL     1       8.302   0.460   0.790  1.00  0.00     0.010 A 
ATOM     38  C   UNL     1       8.828   1.068  -1.497  1.00  0.00     0.010 A 
ATOM     39  C   UNL     1       9.041   1.232  -0.116  1.00  0.00    -0.014 A 
BRANCH  39  40
ATOM     40  C   UNL     1       9.878   2.363   0.365  1.00  0.00     0.031 A 
ATOM     41  C   UNL     1       9.296   3.752   0.300  1.00  0.00     0.074 A 
ATOM     42  C   UNL     1      11.123   2.180   0.842  1.00  0.00     0.049 A 
ATOM     43  N   UNL     1       9.856   4.902   0.567  1.00  0.00    -0.248 NA
ATOM     44  C   UNL     1       7.891   3.851  -0.133  1.00  0.00     0.031 C 
ATOM     45  C   UNL     1      11.788   0.889   1.010  1.00  0.00     0.029 A 
ATOM     46  N   UNL     1      12.057   3.097   1.263  1.00  0.00    -0.354 N 
ATOM     47  C   UNL     1       8.880   5.862   0.319  1.00  0.00     0.074 A 
ATOM     48  C   UNL     1       7.704   5.162  -0.147  1.00  0.00     0.031 C 
ATOM     49  C   UNL     1      13.029   1.098   1.488  1.00  0.00     0.029 A 
ATOM     50  C   UNL     1      13.261   2.536   1.620  1.00  0.00     0.049 A 
ATOM     51  H   UNL     1      11.880   4.064   1.305  1.00  0.00     0.167 HD
ATOM     52  C   UNL     1       8.952   7.206   0.469  1.00  0.00     0.031 A 
ATOM     53  C   UNL     1      14.423   3.117   1.985  1.00  0.00     0.031 A 
ATOM     54  C   UNL     1      10.127   7.905   0.919  1.00  0.00     0.049 A 
ATOM     55  C   UNL     1      14.508   4.623   2.062  1.00  0.00     0.074 A 
ATOM     56  C   UNL     1      10.296   9.265   1.112  1.00  0.00     0.029 A 
ATOM     57  N   UNL     1      11.333   7.302   1.240  1.00  0.00    -0.354 N 
ATOM     58  N   UNL     1      13.574   5.517   1.838  1.00  0.00    -0.248 NA
ATOM     59  C   UNL     1      15.805   5.197   2.451  1.00  0.00     0.031 C 
ATOM     60  C   UNL     1      11.624   9.490   1.486  1.00  0.00     0.029 A 
ATOM     61  C   UNL     1      12.260   8.265   1.604  1.00  0.00     0.049 A 
ATOM     62  H   UNL     1      11.506   6.333   1.213  1.00  0.00     0.167 HD
ATOM     63  C   UNL     1      14.160   6.754   2.098  1.00  0.00     0.074 A 
ATOM     64  C   UNL     1      15.525   6.492   2.505  1.00  0.00     0.031 C 
ATOM     65  C   UNL     1      13.615   7.994   2.015  1.00  0.00     0.031 A 
BRANCH  52  66
ATOM     66  C   UNL     1       7.734   8.014   0.104  1.00  0.00    -0.014 A 
ATOM     67  C   UNL     1       6.559   7.959   0.877  1.00  0.00     0.010 A 
ATOM     68  C   UNL     1       7.777   8.869  -1.013  1.00  0.00     0.010 A 
ATOM     69  C   UNL     1       5.439   8.713   0.516  1.00  0.00     0.020 A 
ATOM     70  C   UNL     1       6.670   9.649  -1.358  1.00  0.00     0.020 A 
ATOM     71  C   UNL     1       5.502   9.553  -0.600  1.00  0.00     0.054 A 
BRANCH  71  72
ATOM     72  S   UNL     1       4.041  10.538  -1.029  1.00  0.00     0.124 S 
ATOM     73  O   UNL     1       3.120   9.513  -1.515  1.00  0.00    -0.237 OA
ATOM     74  O   UNL     1       3.683  11.150   0.248  1.00  0.00    -0.237 OA
ATOM     75  O   UNL     1       4.532  11.464  -2.046  1.00  0.00    -0.744 OA
ENDBRANCH  71  72
ENDBRANCH  52  66
BRANCH  53  76
ATOM     76  C   UNL     1      15.618   2.279   2.290  1.00  0.00    -0.014 A 
ATOM     77  C   UNL     1      16.139   2.218   3.595  1.00  0.00     0.010 A 
ATOM     78  C   UNL     1      16.255   1.549   1.269  1.00  0.00     0.010 A 
ATOM     79  C   UNL     1      17.283   1.462   3.869  1.00  0.00     0.020 A 
ATOM     80  C   UNL     1      17.380   0.765   1.546  1.00  0.00     0.020 A 
ATOM     81  C   UNL     1      17.894   0.736   2.843  1.00  0.00     0.054 A 
BRANCH  81  82
ATOM     82  S   UNL     1      19.349  -0.275   3.234  1.00  0.00     0.124 S 
ATOM     83  O   UNL     1      20.370   0.740   3.474  1.00  0.00    -0.237 OA
ATOM     84  O   UNL     1      18.907  -1.019   4.411  1.00  0.00    -0.237 OA
ATOM     85  O   UNL     1      19.539  -1.082   2.031  1.00  0.00    -0.744 OA
ENDBRANCH  81  82
ENDBRANCH  53  76
BRANCH  65  86
ATOM     86  C   UNL     1      14.469   9.168   2.426  1.00  0.00    -0.014 A 
ATOM     87  C   UNL     1      15.562   9.595   1.652  1.00  0.00     0.010 A 
ATOM     88  C   UNL     1      14.126   9.895   3.582  1.00  0.00     0.010 A 
ATOM     89  C   UNL     1      16.316  10.705   2.046  1.00  0.00     0.020 A 
ATOM     90  C   UNL     1      14.857  11.024   3.961  1.00  0.00     0.020 A 
ATOM     91  C   UNL     1      15.958  11.414   3.197  1.00  0.00     0.054 A 
BRANCH  91  92
ATOM     92  S   UNL     1      16.928  12.874   3.663  1.00  0.00     0.124 S 
ATOM     93  O   UNL     1      18.179  12.276   4.121  1.00  0.00    -0.237 OA
ATOM     94  O   UNL     1      17.009  13.617   2.407  1.00  0.00    -0.237 OA
ATOM     95  O   UNL     1      16.123  13.509   4.704  1.00  0.00    -0.744 OA
ENDBRANCH  91  92
ENDBRANCH  65  86
ENDBRANCH  39  40
ENDBRANCH  32  34
ENDBRANCH  31  32
ENDBRANCH  30  31
ENDBRANCH  29  30
ENDBRANCH  28  29
ENDBRANCH  27  28
ENDBRANCH   1  27
TORSDOF 24
