REMARK SMILES CCCOc1ccccc1O[C@@H]1CC[C@@]([NH3+])(C(=O)OCCOCCOCCOC(=O)c2ccc(-c3c4nc(c(-c5ccc(S(=O)(=O)[O-])cc5)c5ccc([nH]5)c(-c5ccc(S(=O)(=O)[O-])cc5)c5nc(c(-c6ccc(S(=O)(=O)[O-])cc6)c6ccc3[nH]6)C=C5)C=C4)cc2)C1
REMARK SMILES IDX 23 1 22 2 21 3 20 4 19 5 17 6 18 7 15 8 12 9 13 10 91 11
REMARK SMILES IDX 14 12 11 13 10 14 5 15 6 16 7 17 9 18 8 19 4 20 3 21 2 22
REMARK SMILES IDX 1 23 16 24 24 28 25 29 26 30 27 31 28 32 29 33 30 34 31 35
REMARK SMILES IDX 32 36 90 37 33 38 89 39 34 40 35 41 36 42 83 43 37 44 88 45
REMARK SMILES IDX 82 46 84 47 38 48 87 49 81 50 80 51 39 53 69 54 50 55 68 56
REMARK SMILES IDX 51 57 54 58 67 59 85 60 52 61 53 62 66 64 86 65 55 66 40 67
REMARK SMILES IDX 41 68 49 69 42 70 48 71 43 72 44 73 45 74 46 75 47 76 70 77
REMARK SMILES IDX 71 78 79 79 72 80 78 81 73 82 74 83 75 84 76 85 77 86 56 87
REMARK SMILES IDX 57 88 65 89 58 90 64 91 59 92 60 93 61 94 62 95 63 96
REMARK H PARENT 16 25 16 26 16 27 84 52 54 63
REMARK Flexibility Score: inf
ROOT
ATOM      1  C   UNL     1      -0.488  -2.670   3.699  1.00  0.00     0.188 C 
ENDROOT
BRANCH   1   2
ATOM      2  O   UNL     1      -0.110  -3.420   4.832  1.00  0.00    -0.376 OA
BRANCH   2   3
ATOM      3  C   UNL     1       0.152  -2.699   6.026  1.00  0.00     0.202 C 
BRANCH   3   4
ATOM      4  C   UNL     1       1.112  -1.471   6.074  1.00  0.00     0.261 C 
BRANCH   4   5
ATOM      5  O   UNL     1       0.982  -0.430   5.072  1.00  0.00    -0.459 OA
BRANCH   5   6
ATOM      6  C   UNL     1       2.102   0.018   4.385  1.00  0.00     0.368 C 
ATOM      7  O   UNL     1       3.232  -0.429   4.541  1.00  0.00    -0.245 OA
BRANCH   6   8
ATOM      8  C   UNL     1       1.752   1.326   3.348  1.00  0.00     0.196 C 
ATOM      9  C   UNL     1       0.531   1.003   0.297  1.00  0.00     0.180 C 
ATOM     10  C   UNL     1      -0.971   1.530   1.550  1.00  0.00     0.052 C 
ATOM     11  C   UNL     1       2.267   1.044   1.397  1.00  0.00     0.126 C 
ATOM     12  C   UNL     1      -0.222   1.635   3.395  1.00  0.00     0.085 C 
BRANCH   9  13
ATOM     13  O   UNL     1       0.482   1.251  -1.083  1.00  0.00    -0.486 OA
BRANCH  13  14
ATOM     14  C   UNL     1       1.024   2.421  -1.430  1.00  0.00     0.161 A 
ATOM     15  C   UNL     1       1.071   3.458  -0.526  1.00  0.00     0.161 A 
ATOM     16  C   UNL     1       1.530   4.693  -0.952  1.00  0.00     0.050 A 
ATOM     17  C   UNL     1       1.956   4.851  -2.281  1.00  0.00     0.004 A 
ATOM     18  C   UNL     1       1.405   2.564  -2.757  1.00  0.00     0.050 A 
ATOM     19  C   UNL     1       1.882   3.790  -3.188  1.00  0.00     0.004 A 
BRANCH  15  20
ATOM     20  O   UNL     1       0.369   3.308   0.631  1.00  0.00    -0.490 OA
BRANCH  20  21
ATOM     21  C   UNL     1       0.859   2.381   1.742  1.00  0.00     0.229 C 
BRANCH  21  22
ATOM     22  C   UNL     1       0.575   0.241   2.065  1.00  0.00     0.038 C 
ATOM     23  C   UNL     1       1.425  -1.176   1.405  1.00  0.00     0.007 C 
ENDBRANCH  21  22
ENDBRANCH  20  21
ENDBRANCH  15  20
ENDBRANCH  13  14
ENDBRANCH   9  13
BRANCH   8  24
ATOM     24  N   UNL     1       2.451   2.426   4.072  1.00  0.00    -0.343 N 
ATOM     25  H   UNL     1       2.112   2.469   5.033  1.00  0.00     0.345 HD
ATOM     26  H   UNL     1       2.264   3.313   3.605  1.00  0.00     0.345 HD
ATOM     27  H   UNL     1       3.455   2.248   4.073  1.00  0.00     0.345 HD
ENDBRANCH   8  24
ENDBRANCH   6   8
ENDBRANCH   5   6
ENDBRANCH   4   5
ENDBRANCH   3   4
ENDBRANCH   2   3
ENDBRANCH   1   2
BRANCH   1  28
ATOM     28  C   UNL     1      -1.635  -1.661   3.815  1.00  0.00     0.188 C 
BRANCH  28  29
ATOM     29  O   UNL     1      -2.326  -1.590   5.024  1.00  0.00    -0.376 OA
BRANCH  29  30
ATOM     30  C   UNL     1      -3.479  -2.378   5.185  1.00  0.00     0.202 C 
BRANCH  30  31
ATOM     31  C   UNL     1      -4.026  -3.376   4.134  1.00  0.00     0.261 C 
BRANCH  31  32
ATOM     32  O   UNL     1      -3.266  -3.664   2.943  1.00  0.00    -0.460 OA
BRANCH  32  33
ATOM     33  C   UNL     1      -3.673  -3.047   1.795  1.00  0.00     0.338 C 
ATOM     34  O   UNL     1      -4.594  -2.252   1.700  1.00  0.00    -0.246 OA
BRANCH  33  35
ATOM     35  C   UNL     1      -2.692  -3.286   0.698  1.00  0.00     0.060 A 
ATOM     36  C   UNL     1      -2.085  -2.182   0.080  1.00  0.00     0.016 A 
ATOM     37  C   UNL     1      -2.397  -4.569   0.238  1.00  0.00     0.016 A 
ATOM     38  C   UNL     1      -1.176  -2.358  -0.976  1.00  0.00     0.010 A 
ATOM     39  C   UNL     1      -1.509  -4.741  -0.841  1.00  0.00     0.010 A 
ATOM     40  C   UNL     1      -0.887  -3.639  -1.459  1.00  0.00    -0.014 A 
BRANCH  40  41
ATOM     41  C   UNL     1      -0.074  -3.821  -2.700  1.00  0.00     0.031 A 
ATOM     42  C   UNL     1      -0.783  -3.859  -4.029  1.00  0.00     0.074 A 
ATOM     43  C   UNL     1       1.268  -3.949  -2.673  1.00  0.00     0.049 A 
ATOM     44  N   UNL     1      -0.310  -4.137  -5.217  1.00  0.00    -0.248 NA
ATOM     45  C   UNL     1      -2.219  -3.541  -4.010  1.00  0.00     0.031 C 
ATOM     46  C   UNL     1       2.106  -3.836  -1.483  1.00  0.00     0.029 A 
ATOM     47  N   UNL     1       2.165  -4.209  -3.687  1.00  0.00    -0.354 N 
ATOM     48  C   UNL     1      -1.392  -4.051  -6.085  1.00  0.00     0.074 A 
ATOM     49  C   UNL     1      -2.546  -3.699  -5.285  1.00  0.00     0.031 C 
ATOM     50  C   UNL     1       3.391  -4.035  -1.830  1.00  0.00     0.029 A 
ATOM     51  C   UNL     1       3.467  -4.353  -3.257  1.00  0.00     0.049 A 
ATOM     52  H   UNL     1       1.901  -4.286  -4.632  1.00  0.00     0.167 HD
ATOM     53  C   UNL     1      -1.430  -4.262  -7.424  1.00  0.00     0.031 A 
ATOM     54  C   UNL     1       4.581  -4.737  -3.920  1.00  0.00     0.031 A 
ATOM     55  C   UNL     1      -0.292  -4.644  -8.219  1.00  0.00     0.049 A 
ATOM     56  C   UNL     1       4.491  -5.090  -5.388  1.00  0.00     0.074 A 
ATOM     57  C   UNL     1      -0.242  -4.895  -9.580  1.00  0.00     0.029 A 
ATOM     58  N   UNL     1       0.990  -4.844  -7.731  1.00  0.00    -0.354 N 
ATOM     59  N   UNL     1       3.458  -5.018  -6.194  1.00  0.00    -0.248 NA
ATOM     60  C   UNL     1       5.717  -5.588  -6.035  1.00  0.00     0.031 C 
ATOM     61  C   UNL     1       1.049  -5.325  -9.899  1.00  0.00     0.029 A 
ATOM     62  C   UNL     1       1.828  -5.255  -8.756  1.00  0.00     0.049 A 
ATOM     63  H   UNL     1       1.265  -4.714  -6.795  1.00  0.00     0.167 HD
ATOM     64  C   UNL     1       3.917  -5.433  -7.443  1.00  0.00     0.074 A 
ATOM     65  C   UNL     1       5.324  -5.737  -7.293  1.00  0.00     0.031 C 
ATOM     66  C   UNL     1       3.232  -5.551  -8.607  1.00  0.00     0.031 A 
BRANCH  53  67
ATOM     67  C   UNL     1      -2.770  -4.157  -8.106  1.00  0.00    -0.014 A 
ATOM     68  C   UNL     1      -3.426  -2.922  -8.260  1.00  0.00     0.010 A 
ATOM     69  C   UNL     1      -3.367  -5.317  -8.635  1.00  0.00     0.010 A 
ATOM     70  C   UNL     1      -4.671  -2.857  -8.892  1.00  0.00     0.020 A 
ATOM     71  C   UNL     1      -4.594  -5.251  -9.299  1.00  0.00     0.020 A 
ATOM     72  C   UNL     1      -5.247  -4.023  -9.408  1.00  0.00     0.054 A 
BRANCH  72  73
ATOM     73  S   UNL     1      -6.852  -3.903 -10.242  1.00  0.00     0.124 S 
ATOM     74  O   UNL     1      -7.746  -3.583  -9.132  1.00  0.00    -0.237 OA
ATOM     75  O   UNL     1      -6.631  -2.825 -11.202  1.00  0.00    -0.237 OA
ATOM     76  O   UNL     1      -7.040  -5.228 -10.829  1.00  0.00    -0.744 OA
ENDBRANCH  72  73
ENDBRANCH  53  67
BRANCH  54  77
ATOM     77  C   UNL     1       5.884  -4.880  -3.198  1.00  0.00    -0.014 A 
ATOM     78  C   UNL     1       6.994  -4.084  -3.535  1.00  0.00     0.010 A 
ATOM     79  C   UNL     1       6.034  -5.851  -2.189  1.00  0.00     0.010 A 
ATOM     80  C   UNL     1       8.224  -4.262  -2.889  1.00  0.00     0.020 A 
ATOM     81  C   UNL     1       7.250  -6.007  -1.515  1.00  0.00     0.020 A 
ATOM     82  C   UNL     1       8.341  -5.217  -1.876  1.00  0.00     0.054 A 
BRANCH  82  83
ATOM     83  S   UNL     1       9.929  -5.389  -1.012  1.00  0.00     0.124 S 
ATOM     84  O   UNL     1      10.783  -5.955  -2.051  1.00  0.00    -0.237 OA
ATOM     85  O   UNL     1      10.226  -4.011  -0.628  1.00  0.00    -0.237 OA
ATOM     86  O   UNL     1       9.619  -6.286   0.099  1.00  0.00    -0.744 OA
ENDBRANCH  82  83
ENDBRANCH  54  77
BRANCH  66  87
ATOM     87  C   UNL     1       3.988  -5.988  -9.840  1.00  0.00    -0.014 A 
ATOM     88  C   UNL     1       4.463  -7.303  -9.987  1.00  0.00     0.010 A 
ATOM     89  C   UNL     1       4.146  -5.084 -10.909  1.00  0.00     0.010 A 
ATOM     90  C   UNL     1       5.098  -7.699 -11.169  1.00  0.00     0.020 A 
ATOM     91  C   UNL     1       4.749  -5.486 -12.105  1.00  0.00     0.020 A 
ATOM     92  C   UNL     1       5.230  -6.790 -12.224  1.00  0.00     0.054 A 
BRANCH  92  93
ATOM     93  S   UNL     1       5.994  -7.353 -13.771  1.00  0.00     0.124 S 
ATOM     94  O   UNL     1       7.385  -7.548 -13.373  1.00  0.00    -0.237 OA
ATOM     95  O   UNL     1       5.248  -8.573 -14.069  1.00  0.00    -0.237 OA
ATOM     96  O   UNL     1       5.761  -6.246 -14.697  1.00  0.00    -0.744 OA
ENDBRANCH  92  93
ENDBRANCH  66  87
ENDBRANCH  40  41
ENDBRANCH  33  35
ENDBRANCH  32  33
ENDBRANCH  31  32
ENDBRANCH  30  31
ENDBRANCH  29  30
ENDBRANCH  28  29
ENDBRANCH   1  28
TORSDOF 26
