REMARK SMILES COc1ccc2c(c1)c(CC(=O)OCCOCCOCCOC(=O)c1ccc(-c3c4nc(c(-c5ccc(S(=O)(=O)[O-])cc5)c5ccc([nH]5)c(-c5ccc(S(=O)(=O)[O-])cc5)c5nc(c(-c6ccc(S(=O)(=O)[O-])cc6)c6ccc3[nH]6)C=C5)C=C4)cc1)c(C)n2C(=O)c1ccc(Cl)cc1
REMARK SMILES IDX 17 1 16 2 15 3 14 4 13 5 11 6 12 7 10 8 9 9 3 10 4 11 8 12
REMARK SMILES IDX 5 13 7 14 6 15 87 16 85 17 86 18 2 19 1 20 88 21 89 22 90 23
REMARK SMILES IDX 91 24 96 25 92 26 95 27 93 28 94 29 18 30 19 31 20 32 21 33
REMARK SMILES IDX 22 34 23 35 24 36 25 37 26 38 84 39 27 40 83 41 28 42 29 43
REMARK SMILES IDX 30 44 77 45 31 46 82 47 76 48 78 49 32 50 81 51 75 52 74 53
REMARK SMILES IDX 33 55 63 56 44 57 62 58 45 59 48 60 61 61 79 62 46 63 47 64
REMARK SMILES IDX 60 66 80 67 49 68 34 69 35 70 43 71 36 72 42 73 37 74 38 75
REMARK SMILES IDX 39 76 40 77 41 78 64 79 65 80 73 81 66 82 72 83 67 84 68 85
REMARK SMILES IDX 69 86 70 87 71 88 50 89 51 90 59 91 52 92 58 93 53 94 54 95
REMARK SMILES IDX 55 96 56 97 57 98
REMARK H PARENT 78 54 48 65
REMARK Flexibility Score: inf
ROOT
ATOM      1  C   UNL     1      -2.064   5.293   0.017  1.00  0.00     0.188 C 
ENDROOT
BRANCH   1   2
ATOM      2  O   UNL     1      -2.413   6.372  -0.819  1.00  0.00    -0.376 OA
BRANCH   2   3
ATOM      3  C   UNL     1      -1.834   7.626  -0.494  1.00  0.00     0.202 C 
BRANCH   3   4
ATOM      4  C   UNL     1      -1.778   7.996   1.002  1.00  0.00     0.261 C 
BRANCH   4   5
ATOM      5  O   UNL     1      -0.842   7.152   1.737  1.00  0.00    -0.463 OA
BRANCH   5   6
ATOM      6  C   UNL     1      -1.184   6.844   3.019  1.00  0.00     0.310 C 
ATOM      7  O   UNL     1      -2.003   7.507   3.651  1.00  0.00    -0.252 OA
BRANCH   6   8
ATOM      8  C   UNL     1      -0.703   5.474   3.518  1.00  0.00     0.160 C 
BRANCH   8   9
ATOM      9  C   UNL     1       0.743   5.083   3.728  1.00  0.00    -0.008 A 
ATOM     10  C   UNL     1       1.827   1.700   2.160  1.00  0.00     0.119 A 
ATOM     11  C   UNL     1       2.905   1.471   2.967  1.00  0.00     0.048 A 
ATOM     12  C   UNL     1       1.144   2.918   2.297  1.00  0.00     0.057 A 
ATOM     13  C   UNL     1       3.293   2.471   3.875  1.00  0.00     0.031 A 
ATOM     14  C   UNL     1       1.425   3.910   3.246  1.00  0.00     0.008 A 
ATOM     15  C   UNL     1       2.564   3.696   4.006  1.00  0.00     0.057 A 
ATOM     16  N   UNL     1       2.747   4.869   4.753  1.00  0.00    -0.280 N 
ATOM     17  C   UNL     1       1.533   5.560   4.766  1.00  0.00     0.028 A 
ATOM     18  C   UNL     1       1.115   6.582   5.772  1.00  0.00     0.065 C 
BRANCH  10  19
ATOM     19  O   UNL     1       1.286   0.852   1.253  1.00  0.00    -0.497 OA
ATOM     20  C   UNL     1       1.911  -0.342   0.835  1.00  0.00     0.278 C 
ENDBRANCH  10  19
BRANCH  16  21
ATOM     21  C   UNL     1       3.973   5.287   5.339  1.00  0.00     0.262 C 
ATOM     22  O   UNL     1       4.027   6.257   6.045  1.00  0.00    -0.268 OA
BRANCH  21  23
ATOM     23  C   UNL     1       5.231   4.583   5.012  1.00  0.00     0.040 A 
ATOM     24  C   UNL     1       5.731   4.676   3.707  1.00  0.00     0.015 A 
ATOM     25  C   UNL     1       5.733   3.659   5.929  1.00  0.00     0.015 A 
ATOM     26  C   UNL     1       6.714   3.780   3.294  1.00  0.00     0.021 A 
ATOM     27  C   UNL     1       6.712   2.760   5.504  1.00  0.00     0.021 A 
ATOM     28  C   UNL     1       7.185   2.815   4.188  1.00  0.00     0.041 A 
ATOM     29  Cl  UNL     1       8.308   1.633   3.639  1.00  0.00    -0.084 Cl
ENDBRANCH  21  23
ENDBRANCH  16  21
ENDBRANCH   8   9
ENDBRANCH   6   8
ENDBRANCH   5   6
ENDBRANCH   4   5
ENDBRANCH   3   4
ENDBRANCH   2   3
ENDBRANCH   1   2
BRANCH   1  30
ATOM     30  C   UNL     1      -0.575   4.945   0.147  1.00  0.00     0.188 C 
BRANCH  30  31
ATOM     31  O   UNL     1       0.369   5.551  -0.697  1.00  0.00    -0.376 OA
BRANCH  31  32
ATOM     32  C   UNL     1       0.469   5.015  -2.003  1.00  0.00     0.202 C 
BRANCH  32  33
ATOM     33  C   UNL     1       0.036   3.547  -2.291  1.00  0.00     0.261 C 
BRANCH  33  34
ATOM     34  O   UNL     1      -1.288   3.175  -1.800  1.00  0.00    -0.460 OA
BRANCH  34  35
ATOM     35  C   UNL     1      -1.417   1.922  -1.256  1.00  0.00     0.338 C 
ATOM     36  O   UNL     1      -0.643   0.999  -1.472  1.00  0.00    -0.246 OA
BRANCH  35  37
ATOM     37  C   UNL     1      -2.332   1.942  -0.048  1.00  0.00     0.060 A 
ATOM     38  C   UNL     1      -3.681   2.260   0.043  1.00  0.00     0.016 A 
ATOM     39  C   UNL     1      -1.669   1.750   1.156  1.00  0.00     0.016 A 
ATOM     40  C   UNL     1      -4.261   2.522   1.327  1.00  0.00     0.010 A 
ATOM     41  C   UNL     1      -2.216   1.978   2.417  1.00  0.00     0.010 A 
ATOM     42  C   UNL     1      -3.508   2.457   2.525  1.00  0.00    -0.014 A 
BRANCH  42  43
ATOM     43  C   UNL     1      -4.050   2.507   3.907  1.00  0.00     0.031 A 
ATOM     44  C   UNL     1      -4.714   1.246   4.231  1.00  0.00     0.074 A 
ATOM     45  C   UNL     1      -3.965   3.418   4.910  1.00  0.00     0.049 A 
ATOM     46  N   UNL     1      -5.933   1.018   3.880  1.00  0.00    -0.248 NA
ATOM     47  C   UNL     1      -3.983   0.084   4.739  1.00  0.00     0.031 C 
ATOM     48  C   UNL     1      -3.434   4.763   4.836  1.00  0.00     0.029 A 
ATOM     49  N   UNL     1      -4.355   3.342   6.238  1.00  0.00    -0.354 N 
ATOM     50  C   UNL     1      -6.222  -0.208   4.419  1.00  0.00     0.074 A 
ATOM     51  C   UNL     1      -4.944  -0.842   4.645  1.00  0.00     0.031 C 
ATOM     52  C   UNL     1      -3.338   5.320   6.068  1.00  0.00     0.029 A 
ATOM     53  C   UNL     1      -3.943   4.418   7.044  1.00  0.00     0.049 A 
ATOM     54  H   UNL     1      -4.881   2.589   6.591  1.00  0.00     0.167 HD
ATOM     55  C   UNL     1      -7.452  -0.423   4.955  1.00  0.00     0.031 A 
ATOM     56  C   UNL     1      -4.473   4.906   8.206  1.00  0.00     0.031 A 
ATOM     57  C   UNL     1      -8.368   0.663   4.648  1.00  0.00     0.049 A 
ATOM     58  C   UNL     1      -5.905   4.543   8.188  1.00  0.00     0.074 A 
ATOM     59  C   UNL     1      -8.828   1.252   3.484  1.00  0.00     0.029 A 
ATOM     60  N   UNL     1      -8.584   1.581   5.653  1.00  0.00    -0.354 N 
ATOM     61  N   UNL     1      -6.771   5.101   7.393  1.00  0.00    -0.248 NA
ATOM     62  C   UNL     1      -6.321   3.288   8.792  1.00  0.00     0.031 C 
ATOM     63  C   UNL     1      -8.959   2.641   3.776  1.00  0.00     0.029 A 
ATOM     64  C   UNL     1      -8.638   2.846   5.119  1.00  0.00     0.049 A 
ATOM     65  H   UNL     1      -8.685   1.363   6.608  1.00  0.00     0.167 HD
ATOM     66  C   UNL     1      -7.621   4.069   7.038  1.00  0.00     0.074 A 
ATOM     67  C   UNL     1      -7.378   3.020   8.023  1.00  0.00     0.031 C 
ATOM     68  C   UNL     1      -8.241   4.057   5.824  1.00  0.00     0.031 A 
BRANCH  55  69
ATOM     69  C   UNL     1      -7.682  -1.385   6.082  1.00  0.00    -0.014 A 
ATOM     70  C   UNL     1      -6.646  -1.905   6.886  1.00  0.00     0.010 A 
ATOM     71  C   UNL     1      -9.002  -1.643   6.490  1.00  0.00     0.010 A 
ATOM     72  C   UNL     1      -6.899  -2.695   8.001  1.00  0.00     0.020 A 
ATOM     73  C   UNL     1      -9.269  -2.392   7.641  1.00  0.00     0.020 A 
ATOM     74  C   UNL     1      -8.213  -2.929   8.376  1.00  0.00     0.054 A 
BRANCH  74  75
ATOM     75  S   UNL     1      -8.495  -3.895   9.872  1.00  0.00     0.124 S 
ATOM     76  O   UNL     1      -8.058  -5.224   9.452  1.00  0.00    -0.237 OA
ATOM     77  O   UNL     1      -7.633  -3.225  10.841  1.00  0.00    -0.237 OA
ATOM     78  O   UNL     1      -9.929  -3.750  10.105  1.00  0.00    -0.744 OA
ENDBRANCH  74  75
ENDBRANCH  55  69
BRANCH  56  79
ATOM     79  C   UNL     1      -3.753   5.107   9.505  1.00  0.00    -0.014 A 
ATOM     80  C   UNL     1      -2.461   4.593   9.712  1.00  0.00     0.010 A 
ATOM     81  C   UNL     1      -4.425   5.643  10.630  1.00  0.00     0.010 A 
ATOM     82  C   UNL     1      -1.907   4.512  11.001  1.00  0.00     0.020 A 
ATOM     83  C   UNL     1      -3.874   5.567  11.925  1.00  0.00     0.020 A 
ATOM     84  C   UNL     1      -2.633   4.960  12.106  1.00  0.00     0.054 A 
BRANCH  84  85
ATOM     85  S   UNL     1      -1.961   4.657  13.771  1.00  0.00     0.124 S 
ATOM     86  O   UNL     1      -2.041   3.202  13.871  1.00  0.00    -0.237 OA
ATOM     87  O   UNL     1      -0.610   5.204  13.675  1.00  0.00    -0.237 OA
ATOM     88  O   UNL     1      -2.864   5.393  14.653  1.00  0.00    -0.744 OA
ENDBRANCH  84  85
ENDBRANCH  56  79
BRANCH  68  89
ATOM     89  C   UNL     1      -8.329   5.357   5.042  1.00  0.00    -0.014 A 
ATOM     90  C   UNL     1      -9.609   5.771   4.630  1.00  0.00     0.010 A 
ATOM     91  C   UNL     1      -7.213   6.069   4.559  1.00  0.00     0.010 A 
ATOM     92  C   UNL     1      -9.772   6.808   3.709  1.00  0.00     0.020 A 
ATOM     93  C   UNL     1      -7.370   7.130   3.648  1.00  0.00     0.020 A 
ATOM     94  C   UNL     1      -8.650   7.466   3.202  1.00  0.00     0.054 A 
BRANCH  94  95
ATOM     95  S   UNL     1      -8.907   8.722   1.917  1.00  0.00     0.124 S 
ATOM     96  O   UNL     1      -9.325   7.912   0.774  1.00  0.00    -0.237 OA
ATOM     97  O   UNL     1      -9.951   9.567   2.493  1.00  0.00    -0.237 OA
ATOM     98  O   UNL     1      -7.601   9.363   1.777  1.00  0.00    -0.744 OA
ENDBRANCH  94  95
ENDBRANCH  68  89
ENDBRANCH  42  43
ENDBRANCH  35  37
ENDBRANCH  34  35
ENDBRANCH  33  34
ENDBRANCH  32  33
ENDBRANCH  31  32
ENDBRANCH  30  31
ENDBRANCH   1  30
TORSDOF 24
