REMARK SMILES C[C@@H]1C(C(=O)OCCOCCOCCOC(=O)c2ccc(-c3c4nc(c(-c5ccc(S(=O)(=O)[O-])cc5)c5ccc([nH]5)c(-c5ccc(S(=O)(=O)[O-])cc5)c5nc(c(-c6ccc(S(=O)(=O)[O-])cc6)c6ccc3[nH]6)C=C5)C=C4)cc2)=NC2=C1C(=O)C[C@H](c1ccccc1)C2
REMARK SMILES IDX 11 1 10 2 9 3 8 4 7 5 6 6 4 7 5 8 3 9 1 10 2 11 80 12 78 13
REMARK SMILES IDX 79 14 81 15 91 16 82 17 83 18 84 19 85 20 86 21 90 22 87 23
REMARK SMILES IDX 89 24 88 25 12 26 13 27 14 28 15 29 16 30 17 31 18 32 19 33
REMARK SMILES IDX 77 34 20 35 76 36 21 37 22 38 23 39 70 40 24 41 75 42 69 43
REMARK SMILES IDX 71 44 25 45 74 46 68 47 67 48 26 50 56 51 37 52 55 53 38 54
REMARK SMILES IDX 41 55 54 56 72 57 39 58 40 59 53 61 73 62 42 63 27 64 28 65
REMARK SMILES IDX 36 66 29 67 35 68 30 69 31 70 32 71 33 72 34 73 57 74 58 75
REMARK SMILES IDX 66 76 59 77 65 78 60 79 61 80 62 81 63 82 64 83 43 84 44 85
REMARK SMILES IDX 52 86 45 87 51 88 46 89 47 90 48 91 49 92 50 93
REMARK H PARENT 71 49 41 60
REMARK Flexibility Score: inf
ROOT
ATOM      1  C   UNL     1      -2.953   1.272   0.180  1.00  0.00     0.188 C 
ENDROOT
BRANCH   1   2
ATOM      2  C   UNL     1      -1.911   1.256  -0.912  1.00  0.00     0.188 C 
BRANCH   2   3
ATOM      3  O   UNL     1      -2.406   1.589  -2.195  1.00  0.00    -0.376 OA
BRANCH   3   4
ATOM      4  C   UNL     1      -1.567   1.267  -3.303  1.00  0.00     0.202 C 
BRANCH   4   5
ATOM      5  C   UNL     1      -0.206   0.534  -3.129  1.00  0.00     0.261 C 
BRANCH   5   6
ATOM      6  O   UNL     1       0.460   0.703  -1.858  1.00  0.00    -0.459 OA
BRANCH   6   7
ATOM      7  C   UNL     1       1.330   1.714  -1.667  1.00  0.00     0.353 C 
ATOM      8  O   UNL     1       1.837   2.400  -2.534  1.00  0.00    -0.245 OA
BRANCH   7   9
ATOM      9  C   UNL     1       1.422   2.007  -0.155  1.00  0.00     0.133 C 
ATOM     10  C   UNL     1       2.205   0.158   1.334  1.00  0.00     0.020 C 
ATOM     11  C   UNL     1       0.999   0.968   0.876  1.00  0.00     0.078 C 
ATOM     12  C   UNL     1       0.639   1.997   1.884  1.00  0.00     0.026 C 
ATOM     13  N   UNL     1       1.747   3.181   0.330  1.00  0.00    -0.249 NA
ATOM     14  C   UNL     1       1.228   3.160   1.608  1.00  0.00     0.049 C 
ATOM     15  C   UNL     1      -0.518   2.010   2.787  1.00  0.00     0.161 C 
ATOM     16  C   UNL     1       0.877   4.391   2.387  1.00  0.00     0.065 C 
ATOM     17  O   UNL     1      -0.849   0.970   3.350  1.00  0.00    -0.294 OA
ATOM     18  C   UNL     1      -1.317   3.322   2.926  1.00  0.00     0.089 C 
ATOM     19  C   UNL     1      -0.653   4.591   2.289  1.00  0.00     0.033 C 
BRANCH  19  20
ATOM     20  C   UNL     1      -1.096   4.980   0.865  1.00  0.00    -0.044 A 
ATOM     21  C   UNL     1      -0.190   5.558  -0.050  1.00  0.00     0.004 A 
ATOM     22  C   UNL     1      -2.412   4.821   0.418  1.00  0.00     0.004 A 
ATOM     23  C   UNL     1      -0.525   5.803  -1.381  1.00  0.00     0.000 A 
ATOM     24  C   UNL     1      -2.758   5.081  -0.917  1.00  0.00     0.000 A 
ATOM     25  C   UNL     1      -1.808   5.540  -1.824  1.00  0.00     0.000 A 
ENDBRANCH  19  20
ENDBRANCH   7   9
ENDBRANCH   6   7
ENDBRANCH   5   6
ENDBRANCH   4   5
ENDBRANCH   3   4
ENDBRANCH   2   3
ENDBRANCH   1   2
BRANCH   1  26
ATOM     26  O   UNL     1      -3.796   0.124   0.173  1.00  0.00    -0.376 OA
BRANCH  26  27
ATOM     27  C   UNL     1      -4.643  -0.025  -0.957  1.00  0.00     0.202 C 
BRANCH  27  28
ATOM     28  C   UNL     1      -5.888   0.844  -0.943  1.00  0.00     0.261 C 
BRANCH  28  29
ATOM     29  O   UNL     1      -5.610   2.237  -0.882  1.00  0.00    -0.460 OA
BRANCH  29  30
ATOM     30  C   UNL     1      -5.706   2.750   0.367  1.00  0.00     0.338 C 
ATOM     31  O   UNL     1      -5.558   2.170   1.429  1.00  0.00    -0.246 OA
BRANCH  30  32
ATOM     32  C   UNL     1      -6.194   4.122   0.274  1.00  0.00     0.060 A 
ATOM     33  C   UNL     1      -6.198   4.873   1.452  1.00  0.00     0.016 A 
ATOM     34  C   UNL     1      -6.915   4.498  -0.868  1.00  0.00     0.016 A 
ATOM     35  C   UNL     1      -7.095   5.907   1.551  1.00  0.00     0.010 A 
ATOM     36  C   UNL     1      -7.830   5.509  -0.756  1.00  0.00     0.010 A 
ATOM     37  C   UNL     1      -7.959   6.139   0.477  1.00  0.00    -0.014 A 
BRANCH  37  38
ATOM     38  C   UNL     1      -9.007   7.110   0.660  1.00  0.00     0.031 A 
ATOM     39  C   UNL     1      -8.527   8.499   0.548  1.00  0.00     0.074 A 
ATOM     40  C   UNL     1     -10.287   6.739   0.834  1.00  0.00     0.049 A 
ATOM     41  N   UNL     1      -8.406   9.358   1.501  1.00  0.00    -0.248 NA
ATOM     42  C   UNL     1      -7.923   8.915  -0.728  1.00  0.00     0.031 C 
ATOM     43  C   UNL     1     -10.871   5.403   0.679  1.00  0.00     0.029 A 
ATOM     44  N   UNL     1     -11.369   7.522   1.067  1.00  0.00    -0.354 N 
ATOM     45  C   UNL     1      -7.927  10.511   0.895  1.00  0.00     0.074 A 
ATOM     46  C   UNL     1      -7.450  10.118  -0.406  1.00  0.00     0.031 C 
ATOM     47  C   UNL     1     -12.215   5.521   0.577  1.00  0.00     0.029 A 
ATOM     48  C   UNL     1     -12.583   6.914   0.782  1.00  0.00     0.049 A 
ATOM     49  H   UNL     1     -11.299   8.443   1.409  1.00  0.00     0.167 HD
ATOM     50  C   UNL     1      -8.220  11.741   1.397  1.00  0.00     0.031 A 
ATOM     51  C   UNL     1     -13.776   7.543   0.632  1.00  0.00     0.031 A 
ATOM     52  C   UNL     1      -8.725  11.657   2.743  1.00  0.00     0.049 A 
ATOM     53  C   UNL     1     -13.654   8.880   1.273  1.00  0.00     0.074 A 
ATOM     54  C   UNL     1      -8.225  11.173   3.935  1.00  0.00     0.029 A 
ATOM     55  N   UNL     1     -10.089  11.747   2.902  1.00  0.00    -0.354 N 
ATOM     56  N   UNL     1     -13.523   9.047   2.559  1.00  0.00    -0.248 NA
ATOM     57  C   UNL     1     -13.203   9.998   0.456  1.00  0.00     0.031 C 
ATOM     58  C   UNL     1      -9.341  10.577   4.590  1.00  0.00     0.029 A 
ATOM     59  C   UNL     1     -10.474  10.787   3.801  1.00  0.00     0.049 A 
ATOM     60  H   UNL     1     -10.684  12.389   2.450  1.00  0.00     0.167 HD
ATOM     61  C   UNL     1     -12.588  10.066   2.694  1.00  0.00     0.074 A 
ATOM     62  C   UNL     1     -12.507  10.681   1.371  1.00  0.00     0.031 C 
ATOM     63  C   UNL     1     -11.763  10.127   3.782  1.00  0.00     0.031 A 
BRANCH  50  64
ATOM     64  C   UNL     1      -8.462  12.944   0.523  1.00  0.00    -0.014 A 
ATOM     65  C   UNL     1      -8.751  14.176   1.143  1.00  0.00     0.010 A 
ATOM     66  C   UNL     1      -8.699  12.854  -0.865  1.00  0.00     0.010 A 
ATOM     67  C   UNL     1      -9.325  15.230   0.424  1.00  0.00     0.020 A 
ATOM     68  C   UNL     1      -9.227  13.914  -1.600  1.00  0.00     0.020 A 
ATOM     69  C   UNL     1      -9.573  15.084  -0.941  1.00  0.00     0.054 A 
BRANCH  69  70
ATOM     70  S   UNL     1     -10.412  16.409  -1.838  1.00  0.00     0.124 S 
ATOM     71  O   UNL     1     -11.740  16.385  -1.232  1.00  0.00    -0.237 OA
ATOM     72  O   UNL     1      -9.586  17.569  -1.516  1.00  0.00    -0.237 OA
ATOM     73  O   UNL     1     -10.349  15.972  -3.231  1.00  0.00    -0.744 OA
ENDBRANCH  69  70
ENDBRANCH  50  64
BRANCH  51  74
ATOM     74  C   UNL     1     -14.874   7.197  -0.307  1.00  0.00    -0.014 A 
ATOM     75  C   UNL     1     -16.129   7.828  -0.217  1.00  0.00     0.010 A 
ATOM     76  C   UNL     1     -14.606   6.442  -1.468  1.00  0.00     0.010 A 
ATOM     77  C   UNL     1     -17.049   7.765  -1.279  1.00  0.00     0.020 A 
ATOM     78  C   UNL     1     -15.520   6.365  -2.524  1.00  0.00     0.020 A 
ATOM     79  C   UNL     1     -16.728   7.051  -2.437  1.00  0.00     0.054 A 
BRANCH  79  80
ATOM     80  S   UNL     1     -17.830   7.135  -3.879  1.00  0.00     0.124 S 
ATOM     81  O   UNL     1     -18.979   6.349  -3.440  1.00  0.00    -0.237 OA
ATOM     82  O   UNL     1     -18.061   8.569  -4.020  1.00  0.00    -0.237 OA
ATOM     83  O   UNL     1     -17.040   6.531  -4.951  1.00  0.00    -0.744 OA
ENDBRANCH  79  80
ENDBRANCH  51  74
BRANCH  63  84
ATOM     84  C   UNL     1     -12.095   9.275   4.985  1.00  0.00    -0.014 A 
ATOM     85  C   UNL     1     -12.192   7.870   4.958  1.00  0.00     0.010 A 
ATOM     86  C   UNL     1     -12.178   9.927   6.228  1.00  0.00     0.010 A 
ATOM     87  C   UNL     1     -12.411   7.144   6.140  1.00  0.00     0.020 A 
ATOM     88  C   UNL     1     -12.374   9.211   7.409  1.00  0.00     0.020 A 
ATOM     89  C   UNL     1     -12.506   7.824   7.358  1.00  0.00     0.054 A 
BRANCH  89  90
ATOM     90  S   UNL     1     -12.776   6.885   8.888  1.00  0.00     0.124 S 
ATOM     91  O   UNL     1     -14.139   6.390   8.718  1.00  0.00    -0.237 OA
ATOM     92  O   UNL     1     -11.726   5.871   8.837  1.00  0.00    -0.237 OA
ATOM     93  O   UNL     1     -12.609   7.884   9.943  1.00  0.00    -0.744 OA
ENDBRANCH  89  90
ENDBRANCH  63  84
ENDBRANCH  37  38
ENDBRANCH  30  32
ENDBRANCH  29  30
ENDBRANCH  28  29
ENDBRANCH  27  28
ENDBRANCH  26  27
ENDBRANCH   1  26
TORSDOF 21
