REMARK SMILES Cc1cc2n(n1)[C@H](C(F)(F)F)CCN2C(=O)c1cnn([C@@H](C)C(=O)OCCOCCOCCOC(=O)c2ccc(-c3c4nc(c(-c5ccc(S(=O)(=O)[O-])cc5)c5ccc([nH]5)c(-c5ccc(S(=O)(=O)[O-])cc5)c5nc(c(-c6ccc(S(=O)(=O)[O-])cc6)c6ccc3[nH]6)C=C5)C=C4)cc2)c1
REMARK SMILES IDX 29 1 28 2 27 3 26 4 25 5 23 6 24 7 21 8 22 9 20 10 17 11
REMARK SMILES IDX 18 12 97 13 19 14 15 15 16 16 14 17 1 18 2 19 3 20 6 21 4 22
REMARK SMILES IDX 5 23 7 24 13 25 12 26 8 27 9 28 10 29 11 30 30 31 31 32
REMARK SMILES IDX 32 33 33 34 34 35 35 36 36 37 37 38 38 39 96 40 39 41 95 42
REMARK SMILES IDX 40 43 41 44 42 45 89 46 43 47 94 48 88 49 90 50 44 51 93 52
REMARK SMILES IDX 87 53 86 54 45 56 75 57 56 58 74 59 57 60 60 61 73 62 91 63
REMARK SMILES IDX 58 64 59 65 72 67 92 68 61 69 46 70 47 71 55 72 48 73 54 74
REMARK SMILES IDX 49 75 50 76 51 77 52 78 53 79 76 80 77 81 85 82 78 83 84 84
REMARK SMILES IDX 79 85 80 86 81 87 82 88 83 89 62 90 63 91 71 92 64 93 70 94
REMARK SMILES IDX 65 95 66 96 67 97 68 98 69 99
REMARK H PARENT 90 55 60 66
REMARK Flexibility Score: inf
ROOT
ATOM      1  C   UNL     1      -3.460  -3.034   9.978  1.00  0.00     0.188 C 
ENDROOT
BRANCH   1   2
ATOM      2  O   UNL     1      -4.646  -3.315  10.679  1.00  0.00    -0.376 OA
BRANCH   2   3
ATOM      3  C   UNL     1      -5.335  -2.237  11.288  1.00  0.00     0.202 C 
BRANCH   3   4
ATOM      4  C   UNL     1      -4.579  -1.028  11.878  1.00  0.00     0.261 C 
BRANCH   4   5
ATOM      5  O   UNL     1      -3.614  -0.388  11.007  1.00  0.00    -0.462 OA
BRANCH   5   6
ATOM      6  C   UNL     1      -2.377  -0.180  11.516  1.00  0.00     0.330 C 
ATOM      7  O   UNL     1      -2.078  -0.484  12.673  1.00  0.00    -0.250 OA
BRANCH   6   8
ATOM      8  C   UNL     1      -1.315   0.405  10.599  1.00  0.00     0.213 C 
ATOM      9  C   UNL     1      -0.730   1.658  11.243  1.00  0.00     0.046 C 
BRANCH   8  10
ATOM     10  N   UNL     1      -1.605   0.639   9.179  1.00  0.00    -0.258 N 
ATOM     11  C   UNL     1      -1.388   0.678   6.960  1.00  0.00     0.078 A 
ATOM     12  C   UNL     1      -2.497   1.423   7.429  1.00  0.00     0.149 A 
ATOM     13  C   UNL     1      -0.827   0.192   8.129  1.00  0.00     0.123 A 
ATOM     14  N   UNL     1      -2.522   1.537   8.763  1.00  0.00    -0.180 NA
BRANCH  11  15
ATOM     15  C   UNL     1      -0.954   0.362   5.611  1.00  0.00     0.262 C 
ATOM     16  O   UNL     1      -0.770  -0.777   5.217  1.00  0.00    -0.269 OA
BRANCH  15  17
ATOM     17  N   UNL     1      -0.574   1.525   4.802  1.00  0.00    -0.293 N 
ATOM     18  C   UNL     1       0.846  -0.083   0.223  1.00  0.00     0.069 C 
ATOM     19  C   UNL     1       0.492   0.698   1.437  1.00  0.00     0.062 A 
ATOM     20  C   UNL     1      -0.073   0.239   2.660  1.00  0.00     0.072 A 
ATOM     21  N   UNL     1       0.719   2.017   1.469  1.00  0.00    -0.176 NA
ATOM     22  C   UNL     1      -0.137   1.349   3.474  1.00  0.00     0.134 A 
ATOM     23  N   UNL     1       0.356   2.369   2.704  1.00  0.00    -0.237 N 
ATOM     24  C   UNL     1       0.474   3.741   3.136  1.00  0.00     0.216 C 
ATOM     25  C   UNL     1      -0.381   2.867   5.406  1.00  0.00     0.130 C 
ATOM     26  C   UNL     1      -0.419   3.986   4.360  1.00  0.00     0.059 C 
BRANCH  24  27
ATOM     27  C   UNL     1       1.923   4.086   3.399  1.00  0.00     0.410 C 
ATOM     28  F   UNL     1       2.442   3.329   4.392  1.00  0.00    -0.169 F 
ATOM     29  F   UNL     1       2.714   3.969   2.317  1.00  0.00    -0.169 F 
ATOM     30  F   UNL     1       2.015   5.378   3.810  1.00  0.00    -0.169 F 
ENDBRANCH  24  27
ENDBRANCH  15  17
ENDBRANCH  11  15
ENDBRANCH   8  10
ENDBRANCH   6   8
ENDBRANCH   5   6
ENDBRANCH   4   5
ENDBRANCH   3   4
ENDBRANCH   2   3
ENDBRANCH   1   2
BRANCH   1  31
ATOM     31  C   UNL     1      -3.492  -2.138   8.733  1.00  0.00     0.188 C 
BRANCH  31  32
ATOM     32  O   UNL     1      -4.350  -1.032   8.560  1.00  0.00    -0.376 OA
BRANCH  32  33
ATOM     33  C   UNL     1      -5.720  -1.038   8.194  1.00  0.00     0.202 C 
BRANCH  33  34
ATOM     34  C   UNL     1      -6.420  -2.130   7.390  1.00  0.00     0.261 C 
BRANCH  34  35
ATOM     35  O   UNL     1      -5.683  -3.316   7.273  1.00  0.00    -0.460 OA
BRANCH  35  36
ATOM     36  C   UNL     1      -4.770  -3.279   6.279  1.00  0.00     0.338 C 
ATOM     37  O   UNL     1      -4.503  -2.340   5.552  1.00  0.00    -0.246 OA
BRANCH  36  38
ATOM     38  C   UNL     1      -4.082  -4.576   6.290  1.00  0.00     0.060 A 
ATOM     39  C   UNL     1      -3.048  -4.739   5.372  1.00  0.00     0.016 A 
ATOM     40  C   UNL     1      -4.606  -5.643   7.041  1.00  0.00     0.016 A 
ATOM     41  C   UNL     1      -2.775  -6.016   4.958  1.00  0.00     0.010 A 
ATOM     42  C   UNL     1      -4.339  -6.917   6.623  1.00  0.00     0.010 A 
ATOM     43  C   UNL     1      -3.541  -7.055   5.496  1.00  0.00    -0.014 A 
BRANCH  43  44
ATOM     44  C   UNL     1      -3.640  -8.260   4.715  1.00  0.00     0.031 A 
ATOM     45  C   UNL     1      -2.507  -9.175   4.859  1.00  0.00     0.074 A 
ATOM     46  C   UNL     1      -4.719  -8.492   3.946  1.00  0.00     0.049 A 
ATOM     47  N   UNL     1      -1.582  -9.411   3.994  1.00  0.00    -0.248 NA
ATOM     48  C   UNL     1      -2.290  -9.771   6.182  1.00  0.00     0.031 C 
ATOM     49  C   UNL     1      -6.003  -7.780   3.938  1.00  0.00     0.029 A 
ATOM     50  N   UNL     1      -4.923  -9.511   3.076  1.00  0.00    -0.354 N 
ATOM     51  C   UNL     1      -0.767 -10.359   4.590  1.00  0.00     0.074 A 
ATOM     52  C   UNL     1      -1.131 -10.396   5.986  1.00  0.00     0.031 C 
ATOM     53  C   UNL     1      -6.919  -8.536   3.291  1.00  0.00     0.029 A 
ATOM     54  C   UNL     1      -6.250  -9.696   2.726  1.00  0.00     0.049 A 
ATOM     55  H   UNL     1      -4.192 -10.069   2.724  1.00  0.00     0.167 HD
ATOM     56  C   UNL     1      -0.028 -11.229   3.854  1.00  0.00     0.031 A 
ATOM     57  C   UNL     1      -6.761 -10.785   2.104  1.00  0.00     0.031 A 
ATOM     58  C   UNL     1       0.065 -10.840   2.472  1.00  0.00     0.049 A 
ATOM     59  C   UNL     1      -5.637 -11.471   1.416  1.00  0.00     0.074 A 
ATOM     60  C   UNL     1       0.591  -9.751   1.806  1.00  0.00     0.029 A 
ATOM     61  N   UNL     1      -0.793 -11.453   1.587  1.00  0.00    -0.354 N 
ATOM     62  N   UNL     1      -4.983 -10.943   0.418  1.00  0.00    -0.248 NA
ATOM     63  C   UNL     1      -4.934 -12.539   2.113  1.00  0.00     0.031 C 
ATOM     64  C   UNL     1      -0.296  -9.513   0.717  1.00  0.00     0.029 A 
ATOM     65  C   UNL     1      -1.295 -10.489   0.747  1.00  0.00     0.049 A 
ATOM     66  H   UNL     1      -1.009 -12.414   1.562  1.00  0.00     0.167 HD
ATOM     67  C   UNL     1      -3.656 -11.299   0.623  1.00  0.00     0.074 A 
ATOM     68  C   UNL     1      -3.706 -12.375   1.609  1.00  0.00     0.031 C 
ATOM     69  C   UNL     1      -2.635 -10.502   0.187  1.00  0.00     0.031 A 
BRANCH  56  70
ATOM     70  C   UNL     1       0.274 -12.619   4.330  1.00  0.00    -0.014 A 
ATOM     71  C   UNL     1       1.228 -13.392   3.649  1.00  0.00     0.010 A 
ATOM     72  C   UNL     1      -0.538 -13.276   5.282  1.00  0.00     0.010 A 
ATOM     73  C   UNL     1       1.337 -14.768   3.887  1.00  0.00     0.020 A 
ATOM     74  C   UNL     1      -0.404 -14.632   5.562  1.00  0.00     0.020 A 
ATOM     75  C   UNL     1       0.512 -15.378   4.835  1.00  0.00     0.054 A 
BRANCH  75  76
ATOM     76  S   UNL     1       0.581 -17.171   5.055  1.00  0.00     0.124 S 
ATOM     77  O   UNL     1       0.048 -17.645   3.782  1.00  0.00    -0.237 OA
ATOM     78  O   UNL     1       2.006 -17.401   5.275  1.00  0.00    -0.237 OA
ATOM     79  O   UNL     1      -0.271 -17.405   6.219  1.00  0.00    -0.744 OA
ENDBRANCH  75  76
ENDBRANCH  56  70
BRANCH  57  80
ATOM     80  C   UNL     1      -8.061 -11.427   2.411  1.00  0.00    -0.014 A 
ATOM     81  C   UNL     1      -8.637 -12.370   1.544  1.00  0.00     0.010 A 
ATOM     82  C   UNL     1      -8.620 -11.292   3.701  1.00  0.00     0.010 A 
ATOM     83  C   UNL     1      -9.707 -13.177   1.969  1.00  0.00     0.020 A 
ATOM     84  C   UNL     1      -9.688 -12.084   4.128  1.00  0.00     0.020 A 
ATOM     85  C   UNL     1     -10.215 -13.039   3.264  1.00  0.00     0.054 A 
BRANCH  85  86
ATOM     86  S   UNL     1     -11.491 -14.188   3.858  1.00  0.00     0.124 S 
ATOM     87  O   UNL     1     -12.659 -13.777   3.086  1.00  0.00    -0.237 OA
ATOM     88  O   UNL     1     -10.927 -15.490   3.512  1.00  0.00    -0.237 OA
ATOM     89  O   UNL     1     -11.565 -13.909   5.291  1.00  0.00    -0.744 OA
ENDBRANCH  85  86
ENDBRANCH  57  80
BRANCH  69  90
ATOM     90  C   UNL     1      -2.978  -9.370  -0.761  1.00  0.00    -0.014 A 
ATOM     91  C   UNL     1      -3.826  -8.300  -0.411  1.00  0.00     0.010 A 
ATOM     92  C   UNL     1      -2.305  -9.310  -1.994  1.00  0.00     0.010 A 
ATOM     93  C   UNL     1      -4.016  -7.216  -1.280  1.00  0.00     0.020 A 
ATOM     94  C   UNL     1      -2.475  -8.223  -2.858  1.00  0.00     0.020 A 
ATOM     95  C   UNL     1      -3.336  -7.183  -2.500  1.00  0.00     0.054 A 
BRANCH  95  96
ATOM     96  S   UNL     1      -3.538  -5.745  -3.591  1.00  0.00     0.124 S 
ATOM     97  O   UNL     1      -4.916  -5.886  -4.052  1.00  0.00    -0.237 OA
ATOM     98  O   UNL     1      -3.288  -4.620  -2.692  1.00  0.00    -0.237 OA
ATOM     99  O   UNL     1      -2.517  -5.941  -4.618  1.00  0.00    -0.744 OA
ENDBRANCH  95  96
ENDBRANCH  69  90
ENDBRANCH  43  44
ENDBRANCH  36  38
ENDBRANCH  35  36
ENDBRANCH  34  35
ENDBRANCH  33  34
ENDBRANCH  32  33
ENDBRANCH  31  32
ENDBRANCH   1  31
TORSDOF 24
