REMARK SMILES Cc1c(CC(=O)OCCOCCOCCOC(=O)c2ccc(-c3c4nc(c(-c5ccc(S(=O)(=O)[O-])cc5)c5ccc([nH]5)c(-c5ccc(S(=O)(=O)[O-])cc5)c5nc(c(-c6ccc(S(=O)(=O)[O-])cc6)c6ccc3[nH]6)C=C5)C=C4)cc2)c(=O)oc2cc(OCc3c(F)cccc3Cl)ccc12
REMARK SMILES IDX 11 1 10 2 9 3 8 4 7 5 5 6 6 7 4 8 3 9 1 10 2 11 97 12 79 13
REMARK SMILES IDX 82 14 96 15 80 16 81 17 83 18 95 19 84 20 85 21 86 22 87 23
REMARK SMILES IDX 88 24 93 25 89 26 90 27 92 28 94 29 91 30 12 31 13 32 14 33
REMARK SMILES IDX 15 34 16 35 17 36 18 37 19 38 20 39 78 40 21 41 77 42 22 43
REMARK SMILES IDX 23 44 24 45 71 46 25 47 76 48 70 49 72 50 26 51 75 52 69 53
REMARK SMILES IDX 68 54 27 56 57 57 38 58 56 59 39 60 42 61 55 62 73 63 40 64
REMARK SMILES IDX 41 65 54 67 74 68 43 69 28 70 29 71 37 72 30 73 36 74 31 75
REMARK SMILES IDX 32 76 33 77 34 78 35 79 58 80 59 81 67 82 60 83 66 84 61 85
REMARK SMILES IDX 62 86 63 87 64 88 65 89 44 90 45 91 53 92 46 93 52 94 47 95
REMARK SMILES IDX 48 96 49 97 50 98 51 99
REMARK H PARENT 72 55 42 66
REMARK Flexibility Score: inf
ROOT
ATOM      1  C   UNL     1      -1.447  -3.945  -2.366  1.00  0.00     0.188 C 
ENDROOT
BRANCH   1   2
ATOM      2  O   UNL     1      -2.285  -4.142  -3.502  1.00  0.00    -0.376 OA
BRANCH   2   3
ATOM      3  C   UNL     1      -2.946  -2.994  -4.028  1.00  0.00     0.202 C 
BRANCH   3   4
ATOM      4  C   UNL     1      -4.037  -2.431  -3.120  1.00  0.00     0.261 C 
BRANCH   4   5
ATOM      5  O   UNL     1      -3.475  -1.756  -1.973  1.00  0.00    -0.463 OA
BRANCH   5   6
ATOM      6  C   UNL     1      -4.199  -1.866  -0.831  1.00  0.00     0.310 C 
ATOM      7  O   UNL     1      -5.229  -2.526  -0.730  1.00  0.00    -0.252 OA
BRANCH   6   8
ATOM      8  C   UNL     1      -3.654  -1.076   0.351  1.00  0.00     0.166 C 
BRANCH   8   9
ATOM      9  C   UNL     1      -2.286  -0.444   0.235  1.00  0.00     0.052 A 
ATOM     10  C   UNL     1      -1.086  -2.194   1.584  1.00  0.00     0.046 C 
ATOM     11  C   UNL     1      -1.146  -0.921   0.785  1.00  0.00    -0.029 A 
ATOM     12  C   UNL     1       0.097  -0.136   0.636  1.00  0.00     0.021 A 
ATOM     13  C   UNL     1      -2.313   0.892  -0.421  1.00  0.00     0.340 A 
ATOM     14  C   UNL     1      -0.008   1.193   0.236  1.00  0.00     0.142 A 
ATOM     15  C   UNL     1       1.387  -0.624   0.873  1.00  0.00     0.016 A 
ATOM     16  O   UNL     1      -3.288   1.278  -1.057  1.00  0.00    -0.246 OA
ATOM     17  O   UNL     1      -1.240   1.731  -0.172  1.00  0.00    -0.422 OA
ATOM     18  C   UNL     1       1.097   2.044   0.123  1.00  0.00     0.094 A 
ATOM     19  C   UNL     1       2.510   0.192   0.676  1.00  0.00     0.047 A 
ATOM     20  C   UNL     1       2.374   1.525   0.287  1.00  0.00     0.123 A 
BRANCH  20  21
ATOM     21  O   UNL     1       3.554   2.150   0.004  1.00  0.00    -0.489 OA
BRANCH  21  22
ATOM     22  C   UNL     1       3.583   3.513  -0.426  1.00  0.00     0.270 C 
BRANCH  22  23
ATOM     23  C   UNL     1       2.843   3.902  -1.689  1.00  0.00     0.044 A 
ATOM     24  C   UNL     1       2.351   5.215  -1.752  1.00  0.00     0.131 A 
ATOM     25  C   UNL     1       2.596   3.070  -2.790  1.00  0.00     0.050 A 
ATOM     26  F   UNL     1       2.626   6.075  -0.759  1.00  0.00    -0.207 F 
ATOM     27  C   UNL     1       1.563   5.667  -2.807  1.00  0.00     0.040 A 
ATOM     28  C   UNL     1       1.773   3.508  -3.839  1.00  0.00     0.021 A 
ATOM     29  Cl  UNL     1       3.280   1.494  -2.955  1.00  0.00    -0.084 Cl
ATOM     30  C   UNL     1       1.246   4.799  -3.843  1.00  0.00     0.005 A 
ENDBRANCH  22  23
ENDBRANCH  21  22
ENDBRANCH  20  21
ENDBRANCH   8   9
ENDBRANCH   6   8
ENDBRANCH   5   6
ENDBRANCH   4   5
ENDBRANCH   3   4
ENDBRANCH   2   3
ENDBRANCH   1   2
BRANCH   1  31
ATOM     31  C   UNL     1      -0.483  -2.747  -2.423  1.00  0.00     0.188 C 
BRANCH  31  32
ATOM     32  O   UNL     1       0.108  -2.463  -3.689  1.00  0.00    -0.376 OA
BRANCH  32  33
ATOM     33  C   UNL     1       0.766  -3.544  -4.348  1.00  0.00     0.202 C 
BRANCH  33  34
ATOM     34  C   UNL     1       2.022  -4.011  -3.621  1.00  0.00     0.261 C 
BRANCH  34  35
ATOM     35  O   UNL     1       1.649  -4.863  -2.523  1.00  0.00    -0.460 OA
BRANCH  35  36
ATOM     36  C   UNL     1       2.505  -4.841  -1.482  1.00  0.00     0.338 C 
ATOM     37  O   UNL     1       3.547  -4.211  -1.389  1.00  0.00    -0.246 OA
BRANCH  36  38
ATOM     38  C   UNL     1       1.986  -5.688  -0.401  1.00  0.00     0.060 A 
ATOM     39  C   UNL     1       0.951  -5.214   0.406  1.00  0.00     0.016 A 
ATOM     40  C   UNL     1       2.645  -6.872  -0.085  1.00  0.00     0.016 A 
ATOM     41  C   UNL     1       0.635  -5.874   1.595  1.00  0.00     0.010 A 
ATOM     42  C   UNL     1       2.287  -7.565   1.075  1.00  0.00     0.010 A 
ATOM     43  C   UNL     1       1.320  -7.043   1.955  1.00  0.00    -0.014 A 
BRANCH  43  44
ATOM     44  C   UNL     1       1.140  -7.663   3.297  1.00  0.00     0.031 A 
ATOM     45  C   UNL     1       2.313  -7.714   4.244  1.00  0.00     0.074 A 
ATOM     46  C   UNL     1      -0.044  -8.175   3.685  1.00  0.00     0.049 A 
ATOM     47  N   UNL     1       2.462  -8.405   5.345  1.00  0.00    -0.248 NA
ATOM     48  C   UNL     1       3.478  -6.882   3.896  1.00  0.00     0.031 C 
ATOM     49  C   UNL     1      -1.288  -8.123   2.918  1.00  0.00     0.029 A 
ATOM     50  N   UNL     1      -0.387  -8.848   4.832  1.00  0.00    -0.354 N 
ATOM     51  C   UNL     1       3.756  -8.144   5.784  1.00  0.00     0.074 A 
ATOM     52  C   UNL     1       4.346  -7.223   4.837  1.00  0.00     0.031 C 
ATOM     53  C   UNL     1      -2.262  -8.725   3.622  1.00  0.00     0.029 A 
ATOM     54  C   UNL     1      -1.693  -9.277   4.849  1.00  0.00     0.049 A 
ATOM     55  H   UNL     1       0.243  -9.009   5.572  1.00  0.00     0.167 HD
ATOM     56  C   UNL     1       4.399  -8.637   6.869  1.00  0.00     0.031 A 
ATOM     57  C   UNL     1      -2.348 -10.067   5.723  1.00  0.00     0.031 A 
ATOM     58  C   UNL     1       3.799  -9.525   7.829  1.00  0.00     0.049 A 
ATOM     59  C   UNL     1      -1.605 -10.644   6.897  1.00  0.00     0.074 A 
ATOM     60  C   UNL     1       4.372 -10.098   8.951  1.00  0.00     0.029 A 
ATOM     61  N   UNL     1       2.482  -9.954   7.788  1.00  0.00    -0.354 N 
ATOM     62  N   UNL     1      -0.354 -10.464   7.250  1.00  0.00    -0.248 NA
ATOM     63  C   UNL     1      -2.357 -11.550   7.777  1.00  0.00     0.031 C 
ATOM     64  C   UNL     1       3.406 -10.898   9.574  1.00  0.00     0.029 A 
ATOM     65  C   UNL     1       2.223 -10.788   8.862  1.00  0.00     0.049 A 
ATOM     66  H   UNL     1       1.827  -9.702   7.098  1.00  0.00     0.167 HD
ATOM     67  C   UNL     1      -0.172 -11.229   8.397  1.00  0.00     0.074 A 
ATOM     68  C   UNL     1      -1.444 -11.857   8.690  1.00  0.00     0.031 C 
ATOM     69  C   UNL     1       0.950 -11.403   9.137  1.00  0.00     0.031 A 
BRANCH  56  70
ATOM     70  C   UNL     1       5.848  -8.271   7.040  1.00  0.00    -0.014 A 
ATOM     71  C   UNL     1       6.239  -6.994   7.477  1.00  0.00     0.010 A 
ATOM     72  C   UNL     1       6.837  -9.236   6.772  1.00  0.00     0.010 A 
ATOM     73  C   UNL     1       7.595  -6.674   7.600  1.00  0.00     0.020 A 
ATOM     74  C   UNL     1       8.192  -8.928   6.915  1.00  0.00     0.020 A 
ATOM     75  C   UNL     1       8.563  -7.641   7.309  1.00  0.00     0.054 A 
BRANCH  75  76
ATOM     76  S   UNL     1      10.317  -7.207   7.477  1.00  0.00     0.124 S 
ATOM     77  O   UNL     1      10.546  -6.417   6.269  1.00  0.00    -0.237 OA
ATOM     78  O   UNL     1      10.346  -6.458   8.731  1.00  0.00    -0.237 OA
ATOM     79  O   UNL     1      10.992  -8.502   7.513  1.00  0.00    -0.744 OA
ENDBRANCH  75  76
ENDBRANCH  56  70
BRANCH  57  80
ATOM     80  C   UNL     1      -3.775 -10.412   5.483  1.00  0.00    -0.014 A 
ATOM     81  C   UNL     1      -4.786  -9.887   6.306  1.00  0.00     0.010 A 
ATOM     82  C   UNL     1      -4.131 -11.259   4.417  1.00  0.00     0.010 A 
ATOM     83  C   UNL     1      -6.127 -10.206   6.070  1.00  0.00     0.020 A 
ATOM     84  C   UNL     1      -5.471 -11.558   4.162  1.00  0.00     0.020 A 
ATOM     85  C   UNL     1      -6.461 -11.037   4.997  1.00  0.00     0.054 A 
BRANCH  85  86
ATOM     86  S   UNL     1      -8.210 -11.385   4.662  1.00  0.00     0.124 S 
ATOM     87  O   UNL     1      -8.510 -12.411   5.655  1.00  0.00    -0.237 OA
ATOM     88  O   UNL     1      -8.842 -10.086   4.882  1.00  0.00    -0.237 OA
ATOM     89  O   UNL     1      -8.205 -11.838   3.272  1.00  0.00    -0.744 OA
ENDBRANCH  85  86
ENDBRANCH  57  80
BRANCH  69  90
ATOM     90  C   UNL     1       0.846 -12.283  10.352  1.00  0.00    -0.014 A 
ATOM     91  C   UNL     1       0.813 -13.683  10.231  1.00  0.00     0.010 A 
ATOM     92  C   UNL     1       0.834 -11.701  11.632  1.00  0.00     0.010 A 
ATOM     93  C   UNL     1       0.744 -14.487  11.371  1.00  0.00     0.020 A 
ATOM     94  C   UNL     1       0.784 -12.503  12.775  1.00  0.00     0.020 A 
ATOM     95  C   UNL     1       0.726 -13.891  12.637  1.00  0.00     0.054 A 
BRANCH  95  96
ATOM     96  S   UNL     1       0.680 -14.954  14.107  1.00  0.00     0.124 S 
ATOM     97  O   UNL     1      -0.724 -15.350  14.150  1.00  0.00    -0.237 OA
ATOM     98  O   UNL     1       1.623 -16.018  13.767  1.00  0.00    -0.237 OA
ATOM     99  O   UNL     1       1.114 -14.069  15.185  1.00  0.00    -0.744 OA
ENDBRANCH  95  96
ENDBRANCH  69  90
ENDBRANCH  43  44
ENDBRANCH  36  38
ENDBRANCH  35  36
ENDBRANCH  34  35
ENDBRANCH  33  34
ENDBRANCH  32  33
ENDBRANCH  31  32
ENDBRANCH   1  31
TORSDOF 24
