REMARK SMILES COc1cccc([C@H]2CC(c3ccc(S(C)(=O)=O)cc3)=NN2c2ccc(C(=O)OCCOCCOCCOC(=O)c3ccc(-c4c5nc(c(-c6ccc(S(=O)(=O)[O-])cc6)c6ccc([nH]6)c(-c6ccc(S(=O)(=O)[O-])cc6)c6nc(c(-c7ccc(S(=O)(=O)[O-])cc7)c7ccc4[nH]7)C=C6)C=C5)cc3)cc2)c1
REMARK SMILES IDX 33 1 32 2 31 3 30 4 29 5 27 6 28 7 26 8 23 9 24 10 102 11
REMARK SMILES IDX 25 12 101 13 22 14 8 15 9 16 10 17 21 18 7 19 3 20 4 21
REMARK SMILES IDX 103 22 5 23 6 24 2 25 1 26 11 27 12 28 20 29 13 30 19 31
REMARK SMILES IDX 14 32 15 33 16 34 17 35 18 36 34 37 35 38 36 39 37 40 38 41
REMARK SMILES IDX 39 42 40 43 41 44 42 45 100 46 43 47 99 48 44 49 45 50 46 51
REMARK SMILES IDX 93 52 47 53 98 54 92 55 94 56 48 57 97 58 91 59 90 60 49 62
REMARK SMILES IDX 79 63 60 64 78 65 61 66 64 67 77 68 95 69 62 70 63 71 76 73
REMARK SMILES IDX 96 74 65 75 50 76 51 77 59 78 52 79 58 80 53 81 54 82 55 83
REMARK SMILES IDX 56 84 57 85 80 86 81 87 89 88 82 89 88 90 83 91 84 92 85 93
REMARK SMILES IDX 86 94 87 95 66 96 67 97 75 98 68 99 74 100 69 101 70 102
REMARK SMILES IDX 71 103 72 104 73 105
REMARK H PARENT 94 61 64 72
REMARK Flexibility Score: inf
ROOT
ATOM      1  C   UNL     1       4.569  -0.681  -9.142  1.00  0.00     0.188 C 
ENDROOT
BRANCH   1   2
ATOM      2  O   UNL     1       3.943  -0.825 -10.400  1.00  0.00    -0.376 OA
BRANCH   2   3
ATOM      3  C   UNL     1       3.181   0.231 -10.957  1.00  0.00     0.202 C 
BRANCH   3   4
ATOM      4  C   UNL     1       2.432   1.296 -10.136  1.00  0.00     0.261 C 
BRANCH   4   5
ATOM      5  O   UNL     1       3.049   1.727  -8.920  1.00  0.00    -0.460 OA
BRANCH   5   6
ATOM      6  C   UNL     1       2.410   1.341  -7.786  1.00  0.00     0.338 C 
ATOM      7  O   UNL     1       1.370   0.709  -7.715  1.00  0.00    -0.246 OA
BRANCH   6   8
ATOM      8  C   UNL     1       3.240   1.662  -6.605  1.00  0.00     0.060 A 
ATOM      9  C   UNL     1       4.614   2.262  -4.232  1.00  0.00     0.060 A 
ATOM     10  C   UNL     1       4.125   0.970  -4.458  1.00  0.00     0.029 A 
ATOM     11  C   UNL     1       4.500   3.213  -5.260  1.00  0.00     0.029 A 
ATOM     12  C   UNL     1       3.410   0.678  -5.623  1.00  0.00     0.018 A 
ATOM     13  C   UNL     1       3.832   2.916  -6.451  1.00  0.00     0.018 A 
BRANCH   9  14
ATOM     14  N   UNL     1       5.046   2.655  -2.965  1.00  0.00    -0.257 N 
ATOM     15  C   UNL     1       4.234   3.575  -2.158  1.00  0.00     0.144 C 
ATOM     16  C   UNL     1       4.882   3.476  -0.777  1.00  0.00     0.091 C 
ATOM     17  C   UNL     1       5.926   2.426  -1.045  1.00  0.00     0.071 C 
ATOM     18  N   UNL     1       5.974   1.959  -2.255  1.00  0.00    -0.176 NA
BRANCH  15  19
ATOM     19  C   UNL     1       2.750   3.226  -2.166  1.00  0.00    -0.019 A 
ATOM     20  C   UNL     1       0.907   1.703  -1.688  1.00  0.00     0.119 A 
ATOM     21  C   UNL     1       0.036   2.544  -2.379  1.00  0.00     0.046 A 
ATOM     22  C   UNL     1       2.261   2.032  -1.598  1.00  0.00     0.052 A 
ATOM     23  C   UNL     1       0.501   3.727  -2.948  1.00  0.00     0.004 A 
ATOM     24  C   UNL     1       1.848   4.068  -2.839  1.00  0.00     0.006 A 
BRANCH  20  25
ATOM     25  O   UNL     1       0.343   0.555  -1.205  1.00  0.00    -0.497 OA
ATOM     26  C   UNL     1       0.915   0.042  -0.008  1.00  0.00     0.278 C 
ENDBRANCH  20  25
ENDBRANCH  15  19
BRANCH  17  27
ATOM     27  C   UNL     1       6.870   2.051   0.019  1.00  0.00    -0.002 A 
ATOM     28  C   UNL     1       8.241   2.192  -0.225  1.00  0.00     0.011 A 
ATOM     29  C   UNL     1       6.407   1.644   1.274  1.00  0.00     0.011 A 
ATOM     30  C   UNL     1       9.157   1.941   0.799  1.00  0.00     0.021 A 
ATOM     31  C   UNL     1       7.324   1.366   2.292  1.00  0.00     0.021 A 
ATOM     32  C   UNL     1       8.694   1.519   2.049  1.00  0.00     0.067 A 
BRANCH  32  33
ATOM     33  S   UNL     1       9.868   1.227   3.354  1.00  0.00     0.175 S 
ATOM     34  C   UNL     1      10.854  -0.126   2.765  1.00  0.00     0.163 C 
ATOM     35  O   UNL     1      10.704   2.410   3.431  1.00  0.00    -0.224 OA
ATOM     36  O   UNL     1       9.129   0.768   4.516  1.00  0.00    -0.224 OA
ENDBRANCH  32  33
ENDBRANCH  17  27
ENDBRANCH   9  14
ENDBRANCH   6   8
ENDBRANCH   5   6
ENDBRANCH   4   5
ENDBRANCH   3   4
ENDBRANCH   2   3
ENDBRANCH   1   2
BRANCH   1  37
ATOM     37  C   UNL     1       5.667   0.386  -8.959  1.00  0.00     0.188 C 
BRANCH  37  38
ATOM     38  O   UNL     1       5.903   1.300 -10.006  1.00  0.00    -0.376 OA
BRANCH  38  39
ATOM     39  C   UNL     1       6.535   0.877 -11.201  1.00  0.00     0.202 C 
BRANCH  39  40
ATOM     40  C   UNL     1       7.304  -0.443 -11.409  1.00  0.00     0.261 C 
BRANCH  40  41
ATOM     41  O   UNL     1       7.061  -1.521 -10.504  1.00  0.00    -0.460 OA
BRANCH  41  42
ATOM     42  C   UNL     1       8.048  -1.762  -9.606  1.00  0.00     0.338 C 
ATOM     43  O   UNL     1       9.095  -1.146  -9.477  1.00  0.00    -0.246 OA
BRANCH  42  44
ATOM     44  C   UNL     1       7.595  -2.802  -8.666  1.00  0.00     0.060 A 
ATOM     45  C   UNL     1       7.347  -2.444  -7.334  1.00  0.00     0.016 A 
ATOM     46  C   UNL     1       7.455  -4.126  -9.084  1.00  0.00     0.016 A 
ATOM     47  C   UNL     1       6.974  -3.417  -6.409  1.00  0.00     0.010 A 
ATOM     48  C   UNL     1       7.102  -5.104  -8.149  1.00  0.00     0.010 A 
ATOM     49  C   UNL     1       6.888  -4.759  -6.801  1.00  0.00    -0.014 A 
BRANCH  49  50
ATOM     50  C   UNL     1       6.740  -5.816  -5.771  1.00  0.00     0.031 A 
ATOM     51  C   UNL     1       7.967  -6.560  -5.317  1.00  0.00     0.074 A 
ATOM     52  C   UNL     1       5.542  -6.094  -5.226  1.00  0.00     0.049 A 
ATOM     53  N   UNL     1       8.075  -7.529  -4.445  1.00  0.00    -0.248 NA
ATOM     54  C   UNL     1       9.244  -6.156  -5.930  1.00  0.00     0.031 C 
ATOM     55  C   UNL     1       4.287  -5.416  -5.547  1.00  0.00     0.029 A 
ATOM     56  N   UNL     1       5.189  -7.029  -4.283  1.00  0.00    -0.354 N 
ATOM     57  C   UNL     1       9.425  -7.856  -4.410  1.00  0.00     0.074 A 
ATOM     58  C   UNL     1      10.093  -7.005  -5.371  1.00  0.00     0.031 C 
ATOM     59  C   UNL     1       3.298  -5.963  -4.817  1.00  0.00     0.029 A 
ATOM     60  C   UNL     1       3.843  -7.049  -4.004  1.00  0.00     0.049 A 
ATOM     61  H   UNL     1       5.838  -7.628  -3.849  1.00  0.00     0.167 HD
ATOM     62  C   UNL     1      10.055  -8.779  -3.644  1.00  0.00     0.031 A 
ATOM     63  C   UNL     1       3.130  -7.864  -3.200  1.00  0.00     0.031 A 
ATOM     64  C   UNL     1       9.386  -9.637  -2.702  1.00  0.00     0.049 A 
ATOM     65  C   UNL     1       3.842  -8.938  -2.417  1.00  0.00     0.074 A 
ATOM     66  C   UNL     1       9.940 -10.591  -1.866  1.00  0.00     0.029 A 
ATOM     67  N   UNL     1       8.018  -9.657  -2.480  1.00  0.00    -0.354 N 
ATOM     68  N   UNL     1       5.125  -9.212  -2.366  1.00  0.00    -0.248 NA
ATOM     69  C   UNL     1       3.009  -9.808  -1.574  1.00  0.00     0.031 C 
ATOM     70  C   UNL     1       8.899 -11.234  -1.187  1.00  0.00     0.029 A 
ATOM     71  C   UNL     1       7.704 -10.630  -1.545  1.00  0.00     0.049 A 
ATOM     72  H   UNL     1       7.365  -9.067  -2.922  1.00  0.00     0.167 HD
ATOM     73  C   UNL     1       5.254 -10.266  -1.466  1.00  0.00     0.074 A 
ATOM     74  C   UNL     1       3.922 -10.567  -0.982  1.00  0.00     0.031 C 
ATOM     75  C   UNL     1       6.373 -10.925  -1.074  1.00  0.00     0.031 A 
BRANCH  62  76
ATOM     76  C   UNL     1      11.544  -8.931  -3.821  1.00  0.00    -0.014 A 
ATOM     77  C   UNL     1      12.438  -7.932  -3.396  1.00  0.00     0.010 A 
ATOM     78  C   UNL     1      12.059 -10.111  -4.389  1.00  0.00     0.010 A 
ATOM     79  C   UNL     1      13.815  -8.093  -3.570  1.00  0.00     0.020 A 
ATOM     80  C   UNL     1      13.437 -10.290  -4.537  1.00  0.00     0.020 A 
ATOM     81  C   UNL     1      14.305  -9.271  -4.141  1.00  0.00     0.054 A 
BRANCH  81  82
ATOM     82  S   UNL     1      16.099  -9.463  -4.331  1.00  0.00     0.124 S 
ATOM     83  O   UNL     1      16.392  -8.510  -5.399  1.00  0.00    -0.237 OA
ATOM     84  O   UNL     1      16.600  -9.097  -3.009  1.00  0.00    -0.237 OA
ATOM     85  O   UNL     1      16.263 -10.869  -4.690  1.00  0.00    -0.744 OA
ENDBRANCH  81  82
ENDBRANCH  62  76
BRANCH  63  86
ATOM     86  C   UNL     1       1.651  -7.711  -3.105  1.00  0.00    -0.014 A 
ATOM     87  C   UNL     1       1.046  -7.277  -1.912  1.00  0.00     0.010 A 
ATOM     88  C   UNL     1       0.835  -8.014  -4.211  1.00  0.00     0.010 A 
ATOM     89  C   UNL     1      -0.345  -7.168  -1.821  1.00  0.00     0.020 A 
ATOM     90  C   UNL     1      -0.554  -7.875  -4.134  1.00  0.00     0.020 A 
ATOM     91  C   UNL     1      -1.137  -7.465  -2.934  1.00  0.00     0.054 A 
BRANCH  91  92
ATOM     92  S   UNL     1      -2.936  -7.274  -2.804  1.00  0.00     0.124 S 
ATOM     93  O   UNL     1      -3.299  -8.393  -1.939  1.00  0.00    -0.237 OA
ATOM     94  O   UNL     1      -3.069  -5.947  -2.208  1.00  0.00    -0.237 OA
ATOM     95  O   UNL     1      -3.394  -7.378  -4.187  1.00  0.00    -0.744 OA
ENDBRANCH  91  92
ENDBRANCH  63  86
BRANCH  75  96
ATOM     96  C   UNL     1       6.217 -12.017  -0.045  1.00  0.00    -0.014 A 
ATOM     97  C   UNL     1       5.590 -13.236  -0.358  1.00  0.00     0.010 A 
ATOM     98  C   UNL     1       6.754 -11.837   1.244  1.00  0.00     0.010 A 
ATOM     99  C   UNL     1       5.468 -14.238   0.610  1.00  0.00     0.020 A 
ATOM    100  C   UNL     1       6.663 -12.848   2.204  1.00  0.00     0.020 A 
ATOM    101  C   UNL     1       6.006 -14.038   1.885  1.00  0.00     0.054 A 
BRANCH 101 102
ATOM    102  S   UNL     1       5.864 -15.367   3.112  1.00  0.00     0.124 S 
ATOM    103  O   UNL     1       4.443 -15.325   3.444  1.00  0.00    -0.237 OA
ATOM    104  O   UNL     1       6.300 -16.542   2.361  1.00  0.00    -0.237 OA
ATOM    105  O   UNL     1       6.767 -14.949   4.182  1.00  0.00    -0.744 OA
ENDBRANCH 101 102
ENDBRANCH  75  96
ENDBRANCH  49  50
ENDBRANCH  42  44
ENDBRANCH  41  42
ENDBRANCH  40  41
ENDBRANCH  39  40
ENDBRANCH  38  39
ENDBRANCH  37  38
ENDBRANCH   1  37
TORSDOF 25
