REMARK SMILES O=C(OCCOCCOCCOC(=O)c1[nH]ncc1C[NH+]1CCC([N@H+]2CCC[C@@H](C(=O)N3CCCC3)C2)CC1)c1ccc(-c2c3nc(c(-c4ccc(S(=O)(=O)[O-])cc4)c4ccc([nH]4)c(-c4ccc(S(=O)(=O)[O-])cc4)c4nc(c(-c5ccc(S(=O)(=O)[O-])cc5)c5ccc2[nH]5)C=C4)C=C3)cc1
REMARK SMILES IDX 8 1 7 2 6 3 5 4 4 5 3 6 2 7 1 8 40 9 41 10 99 11 42 12 98 13
REMARK SMILES IDX 43 14 44 15 45 16 92 17 46 18 97 19 91 20 93 21 47 22 96 23
REMARK SMILES IDX 90 24 89 25 48 27 78 28 59 29 77 30 60 31 63 32 76 33 94 34
REMARK SMILES IDX 61 35 62 36 75 38 95 39 64 40 49 41 50 42 58 43 51 44 57 45
REMARK SMILES IDX 52 46 53 47 54 48 55 49 56 50 79 51 80 52 88 53 81 54 87 55
REMARK SMILES IDX 82 56 83 57 84 58 85 59 86 60 65 61 66 62 74 63 67 64 73 65
REMARK SMILES IDX 68 66 69 67 70 68 71 69 72 70 9 71 10 72 11 73 12 74 13 75
REMARK SMILES IDX 14 76 15 77 16 78 19 79 17 80 18 82 20 83 21 84 22 85 39 86
REMARK SMILES IDX 23 88 38 89 24 90 25 91 26 92 37 93 27 95 29 96 28 97 30 98
REMARK SMILES IDX 31 99 32 100 33 101 36 102 34 103 35 104
REMARK H PARENT 93 26 63 37 16 81 21 87 25 94
REMARK Flexibility Score: inf
ROOT
ATOM      1  C   UNL     1       2.307  -1.437  -2.734  1.00  0.00     0.188 C 
ENDROOT
BRANCH   1   2
ATOM      2  C   UNL     1       2.822  -2.187  -1.508  1.00  0.00     0.188 C 
BRANCH   2   3
ATOM      3  O   UNL     1       4.023  -1.569  -1.014  1.00  0.00    -0.376 OA
BRANCH   3   4
ATOM      4  C   UNL     1       4.428  -2.122   0.243  1.00  0.00     0.202 C 
BRANCH   4   5
ATOM      5  C   UNL     1       4.101  -1.178   1.406  1.00  0.00     0.261 C 
BRANCH   5   6
ATOM      6  O   UNL     1       2.702  -0.825   1.379  1.00  0.00    -0.460 OA
BRANCH   6   7
ATOM      7  C   UNL     1       2.208   0.313   0.825  1.00  0.00     0.338 C 
ATOM      8  O   UNL     1       1.063   0.366   0.391  1.00  0.00    -0.246 OA
BRANCH   7   9
ATOM      9  C   UNL     1       3.007   1.554   0.923  1.00  0.00     0.060 A 
ATOM     10  C   UNL     1       4.159   1.752   0.160  1.00  0.00     0.016 A 
ATOM     11  C   UNL     1       2.525   2.583   1.741  1.00  0.00     0.016 A 
ATOM     12  C   UNL     1       4.890   2.935   0.303  1.00  0.00     0.010 A 
ATOM     13  C   UNL     1       3.225   3.790   1.835  1.00  0.00     0.010 A 
ATOM     14  C   UNL     1       4.431   3.967   1.140  1.00  0.00    -0.014 A 
BRANCH  14  15
ATOM     15  C   UNL     1       5.201   5.235   1.266  1.00  0.00     0.031 A 
ATOM     16  C   UNL     1       5.879   5.603   2.555  1.00  0.00     0.074 A 
ATOM     17  C   UNL     1       5.306   6.066   0.212  1.00  0.00     0.049 A 
ATOM     18  N   UNL     1       6.582   6.671   2.837  1.00  0.00    -0.248 NA
ATOM     19  C   UNL     1       5.751   4.651   3.667  1.00  0.00     0.031 C 
ATOM     20  C   UNL     1       4.698   5.839  -1.096  1.00  0.00     0.029 A 
ATOM     21  N   UNL     1       5.966   7.261   0.070  1.00  0.00    -0.354 N 
ATOM     22  C   UNL     1       6.971   6.529   4.162  1.00  0.00     0.074 A 
ATOM     23  C   UNL     1       6.411   5.277   4.631  1.00  0.00     0.031 C 
ATOM     24  C   UNL     1       5.034   6.845  -1.919  1.00  0.00     0.029 A 
ATOM     25  C   UNL     1       5.861   7.799  -1.189  1.00  0.00     0.049 A 
ATOM     26  H   UNL     1       6.467   7.690   0.801  1.00  0.00     0.167 HD
ATOM     27  C   UNL     1       7.731   7.354   4.922  1.00  0.00     0.031 A 
ATOM     28  C   UNL     1       6.367   8.933  -1.708  1.00  0.00     0.031 A 
ATOM     29  C   UNL     1       8.302   8.594   4.474  1.00  0.00     0.049 A 
ATOM     30  C   UNL     1       7.197   9.838  -0.851  1.00  0.00     0.074 A 
ATOM     31  C   UNL     1       9.083   9.492   5.181  1.00  0.00     0.029 A 
ATOM     32  N   UNL     1       8.156   9.112   3.197  1.00  0.00    -0.354 N 
ATOM     33  N   UNL     1       7.545   9.684   0.404  1.00  0.00    -0.248 NA
ATOM     34  C   UNL     1       7.698  11.069  -1.476  1.00  0.00     0.031 C 
ATOM     35  C   UNL     1       9.404  10.559   4.330  1.00  0.00     0.029 A 
ATOM     36  C   UNL     1       8.831  10.317   3.092  1.00  0.00     0.049 A 
ATOM     37  H   UNL     1       7.648   8.685   2.470  1.00  0.00     0.167 HD
ATOM     38  C   UNL     1       8.306  10.802   0.720  1.00  0.00     0.074 A 
ATOM     39  C   UNL     1       8.379  11.616  -0.477  1.00  0.00     0.031 C 
ATOM     40  C   UNL     1       8.889  11.122   1.900  1.00  0.00     0.031 A 
BRANCH  27  41
ATOM     41  C   UNL     1       7.967   6.911   6.336  1.00  0.00    -0.014 A 
ATOM     42  C   UNL     1       8.964   5.963   6.626  1.00  0.00     0.010 A 
ATOM     43  C   UNL     1       7.140   7.386   7.368  1.00  0.00     0.010 A 
ATOM     44  C   UNL     1       9.089   5.447   7.918  1.00  0.00     0.020 A 
ATOM     45  C   UNL     1       7.269   6.879   8.663  1.00  0.00     0.020 A 
ATOM     46  C   UNL     1       8.222   5.889   8.922  1.00  0.00     0.054 A 
BRANCH  46  47
ATOM     47  S   UNL     1       8.338   5.161  10.579  1.00  0.00     0.124 S 
ATOM     48  O   UNL     1       7.470   3.993  10.450  1.00  0.00    -0.237 OA
ATOM     49  O   UNL     1       9.763   4.870  10.716  1.00  0.00    -0.237 OA
ATOM     50  O   UNL     1       7.837   6.221  11.451  1.00  0.00    -0.744 OA
ENDBRANCH  46  47
ENDBRANCH  27  41
BRANCH  28  51
ATOM     51  C   UNL     1       6.102   9.258  -3.131  1.00  0.00    -0.014 A 
ATOM     52  C   UNL     1       7.050   8.934  -4.115  1.00  0.00     0.010 A 
ATOM     53  C   UNL     1       4.877   9.833  -3.510  1.00  0.00     0.010 A 
ATOM     54  C   UNL     1       6.776   9.176  -5.463  1.00  0.00     0.020 A 
ATOM     55  C   UNL     1       4.597  10.069  -4.859  1.00  0.00     0.020 A 
ATOM     56  C   UNL     1       5.550   9.742  -5.826  1.00  0.00     0.054 A 
BRANCH  56  57
ATOM     57  S   UNL     1       5.172   9.977  -7.585  1.00  0.00     0.124 S 
ATOM     58  O   UNL     1       5.832  11.248  -7.869  1.00  0.00    -0.237 OA
ATOM     59  O   UNL     1       5.774   8.799  -8.205  1.00  0.00    -0.237 OA
ATOM     60  O   UNL     1       3.712  10.006  -7.610  1.00  0.00    -0.744 OA
ENDBRANCH  56  57
ENDBRANCH  28  51
BRANCH  40  61
ATOM     61  C   UNL     1       9.654  12.411   1.949  1.00  0.00    -0.014 A 
ATOM     62  C   UNL     1       8.985  13.625   2.184  1.00  0.00     0.010 A 
ATOM     63  C   UNL     1      11.048  12.410   1.778  1.00  0.00     0.010 A 
ATOM     64  C   UNL     1       9.700  14.825   2.229  1.00  0.00     0.020 A 
ATOM     65  C   UNL     1      11.766  13.608   1.830  1.00  0.00     0.020 A 
ATOM     66  C   UNL     1      11.085  14.810   2.043  1.00  0.00     0.054 A 
BRANCH  66  67
ATOM     67  S   UNL     1      12.015  16.366   2.139  1.00  0.00     0.124 S 
ATOM     68  O   UNL     1      11.950  16.843   0.761  1.00  0.00    -0.237 OA
ATOM     69  O   UNL     1      11.253  17.148   3.111  1.00  0.00    -0.237 OA
ATOM     70  O   UNL     1      13.337  15.941   2.594  1.00  0.00    -0.744 OA
ENDBRANCH  66  67
ENDBRANCH  40  61
ENDBRANCH  14  15
ENDBRANCH   7   9
ENDBRANCH   6   7
ENDBRANCH   5   6
ENDBRANCH   4   5
ENDBRANCH   3   4
ENDBRANCH   2   3
ENDBRANCH   1   2
BRANCH   1  71
ATOM     71  O   UNL     1       2.964  -1.871  -3.929  1.00  0.00    -0.376 OA
BRANCH  71  72
ATOM     72  C   UNL     1       4.184  -1.190  -4.221  1.00  0.00     0.202 C 
BRANCH  72  73
ATOM     73  C   UNL     1       3.983  -0.101  -5.280  1.00  0.00     0.261 C 
BRANCH  73  74
ATOM     74  O   UNL     1       3.643   1.164  -4.686  1.00  0.00    -0.459 OA
BRANCH  74  75
ATOM     75  C   UNL     1       2.322   1.431  -4.535  1.00  0.00     0.356 C 
ATOM     76  O   UNL     1       1.404   0.670  -4.813  1.00  0.00    -0.244 OA
BRANCH  75  77
ATOM     77  C   UNL     1       2.143   2.713  -3.922  1.00  0.00     0.152 A 
ATOM     78  N   UNL     1       1.127   2.943  -3.036  1.00  0.00    -0.271 N 
ATOM     79  C   UNL     1       2.785   3.937  -4.088  1.00  0.00     0.059 A 
ATOM     80  N   UNL     1       1.080   4.200  -2.574  1.00  0.00    -0.183 NA
ATOM     81  H   UNL     1       0.487   2.247  -2.761  1.00  0.00     0.190 HD
ATOM     82  C   UNL     1       2.065   4.810  -3.234  1.00  0.00     0.145 A 
BRANCH  79  83
ATOM     83  C   UNL     1       3.927   4.298  -4.991  1.00  0.00     0.303 C 
BRANCH  83  84
ATOM     84  N   UNL     1       3.502   4.747  -6.325  1.00  0.00    -0.331 N 
ATOM     85  C   UNL     1       2.674   3.778  -7.037  1.00  0.00     0.268 C 
ATOM     86  C   UNL     1       2.970   6.120  -6.331  1.00  0.00     0.268 C 
ATOM     87  H   UNL     1       4.356   4.795  -6.880  1.00  0.00     0.348 HD
ATOM     88  C   UNL     1       2.293   4.239  -8.440  1.00  0.00     0.126 C 
ATOM     89  C   UNL     1       2.549   6.601  -7.726  1.00  0.00     0.126 C 
ATOM     90  C   UNL     1       1.573   5.592  -8.344  1.00  0.00     0.195 C 
BRANCH  90  91
ATOM     91  N   UNL     1       0.931   6.061  -9.589  1.00  0.00    -0.331 N 
ATOM     92  C   UNL     1       1.833   6.199 -10.737  1.00  0.00     0.262 C 
ATOM     93  C   UNL     1      -0.234   5.228  -9.922  1.00  0.00     0.275 C 
ATOM     94  H   UNL     1       0.621   7.012  -9.390  1.00  0.00     0.348 HD
ATOM     95  C   UNL     1       1.096   6.794 -11.947  1.00  0.00     0.062 C 
ATOM     96  C   UNL     1      -1.050   5.866 -11.048  1.00  0.00     0.134 C 
ATOM     97  C   UNL     1      -0.181   6.022 -12.293  1.00  0.00     0.025 C 
BRANCH  96  98
ATOM     98  C   UNL     1      -2.278   5.000 -11.300  1.00  0.00     0.231 C 
ATOM     99  O   UNL     1      -2.236   3.773 -11.179  1.00  0.00    -0.274 OA
ATOM    100  N   UNL     1      -3.454   5.632 -11.637  1.00  0.00    -0.342 N 
ATOM    101  C   UNL     1      -3.668   7.027 -11.984  1.00  0.00     0.119 C 
ATOM    102  C   UNL     1      -4.706   4.897 -11.613  1.00  0.00     0.119 C 
ATOM    103  C   UNL     1      -5.154   7.240 -11.740  1.00  0.00     0.023 C 
ATOM    104  C   UNL     1      -5.759   5.886 -12.089  1.00  0.00     0.023 C 
ENDBRANCH  96  98
ENDBRANCH  90  91
ENDBRANCH  83  84
ENDBRANCH  79  83
ENDBRANCH  75  77
ENDBRANCH  74  75
ENDBRANCH  73  74
ENDBRANCH  72  73
ENDBRANCH  71  72
ENDBRANCH   1  71
TORSDOF 24
