REMARK SMILES CC(C)(C)c1ccc(OCC(=O)N/N=C/c2ccc(C(=O)OCCOCCOCCOC(=O)c3ccc(-c4c5nc(c(-c6ccc(S(=O)(=O)[O-])cc6)c6ccc([nH]6)c(-c6ccc(S(=O)(=O)[O-])cc6)c6nc(c(-c7ccc(S(=O)(=O)[O-])cc7)c7ccc4[nH]7)C=C6)C=C5)cc3)cc2)cc1
REMARK SMILES IDX 25 1 24 2 23 3 22 4 20 5 21 6 19 7 16 8 17 9 95 10 18 11
REMARK SMILES IDX 94 12 15 13 14 14 13 15 11 16 12 17 10 19 9 20 8 21 5 22
REMARK SMILES IDX 6 23 97 24 7 25 96 26 2 27 1 28 3 29 4 30 26 31 27 32 28 33
REMARK SMILES IDX 29 34 30 35 31 36 32 37 33 38 34 39 35 40 93 41 36 42 92 43
REMARK SMILES IDX 37 44 38 45 39 46 86 47 40 48 91 49 85 50 87 51 41 52 90 53
REMARK SMILES IDX 84 54 83 55 42 57 72 58 53 59 71 60 54 61 57 62 70 63 88 64
REMARK SMILES IDX 55 65 56 66 69 68 89 69 58 70 43 71 44 72 52 73 45 74 51 75
REMARK SMILES IDX 46 76 47 77 48 78 49 79 50 80 73 81 74 82 82 83 75 84 81 85
REMARK SMILES IDX 76 86 77 87 78 88 79 89 80 90 59 91 60 92 68 93 61 94 67 95
REMARK SMILES IDX 62 96 63 97 64 98 65 99 66 100
REMARK H PARENT 13 18 87 56 57 67
REMARK Flexibility Score: inf
ROOT
ATOM      1  O   UNL     1       6.553   0.673 -13.979  1.00  0.00    -0.376 OA
ENDROOT
BRANCH   1   2
ATOM      2  C   UNL     1       5.711  -0.117 -14.801  1.00  0.00     0.202 C 
BRANCH   2   3
ATOM      3  C   UNL     1       4.266  -0.551 -14.484  1.00  0.00     0.261 C 
BRANCH   3   4
ATOM      4  O   UNL     1       3.568   0.148 -13.454  1.00  0.00    -0.460 OA
BRANCH   4   5
ATOM      5  C   UNL     1       3.339  -0.566 -12.325  1.00  0.00     0.338 C 
ATOM      6  O   UNL     1       3.663  -1.725 -12.107  1.00  0.00    -0.246 OA
BRANCH   5   7
ATOM      7  C   UNL     1       2.799   0.328 -11.284  1.00  0.00     0.060 A 
ATOM      8  C   UNL     1       1.875   2.007  -9.275  1.00  0.00    -0.005 A 
ATOM      9  C   UNL     1       2.974   1.180  -9.027  1.00  0.00     0.010 A 
ATOM     10  C   UNL     1       1.245   2.016 -10.524  1.00  0.00     0.010 A 
ATOM     11  C   UNL     1       3.422   0.322 -10.028  1.00  0.00     0.016 A 
ATOM     12  C   UNL     1       1.723   1.187 -11.542  1.00  0.00     0.016 A 
BRANCH   8  13
ATOM     13  C   UNL     1       1.387   2.850  -8.171  1.00  0.00     0.141 C 
ATOM     14  N   UNL     1       0.125   3.033  -7.997  1.00  0.00    -0.181 NA
BRANCH  14  15
ATOM     15  N   UNL     1      -0.402   3.721  -6.948  1.00  0.00    -0.244 N 
ATOM     16  C   UNL     1       0.086   4.315  -5.816  1.00  0.00     0.277 C 
ATOM     17  O   UNL     1      -0.734   4.880  -5.076  1.00  0.00    -0.269 OA
ATOM     18  H   UNL     1      -1.379   3.815  -7.022  1.00  0.00     0.193 HD
BRANCH  16  19
ATOM     19  C   UNL     1       1.569   4.350  -5.454  1.00  0.00     0.331 C 
BRANCH  19  20
ATOM     20  O   UNL     1       2.228   3.106  -5.280  1.00  0.00    -0.484 OA
BRANCH  20  21
ATOM     21  C   UNL     1       1.780   2.288  -4.283  1.00  0.00     0.120 A 
ATOM     22  C   UNL     1       0.976   0.385  -2.338  1.00  0.00    -0.042 A 
ATOM     23  C   UNL     1       1.783   0.015  -3.424  1.00  0.00     0.008 A 
ATOM     24  C   UNL     1       0.593   1.737  -2.254  1.00  0.00     0.008 A 
ATOM     25  C   UNL     1       2.183   0.957  -4.380  1.00  0.00     0.047 A 
ATOM     26  C   UNL     1       0.994   2.678  -3.206  1.00  0.00     0.047 A 
BRANCH  22  27
ATOM     27  C   UNL     1       0.521  -0.606  -1.256  1.00  0.00    -0.013 C 
ATOM     28  C   UNL     1       1.025  -0.126   0.123  1.00  0.00     0.016 C 
ATOM     29  C   UNL     1       1.045  -2.044  -1.460  1.00  0.00     0.016 C 
ATOM     30  C   UNL     1      -1.022  -0.677  -1.240  1.00  0.00     0.016 C 
ENDBRANCH  22  27
ENDBRANCH  20  21
ENDBRANCH  19  20
ENDBRANCH  16  19
ENDBRANCH  14  15
ENDBRANCH   8  13
ENDBRANCH   5   7
ENDBRANCH   4   5
ENDBRANCH   3   4
ENDBRANCH   2   3
ENDBRANCH   1   2
BRANCH   1  31
ATOM     31  C   UNL     1       6.096   1.195 -12.755  1.00  0.00     0.188 C 
BRANCH  31  32
ATOM     32  C   UNL     1       5.272   2.497 -12.813  1.00  0.00     0.188 C 
BRANCH  32  33
ATOM     33  O   UNL     1       4.819   3.004 -14.053  1.00  0.00    -0.376 OA
BRANCH  33  34
ATOM     34  C   UNL     1       5.751   3.305 -15.080  1.00  0.00     0.202 C 
BRANCH  34  35
ATOM     35  C   UNL     1       7.149   3.898 -14.825  1.00  0.00     0.261 C 
BRANCH  35  36
ATOM     36  O   UNL     1       7.841   3.462 -13.651  1.00  0.00    -0.460 OA
BRANCH  36  37
ATOM     37  C   UNL     1       7.946   4.384 -12.665  1.00  0.00     0.338 C 
ATOM     38  O   UNL     1       7.493   5.521 -12.661  1.00  0.00    -0.246 OA
BRANCH  37  39
ATOM     39  C   UNL     1       8.556   3.757 -11.481  1.00  0.00     0.060 A 
ATOM     40  C   UNL     1       7.778   3.598 -10.325  1.00  0.00     0.016 A 
ATOM     41  C   UNL     1       9.896   3.372 -11.495  1.00  0.00     0.016 A 
ATOM     42  C   UNL     1       8.344   3.059  -9.171  1.00  0.00     0.010 A 
ATOM     43  C   UNL     1      10.468   2.855 -10.329  1.00  0.00     0.010 A 
ATOM     44  C   UNL     1       9.702   2.719  -9.157  1.00  0.00    -0.014 A 
BRANCH  44  45
ATOM     45  C   UNL     1      10.370   2.375  -7.879  1.00  0.00     0.031 A 
ATOM     46  C   UNL     1      11.152   3.443  -7.166  1.00  0.00     0.074 A 
ATOM     47  C   UNL     1      10.292   1.134  -7.365  1.00  0.00     0.049 A 
ATOM     48  N   UNL     1      11.890   3.352  -6.091  1.00  0.00    -0.248 NA
ATOM     49  C   UNL     1      11.096   4.795  -7.748  1.00  0.00     0.031 C 
ATOM     50  C   UNL     1       9.525   0.028  -7.934  1.00  0.00     0.029 A 
ATOM     51  N   UNL     1      10.884   0.596  -6.249  1.00  0.00    -0.354 N 
ATOM     52  C   UNL     1      12.401   4.627  -5.876  1.00  0.00     0.074 A 
ATOM     53  C   UNL     1      11.905   5.468  -6.944  1.00  0.00     0.031 C 
ATOM     54  C   UNL     1       9.708  -1.065  -7.171  1.00  0.00     0.029 A 
ATOM     55  C   UNL     1      10.637  -0.746  -6.088  1.00  0.00     0.049 A 
ATOM     56  H   UNL     1      11.434   1.122  -5.624  1.00  0.00     0.167 HD
ATOM     57  C   UNL     1      13.211   5.057  -4.881  1.00  0.00     0.031 A 
ATOM     58  C   UNL     1      11.129  -1.623  -5.190  1.00  0.00     0.031 A 
ATOM     59  C   UNL     1      13.717   4.211  -3.833  1.00  0.00     0.049 A 
ATOM     60  C   UNL     1      12.098  -1.140  -4.139  1.00  0.00     0.074 A 
ATOM     61  C   UNL     1      14.533   4.556  -2.769  1.00  0.00     0.029 A 
ATOM     62  N   UNL     1      13.466   2.852  -3.721  1.00  0.00    -0.354 N 
ATOM     63  N   UNL     1      12.555   0.073  -3.933  1.00  0.00    -0.248 NA
ATOM     64  C   UNL     1      12.614  -2.144  -3.197  1.00  0.00     0.031 C 
ATOM     65  C   UNL     1      14.828   3.393  -2.052  1.00  0.00     0.029 A 
ATOM     66  C   UNL     1      14.137   2.337  -2.625  1.00  0.00     0.049 A 
ATOM     67  H   UNL     1      12.896   2.330  -4.330  1.00  0.00     0.167 HD
ATOM     68  C   UNL     1      13.385  -0.018  -2.819  1.00  0.00     0.074 A 
ATOM     69  C   UNL     1      13.359  -1.401  -2.390  1.00  0.00     0.031 C 
ATOM     70  C   UNL     1      14.099   0.958  -2.204  1.00  0.00     0.031 A 
BRANCH  57  71
ATOM     71  C   UNL     1      13.638   6.500  -4.905  1.00  0.00    -0.014 A 
ATOM     72  C   UNL     1      12.729   7.538  -4.630  1.00  0.00     0.010 A 
ATOM     73  C   UNL     1      14.983   6.821  -5.170  1.00  0.00     0.010 A 
ATOM     74  C   UNL     1      13.149   8.871  -4.658  1.00  0.00     0.020 A 
ATOM     75  C   UNL     1      15.413   8.150  -5.169  1.00  0.00     0.020 A 
ATOM     76  C   UNL     1      14.488   9.168  -4.929  1.00  0.00     0.054 A 
BRANCH  76  77
ATOM     77  S   UNL     1      15.009  10.905  -4.934  1.00  0.00     0.124 S 
ATOM     78  O   UNL     1      14.383  11.403  -6.158  1.00  0.00    -0.237 OA
ATOM     79  O   UNL     1      14.441  11.413  -3.688  1.00  0.00    -0.237 OA
ATOM     80  O   UNL     1      16.467  10.832  -4.968  1.00  0.00    -0.744 OA
ENDBRANCH  76  77
ENDBRANCH  57  71
BRANCH  58  81
ATOM     81  C   UNL     1      10.738  -3.059  -5.259  1.00  0.00    -0.014 A 
ATOM     82  C   UNL     1       9.943  -3.636  -4.253  1.00  0.00     0.010 A 
ATOM     83  C   UNL     1      11.162  -3.859  -6.336  1.00  0.00     0.010 A 
ATOM     84  C   UNL     1       9.594  -4.989  -4.314  1.00  0.00     0.020 A 
ATOM     85  C   UNL     1      10.790  -5.204  -6.417  1.00  0.00     0.020 A 
ATOM     86  C   UNL     1      10.016  -5.763  -5.399  1.00  0.00     0.054 A 
BRANCH  86  87
ATOM     87  S   UNL     1       9.504  -7.502  -5.483  1.00  0.00     0.124 S 
ATOM     88  O   UNL     1      10.309  -8.107  -4.427  1.00  0.00    -0.237 OA
ATOM     89  O   UNL     1       8.070  -7.419  -5.219  1.00  0.00    -0.237 OA
ATOM     90  O   UNL     1       9.858  -7.897  -6.845  1.00  0.00    -0.744 OA
ENDBRANCH  86  87
ENDBRANCH  58  81
BRANCH  70  91
ATOM     91  C   UNL     1      14.881   0.586  -0.970  1.00  0.00    -0.014 A 
ATOM     92  C   UNL     1      16.051  -0.189  -1.046  1.00  0.00     0.010 A 
ATOM     93  C   UNL     1      14.477   1.092   0.280  1.00  0.00     0.010 A 
ATOM     94  C   UNL     1      16.789  -0.471   0.107  1.00  0.00     0.020 A 
ATOM     95  C   UNL     1      15.228   0.838   1.431  1.00  0.00     0.020 A 
ATOM     96  C   UNL     1      16.375   0.049   1.339  1.00  0.00     0.054 A 
BRANCH  96  97
ATOM     97  S   UNL     1      17.383  -0.282   2.810  1.00  0.00     0.124 S 
ATOM     98  O   UNL     1      17.117  -1.697   3.050  1.00  0.00    -0.237 OA
ATOM     99  O   UNL     1      18.733   0.035   2.350  1.00  0.00    -0.237 OA
ATOM    100  O   UNL     1      16.843   0.632   3.814  1.00  0.00    -0.744 OA
ENDBRANCH  96  97
ENDBRANCH  70  91
ENDBRANCH  44  45
ENDBRANCH  37  39
ENDBRANCH  36  37
ENDBRANCH  35  36
ENDBRANCH  34  35
ENDBRANCH  33  34
ENDBRANCH  32  33
ENDBRANCH  31  32
ENDBRANCH   1  31
TORSDOF 26
