REMARK SMILES CC(C)CN(C)c1cc2c(cc1Cl)C=C(C(=O)OCCOCCOCCOC(=O)c1ccc(-c3c4nc(c(-c5ccc(S(=O)(=O)[O-])cc5)c5ccc([nH]5)c(-c5ccc(S(=O)(=O)[O-])cc5)c5nc(c(-c6ccc(S(=O)(=O)[O-])cc6)c6ccc3[nH]6)C=C5)C=C4)cc1)[C@@H](C(F)(F)F)O2
REMARK SMILES IDX 22 1 21 2 20 3 19 4 18 5 16 6 17 7 15 8 7 9 8 10 12 11 9 12
REMARK SMILES IDX 11 13 13 14 10 15 95 16 14 17 90 18 5 19 6 20 4 21 2 22 1 23
REMARK SMILES IDX 3 24 91 25 92 26 93 27 94 28 23 29 24 30 25 31 26 32 27 33
REMARK SMILES IDX 28 34 29 35 30 36 31 37 89 38 32 39 88 40 33 41 34 42 35 43
REMARK SMILES IDX 82 44 36 45 87 46 81 47 83 48 37 49 86 50 80 51 79 52 38 54
REMARK SMILES IDX 68 55 49 56 67 57 50 58 53 59 66 60 84 61 51 62 52 63 65 65
REMARK SMILES IDX 85 66 54 67 39 68 40 69 48 70 41 71 47 72 42 73 43 74 44 75
REMARK SMILES IDX 45 76 46 77 69 78 70 79 78 80 71 81 77 82 72 83 73 84 74 85
REMARK SMILES IDX 75 86 76 87 55 88 56 89 64 90 57 91 63 92 58 93 59 94 60 95
REMARK SMILES IDX 61 96 62 97
REMARK H PARENT 83 53 53 64
REMARK Flexibility Score: inf
ROOT
ATOM      1  C   UNL     1       0.178   3.947  -7.424  1.00  0.00     0.188 C 
ENDROOT
BRANCH   1   2
ATOM      2  O   UNL     1       0.086   4.431  -8.744  1.00  0.00    -0.376 OA
BRANCH   2   3
ATOM      3  C   UNL     1      -0.086   3.520  -9.815  1.00  0.00     0.202 C 
BRANCH   3   4
ATOM      4  C   UNL     1      -0.897   2.210  -9.714  1.00  0.00     0.261 C 
BRANCH   4   5
ATOM      5  O   UNL     1      -1.289   1.770  -8.409  1.00  0.00    -0.460 OA
BRANCH   5   6
ATOM      6  C   UNL     1      -0.532   0.790  -7.872  1.00  0.00     0.338 C 
ATOM      7  O   UNL     1       0.420   0.237  -8.407  1.00  0.00    -0.246 OA
BRANCH   6   8
ATOM      8  C   UNL     1      -0.913   0.565  -6.466  1.00  0.00     0.087 C 
ATOM      9  C   UNL     1      -0.804  -1.063  -1.710  1.00  0.00     0.059 A 
ATOM     10  C   UNL     1      -1.818  -0.524  -2.537  1.00  0.00     0.074 A 
ATOM     11  C   UNL     1       0.507  -1.068  -2.238  1.00  0.00     0.065 A 
ATOM     12  C   UNL     1      -1.534  -0.043  -3.825  1.00  0.00     0.130 A 
ATOM     13  C   UNL     1       0.808  -0.456  -3.455  1.00  0.00     0.034 A 
ATOM     14  Cl  UNL     1       1.804  -1.978  -1.540  1.00  0.00    -0.082 Cl
ATOM     15  C   UNL     1      -0.214   0.027  -4.262  1.00  0.00     0.019 A 
ATOM     16  O   UNL     1      -2.587   0.329  -4.622  1.00  0.00    -0.475 OA
ATOM     17  C   UNL     1       0.104   0.470  -5.603  1.00  0.00     0.027 C 
ATOM     18  C   UNL     1      -2.353   0.389  -6.068  1.00  0.00     0.316 C 
BRANCH   9  19
ATOM     19  N   UNL     1      -1.112  -1.636  -0.469  1.00  0.00    -0.373 N 
ATOM     20  C   UNL     1      -2.143  -2.670  -0.482  1.00  0.00     0.143 C 
BRANCH  19  21
ATOM     21  C   UNL     1      -0.970  -0.841   0.772  1.00  0.00     0.119 C 
BRANCH  21  22
ATOM     22  C   UNL     1       0.491  -0.670   1.238  1.00  0.00     0.002 C 
ATOM     23  C   UNL     1       1.095   0.645   0.736  1.00  0.00     0.009 C 
ATOM     24  C   UNL     1       0.632  -0.727   2.762  1.00  0.00     0.009 C 
ENDBRANCH  21  22
ENDBRANCH  19  21
ENDBRANCH   9  19
BRANCH  18  25
ATOM     25  C   UNL     1      -2.977  -0.828  -6.764  1.00  0.00     0.430 C 
ATOM     26  F   UNL     1      -4.270  -1.003  -6.399  1.00  0.00    -0.167 F 
ATOM     27  F   UNL     1      -2.974  -0.678  -8.112  1.00  0.00    -0.167 F 
ATOM     28  F   UNL     1      -2.318  -1.974  -6.485  1.00  0.00    -0.167 F 
ENDBRANCH  18  25
ENDBRANCH   6   8
ENDBRANCH   5   6
ENDBRANCH   4   5
ENDBRANCH   3   4
ENDBRANCH   2   3
ENDBRANCH   1   2
BRANCH   1  29
ATOM     29  C   UNL     1      -1.140   4.087  -6.631  1.00  0.00     0.188 C 
BRANCH  29  30
ATOM     30  O   UNL     1      -2.325   4.508  -7.293  1.00  0.00    -0.376 OA
BRANCH  30  31
ATOM     31  C   UNL     1      -2.286   5.689  -8.088  1.00  0.00     0.202 C 
BRANCH  31  32
ATOM     32  C   UNL     1      -1.619   6.984  -7.583  1.00  0.00     0.261 C 
BRANCH  32  33
ATOM     33  O   UNL     1      -0.349   6.840  -6.927  1.00  0.00    -0.460 OA
BRANCH  33  34
ATOM     34  C   UNL     1      -0.349   7.034  -5.582  1.00  0.00     0.338 C 
ATOM     35  O   UNL     1      -1.303   7.320  -4.880  1.00  0.00    -0.246 OA
BRANCH  34  36
ATOM     36  C   UNL     1       0.969   6.628  -5.047  1.00  0.00     0.060 A 
ATOM     37  C   UNL     1       2.133   7.282  -5.450  1.00  0.00     0.016 A 
ATOM     38  C   UNL     1       1.034   5.566  -4.132  1.00  0.00     0.016 A 
ATOM     39  C   UNL     1       3.363   6.879  -4.921  1.00  0.00     0.010 A 
ATOM     40  C   UNL     1       2.267   5.151  -3.622  1.00  0.00     0.010 A 
ATOM     41  C   UNL     1       3.440   5.819  -3.996  1.00  0.00    -0.014 A 
BRANCH  41  42
ATOM     42  C   UNL     1       4.719   5.541  -3.295  1.00  0.00     0.031 A 
ATOM     43  C   UNL     1       5.605   4.392  -3.675  1.00  0.00     0.074 A 
ATOM     44  C   UNL     1       5.080   6.372  -2.296  1.00  0.00     0.049 A 
ATOM     45  N   UNL     1       6.802   4.107  -3.230  1.00  0.00    -0.248 NA
ATOM     46  C   UNL     1       5.095   3.443  -4.676  1.00  0.00     0.031 C 
ATOM     47  C   UNL     1       4.285   7.513  -1.835  1.00  0.00     0.029 A 
ATOM     48  N   UNL     1       6.205   6.410  -1.511  1.00  0.00    -0.354 N 
ATOM     49  C   UNL     1       7.204   2.964  -3.910  1.00  0.00     0.074 A 
ATOM     50  C   UNL     1       6.102   2.579  -4.767  1.00  0.00     0.031 C 
ATOM     51  C   UNL     1       4.971   8.170  -0.888  1.00  0.00     0.029 A 
ATOM     52  C   UNL     1       6.235   7.480  -0.646  1.00  0.00     0.049 A 
ATOM     53  H   UNL     1       6.921   5.737  -1.562  1.00  0.00     0.167 HD
ATOM     54  C   UNL     1       8.392   2.317  -3.835  1.00  0.00     0.031 A 
ATOM     55  C   UNL     1       7.179   7.878   0.231  1.00  0.00     0.031 A 
ATOM     56  C   UNL     1       9.479   2.713  -2.972  1.00  0.00     0.049 A 
ATOM     57  C   UNL     1       8.464   7.102   0.328  1.00  0.00     0.074 A 
ATOM     58  C   UNL     1      10.738   2.143  -2.872  1.00  0.00     0.029 A 
ATOM     59  N   UNL     1       9.447   3.761  -2.064  1.00  0.00    -0.354 N 
ATOM     60  N   UNL     1       8.861   6.079  -0.388  1.00  0.00    -0.248 NA
ATOM     61  C   UNL     1       9.435   7.543   1.340  1.00  0.00     0.031 C 
ATOM     62  C   UNL     1      11.433   2.787  -1.849  1.00  0.00     0.029 A 
ATOM     63  C   UNL     1      10.646   3.822  -1.371  1.00  0.00     0.049 A 
ATOM     64  H   UNL     1       8.685   4.370  -1.931  1.00  0.00     0.167 HD
ATOM     65  C   UNL     1      10.140   5.773   0.065  1.00  0.00     0.074 A 
ATOM     66  C   UNL     1      10.458   6.731   1.102  1.00  0.00     0.031 C 
ATOM     67  C   UNL     1      10.970   4.784  -0.345  1.00  0.00     0.031 A 
BRANCH  54  68
ATOM     68  C   UNL     1       8.638   1.124  -4.727  1.00  0.00    -0.014 A 
ATOM     69  C   UNL     1       8.860  -0.144  -4.155  1.00  0.00     0.010 A 
ATOM     70  C   UNL     1       8.874   1.303  -6.102  1.00  0.00     0.010 A 
ATOM     71  C   UNL     1       9.377  -1.190  -4.925  1.00  0.00     0.020 A 
ATOM     72  C   UNL     1       9.365   0.250  -6.881  1.00  0.00     0.020 A 
ATOM     73  C   UNL     1       9.646  -0.979  -6.280  1.00  0.00     0.054 A 
BRANCH  73  74
ATOM     74  S   UNL     1      10.420  -2.314  -7.236  1.00  0.00     0.124 S 
ATOM     75  O   UNL     1      11.771  -2.347  -6.685  1.00  0.00    -0.237 OA
ATOM     76  O   UNL     1       9.577  -3.463  -6.915  1.00  0.00    -0.237 OA
ATOM     77  O   UNL     1      10.321  -1.847  -8.618  1.00  0.00    -0.744 OA
ENDBRANCH  73  74
ENDBRANCH  54  68
BRANCH  55  78
ATOM     78  C   UNL     1       6.961   9.113   1.038  1.00  0.00    -0.014 A 
ATOM     79  C   UNL     1       5.926   9.178   1.989  1.00  0.00     0.010 A 
ATOM     80  C   UNL     1       7.761  10.249   0.825  1.00  0.00     0.010 A 
ATOM     81  C   UNL     1       5.665  10.366   2.676  1.00  0.00     0.020 A 
ATOM     82  C   UNL     1       7.529  11.429   1.538  1.00  0.00     0.020 A 
ATOM     83  C   UNL     1       6.465  11.487   2.441  1.00  0.00     0.054 A 
BRANCH  83  84
ATOM     84  S   UNL     1       6.094  13.022   3.332  1.00  0.00     0.124 S 
ATOM     85  O   UNL     1       4.891  13.484   2.646  1.00  0.00    -0.237 OA
ATOM     86  O   UNL     1       5.897  12.554   4.702  1.00  0.00    -0.237 OA
ATOM     87  O   UNL     1       7.287  13.838   3.121  1.00  0.00    -0.744 OA
ENDBRANCH  83  84
ENDBRANCH  55  78
BRANCH  67  88
ATOM     88  C   UNL     1      12.326   4.663   0.309  1.00  0.00    -0.014 A 
ATOM     89  C   UNL     1      13.492   4.846  -0.460  1.00  0.00     0.010 A 
ATOM     90  C   UNL     1      12.450   4.228   1.640  1.00  0.00     0.010 A 
ATOM     91  C   UNL     1      14.749   4.549   0.072  1.00  0.00     0.020 A 
ATOM     92  C   UNL     1      13.710   3.965   2.188  1.00  0.00     0.020 A 
ATOM     93  C   UNL     1      14.849   4.098   1.390  1.00  0.00     0.054 A 
BRANCH  93  94
ATOM     94  S   UNL     1      16.484   3.664   2.044  1.00  0.00     0.124 S 
ATOM     95  O   UNL     1      16.766   2.405   1.360  1.00  0.00    -0.237 OA
ATOM     96  O   UNL     1      17.305   4.801   1.634  1.00  0.00    -0.237 OA
ATOM     97  O   UNL     1      16.261   3.554   3.484  1.00  0.00    -0.744 OA
ENDBRANCH  93  94
ENDBRANCH  67  88
ENDBRANCH  41  42
ENDBRANCH  34  36
ENDBRANCH  33  34
ENDBRANCH  32  33
ENDBRANCH  31  32
ENDBRANCH  30  31
ENDBRANCH  29  30
ENDBRANCH   1  29
TORSDOF 24
