REMARK SMILES O=C(CCn1ccnc1)N[C@H]1C=C[C@H](C(=O)OCCOCCOCCOC(=O)c2ccc(-c3c4nc(c(-c5ccc(S(=O)(=O)[O-])cc5)c5ccc([nH]5)c(-c5ccc(S(=O)(=O)[O-])cc5)c5nc(c(-c6ccc(S(=O)(=O)[O-])cc6)c6ccc3[nH]6)C=C5)C=C4)cc2)C1
REMARK SMILES IDX 21 1 20 2 19 3 18 4 17 5 15 6 16 7 14 8 11 9 12 10 89 11
REMARK SMILES IDX 13 12 10 13 1 14 2 15 3 17 4 18 5 19 6 20 9 21 7 22 8 23
REMARK SMILES IDX 22 24 23 25 24 26 25 27 26 28 27 29 28 30 29 31 30 32 88 33
REMARK SMILES IDX 31 34 87 35 32 36 33 37 34 38 81 39 35 40 86 41 80 42 82 43
REMARK SMILES IDX 36 44 85 45 79 46 78 47 37 49 67 50 48 51 66 52 49 53 52 54
REMARK SMILES IDX 65 55 83 56 50 57 51 58 64 60 84 61 53 62 38 63 39 64 47 65
REMARK SMILES IDX 40 66 46 67 41 68 42 69 43 70 44 71 45 72 68 73 69 74 77 75
REMARK SMILES IDX 70 76 76 77 71 78 72 79 73 80 74 81 75 82 54 83 55 84 63 85
REMARK SMILES IDX 56 86 62 87 57 88 58 89 59 90 60 91 61 92
REMARK H PARENT 10 16 82 48 52 59
REMARK Flexibility Score: inf
ROOT
ATOM      1  C   UNL     1       2.125  -3.377   7.563  1.00  0.00     0.188 C 
ENDROOT
BRANCH   1   2
ATOM      2  O   UNL     1       0.942  -3.248   8.338  1.00  0.00    -0.376 OA
BRANCH   2   3
ATOM      3  C   UNL     1      -0.215  -2.683   7.719  1.00  0.00     0.202 C 
BRANCH   3   4
ATOM      4  C   UNL     1      -0.071  -1.450   6.804  1.00  0.00     0.261 C 
BRANCH   4   5
ATOM      5  O   UNL     1       0.683  -1.704   5.602  1.00  0.00    -0.463 OA
BRANCH   5   6
ATOM      6  C   UNL     1       1.698  -0.860   5.309  1.00  0.00     0.312 C 
ATOM      7  O   UNL     1       1.913   0.189   5.908  1.00  0.00    -0.252 OA
BRANCH   6   8
ATOM      8  C   UNL     1       2.632  -1.371   4.202  1.00  0.00     0.124 C 
ATOM      9  C   UNL     1       1.968  -0.695   1.947  1.00  0.00     0.106 C 
ATOM     10  C   UNL     1       1.859  -2.165   2.114  1.00  0.00    -0.006 C 
ATOM     11  C   UNL     1       2.819  -0.272   3.151  1.00  0.00     0.048 C 
ATOM     12  C   UNL     1       2.217  -2.534   3.344  1.00  0.00    -0.014 C 
BRANCH   9  13
ATOM     13  N   UNL     1       2.668  -0.452   0.720  1.00  0.00    -0.350 N 
ATOM     14  O   UNL     1       1.137   1.010  -0.170  1.00  0.00    -0.275 OA
ATOM     15  C   UNL     1       2.211   0.423  -0.227  1.00  0.00     0.222 C 
ATOM     16  H   UNL     1       3.510  -0.933   0.552  1.00  0.00     0.164 HD
BRANCH  15  17
ATOM     17  C   UNL     1       3.189   0.664  -1.347  1.00  0.00     0.122 C 
BRANCH  17  18
ATOM     18  C   UNL     1       4.202   1.725  -0.928  1.00  0.00     0.133 C 
BRANCH  18  19
ATOM     19  N   UNL     1       5.192   1.290   0.041  1.00  0.00    -0.337 N 
ATOM     20  C   UNL     1       5.575   1.979   1.159  1.00  0.00     0.107 A 
ATOM     21  C   UNL     1       5.939   0.147  -0.009  1.00  0.00     0.199 A 
ATOM     22  C   UNL     1       6.522   1.185   1.762  1.00  0.00     0.130 A 
ATOM     23  N   UNL     1       6.728   0.042   1.036  1.00  0.00    -0.245 NA
ENDBRANCH  18  19
ENDBRANCH  17  18
ENDBRANCH  15  17
ENDBRANCH   9  13
ENDBRANCH   6   8
ENDBRANCH   5   6
ENDBRANCH   4   5
ENDBRANCH   3   4
ENDBRANCH   2   3
ENDBRANCH   1   2
BRANCH   1  24
ATOM     24  C   UNL     1       2.070  -4.266   6.312  1.00  0.00     0.188 C 
BRANCH  24  25
ATOM     25  O   UNL     1       0.836  -4.196   5.626  1.00  0.00    -0.376 OA
BRANCH  25  26
ATOM     26  C   UNL     1      -0.048  -5.291   5.448  1.00  0.00     0.202 C 
BRANCH  26  27
ATOM     27  C   UNL     1      -0.390  -6.239   6.598  1.00  0.00     0.261 C 
BRANCH  27  28
ATOM     28  O   UNL     1       0.709  -6.593   7.407  1.00  0.00    -0.460 OA
BRANCH  28  29
ATOM     29  C   UNL     1       1.674  -7.315   6.800  1.00  0.00     0.338 C 
ATOM     30  O   UNL     1       1.703  -7.683   5.643  1.00  0.00    -0.246 OA
BRANCH  29  31
ATOM     31  C   UNL     1       2.746  -7.496   7.790  1.00  0.00     0.060 A 
ATOM     32  C   UNL     1       3.949  -8.047   7.345  1.00  0.00     0.016 A 
ATOM     33  C   UNL     1       2.479  -7.279   9.151  1.00  0.00     0.016 A 
ATOM     34  C   UNL     1       4.771  -8.637   8.277  1.00  0.00     0.010 A 
ATOM     35  C   UNL     1       3.283  -7.886  10.078  1.00  0.00     0.010 A 
ATOM     36  C   UNL     1       4.346  -8.653   9.607  1.00  0.00    -0.014 A 
BRANCH  36  37
ATOM     37  C   UNL     1       4.879  -9.685  10.466  1.00  0.00     0.031 A 
ATOM     38  C   UNL     1       6.062  -9.321  11.257  1.00  0.00     0.074 A 
ATOM     39  C   UNL     1       4.194 -10.837  10.603  1.00  0.00     0.049 A 
ATOM     40  N   UNL     1       7.239  -9.850  11.213  1.00  0.00    -0.248 NA
ATOM     41  C   UNL     1       5.949  -8.146  12.135  1.00  0.00     0.031 C 
ATOM     42  C   UNL     1       2.842 -11.128  10.103  1.00  0.00     0.029 A 
ATOM     43  N   UNL     1       4.497 -11.936  11.342  1.00  0.00    -0.354 N 
ATOM     44  C   UNL     1       7.960  -9.207  12.210  1.00  0.00     0.074 A 
ATOM     45  C   UNL     1       7.191  -8.053  12.602  1.00  0.00     0.031 C 
ATOM     46  C   UNL     1       2.359 -12.212  10.746  1.00  0.00     0.029 A 
ATOM     47  C   UNL     1       3.402 -12.748  11.604  1.00  0.00     0.049 A 
ATOM     48  H   UNL     1       5.406 -12.138  11.661  1.00  0.00     0.167 HD
ATOM     49  C   UNL     1       8.998  -9.808  12.848  1.00  0.00     0.031 A 
ATOM     50  C   UNL     1       3.330 -13.722  12.542  1.00  0.00     0.031 A 
ATOM     51  C   UNL     1       9.494 -10.954  12.137  1.00  0.00     0.049 A 
ATOM     52  C   UNL     1       4.720 -14.088  12.912  1.00  0.00     0.074 A 
ATOM     53  C   UNL     1      10.052 -11.158  10.892  1.00  0.00     0.029 A 
ATOM     54  N   UNL     1       9.105 -12.191  12.596  1.00  0.00    -0.354 N 
ATOM     55  N   UNL     1       5.561 -14.661  12.096  1.00  0.00    -0.248 NA
ATOM     56  C   UNL     1       5.324 -13.461  14.079  1.00  0.00     0.031 C 
ATOM     57  C   UNL     1       9.612 -12.450  10.486  1.00  0.00     0.029 A 
ATOM     58  C   UNL     1       8.822 -12.981  11.509  1.00  0.00     0.049 A 
ATOM     59  H   UNL     1       9.041 -12.463  13.540  1.00  0.00     0.167 HD
ATOM     60  C   UNL     1       6.800 -14.125  12.419  1.00  0.00     0.074 A 
ATOM     61  C   UNL     1       6.612 -13.506  13.726  1.00  0.00     0.031 C 
ATOM     62  C   UNL     1       7.778 -13.988  11.475  1.00  0.00     0.031 A 
BRANCH  49  63
ATOM     63  C   UNL     1       9.277  -9.570  14.308  1.00  0.00    -0.014 A 
ATOM     64  C   UNL     1      10.471 -10.051  14.872  1.00  0.00     0.010 A 
ATOM     65  C   UNL     1       8.281  -9.111  15.199  1.00  0.00     0.010 A 
ATOM     66  C   UNL     1      10.640 -10.102  16.263  1.00  0.00     0.020 A 
ATOM     67  C   UNL     1       8.459  -9.107  16.580  1.00  0.00     0.020 A 
ATOM     68  C   UNL     1       9.626  -9.639  17.105  1.00  0.00     0.054 A 
BRANCH  68  69
ATOM     69  S   UNL     1       9.801  -9.810  18.896  1.00  0.00     0.124 S 
ATOM     70  O   UNL     1       9.662 -11.253  19.070  1.00  0.00    -0.237 OA
ATOM     71  O   UNL     1      11.134  -9.266  19.134  1.00  0.00    -0.237 OA
ATOM     72  O   UNL     1       8.702  -9.005  19.425  1.00  0.00    -0.744 OA
ENDBRANCH  68  69
ENDBRANCH  49  63
BRANCH  50  73
ATOM     73  C   UNL     1       2.139 -14.098  13.344  1.00  0.00    -0.014 A 
ATOM     74  C   UNL     1       2.122 -15.276  14.110  1.00  0.00     0.010 A 
ATOM     75  C   UNL     1       1.096 -13.169  13.550  1.00  0.00     0.010 A 
ATOM     76  C   UNL     1       1.127 -15.492  15.079  1.00  0.00     0.020 A 
ATOM     77  C   UNL     1       0.092 -13.384  14.499  1.00  0.00     0.020 A 
ATOM     78  C   UNL     1       0.126 -14.536  15.277  1.00  0.00     0.054 A 
BRANCH  78  79
ATOM     79  S   UNL     1      -1.058 -14.745  16.637  1.00  0.00     0.124 S 
ATOM     80  O   UNL     1      -1.878 -15.857  16.166  1.00  0.00    -0.237 OA
ATOM     81  O   UNL     1      -0.188 -15.035  17.773  1.00  0.00    -0.237 OA
ATOM     82  O   UNL     1      -1.742 -13.454  16.700  1.00  0.00    -0.744 OA
ENDBRANCH  78  79
ENDBRANCH  50  73
BRANCH  62  83
ATOM     83  C   UNL     1       7.607 -14.727  10.165  1.00  0.00    -0.014 A 
ATOM     84  C   UNL     1       6.568 -14.443   9.257  1.00  0.00     0.010 A 
ATOM     85  C   UNL     1       8.624 -15.611   9.762  1.00  0.00     0.010 A 
ATOM     86  C   UNL     1       6.541 -15.034   7.986  1.00  0.00     0.020 A 
ATOM     87  C   UNL     1       8.612 -16.192   8.490  1.00  0.00     0.020 A 
ATOM     88  C   UNL     1       7.569 -15.902   7.608  1.00  0.00     0.054 A 
BRANCH  88  89
ATOM     89  S   UNL     1       7.578 -16.587   5.926  1.00  0.00     0.124 S 
ATOM     90  O   UNL     1       6.489 -17.559   5.973  1.00  0.00    -0.237 OA
ATOM     91  O   UNL     1       7.336 -15.411   5.093  1.00  0.00    -0.237 OA
ATOM     92  O   UNL     1       8.915 -17.163   5.792  1.00  0.00    -0.744 OA
ENDBRANCH  88  89
ENDBRANCH  62  83
ENDBRANCH  36  37
ENDBRANCH  29  31
ENDBRANCH  28  29
ENDBRANCH  27  28
ENDBRANCH  26  27
ENDBRANCH  25  26
ENDBRANCH  24  25
ENDBRANCH   1  24
TORSDOF 24
