REMARK SMILES Cc1cc(F)ccc1OC1(C(=O)OCCOCCOCCOC(=O)c2ccc(-c3c4nc(c(-c5ccc(S(=O)(=O)[O-])cc5)c5ccc([nH]5)c(-c5ccc(S(=O)(=O)[O-])cc5)c5nc(c(-c6ccc(S(=O)(=O)[O-])cc6)c6ccc3[nH]6)C=C5)C=C4)cc2)CCN(C(=O)[C@H]2CCOC2)CC1
REMARK SMILES IDX 18 1 17 2 16 3 15 4 14 5 13 6 11 7 12 8 10 9 85 10 96 11
REMARK SMILES IDX 86 12 95 13 87 14 88 15 89 16 9 17 8 18 1 19 2 20 3 21 4 22
REMARK SMILES IDX 7 23 5 24 6 25 90 26 91 27 94 28 92 29 93 30 19 31 20 32
REMARK SMILES IDX 21 33 22 34 23 35 24 36 25 37 26 38 84 39 27 40 83 41 28 42
REMARK SMILES IDX 29 43 30 44 77 45 31 46 82 47 76 48 78 49 32 50 81 51 75 52
REMARK SMILES IDX 74 53 33 55 63 56 44 57 62 58 45 59 48 60 61 61 79 62 46 63
REMARK SMILES IDX 47 64 60 66 80 67 49 68 34 69 35 70 43 71 36 72 42 73 37 74
REMARK SMILES IDX 38 75 39 76 40 77 41 78 64 79 65 80 73 81 66 82 72 83 67 84
REMARK SMILES IDX 68 85 69 86 70 87 71 88 50 89 51 90 59 91 52 92 58 93 53 94
REMARK SMILES IDX 54 95 55 96 56 97 57 98
REMARK H PARENT 78 54 48 65
REMARK Flexibility Score: inf
ROOT
ATOM      1  C   UNL     1      10.650  10.345  -0.561  1.00  0.00     0.188 C 
ENDROOT
BRANCH   1   2
ATOM      2  C   UNL     1       9.976  10.419   0.810  1.00  0.00     0.188 C 
BRANCH   2   3
ATOM      3  O   UNL     1      10.819  10.210   1.935  1.00  0.00    -0.376 OA
BRANCH   3   4
ATOM      4  C   UNL     1      11.434   8.927   2.046  1.00  0.00     0.202 C 
BRANCH   4   5
ATOM      5  C   UNL     1      10.491   7.720   2.176  1.00  0.00     0.261 C 
BRANCH   5   6
ATOM      6  O   UNL     1       9.662   7.497   1.012  1.00  0.00    -0.460 OA
BRANCH   6   7
ATOM      7  C   UNL     1       8.311   7.542   1.205  1.00  0.00     0.350 C 
ATOM      8  O   UNL     1       7.801   7.658   2.318  1.00  0.00    -0.247 OA
BRANCH   7   9
ATOM      9  C   UNL     1       7.452   7.451  -0.107  1.00  0.00     0.209 C 
ATOM     10  C   UNL     1       8.294   7.264  -1.366  1.00  0.00     0.082 C 
ATOM     11  C   UNL     1       6.468   6.332   0.248  1.00  0.00     0.082 C 
ATOM     12  C   UNL     1       8.105   5.970  -2.149  1.00  0.00     0.124 C 
ATOM     13  C   UNL     1       5.953   5.503  -0.899  1.00  0.00     0.124 C 
ATOM     14  N   UNL     1       6.985   5.083  -1.839  1.00  0.00    -0.342 N 
ATOM     15  C   UNL     1       6.884   3.955  -2.659  1.00  0.00     0.228 C 
ATOM     16  O   UNL     1       7.747   3.713  -3.508  1.00  0.00    -0.274 OA
BRANCH   9  17
ATOM     17  O   UNL     1       6.891   8.784  -0.067  1.00  0.00    -0.475 OA
BRANCH  17  18
ATOM     18  C   UNL     1       5.876   9.425  -0.695  1.00  0.00     0.124 A 
ATOM     19  C   UNL     1       5.440   8.154  -2.931  1.00  0.00     0.048 C 
ATOM     20  C   UNL     1       5.195   9.204  -1.901  1.00  0.00    -0.006 A 
ATOM     21  C   UNL     1       4.181  10.118  -2.295  1.00  0.00     0.046 A 
ATOM     22  C   UNL     1       3.869  11.236  -1.541  1.00  0.00     0.123 A 
ATOM     23  C   UNL     1       5.536  10.587   0.041  1.00  0.00     0.050 A 
ATOM     24  F   UNL     1       2.923  12.080  -1.970  1.00  0.00    -0.207 F 
ATOM     25  C   UNL     1       4.549  11.487  -0.371  1.00  0.00     0.043 A 
ENDBRANCH  17  18
ENDBRANCH   9  17
BRANCH  15  26
ATOM     26  C   UNL     1       5.677   3.042  -2.511  1.00  0.00     0.107 C 
ATOM     27  C   UNL     1       4.463   3.551  -3.260  1.00  0.00     0.044 C 
ATOM     28  C   UNL     1       5.907   1.695  -3.176  1.00  0.00     0.173 C 
ATOM     29  C   UNL     1       3.706   2.287  -3.619  1.00  0.00     0.161 C 
ATOM     30  O   UNL     1       4.616   1.186  -3.533  1.00  0.00    -0.381 OA
ENDBRANCH  15  26
ENDBRANCH   7   9
ENDBRANCH   6   7
ENDBRANCH   5   6
ENDBRANCH   4   5
ENDBRANCH   3   4
ENDBRANCH   2   3
ENDBRANCH   1   2
BRANCH   1  31
ATOM     31  O   UNL     1      11.496   9.220  -0.776  1.00  0.00    -0.376 OA
BRANCH  31  32
ATOM     32  C   UNL     1      12.063   9.118  -2.088  1.00  0.00     0.202 C 
BRANCH  32  33
ATOM     33  C   UNL     1      12.845  10.351  -2.587  1.00  0.00     0.261 C 
BRANCH  33  34
ATOM     34  O   UNL     1      12.050  11.545  -2.750  1.00  0.00    -0.460 OA
BRANCH  34  35
ATOM     35  C   UNL     1      10.939  11.454  -3.519  1.00  0.00     0.338 C 
ATOM     36  O   UNL     1      10.673  10.553  -4.297  1.00  0.00    -0.246 OA
BRANCH  35  37
ATOM     37  C   UNL     1       9.964  12.482  -3.061  1.00  0.00     0.060 A 
ATOM     38  C   UNL     1       8.604  12.142  -3.049  1.00  0.00     0.016 A 
ATOM     39  C   UNL     1      10.372  13.729  -2.572  1.00  0.00     0.016 A 
ATOM     40  C   UNL     1       7.650  13.060  -2.600  1.00  0.00     0.010 A 
ATOM     41  C   UNL     1       9.416  14.649  -2.128  1.00  0.00     0.010 A 
ATOM     42  C   UNL     1       8.047  14.334  -2.174  1.00  0.00    -0.014 A 
BRANCH  42  43
ATOM     43  C   UNL     1       7.030  15.401  -1.988  1.00  0.00     0.031 A 
ATOM     44  C   UNL     1       6.761  16.332  -3.141  1.00  0.00     0.074 A 
ATOM     45  C   UNL     1       6.336  15.541  -0.845  1.00  0.00     0.049 A 
ATOM     46  N   UNL     1       5.923  17.332  -3.226  1.00  0.00    -0.248 NA
ATOM     47  C   UNL     1       7.549  16.099  -4.363  1.00  0.00     0.031 C 
ATOM     48  C   UNL     1       6.459  14.688   0.335  1.00  0.00     0.029 A 
ATOM     49  N   UNL     1       5.377  16.462  -0.497  1.00  0.00    -0.354 N 
ATOM     50  C   UNL     1       6.086  17.852  -4.504  1.00  0.00     0.074 A 
ATOM     51  C   UNL     1       7.125  17.077  -5.147  1.00  0.00     0.031 C 
ATOM     52  C   UNL     1       5.595  15.117   1.273  1.00  0.00     0.029 A 
ATOM     53  C   UNL     1       4.884  16.297   0.775  1.00  0.00     0.049 A 
ATOM     54  H   UNL     1       5.071  17.175  -1.103  1.00  0.00     0.167 HD
ATOM     55  C   UNL     1       5.433  18.879  -5.098  1.00  0.00     0.031 A 
ATOM     56  C   UNL     1       3.974  17.018   1.462  1.00  0.00     0.031 A 
ATOM     57  C   UNL     1       4.422  19.676  -4.457  1.00  0.00     0.049 A 
ATOM     58  C   UNL     1       3.327  18.220   0.818  1.00  0.00     0.074 A 
ATOM     59  C   UNL     1       3.701  20.734  -4.982  1.00  0.00     0.029 A 
ATOM     60  N   UNL     1       4.003  19.517  -3.145  1.00  0.00    -0.354 N 
ATOM     61  N   UNL     1       3.473  18.684  -0.401  1.00  0.00    -0.248 NA
ATOM     62  C   UNL     1       2.391  18.995   1.647  1.00  0.00     0.031 C 
ATOM     63  C   UNL     1       2.891  21.256  -3.967  1.00  0.00     0.029 A 
ATOM     64  C   UNL     1       3.059  20.481  -2.830  1.00  0.00     0.049 A 
ATOM     65  H   UNL     1       4.328  18.822  -2.529  1.00  0.00     0.167 HD
ATOM     66  C   UNL     1       2.627  19.787  -0.492  1.00  0.00     0.074 A 
ATOM     67  C   UNL     1       1.968  19.916   0.791  1.00  0.00     0.031 C 
ATOM     68  C   UNL     1       2.412  20.612  -1.548  1.00  0.00     0.031 A 
BRANCH  55  69
ATOM     69  C   UNL     1       5.851  19.230  -6.501  1.00  0.00    -0.014 A 
ATOM     70  C   UNL     1       5.567  18.378  -7.585  1.00  0.00     0.010 A 
ATOM     71  C   UNL     1       6.562  20.420  -6.733  1.00  0.00     0.010 A 
ATOM     72  C   UNL     1       6.046  18.679  -8.862  1.00  0.00     0.020 A 
ATOM     73  C   UNL     1       7.015  20.740  -8.014  1.00  0.00     0.020 A 
ATOM     74  C   UNL     1       6.778  19.852  -9.066  1.00  0.00     0.054 A 
BRANCH  74  75
ATOM     75  S   UNL     1       7.419  20.203 -10.725  1.00  0.00     0.124 S 
ATOM     76  O   UNL     1       8.525  19.254 -10.826  1.00  0.00    -0.237 OA
ATOM     77  O   UNL     1       6.269  19.921 -11.581  1.00  0.00    -0.237 OA
ATOM     78  O   UNL     1       7.810  21.609 -10.656  1.00  0.00    -0.744 OA
ENDBRANCH  74  75
ENDBRANCH  55  69
BRANCH  56  79
ATOM     79  C   UNL     1       3.613  16.625   2.853  1.00  0.00    -0.014 A 
ATOM     80  C   UNL     1       2.344  16.090   3.136  1.00  0.00     0.010 A 
ATOM     81  C   UNL     1       4.540  16.774   3.901  1.00  0.00     0.010 A 
ATOM     82  C   UNL     1       2.009  15.711   4.440  1.00  0.00     0.020 A 
ATOM     83  C   UNL     1       4.218  16.373   5.200  1.00  0.00     0.020 A 
ATOM     84  C   UNL     1       2.951  15.847   5.463  1.00  0.00     0.054 A 
BRANCH  84  85
ATOM     85  S   UNL     1       2.521  15.273   7.130  1.00  0.00     0.124 S 
ATOM     86  O   UNL     1       1.564  16.286   7.564  1.00  0.00    -0.237 OA
ATOM     87  O   UNL     1       1.966  13.947   6.871  1.00  0.00    -0.237 OA
ATOM     88  O   UNL     1       3.801  15.278   7.834  1.00  0.00    -0.744 OA
ENDBRANCH  84  85
ENDBRANCH  56  79
BRANCH  68  89
ATOM     89  C   UNL     1       1.399  21.718  -1.384  1.00  0.00    -0.014 A 
ATOM     90  C   UNL     1       1.666  22.846  -0.589  1.00  0.00     0.010 A 
ATOM     91  C   UNL     1       0.185  21.656  -2.095  1.00  0.00     0.010 A 
ATOM     92  C   UNL     1       0.727  23.879  -0.486  1.00  0.00     0.020 A 
ATOM     93  C   UNL     1      -0.743  22.699  -2.017  1.00  0.00     0.020 A 
ATOM     94  C   UNL     1      -0.472  23.799  -1.202  1.00  0.00     0.054 A 
BRANCH  94  95
ATOM     95  S   UNL     1      -1.651  25.173  -1.091  1.00  0.00     0.124 S 
ATOM     96  O   UNL     1      -2.202  24.994   0.249  1.00  0.00    -0.237 OA
ATOM     97  O   UNL     1      -0.797  26.345  -1.268  1.00  0.00    -0.237 OA
ATOM     98  O   UNL     1      -2.584  24.919  -2.187  1.00  0.00    -0.744 OA
ENDBRANCH  94  95
ENDBRANCH  68  89
ENDBRANCH  42  43
ENDBRANCH  35  37
ENDBRANCH  34  35
ENDBRANCH  33  34
ENDBRANCH  32  33
ENDBRANCH  31  32
ENDBRANCH   1  31
TORSDOF 23
