REMARK SMILES CC(C)Cc1noc(CCCCC(=O)OCCOCCOCCOC(=O)c2ccc(-c3c4nc(c(-c5ccc(S(=O)(=O)[O-])cc5)c5ccc([nH]5)c(-c5ccc(S(=O)(=O)[O-])cc5)c5nc(c(-c6ccc(S(=O)(=O)[O-])cc6)c6ccc3[nH]6)C=C5)C=C4)cc2)n1
REMARK SMILES IDX 18 1 17 2 16 3 15 4 13 5 14 6 12 7 11 8 10 9 9 10 8 11 5 12
REMARK SMILES IDX 6 13 87 14 7 15 4 16 2 17 1 18 3 19 19 20 20 21 21 22 22 23
REMARK SMILES IDX 23 24 24 25 25 26 26 27 27 28 28 29 86 30 29 31 85 32 30 33
REMARK SMILES IDX 31 34 32 35 79 36 33 37 84 38 78 39 80 40 34 41 83 42 77 43
REMARK SMILES IDX 76 44 35 46 65 47 46 48 64 49 47 50 50 51 63 52 81 53 48 54
REMARK SMILES IDX 49 55 62 57 82 58 51 59 36 60 37 61 45 62 38 63 44 64 39 65
REMARK SMILES IDX 40 66 41 67 42 68 43 69 66 70 67 71 75 72 68 73 74 74 69 75
REMARK SMILES IDX 70 76 71 77 72 78 73 79 52 80 53 81 61 82 54 83 60 84 55 85
REMARK SMILES IDX 56 86 57 87 58 88 59 89
REMARK H PARENT 80 45 50 56
REMARK Flexibility Score: inf
ROOT
ATOM      1  O   UNL     1      -3.621   6.825   7.162  1.00  0.00    -0.376 OA
ENDROOT
BRANCH   1   2
ATOM      2  C   UNL     1      -4.237   5.567   7.436  1.00  0.00     0.202 C 
BRANCH   2   3
ATOM      3  C   UNL     1      -4.814   4.819   6.226  1.00  0.00     0.261 C 
BRANCH   3   4
ATOM      4  O   UNL     1      -3.848   4.604   5.179  1.00  0.00    -0.463 OA
BRANCH   4   5
ATOM      5  C   UNL     1      -4.209   5.024   3.939  1.00  0.00     0.305 C 
ATOM      6  O   UNL     1      -5.332   5.403   3.628  1.00  0.00    -0.252 OA
BRANCH   5   7
ATOM      7  C   UNL     1      -3.052   5.069   2.959  1.00  0.00     0.123 C 
BRANCH   7   8
ATOM      8  C   UNL     1      -1.809   4.226   3.242  1.00  0.00     0.012 C 
BRANCH   8   9
ATOM      9  C   UNL     1      -2.030   2.740   3.546  1.00  0.00     0.010 C 
BRANCH   9  10
ATOM     10  C   UNL     1      -3.014   2.012   2.630  1.00  0.00     0.100 C 
BRANCH  10  11
ATOM     11  C   UNL     1      -2.484   1.826   1.262  1.00  0.00     0.226 A 
ATOM     12  C   UNL     1      -1.617   1.212  -0.530  1.00  0.00     0.172 A 
ATOM     13  N   UNL     1      -1.945   2.485  -0.779  1.00  0.00    -0.063 NA
ATOM     14  N   UNL     1      -1.950   0.757   0.719  1.00  0.00    -0.196 NA
ATOM     15  O   UNL     1      -2.533   2.898   0.418  1.00  0.00    -0.339 OA
BRANCH  12  16
ATOM     16  C   UNL     1      -0.933   0.346  -1.520  1.00  0.00     0.084 C 
BRANCH  16  17
ATOM     17  C   UNL     1       0.603   0.408  -1.436  1.00  0.00    -0.010 C 
ATOM     18  C   UNL     1       1.135  -0.006  -0.060  1.00  0.00     0.008 C 
ATOM     19  C   UNL     1       1.208  -0.494  -2.513  1.00  0.00     0.008 C 
ENDBRANCH  16  17
ENDBRANCH  12  16
ENDBRANCH  10  11
ENDBRANCH   9  10
ENDBRANCH   8   9
ENDBRANCH   7   8
ENDBRANCH   5   7
ENDBRANCH   4   5
ENDBRANCH   3   4
ENDBRANCH   2   3
ENDBRANCH   1   2
BRANCH   1  20
ATOM     20  C   UNL     1      -2.462   6.803   6.334  1.00  0.00     0.188 C 
BRANCH  20  21
ATOM     21  C   UNL     1      -1.294   5.952   6.834  1.00  0.00     0.188 C 
BRANCH  21  22
ATOM     22  O   UNL     1      -1.605   4.613   7.201  1.00  0.00    -0.376 OA
BRANCH  22  23
ATOM     23  C   UNL     1      -0.505   3.819   7.660  1.00  0.00     0.202 C 
BRANCH  23  24
ATOM     24  C   UNL     1       0.381   4.424   8.771  1.00  0.00     0.261 C 
BRANCH  24  25
ATOM     25  O   UNL     1       1.055   5.657   8.439  1.00  0.00    -0.460 OA
BRANCH  25  26
ATOM     26  C   UNL     1       1.761   5.712   7.284  1.00  0.00     0.338 C 
ATOM     27  O   UNL     1       2.096   4.762   6.597  1.00  0.00    -0.246 OA
BRANCH  26  28
ATOM     28  C   UNL     1       1.819   7.134   6.840  1.00  0.00     0.060 A 
ATOM     29  C   UNL     1       1.699   7.411   5.469  1.00  0.00     0.016 A 
ATOM     30  C   UNL     1       1.910   8.190   7.753  1.00  0.00     0.016 A 
ATOM     31  C   UNL     1       1.718   8.731   5.006  1.00  0.00     0.010 A 
ATOM     32  C   UNL     1       1.942   9.510   7.289  1.00  0.00     0.010 A 
ATOM     33  C   UNL     1       1.886   9.787   5.911  1.00  0.00    -0.014 A 
BRANCH  33  34
ATOM     34  C   UNL     1       2.260  11.142   5.425  1.00  0.00     0.031 A 
ATOM     35  C   UNL     1       3.724  11.500   5.421  1.00  0.00     0.074 A 
ATOM     36  C   UNL     1       1.352  12.042   5.003  1.00  0.00     0.049 A 
ATOM     37  N   UNL     1       4.303  12.640   5.149  1.00  0.00    -0.248 NA
ATOM     38  C   UNL     1       4.660  10.420   5.780  1.00  0.00     0.031 C 
ATOM     39  C   UNL     1      -0.087  11.816   4.895  1.00  0.00     0.029 A 
ATOM     40  N   UNL     1       1.519  13.345   4.596  1.00  0.00    -0.354 N 
ATOM     41  C   UNL     1       5.665  12.421   5.322  1.00  0.00     0.074 A 
ATOM     42  C   UNL     1       5.825  11.048   5.745  1.00  0.00     0.031 C 
ATOM     43  C   UNL     1      -0.674  12.947   4.463  1.00  0.00     0.029 A 
ATOM     44  C   UNL     1       0.340  13.990   4.304  1.00  0.00     0.049 A 
ATOM     45  H   UNL     1       2.401  13.776   4.521  1.00  0.00     0.167 HD
ATOM     46  C   UNL     1       6.695  13.281   5.145  1.00  0.00     0.031 A 
ATOM     47  C   UNL     1       0.104  15.278   3.975  1.00  0.00     0.031 A 
ATOM     48  C   UNL     1       6.542  14.652   4.738  1.00  0.00     0.049 A 
ATOM     49  C   UNL     1       1.260  16.246   3.867  1.00  0.00     0.074 A 
ATOM     50  C   UNL     1       7.528  15.600   4.530  1.00  0.00     0.029 A 
ATOM     51  N   UNL     1       5.329  15.271   4.484  1.00  0.00    -0.354 N 
ATOM     52  N   UNL     1       2.543  16.023   4.028  1.00  0.00    -0.248 NA
ATOM     53  C   UNL     1       0.933  17.641   3.529  1.00  0.00     0.031 C 
ATOM     54  C   UNL     1       6.906  16.810   4.207  1.00  0.00     0.029 A 
ATOM     55  C   UNL     1       5.539  16.596   4.144  1.00  0.00     0.049 A 
ATOM     56  H   UNL     1       4.448  14.834   4.538  1.00  0.00     0.167 HD
ATOM     57  C   UNL     1       3.176  17.238   3.773  1.00  0.00     0.074 A 
ATOM     58  C   UNL     1       2.137  18.191   3.443  1.00  0.00     0.031 C 
ATOM     59  C   UNL     1       4.499  17.535   3.804  1.00  0.00     0.031 A 
BRANCH  46  60
ATOM     60  C   UNL     1       8.080  12.770   5.437  1.00  0.00    -0.014 A 
ATOM     61  C   UNL     1       8.704  11.829   4.598  1.00  0.00     0.010 A 
ATOM     62  C   UNL     1       8.776  13.258   6.558  1.00  0.00     0.010 A 
ATOM     63  C   UNL     1       9.983  11.355   4.899  1.00  0.00     0.020 A 
ATOM     64  C   UNL     1      10.067  12.809   6.845  1.00  0.00     0.020 A 
ATOM     65  C   UNL     1      10.655  11.847   6.022  1.00  0.00     0.054 A 
BRANCH  65  66
ATOM     66  S   UNL     1      12.321  11.226   6.380  1.00  0.00     0.124 S 
ATOM     67  O   UNL     1      12.043   9.868   6.841  1.00  0.00    -0.237 OA
ATOM     68  O   UNL     1      12.984  11.324   5.082  1.00  0.00    -0.237 OA
ATOM     69  O   UNL     1      12.821  12.140   7.403  1.00  0.00    -0.744 OA
ENDBRANCH  65  66
ENDBRANCH  46  60
BRANCH  47  70
ATOM     70  C   UNL     1      -1.292  15.751   3.746  1.00  0.00    -0.014 A 
ATOM     71  C   UNL     1      -1.717  16.149   2.466  1.00  0.00     0.010 A 
ATOM     72  C   UNL     1      -2.200  15.828   4.819  1.00  0.00     0.010 A 
ATOM     73  C   UNL     1      -3.016  16.631   2.266  1.00  0.00     0.020 A 
ATOM     74  C   UNL     1      -3.508  16.281   4.617  1.00  0.00     0.020 A 
ATOM     75  C   UNL     1      -3.904  16.691   3.343  1.00  0.00     0.054 A 
BRANCH  75  76
ATOM     76  S   UNL     1      -5.598  17.273   3.050  1.00  0.00     0.124 S 
ATOM     77  O   UNL     1      -5.396  18.703   2.841  1.00  0.00    -0.237 OA
ATOM     78  O   UNL     1      -5.993  16.509   1.869  1.00  0.00    -0.237 OA
ATOM     79  O   UNL     1      -6.301  16.913   4.279  1.00  0.00    -0.744 OA
ENDBRANCH  75  76
ENDBRANCH  47  70
BRANCH  59  80
ATOM     80  C   UNL     1       4.923  18.929   3.415  1.00  0.00    -0.014 A 
ATOM     81  C   UNL     1       4.693  20.032   4.255  1.00  0.00     0.010 A 
ATOM     82  C   UNL     1       5.640  19.120   2.218  1.00  0.00     0.010 A 
ATOM     83  C   UNL     1       5.150  21.304   3.892  1.00  0.00     0.020 A 
ATOM     84  C   UNL     1       6.123  20.383   1.867  1.00  0.00     0.020 A 
ATOM     85  C   UNL     1       5.865  21.471   2.702  1.00  0.00     0.054 A 
BRANCH  85  86
ATOM     86  S   UNL     1       6.496  23.120   2.282  1.00  0.00     0.124 S 
ATOM     87  O   UNL     1       5.275  23.826   1.906  1.00  0.00    -0.237 OA
ATOM     88  O   UNL     1       7.113  23.554   3.533  1.00  0.00    -0.237 OA
ATOM     89  O   UNL     1       7.431  22.866   1.188  1.00  0.00    -0.744 OA
ENDBRANCH  85  86
ENDBRANCH  59  80
ENDBRANCH  33  34
ENDBRANCH  26  28
ENDBRANCH  25  26
ENDBRANCH  24  25
ENDBRANCH  23  24
ENDBRANCH  22  23
ENDBRANCH  21  22
ENDBRANCH  20  21
ENDBRANCH   1  20
TORSDOF 26
