REMARK SMILES CC(C)[NH2+][C@@]1(C(=O)OCCOCCOCCOC(=O)c2ccc(-c3c4nc(c(-c5ccc(S(=O)(=O)[O-])cc5)c5ccc([nH]5)c(-c5ccc(S(=O)(=O)[O-])cc5)c5nc(c(-c6ccc(S(=O)(=O)[O-])cc6)c6ccc3[nH]6)C=C5)C=C4)cc2)CCC[C@H](SC2CCCCC2)C1
REMARK SMILES IDX 13 1 12 2 11 3 10 4 9 5 8 6 6 7 7 8 5 9 80 10 91 11 81 12
REMARK SMILES IDX 83 13 82 14 4 15 2 18 1 19 3 20 84 21 85 22 86 23 90 24
REMARK SMILES IDX 87 25 89 26 88 27 14 28 15 29 16 30 17 31 18 32 19 33 20 34
REMARK SMILES IDX 21 35 79 36 22 37 78 38 23 39 24 40 25 41 72 42 26 43 77 44
REMARK SMILES IDX 71 45 73 46 27 47 76 48 70 49 69 50 28 52 58 53 39 54 57 55
REMARK SMILES IDX 40 56 43 57 56 58 74 59 41 60 42 61 55 63 75 64 44 65 29 66
REMARK SMILES IDX 30 67 38 68 31 69 37 70 32 71 33 72 34 73 35 74 36 75 59 76
REMARK SMILES IDX 60 77 68 78 61 79 67 80 62 81 63 82 64 83 65 84 66 85 45 86
REMARK SMILES IDX 46 87 54 88 47 89 53 90 48 91 49 92 50 93 51 94 52 95
REMARK H PARENT 4 16 4 17 73 51 43 62
REMARK Flexibility Score: inf
ROOT
ATOM      1  C   UNL     1       1.514   2.762  -3.980  1.00  0.00     0.188 C 
ENDROOT
BRANCH   1   2
ATOM      2  C   UNL     1       1.940   1.301  -4.201  1.00  0.00     0.188 C 
BRANCH   2   3
ATOM      3  O   UNL     1       1.838   0.890  -5.562  1.00  0.00    -0.376 OA
BRANCH   3   4
ATOM      4  C   UNL     1       1.342  -0.433  -5.746  1.00  0.00     0.202 C 
BRANCH   4   5
ATOM      5  C   UNL     1      -0.182  -0.436  -5.747  1.00  0.00     0.261 C 
BRANCH   5   6
ATOM      6  O   UNL     1      -0.636   0.174  -4.524  1.00  0.00    -0.459 OA
BRANCH   6   7
ATOM      7  C   UNL     1      -1.693  -0.348  -3.881  1.00  0.00     0.368 C 
ATOM      8  O   UNL     1      -2.159  -1.453  -4.141  1.00  0.00    -0.245 OA
BRANCH   7   9
ATOM      9  C   UNL     1      -2.186   0.553  -2.696  1.00  0.00     0.195 C 
ATOM     10  C   UNL     1      -3.738   0.445  -2.728  1.00  0.00     0.081 C 
ATOM     11  C   UNL     1      -1.888   2.092  -2.664  1.00  0.00     0.095 C 
ATOM     12  C   UNL     1      -4.358   1.248  -3.884  1.00  0.00     0.008 C 
ATOM     13  C   UNL     1      -2.507   2.990  -3.788  1.00  0.00     0.053 C 
ATOM     14  C   UNL     1      -4.012   2.736  -3.802  1.00  0.00     0.015 C 
BRANCH   9  15
ATOM     15  N   UNL     1      -1.704  -0.085  -1.421  1.00  0.00    -0.330 N 
ATOM     16  H   UNL     1      -2.160   0.397  -0.646  1.00  0.00     0.347 HD
ATOM     17  H   UNL     1      -1.938  -1.073  -1.520  1.00  0.00     0.347 HD
BRANCH  15  18
ATOM     18  C   UNL     1      -0.252  -0.068  -1.157  1.00  0.00     0.176 C 
ATOM     19  C   UNL     1      -0.050  -0.072   0.362  1.00  0.00     0.075 C 
ATOM     20  C   UNL     1       0.515  -1.267  -1.731  1.00  0.00     0.075 C 
ENDBRANCH  15  18
ENDBRANCH   9  15
BRANCH  13  21
ATOM     21  S   UNL     1      -1.682   2.616  -5.379  1.00  0.00    -0.155 SA
BRANCH  21  22
ATOM     22  C   UNL     1      -2.017   3.871  -6.630  1.00  0.00     0.047 C 
ATOM     23  C   UNL     1      -3.377   3.621  -7.271  1.00  0.00     0.014 C 
ATOM     24  C   UNL     1      -1.747   5.336  -6.302  1.00  0.00     0.014 C 
ATOM     25  C   UNL     1      -3.544   4.475  -8.521  1.00  0.00     0.001 C 
ATOM     26  C   UNL     1      -1.945   6.187  -7.568  1.00  0.00     0.001 C 
ATOM     27  C   UNL     1      -3.315   5.950  -8.205  1.00  0.00     0.000 C 
ENDBRANCH  21  22
ENDBRANCH  13  21
ENDBRANCH   7   9
ENDBRANCH   6   7
ENDBRANCH   5   6
ENDBRANCH   4   5
ENDBRANCH   3   4
ENDBRANCH   2   3
ENDBRANCH   1   2
BRANCH   1  28
ATOM     28  O   UNL     1       1.780   3.793  -4.918  1.00  0.00    -0.376 OA
BRANCH  28  29
ATOM     29  C   UNL     1       2.833   3.602  -5.836  1.00  0.00     0.202 C 
BRANCH  29  30
ATOM     30  C   UNL     1       4.247   3.654  -5.249  1.00  0.00     0.261 C 
BRANCH  30  31
ATOM     31  O   UNL     1       4.438   2.928  -4.019  1.00  0.00    -0.460 OA
BRANCH  31  32
ATOM     32  C   UNL     1       4.300   3.653  -2.881  1.00  0.00     0.338 C 
ATOM     33  O   UNL     1       4.064   4.853  -2.802  1.00  0.00    -0.246 OA
BRANCH  32  34
ATOM     34  C   UNL     1       4.325   2.765  -1.693  1.00  0.00     0.060 A 
ATOM     35  C   UNL     1       3.298   2.874  -0.743  1.00  0.00     0.016 A 
ATOM     36  C   UNL     1       5.393   1.894  -1.465  1.00  0.00     0.016 A 
ATOM     37  C   UNL     1       3.355   2.148   0.449  1.00  0.00     0.010 A 
ATOM     38  C   UNL     1       5.466   1.191  -0.254  1.00  0.00     0.010 A 
ATOM     39  C   UNL     1       4.468   1.344   0.725  1.00  0.00    -0.014 A 
BRANCH  39  40
ATOM     40  C   UNL     1       4.687   0.860   2.114  1.00  0.00     0.031 A 
ATOM     41  C   UNL     1       5.489   1.726   3.051  1.00  0.00     0.074 A 
ATOM     42  C   UNL     1       4.161  -0.296   2.556  1.00  0.00     0.049 A 
ATOM     43  N   UNL     1       5.814   1.518   4.301  1.00  0.00    -0.248 NA
ATOM     44  C   UNL     1       6.001   2.991   2.498  1.00  0.00     0.031 C 
ATOM     45  C   UNL     1       3.346  -1.210   1.762  1.00  0.00     0.029 A 
ATOM     46  N   UNL     1       4.228  -0.894   3.791  1.00  0.00    -0.354 N 
ATOM     47  C   UNL     1       6.580   2.615   4.679  1.00  0.00     0.074 A 
ATOM     48  C   UNL     1       6.685   3.477   3.522  1.00  0.00     0.031 C 
ATOM     49  C   UNL     1       2.959  -2.238   2.538  1.00  0.00     0.029 A 
ATOM     50  C   UNL     1       3.547  -2.087   3.868  1.00  0.00     0.049 A 
ATOM     51  H   UNL     1       4.718  -0.505   4.551  1.00  0.00     0.167 HD
ATOM     52  C   UNL     1       7.154   2.878   5.877  1.00  0.00     0.031 A 
ATOM     53  C   UNL     1       3.430  -2.965   4.886  1.00  0.00     0.031 A 
ATOM     54  C   UNL     1       7.078   2.005   7.019  1.00  0.00     0.049 A 
ATOM     55  C   UNL     1       4.126  -2.676   6.194  1.00  0.00     0.074 A 
ATOM     56  C   UNL     1       7.632   2.182   8.275  1.00  0.00     0.029 A 
ATOM     57  N   UNL     1       6.417   0.786   7.043  1.00  0.00    -0.354 N 
ATOM     58  N   UNL     1       4.840  -1.629   6.539  1.00  0.00    -0.248 NA
ATOM     59  C   UNL     1       4.003  -3.692   7.250  1.00  0.00     0.031 C 
ATOM     60  C   UNL     1       7.362   1.041   9.037  1.00  0.00     0.029 A 
ATOM     61  C   UNL     1       6.572   0.188   8.283  1.00  0.00     0.049 A 
ATOM     62  H   UNL     1       5.912   0.403   6.290  1.00  0.00     0.167 HD
ATOM     63  C   UNL     1       5.231  -1.852   7.857  1.00  0.00     0.074 A 
ATOM     64  C   UNL     1       4.653  -3.120   8.254  1.00  0.00     0.031 C 
ATOM     65  C   UNL     1       6.000  -1.079   8.666  1.00  0.00     0.031 A 
BRANCH  52  66
ATOM     66  C   UNL     1       7.967   4.142   5.992  1.00  0.00    -0.014 A 
ATOM     67  C   UNL     1       7.360   5.411   5.979  1.00  0.00     0.010 A 
ATOM     68  C   UNL     1       9.364   4.055   6.140  1.00  0.00     0.010 A 
ATOM     69  C   UNL     1       8.138   6.568   6.071  1.00  0.00     0.020 A 
ATOM     70  C   UNL     1      10.142   5.208   6.263  1.00  0.00     0.020 A 
ATOM     71  C   UNL     1       9.525   6.459   6.211  1.00  0.00     0.054 A 
BRANCH  71  72
ATOM     72  S   UNL     1      10.508   7.978   6.348  1.00  0.00     0.124 S 
ATOM     73  O   UNL     1      10.420   8.517   4.993  1.00  0.00    -0.237 OA
ATOM     74  O   UNL     1       9.789   8.731   7.372  1.00  0.00    -0.237 OA
ATOM     75  O   UNL     1      11.831   7.501   6.743  1.00  0.00    -0.744 OA
ENDBRANCH  71  72
ENDBRANCH  52  66
BRANCH  53  76
ATOM     76  C   UNL     1       2.650  -4.224   4.708  1.00  0.00    -0.014 A 
ATOM     77  C   UNL     1       1.472  -4.458   5.442  1.00  0.00     0.010 A 
ATOM     78  C   UNL     1       3.097  -5.213   3.811  1.00  0.00     0.010 A 
ATOM     79  C   UNL     1       0.769  -5.659   5.295  1.00  0.00     0.020 A 
ATOM     80  C   UNL     1       2.378  -6.399   3.635  1.00  0.00     0.020 A 
ATOM     81  C   UNL     1       1.224  -6.620   4.388  1.00  0.00     0.054 A 
BRANCH  81  82
ATOM     82  S   UNL     1       0.268  -8.147   4.173  1.00  0.00     0.124 S 
ATOM     83  O   UNL     1       0.542  -8.856   5.419  1.00  0.00    -0.237 OA
ATOM     84  O   UNL     1      -1.094  -7.646   4.015  1.00  0.00    -0.237 OA
ATOM     85  O   UNL     1       0.847  -8.746   2.972  1.00  0.00    -0.744 OA
ENDBRANCH  81  82
ENDBRANCH  53  76
BRANCH  65  86
ATOM     86  C   UNL     1       6.229  -1.560  10.078  1.00  0.00    -0.014 A 
ATOM     87  C   UNL     1       7.019  -2.691  10.354  1.00  0.00     0.010 A 
ATOM     88  C   UNL     1       5.667  -0.844  11.151  1.00  0.00     0.010 A 
ATOM     89  C   UNL     1       7.198  -3.125  11.672  1.00  0.00     0.020 A 
ATOM     90  C   UNL     1       5.872  -1.254  12.471  1.00  0.00     0.020 A 
ATOM     91  C   UNL     1       6.619  -2.405  12.722  1.00  0.00     0.054 A 
BRANCH  91  92
ATOM     92  S   UNL     1       6.874  -2.982  14.423  1.00  0.00     0.124 S 
ATOM     93  O   UNL     1       6.034  -4.176  14.469  1.00  0.00    -0.237 OA
ATOM     94  O   UNL     1       8.314  -3.224  14.466  1.00  0.00    -0.237 OA
ATOM     95  O   UNL     1       6.412  -1.864  15.242  1.00  0.00    -0.744 OA
ENDBRANCH  91  92
ENDBRANCH  65  86
ENDBRANCH  39  40
ENDBRANCH  32  34
ENDBRANCH  31  32
ENDBRANCH  30  31
ENDBRANCH  29  30
ENDBRANCH  28  29
ENDBRANCH   1  28
TORSDOF 24
