REMARK SMILES COc1c(N)cc(-c2ccccc2)cc1C(=O)OCCOCCOCCOC(=O)c1ccc(-c2c3nc(c(-c4ccc(S(=O)(=O)[O-])cc4)c4ccc([nH]4)c(-c4ccc(S(=O)(=O)[O-])cc4)c4nc(c(-c5ccc(S(=O)(=O)[O-])cc5)c5ccc2[nH]5)C=C4)C=C3)cc1
REMARK SMILES IDX 23 1 22 2 21 3 20 4 19 5 18 6 16 7 17 8 15 9 3 10 4 11 6 12
REMARK SMILES IDX 14 13 7 14 2 15 1 16 5 17 8 20 9 21 13 22 10 23 12 24 11 25
REMARK SMILES IDX 24 26 25 27 26 28 27 29 28 30 29 31 30 32 31 33 89 34 32 35
REMARK SMILES IDX 88 36 33 37 34 38 35 39 82 40 36 41 87 42 81 43 83 44 37 45
REMARK SMILES IDX 86 46 80 47 79 48 38 50 68 51 49 52 67 53 50 54 53 55 66 56
REMARK SMILES IDX 84 57 51 58 52 59 65 61 85 62 54 63 39 64 40 65 48 66 41 67
REMARK SMILES IDX 47 68 42 69 43 70 44 71 45 72 46 73 69 74 70 75 78 76 71 77
REMARK SMILES IDX 77 78 72 79 73 80 74 81 75 82 76 83 55 84 56 85 64 86 57 87
REMARK SMILES IDX 63 88 58 89 59 90 60 91 61 92 62 93
REMARK H PARENT 5 18 5 19 83 49 53 60
REMARK Flexibility Score: inf
ROOT
ATOM      1  C   UNL     1      -2.201   2.637  -0.330  1.00  0.00     0.188 C 
ENDROOT
BRANCH   1   2
ATOM      2  C   UNL     1      -3.094   3.084  -1.508  1.00  0.00     0.188 C 
BRANCH   2   3
ATOM      3  O   UNL     1      -4.263   2.339  -1.761  1.00  0.00    -0.376 OA
BRANCH   3   4
ATOM      4  C   UNL     1      -4.206   1.117  -2.478  1.00  0.00     0.202 C 
BRANCH   4   5
ATOM      5  C   UNL     1      -2.954   0.539  -3.161  1.00  0.00     0.261 C 
BRANCH   5   6
ATOM      6  O   UNL     1      -1.685   0.968  -2.661  1.00  0.00    -0.460 OA
BRANCH   6   7
ATOM      7  C   UNL     1      -0.883   1.579  -3.571  1.00  0.00     0.342 C 
ATOM      8  O   UNL     1      -1.150   1.789  -4.745  1.00  0.00    -0.246 OA
BRANCH   7   9
ATOM      9  C   UNL     1       0.315   2.157  -2.932  1.00  0.00     0.104 A 
ATOM     10  C   UNL     1       1.200   1.409  -2.146  1.00  0.00     0.156 A 
ATOM     11  C   UNL     1       2.413   1.984  -1.725  1.00  0.00     0.076 A 
ATOM     12  C   UNL     1       2.611   3.356  -1.915  1.00  0.00     0.038 A 
ATOM     13  C   UNL     1       0.562   3.521  -3.167  1.00  0.00     0.028 A 
ATOM     14  C   UNL     1       1.695   4.142  -2.630  1.00  0.00    -0.015 A 
BRANCH  10  15
ATOM     15  O   UNL     1       0.916   0.097  -1.848  1.00  0.00    -0.494 OA
ATOM     16  C   UNL     1       0.652  -0.055  -0.445  1.00  0.00     0.278 C 
ENDBRANCH  10  15
BRANCH  11  17
ATOM     17  N   UNL     1       3.369   1.251  -1.021  1.00  0.00    -0.396 N 
ATOM     18  H   UNL     1       3.243   0.285  -0.879  1.00  0.00     0.156 HD
ATOM     19  H   UNL     1       4.170   1.700  -0.665  1.00  0.00     0.156 HD
ENDBRANCH  11  17
BRANCH  14  20
ATOM     20  C   UNL     1       1.959   5.570  -2.823  1.00  0.00    -0.018 A 
ATOM     21  C   UNL     1       2.906   5.996  -3.766  1.00  0.00     0.009 A 
ATOM     22  C   UNL     1       1.319   6.537  -2.033  1.00  0.00     0.009 A 
ATOM     23  C   UNL     1       3.214   7.351  -3.909  1.00  0.00     0.001 A 
ATOM     24  C   UNL     1       1.625   7.894  -2.177  1.00  0.00     0.001 A 
ATOM     25  C   UNL     1       2.575   8.298  -3.112  1.00  0.00     0.000 A 
ENDBRANCH  14  20
ENDBRANCH   7   9
ENDBRANCH   6   7
ENDBRANCH   5   6
ENDBRANCH   4   5
ENDBRANCH   3   4
ENDBRANCH   2   3
ENDBRANCH   1   2
BRANCH   1  26
ATOM     26  O   UNL     1      -2.480   1.452   0.395  1.00  0.00    -0.376 OA
BRANCH  26  27
ATOM     27  C   UNL     1      -3.777   1.258   0.939  1.00  0.00     0.202 C 
BRANCH  27  28
ATOM     28  C   UNL     1      -4.477   2.352   1.758  1.00  0.00     0.261 C 
BRANCH  28  29
ATOM     29  O   UNL     1      -4.448   3.667   1.188  1.00  0.00    -0.460 OA
BRANCH  29  30
ATOM     30  C   UNL     1      -3.687   4.565   1.854  1.00  0.00     0.338 C 
ATOM     31  O   UNL     1      -3.027   4.371   2.872  1.00  0.00    -0.246 OA
BRANCH  30  32
ATOM     32  C   UNL     1      -3.603   5.811   1.078  1.00  0.00     0.060 A 
ATOM     33  C   UNL     1      -2.355   6.212   0.582  1.00  0.00     0.016 A 
ATOM     34  C   UNL     1      -4.733   6.609   0.893  1.00  0.00     0.016 A 
ATOM     35  C   UNL     1      -2.229   7.425  -0.090  1.00  0.00     0.010 A 
ATOM     36  C   UNL     1      -4.598   7.837   0.241  1.00  0.00     0.010 A 
ATOM     37  C   UNL     1      -3.342   8.261  -0.229  1.00  0.00    -0.014 A 
BRANCH  37  38
ATOM     38  C   UNL     1      -3.159   9.652  -0.700  1.00  0.00     0.031 A 
ATOM     39  C   UNL     1      -3.057  10.747   0.325  1.00  0.00     0.074 A 
ATOM     40  C   UNL     1      -3.073   9.938  -2.011  1.00  0.00     0.049 A 
ATOM     41  N   UNL     1      -2.985  12.040   0.153  1.00  0.00    -0.248 NA
ATOM     42  C   UNL     1      -3.031  10.322   1.735  1.00  0.00     0.031 C 
ATOM     43  C   UNL     1      -3.090   8.958  -3.095  1.00  0.00     0.029 A 
ATOM     44  N   UNL     1      -2.968  11.149  -2.649  1.00  0.00    -0.354 N 
ATOM     45  C   UNL     1      -2.920  12.586   1.429  1.00  0.00     0.074 A 
ATOM     46  C   UNL     1      -2.982  11.485   2.366  1.00  0.00     0.031 C 
ATOM     47  C   UNL     1      -3.022   9.610  -4.270  1.00  0.00     0.029 A 
ATOM     48  C   UNL     1      -2.999  11.050  -4.020  1.00  0.00     0.049 A 
ATOM     49  H   UNL     1      -2.879  12.005  -2.172  1.00  0.00     0.167 HD
ATOM     50  C   UNL     1      -2.819  13.887   1.789  1.00  0.00     0.031 A 
ATOM     51  C   UNL     1      -3.040  12.014  -4.962  1.00  0.00     0.031 A 
ATOM     52  C   UNL     1      -2.785  14.979   0.853  1.00  0.00     0.049 A 
ATOM     53  C   UNL     1      -3.024  13.460  -4.537  1.00  0.00     0.074 A 
ATOM     54  C   UNL     1      -2.691  16.334   1.115  1.00  0.00     0.029 A 
ATOM     55  N   UNL     1      -2.856  14.841  -0.525  1.00  0.00    -0.354 N 
ATOM     56  N   UNL     1      -2.960  13.965  -3.328  1.00  0.00    -0.248 NA
ATOM     57  C   UNL     1      -3.080  14.467  -5.607  1.00  0.00     0.031 C 
ATOM     58  C   UNL     1      -2.762  17.019  -0.103  1.00  0.00     0.029 A 
ATOM     59  C   UNL     1      -2.831  16.087  -1.127  1.00  0.00     0.049 A 
ATOM     60  H   UNL     1      -2.914  13.983  -1.005  1.00  0.00     0.167 HD
ATOM     61  C   UNL     1      -2.937  15.347  -3.493  1.00  0.00     0.074 A 
ATOM     62  C   UNL     1      -2.984  15.597  -4.919  1.00  0.00     0.031 C 
ATOM     63  C   UNL     1      -2.877  16.321  -2.550  1.00  0.00     0.031 A 
BRANCH  50  64
ATOM     64  C   UNL     1      -2.788  14.195   3.262  1.00  0.00    -0.014 A 
ATOM     65  C   UNL     1      -1.673  13.869   4.055  1.00  0.00     0.010 A 
ATOM     66  C   UNL     1      -3.890  14.833   3.861  1.00  0.00     0.010 A 
ATOM     67  C   UNL     1      -1.679  14.133   5.427  1.00  0.00     0.020 A 
ATOM     68  C   UNL     1      -3.888  15.126   5.227  1.00  0.00     0.020 A 
ATOM     69  C   UNL     1      -2.789  14.756   6.005  1.00  0.00     0.054 A 
BRANCH  69  70
ATOM     70  S   UNL     1      -2.767  15.094   7.787  1.00  0.00     0.124 S 
ATOM     71  O   UNL     1      -2.929  13.755   8.349  1.00  0.00    -0.237 OA
ATOM     72  O   UNL     1      -1.453  15.701   7.981  1.00  0.00    -0.237 OA
ATOM     73  O   UNL     1      -3.901  15.993   7.984  1.00  0.00    -0.744 OA
ENDBRANCH  69  70
ENDBRANCH  50  64
BRANCH  51  74
ATOM     74  C   UNL     1      -3.135  11.641  -6.400  1.00  0.00    -0.014 A 
ATOM     75  C   UNL     1      -2.060  11.872  -7.276  1.00  0.00     0.010 A 
ATOM     76  C   UNL     1      -4.308  11.047  -6.902  1.00  0.00     0.010 A 
ATOM     77  C   UNL     1      -2.161  11.528  -8.628  1.00  0.00     0.020 A 
ATOM     78  C   UNL     1      -4.403  10.676  -8.246  1.00  0.00     0.020 A 
ATOM     79  C   UNL     1      -3.331  10.929  -9.103  1.00  0.00     0.054 A 
BRANCH  79  80
ATOM     80  S   UNL     1      -3.418  10.442 -10.849  1.00  0.00     0.124 S 
ATOM     81  O   UNL     1      -3.540  11.733 -11.519  1.00  0.00    -0.237 OA
ATOM     82  O   UNL     1      -2.149   9.744 -11.045  1.00  0.00    -0.237 OA
ATOM     83  O   UNL     1      -4.604   9.591 -10.909  1.00  0.00    -0.744 OA
ENDBRANCH  79  80
ENDBRANCH  51  74
BRANCH  63  84
ATOM     84  C   UNL     1      -2.813  17.750  -3.023  1.00  0.00    -0.014 A 
ATOM     85  C   UNL     1      -3.932  18.390  -3.583  1.00  0.00     0.010 A 
ATOM     86  C   UNL     1      -1.625  18.483  -2.842  1.00  0.00     0.010 A 
ATOM     87  C   UNL     1      -3.855  19.729  -3.981  1.00  0.00     0.020 A 
ATOM     88  C   UNL     1      -1.553  19.829  -3.211  1.00  0.00     0.020 A 
ATOM     89  C   UNL     1      -2.666  20.440  -3.791  1.00  0.00     0.054 A 
BRANCH  89  90
ATOM     90  S   UNL     1      -2.606  22.188  -4.271  1.00  0.00     0.124 S 
ATOM     91  O   UNL     1      -2.574  22.103  -5.728  1.00  0.00    -0.237 OA
ATOM     92  O   UNL     1      -3.841  22.720  -3.699  1.00  0.00    -0.237 OA
ATOM     93  O   UNL     1      -1.377  22.677  -3.649  1.00  0.00    -0.744 OA
ENDBRANCH  89  90
ENDBRANCH  63  84
ENDBRANCH  37  38
ENDBRANCH  30  32
ENDBRANCH  29  30
ENDBRANCH  28  29
ENDBRANCH  27  28
ENDBRANCH  26  27
ENDBRANCH   1  26
TORSDOF 23
