REMARK SMILES CC(C)C[C@H](NC(=O)[C@H]1N2C(=O)c3ccccc3[C@@H]2SC1(C)C)C(=O)N[C@@H](C)C(=O)OCCOCCOCCOC(=O)c1ccc(-c2c3nc(c(-c4ccc(S(=O)(=O)[O-])cc4)c4ccc([nH]4)c(-c4ccc(S(=O)(=O)[O-])cc4)c4nc(c(-c5ccc(S(=O)(=O)[O-])cc5)c5ccc2[nH]5)C=C4)C=C3)cc1
REMARK SMILES IDX 35 1 34 2 33 3 32 4 31 5 29 6 30 7 27 8 28 9 26 10 24 11
REMARK SMILES IDX 25 12 5 14 4 15 2 16 1 17 3 18 6 19 7 20 8 22 9 23 10 24
REMARK SMILES IDX 21 25 11 26 19 27 20 28 22 29 23 30 12 31 13 32 18 33 14 34
REMARK SMILES IDX 17 35 15 36 16 37 36 38 37 39 38 40 39 41 40 42 41 43 42 44
REMARK SMILES IDX 43 45 44 46 102 47 45 48 101 49 46 50 47 51 48 52 95 53
REMARK SMILES IDX 49 54 100 55 94 56 96 57 50 58 99 59 93 60 92 61 51 63 81 64
REMARK SMILES IDX 62 65 80 66 63 67 66 68 79 69 97 70 64 71 65 72 78 74 98 75
REMARK SMILES IDX 67 76 52 77 53 78 61 79 54 80 60 81 55 82 56 83 57 84 58 85
REMARK SMILES IDX 59 86 82 87 83 88 91 89 84 90 90 91 85 92 86 93 87 94 88 95
REMARK SMILES IDX 89 96 68 97 69 98 77 99 70 100 76 101 71 102 72 103 73 104
REMARK SMILES IDX 74 105 75 106
REMARK H PARENT 26 13 6 21 96 62 66 73
REMARK Flexibility Score: inf
ROOT
ATOM      1  C   UNL     1      -3.310  -0.280   6.148  1.00  0.00     0.188 C 
ENDROOT
BRANCH   1   2
ATOM      2  O   UNL     1      -3.998  -0.134   7.365  1.00  0.00    -0.376 OA
BRANCH   2   3
ATOM      3  C   UNL     1      -5.120   0.731   7.364  1.00  0.00     0.202 C 
BRANCH   3   4
ATOM      4  C   UNL     1      -5.134   1.985   6.465  1.00  0.00     0.261 C 
BRANCH   4   5
ATOM      5  O   UNL     1      -4.808   1.767   5.060  1.00  0.00    -0.462 OA
BRANCH   5   6
ATOM      6  C   UNL     1      -3.809   2.558   4.560  1.00  0.00     0.328 C 
ATOM      7  O   UNL     1      -3.317   3.490   5.191  1.00  0.00    -0.250 OA
BRANCH   6   8
ATOM      8  C   UNL     1      -3.269   2.159   3.138  1.00  0.00     0.189 C 
ATOM      9  C   UNL     1      -3.378   3.439   2.311  1.00  0.00     0.043 C 
BRANCH   8  10
ATOM     10  N   UNL     1      -3.923   1.059   2.403  1.00  0.00    -0.341 N 
ATOM     11  C   UNL     1      -3.548   0.078   1.532  1.00  0.00     0.243 C 
ATOM     12  O   UNL     1      -4.485  -0.648   1.159  1.00  0.00    -0.273 OA
ATOM     13  H   UNL     1      -4.889   1.023   2.592  1.00  0.00     0.164 HD
BRANCH  11  14
ATOM     14  C   UNL     1      -2.091  -0.371   1.118  1.00  0.00     0.171 C 
BRANCH  14  15
ATOM     15  C   UNL     1      -1.524  -1.443   2.152  1.00  0.00     0.038 C 
BRANCH  15  16
ATOM     16  C   UNL     1      -1.734  -2.987   1.796  1.00  0.00    -0.015 C 
ATOM     17  C   UNL     1      -0.599  -3.750   1.093  1.00  0.00     0.007 C 
ATOM     18  C   UNL     1      -1.881  -3.845   3.045  1.00  0.00     0.007 C 
ENDBRANCH  15  16
ENDBRANCH  14  15
BRANCH  14  19
ATOM     19  N   UNL     1      -1.140   0.702   0.737  1.00  0.00    -0.342 N 
ATOM     20  C   UNL     1      -0.443   0.999  -0.426  1.00  0.00     0.244 C 
ATOM     21  H   UNL     1      -0.967   1.341   1.466  1.00  0.00     0.164 HD
ATOM     22  O   UNL     1       0.165   2.078  -0.398  1.00  0.00    -0.273 OA
BRANCH  20  23
ATOM     23  C   UNL     1      -0.401   0.105  -1.749  1.00  0.00     0.191 C 
ATOM     24  N   UNL     1       0.636   0.509  -2.766  1.00  0.00    -0.309 N 
ATOM     25  C   UNL     1      -0.091  -1.402  -1.491  1.00  0.00     0.042 C 
ATOM     26  C   UNL     1       0.364   0.985  -4.061  1.00  0.00     0.256 C 
ATOM     27  C   UNL     1       1.828  -0.302  -2.791  1.00  0.00     0.176 C 
ATOM     28  S   UNL     1       1.128  -1.960  -2.726  1.00  0.00    -0.123 SA
ATOM     29  C   UNL     1       0.809  -1.573  -0.262  1.00  0.00     0.026 C 
ATOM     30  C   UNL     1      -1.313  -2.283  -1.802  1.00  0.00     0.026 C 
ATOM     31  O   UNL     1      -0.637   1.508  -4.462  1.00  0.00    -0.269 OA
ATOM     32  C   UNL     1       1.519   0.564  -4.925  1.00  0.00     0.046 A 
ATOM     33  C   UNL     1       2.416  -0.137  -4.131  1.00  0.00    -0.002 A 
ATOM     34  C   UNL     1       1.677   0.571  -6.296  1.00  0.00     0.014 A 
ATOM     35  C   UNL     1       3.522  -0.806  -4.641  1.00  0.00     0.007 A 
ATOM     36  C   UNL     1       2.772  -0.131  -6.839  1.00  0.00     0.001 A 
ATOM     37  C   UNL     1       3.691  -0.808  -6.017  1.00  0.00     0.000 A 
ENDBRANCH  20  23
ENDBRANCH  14  19
ENDBRANCH  11  14
ENDBRANCH   8  10
ENDBRANCH   6   8
ENDBRANCH   5   6
ENDBRANCH   4   5
ENDBRANCH   3   4
ENDBRANCH   2   3
ENDBRANCH   1   2
BRANCH   1  38
ATOM     38  C   UNL     1      -4.014  -1.031   5.001  1.00  0.00     0.188 C 
BRANCH  38  39
ATOM     39  O   UNL     1      -5.418  -1.170   5.007  1.00  0.00    -0.376 OA
BRANCH  39  40
ATOM     40  C   UNL     1      -5.951  -2.214   5.820  1.00  0.00     0.202 C 
BRANCH  40  41
ATOM     41  C   UNL     1      -5.168  -3.530   6.008  1.00  0.00     0.261 C 
BRANCH  41  42
ATOM     42  O   UNL     1      -3.814  -3.347   6.492  1.00  0.00    -0.460 OA
BRANCH  42  43
ATOM     43  C   UNL     1      -3.002  -4.423   6.288  1.00  0.00     0.338 C 
ATOM     44  O   UNL     1      -3.390  -5.536   5.963  1.00  0.00    -0.246 OA
BRANCH  43  45
ATOM     45  C   UNL     1      -1.543  -4.084   6.357  1.00  0.00     0.060 A 
ATOM     46  C   UNL     1      -0.609  -5.066   6.670  1.00  0.00     0.016 A 
ATOM     47  C   UNL     1      -1.054  -2.900   5.807  1.00  0.00     0.016 A 
ATOM     48  C   UNL     1       0.767  -4.846   6.432  1.00  0.00     0.010 A 
ATOM     49  C   UNL     1       0.293  -2.710   5.489  1.00  0.00     0.010 A 
ATOM     50  C   UNL     1       1.240  -3.676   5.797  1.00  0.00    -0.014 A 
BRANCH  50  51
ATOM     51  C   UNL     1       2.663  -3.513   5.357  1.00  0.00     0.031 A 
ATOM     52  C   UNL     1       3.476  -2.272   5.674  1.00  0.00     0.074 A 
ATOM     53  C   UNL     1       3.239  -4.457   4.579  1.00  0.00     0.049 A 
ATOM     54  N   UNL     1       4.771  -2.097   5.554  1.00  0.00    -0.248 NA
ATOM     55  C   UNL     1       2.765  -1.060   6.117  1.00  0.00     0.031 C 
ATOM     56  C   UNL     1       2.546  -5.595   3.970  1.00  0.00     0.029 A 
ATOM     57  N   UNL     1       4.550  -4.629   4.188  1.00  0.00    -0.354 N 
ATOM     58  C   UNL     1       5.017  -0.784   5.941  1.00  0.00     0.074 A 
ATOM     59  C   UNL     1       3.735  -0.159   6.148  1.00  0.00     0.031 C 
ATOM     60  C   UNL     1       3.446  -6.399   3.382  1.00  0.00     0.029 A 
ATOM     61  C   UNL     1       4.783  -5.835   3.562  1.00  0.00     0.049 A 
ATOM     62  H   UNL     1       5.251  -3.955   4.340  1.00  0.00     0.167 HD
ATOM     63  C   UNL     1       6.198  -0.174   6.201  1.00  0.00     0.031 A 
ATOM     64  C   UNL     1       5.937  -6.455   3.231  1.00  0.00     0.031 A 
ATOM     65  C   UNL     1       7.475  -0.805   6.025  1.00  0.00     0.049 A 
ATOM     66  C   UNL     1       7.253  -5.813   3.595  1.00  0.00     0.074 A 
ATOM     67  C   UNL     1       8.724  -0.327   6.377  1.00  0.00     0.029 A 
ATOM     68  N   UNL     1       7.667  -2.051   5.452  1.00  0.00    -0.354 N 
ATOM     69  N   UNL     1       7.471  -4.665   4.191  1.00  0.00    -0.248 NA
ATOM     70  C   UNL     1       8.478  -6.562   3.275  1.00  0.00     0.031 C 
ATOM     71  C   UNL     1       9.677  -1.256   5.957  1.00  0.00     0.029 A 
ATOM     72  C   UNL     1       9.016  -2.348   5.416  1.00  0.00     0.049 A 
ATOM     73  H   UNL     1       6.949  -2.637   5.120  1.00  0.00     0.167 HD
ATOM     74  C   UNL     1       8.852  -4.573   4.347  1.00  0.00     0.074 A 
ATOM     75  C   UNL     1       9.419  -5.786   3.799  1.00  0.00     0.031 C 
ATOM     76  C   UNL     1       9.580  -3.568   4.894  1.00  0.00     0.031 A 
BRANCH  63  77
ATOM     77  C   UNL     1       6.165   1.201   6.823  1.00  0.00    -0.014 A 
ATOM     78  C   UNL     1       6.772   2.301   6.191  1.00  0.00     0.010 A 
ATOM     79  C   UNL     1       5.628   1.371   8.115  1.00  0.00     0.010 A 
ATOM     80  C   UNL     1       6.858   3.535   6.845  1.00  0.00     0.020 A 
ATOM     81  C   UNL     1       5.678   2.610   8.755  1.00  0.00     0.020 A 
ATOM     82  C   UNL     1       6.315   3.679   8.125  1.00  0.00     0.054 A 
BRANCH  82  83
ATOM     83  S   UNL     1       6.458   5.276   8.973  1.00  0.00     0.124 S 
ATOM     84  O   UNL     1       7.872   5.308   9.332  1.00  0.00    -0.237 OA
ATOM     85  O   UNL     1       6.044   6.221   7.939  1.00  0.00    -0.237 OA
ATOM     86  O   UNL     1       5.530   5.150  10.095  1.00  0.00    -0.744 OA
ENDBRANCH  82  83
ENDBRANCH  63  77
BRANCH  64  87
ATOM     87  C   UNL     1       5.891  -7.831   2.651  1.00  0.00    -0.014 A 
ATOM     88  C   UNL     1       5.389  -8.058   1.357  1.00  0.00     0.010 A 
ATOM     89  C   UNL     1       6.300  -8.936   3.422  1.00  0.00     0.010 A 
ATOM     90  C   UNL     1       5.255  -9.361   0.864  1.00  0.00     0.020 A 
ATOM     91  C   UNL     1       6.199 -10.238   2.921  1.00  0.00     0.020 A 
ATOM     92  C   UNL     1       5.651 -10.444   1.655  1.00  0.00     0.054 A 
BRANCH  92  93
ATOM     93  S   UNL     1       5.415 -12.126   1.014  1.00  0.00     0.124 S 
ATOM     94  O   UNL     1       3.963 -12.270   1.079  1.00  0.00    -0.237 OA
ATOM     95  O   UNL     1       5.980 -12.035  -0.329  1.00  0.00    -0.237 OA
ATOM     96  O   UNL     1       6.167 -12.959   1.949  1.00  0.00    -0.744 OA
ENDBRANCH  92  93
ENDBRANCH  64  87
BRANCH  76  97
ATOM     97  C   UNL     1      11.081  -3.696   4.957  1.00  0.00    -0.014 A 
ATOM     98  C   UNL     1      11.723  -3.718   6.212  1.00  0.00     0.010 A 
ATOM     99  C   UNL     1      11.862  -3.592   3.793  1.00  0.00     0.010 A 
ATOM    100  C   UNL     1      13.108  -3.566   6.304  1.00  0.00     0.020 A 
ATOM    101  C   UNL     1      13.253  -3.475   3.881  1.00  0.00     0.020 A 
ATOM    102  C   UNL     1      13.862  -3.426   5.137  1.00  0.00     0.054 A 
BRANCH 102 103
ATOM    103  S   UNL     1      15.647  -3.138   5.282  1.00  0.00     0.124 S 
ATOM    104  O   UNL     1      15.698  -1.757   5.753  1.00  0.00    -0.237 OA
ATOM    105  O   UNL     1      16.057  -4.150   6.252  1.00  0.00    -0.237 OA
ATOM    106  O   UNL     1      16.141  -3.352   3.923  1.00  0.00    -0.744 OA
ENDBRANCH 102 103
ENDBRANCH  76  97
ENDBRANCH  50  51
ENDBRANCH  43  45
ENDBRANCH  42  43
ENDBRANCH  41  42
ENDBRANCH  40  41
ENDBRANCH  39  40
ENDBRANCH  38  39
ENDBRANCH   1  38
TORSDOF 26
