REMARK SMILES C[C@@H](Oc1ccc(C(C)(C)C)cc1)C(=O)Oc1cccc(C(=O)OCCOCCOCCOC(=O)c2ccc(-c3c4nc(c(-c5ccc(S(=O)(=O)[O-])cc5)c5ccc([nH]5)c(-c5ccc(S(=O)(=O)[O-])cc5)c5nc(c(-c6ccc(S(=O)(=O)[O-])cc6)c6ccc3[nH]6)C=C5)C=C4)cc2)c1
REMARK SMILES IDX 27 1 26 2 25 3 24 4 22 5 23 6 21 7 17 8 18 9 96 10 19 11
REMARK SMILES IDX 20 12 16 13 14 14 15 15 2 16 1 17 3 18 4 19 5 20 13 21 6 22
REMARK SMILES IDX 12 23 7 24 8 25 9 26 10 27 11 28 28 29 29 30 30 31 31 32
REMARK SMILES IDX 32 33 33 34 34 35 35 36 36 37 37 38 95 39 38 40 94 41 39 42
REMARK SMILES IDX 40 43 41 44 88 45 42 46 93 47 87 48 89 49 43 50 92 51 86 52
REMARK SMILES IDX 85 53 44 55 74 56 55 57 73 58 56 59 59 60 72 61 90 62 57 63
REMARK SMILES IDX 58 64 71 66 91 67 60 68 45 69 46 70 54 71 47 72 53 73 48 74
REMARK SMILES IDX 49 75 50 76 51 77 52 78 75 79 76 80 84 81 77 82 83 83 78 84
REMARK SMILES IDX 79 85 80 86 81 87 82 88 61 89 62 90 70 91 63 92 69 93 64 94
REMARK SMILES IDX 65 95 66 96 67 97 68 98
REMARK H PARENT 89 54 59 65
REMARK Flexibility Score: inf
ROOT
ATOM      1  O   UNL     1      -7.627  -4.596   3.288  1.00  0.00    -0.376 OA
ENDROOT
BRANCH   1   2
ATOM      2  C   UNL     1      -7.044  -5.567   2.436  1.00  0.00     0.202 C 
BRANCH   2   3
ATOM      3  C   UNL     1      -6.295  -5.247   1.131  1.00  0.00     0.261 C 
BRANCH   3   4
ATOM      4  O   UNL     1      -5.502  -4.061   1.136  1.00  0.00    -0.460 OA
BRANCH   4   5
ATOM      5  C   UNL     1      -5.942  -3.054   0.338  1.00  0.00     0.338 C 
ATOM      6  O   UNL     1      -6.918  -3.068  -0.395  1.00  0.00    -0.246 OA
BRANCH   5   7
ATOM      7  C   UNL     1      -5.157  -1.840   0.637  1.00  0.00     0.063 A 
ATOM      8  C   UNL     1      -3.065  -0.769   1.137  1.00  0.00     0.131 A 
ATOM      9  C   UNL     1      -3.721   0.451   1.321  1.00  0.00     0.047 A 
ATOM     10  C   UNL     1      -3.780  -1.925   0.844  1.00  0.00     0.063 A 
ATOM     11  C   UNL     1      -5.105   0.526   1.147  1.00  0.00     0.005 A 
ATOM     12  C   UNL     1      -5.823  -0.615   0.782  1.00  0.00     0.016 A 
BRANCH   8  13
ATOM     13  O   UNL     1      -1.669  -0.773   1.293  1.00  0.00    -0.424 OA
BRANCH  13  14
ATOM     14  C   UNL     1      -0.909  -1.525   0.392  1.00  0.00     0.352 C 
ATOM     15  O   UNL     1      -1.338  -2.253  -0.498  1.00  0.00    -0.247 OA
BRANCH  14  16
ATOM     16  C   UNL     1       0.569  -1.195   0.541  1.00  0.00     0.279 C 
ATOM     17  C   UNL     1       0.770   0.129  -0.198  1.00  0.00     0.066 C 
BRANCH  16  18
ATOM     18  O   UNL     1       0.932  -1.141   1.927  1.00  0.00    -0.479 OA
BRANCH  18  19
ATOM     19  C   UNL     1       2.275  -1.287   2.141  1.00  0.00     0.120 A 
ATOM     20  C   UNL     1       2.736  -2.404   2.828  1.00  0.00     0.047 A 
ATOM     21  C   UNL     1       3.168  -0.283   1.795  1.00  0.00     0.047 A 
ATOM     22  C   UNL     1       4.105  -2.536   3.111  1.00  0.00     0.008 A 
ATOM     23  C   UNL     1       4.532  -0.425   2.053  1.00  0.00     0.008 A 
ATOM     24  C   UNL     1       5.037  -1.556   2.712  1.00  0.00    -0.042 A 
BRANCH  24  25
ATOM     25  C   UNL     1       6.534  -1.695   3.039  1.00  0.00    -0.013 C 
ATOM     26  C   UNL     1       6.730  -1.552   4.562  1.00  0.00     0.016 C 
ATOM     27  C   UNL     1       7.067  -3.068   2.581  1.00  0.00     0.016 C 
ATOM     28  C   UNL     1       7.415  -0.622   2.354  1.00  0.00     0.016 C 
ENDBRANCH  24  25
ENDBRANCH  18  19
ENDBRANCH  16  18
ENDBRANCH  14  16
ENDBRANCH  13  14
ENDBRANCH   8  13
ENDBRANCH   5   7
ENDBRANCH   4   5
ENDBRANCH   3   4
ENDBRANCH   2   3
ENDBRANCH   1   2
BRANCH   1  29
ATOM     29  C   UNL     1      -7.102  -3.286   3.366  1.00  0.00     0.188 C 
BRANCH  29  30
ATOM     30  C   UNL     1      -5.685  -3.066   3.932  1.00  0.00     0.188 C 
BRANCH  30  31
ATOM     31  O   UNL     1      -4.862  -4.187   4.151  1.00  0.00    -0.376 OA
BRANCH  31  32
ATOM     32  C   UNL     1      -5.124  -5.063   5.233  1.00  0.00     0.202 C 
BRANCH  32  33
ATOM     33  C   UNL     1      -6.063  -4.782   6.426  1.00  0.00     0.261 C 
BRANCH  33  34
ATOM     34  O   UNL     1      -7.058  -3.766   6.289  1.00  0.00    -0.460 OA
BRANCH  34  35
ATOM     35  C   UNL     1      -6.804  -2.608   6.949  1.00  0.00     0.338 C 
ATOM     36  O   UNL     1      -5.816  -2.336   7.607  1.00  0.00    -0.246 OA
BRANCH  35  37
ATOM     37  C   UNL     1      -7.847  -1.624   6.601  1.00  0.00     0.060 A 
ATOM     38  C   UNL     1      -7.494  -0.508   5.828  1.00  0.00     0.016 A 
ATOM     39  C   UNL     1      -9.153  -1.782   7.064  1.00  0.00     0.016 A 
ATOM     40  C   UNL     1      -8.447   0.465   5.531  1.00  0.00     0.010 A 
ATOM     41  C   UNL     1     -10.101  -0.794   6.783  1.00  0.00     0.010 A 
ATOM     42  C   UNL     1      -9.746   0.347   6.040  1.00  0.00    -0.014 A 
BRANCH  42  43
ATOM     43  C   UNL     1     -10.690   1.487   5.940  1.00  0.00     0.031 A 
ATOM     44  C   UNL     1     -10.873   2.378   7.139  1.00  0.00     0.074 A 
ATOM     45  C   UNL     1     -11.373   1.731   4.808  1.00  0.00     0.049 A 
ATOM     46  N   UNL     1     -11.684   3.390   7.305  1.00  0.00    -0.248 NA
ATOM     47  C   UNL     1     -10.031   2.080   8.309  1.00  0.00     0.031 C 
ATOM     48  C   UNL     1     -11.253   0.970   3.566  1.00  0.00     0.029 A 
ATOM     49  N   UNL     1     -12.319   2.687   4.529  1.00  0.00    -0.354 N 
ATOM     50  C   UNL     1     -11.464   3.841   8.601  1.00  0.00     0.074 A 
ATOM     51  C   UNL     1     -10.464   2.973   9.186  1.00  0.00     0.031 C 
ATOM     52  C   UNL     1     -12.104   1.482   2.659  1.00  0.00     0.029 A 
ATOM     53  C   UNL     1     -12.857   2.578   3.269  1.00  0.00     0.049 A 
ATOM     54  H   UNL     1     -12.586   3.384   5.171  1.00  0.00     0.167 HD
ATOM     55  C   UNL     1     -12.041   4.882   9.248  1.00  0.00     0.031 A 
ATOM     56  C   UNL     1     -13.860   3.263   2.684  1.00  0.00     0.031 A 
ATOM     57  C   UNL     1     -13.054   5.726   8.670  1.00  0.00     0.049 A 
ATOM     58  C   UNL     1     -14.545   4.368   3.446  1.00  0.00     0.074 A 
ATOM     59  C   UNL     1     -13.688   6.819   9.235  1.00  0.00     0.029 A 
ATOM     60  N   UNL     1     -13.594   5.563   7.402  1.00  0.00    -0.354 N 
ATOM     61  N   UNL     1     -14.306   4.805   4.661  1.00  0.00    -0.248 NA
ATOM     62  C   UNL     1     -15.629   5.080   2.755  1.00  0.00     0.031 C 
ATOM     63  C   UNL     1     -14.660   7.272   8.337  1.00  0.00     0.029 A 
ATOM     64  C   UNL     1     -14.577   6.513   7.180  1.00  0.00     0.049 A 
ATOM     65  H   UNL     1     -13.319   4.874   6.755  1.00  0.00     0.167 HD
ATOM     66  C   UNL     1     -15.189   5.861   4.867  1.00  0.00     0.074 A 
ATOM     67  C   UNL     1     -15.958   6.004   3.648  1.00  0.00     0.031 C 
ATOM     68  C   UNL     1     -15.343   6.645   5.964  1.00  0.00     0.031 A 
BRANCH  55  69
ATOM     69  C   UNL     1     -11.623   5.128  10.675  1.00  0.00    -0.014 A 
ATOM     70  C   UNL     1     -10.329   5.578  10.996  1.00  0.00     0.010 A 
ATOM     71  C   UNL     1     -12.548   4.916  11.714  1.00  0.00     0.010 A 
ATOM     72  C   UNL     1      -9.952   5.756  12.330  1.00  0.00     0.020 A 
ATOM     73  C   UNL     1     -12.186   5.126  13.047  1.00  0.00     0.020 A 
ATOM     74  C   UNL     1     -10.882   5.524  13.348  1.00  0.00     0.054 A 
BRANCH  74  75
ATOM     75  S   UNL     1     -10.365   5.761  15.070  1.00  0.00     0.124 S 
ATOM     76  O   UNL     1      -9.466   4.627  15.273  1.00  0.00    -0.237 OA
ATOM     77  O   UNL     1      -9.722   7.072  15.032  1.00  0.00    -0.237 OA
ATOM     78  O   UNL     1     -11.617   5.705  15.820  1.00  0.00    -0.744 OA
ENDBRANCH  74  75
ENDBRANCH  55  69
BRANCH  56  79
ATOM     79  C   UNL     1     -14.285   2.909   1.301  1.00  0.00    -0.014 A 
ATOM     80  C   UNL     1     -14.041   3.784   0.228  1.00  0.00     0.010 A 
ATOM     81  C   UNL     1     -14.919   1.678   1.047  1.00  0.00     0.010 A 
ATOM     82  C   UNL     1     -14.423   3.435  -1.071  1.00  0.00     0.020 A 
ATOM     83  C   UNL     1     -15.275   1.313  -0.254  1.00  0.00     0.020 A 
ATOM     84  C   UNL     1     -15.029   2.198  -1.306  1.00  0.00     0.054 A 
BRANCH  84  85
ATOM     85  S   UNL     1     -15.443   1.737  -3.011  1.00  0.00     0.124 S 
ATOM     86  O   UNL     1     -16.555   2.634  -3.308  1.00  0.00    -0.237 OA
ATOM     87  O   UNL     1     -14.198   2.017  -3.721  1.00  0.00    -0.237 OA
ATOM     88  O   UNL     1     -15.790   0.322  -2.910  1.00  0.00    -0.744 OA
ENDBRANCH  84  85
ENDBRANCH  56  79
BRANCH  68  89
ATOM     89  C   UNL     1     -16.355   7.761   5.892  1.00  0.00    -0.014 A 
ATOM     90  C   UNL     1     -17.738   7.504   5.879  1.00  0.00     0.010 A 
ATOM     91  C   UNL     1     -15.911   9.097   5.904  1.00  0.00     0.010 A 
ATOM     92  C   UNL     1     -18.654   8.560   5.846  1.00  0.00     0.020 A 
ATOM     93  C   UNL     1     -16.823  10.155   5.904  1.00  0.00     0.020 A 
ATOM     94  C   UNL     1     -18.191   9.880   5.861  1.00  0.00     0.054 A 
BRANCH  94  95
ATOM     95  S   UNL     1     -19.401  11.231   5.864  1.00  0.00     0.124 S 
ATOM     96  O   UNL     1     -19.931  11.169   4.504  1.00  0.00    -0.237 OA
ATOM     97  O   UNL     1     -20.328  10.828   6.919  1.00  0.00    -0.237 OA
ATOM     98  O   UNL     1     -18.599  12.415   6.165  1.00  0.00    -0.744 OA
ENDBRANCH  94  95
ENDBRANCH  68  89
ENDBRANCH  42  43
ENDBRANCH  35  37
ENDBRANCH  34  35
ENDBRANCH  33  34
ENDBRANCH  32  33
ENDBRANCH  31  32
ENDBRANCH  30  31
ENDBRANCH  29  30
ENDBRANCH   1  29
TORSDOF 26
