REMARK SMILES CCCc1n[nH]c(C(=O)N[C@H](C)CC(=O)OCCOCCOCCOC(=O)c2ccc(-c3c4nc(c(-c5ccc(S(=O)(=O)[O-])cc5)c5ccc([nH]5)c(-c5ccc(S(=O)(=O)[O-])cc5)c5nc(c(-c6ccc(S(=O)(=O)[O-])cc6)c6ccc3[nH]6)C=C5)C=C4)cc2)n1
REMARK SMILES IDX 20 1 19 2 18 3 17 4 16 5 14 6 15 7 13 8 11 9 12 10 10 11
REMARK SMILES IDX 8 12 9 13 7 15 4 16 5 17 88 18 6 19 3 21 2 22 1 23 21 24
REMARK SMILES IDX 22 25 23 26 24 27 25 28 26 29 27 30 28 31 29 32 87 33 30 34
REMARK SMILES IDX 86 35 31 36 32 37 33 38 80 39 34 40 85 41 79 42 81 43 35 44
REMARK SMILES IDX 84 45 78 46 77 47 36 49 66 50 47 51 65 52 48 53 51 54 64 55
REMARK SMILES IDX 82 56 49 57 50 58 63 60 83 61 52 62 37 63 38 64 46 65 39 66
REMARK SMILES IDX 45 67 40 68 41 69 42 70 43 71 44 72 67 73 68 74 76 75 69 76
REMARK SMILES IDX 75 77 70 78 71 79 72 80 73 81 74 82 53 83 54 84 62 85 55 86
REMARK SMILES IDX 61 87 56 88 57 89 58 90 59 91 60 92
REMARK H PARENT 10 14 6 20 81 48 51 59
REMARK Flexibility Score: inf
ROOT
ATOM      1  C   UNL     1       3.903  -2.100  -5.254  1.00  0.00     0.188 C 
ENDROOT
BRANCH   1   2
ATOM      2  O   UNL     1       3.903  -2.561  -6.599  1.00  0.00    -0.376 OA
BRANCH   2   3
ATOM      3  C   UNL     1       3.282  -3.826  -6.837  1.00  0.00     0.202 C 
BRANCH   3   4
ATOM      4  C   UNL     1       3.727  -5.001  -5.948  1.00  0.00     0.261 C 
BRANCH   4   5
ATOM      5  O   UNL     1       3.548  -4.752  -4.534  1.00  0.00    -0.463 OA
BRANCH   5   6
ATOM      6  C   UNL     1       4.617  -5.019  -3.737  1.00  0.00     0.307 C 
ATOM      7  O   UNL     1       5.635  -5.583  -4.129  1.00  0.00    -0.252 OA
BRANCH   6   8
ATOM      8  C   UNL     1       4.560  -4.336  -2.381  1.00  0.00     0.147 C 
BRANCH   8   9
ATOM      9  C   UNL     1       3.304  -4.323  -1.486  1.00  0.00     0.090 C 
ATOM     10  C   UNL     1       2.003  -4.987  -1.938  1.00  0.00     0.031 C 
BRANCH   9  11
ATOM     11  N   UNL     1       3.626  -4.688  -0.090  1.00  0.00    -0.346 N 
ATOM     12  C   UNL     1       4.083  -5.890   0.414  1.00  0.00     0.288 C 
ATOM     13  O   UNL     1       4.312  -5.967   1.622  1.00  0.00    -0.266 OA
ATOM     14  H   UNL     1       3.497  -3.973   0.574  1.00  0.00     0.164 HD
BRANCH  12  15
ATOM     15  C   UNL     1       4.294  -7.005  -0.477  1.00  0.00     0.214 A 
ATOM     16  C   UNL     1       4.448  -8.286  -2.154  1.00  0.00     0.151 A 
ATOM     17  N   UNL     1       4.981  -9.025  -1.174  1.00  0.00    -0.158 NA
ATOM     18  N   UNL     1       3.988  -7.065  -1.756  1.00  0.00    -0.207 NA
ATOM     19  N   UNL     1       4.882  -8.184  -0.123  1.00  0.00    -0.255 N 
ATOM     20  H   UNL     1       5.195  -8.395   0.786  1.00  0.00     0.192 HD
BRANCH  16  21
ATOM     21  C   UNL     1       4.363  -8.705  -3.576  1.00  0.00     0.079 C 
BRANCH  21  22
ATOM     22  C   UNL     1       3.010  -9.301  -3.965  1.00  0.00     0.005 C 
ATOM     23  C   UNL     1       1.840  -8.336  -3.819  1.00  0.00     0.004 C 
ENDBRANCH  21  22
ENDBRANCH  16  21
ENDBRANCH  12  15
ENDBRANCH   9  11
ENDBRANCH   8   9
ENDBRANCH   6   8
ENDBRANCH   5   6
ENDBRANCH   4   5
ENDBRANCH   3   4
ENDBRANCH   2   3
ENDBRANCH   1   2
BRANCH   1  24
ATOM     24  C   UNL     1       2.526  -1.903  -4.605  1.00  0.00     0.188 C 
BRANCH  24  25
ATOM     25  O   UNL     1       1.510  -2.801  -5.024  1.00  0.00    -0.376 OA
BRANCH  25  26
ATOM     26  C   UNL     1       0.161  -2.459  -4.703  1.00  0.00     0.202 C 
BRANCH  26  27
ATOM     27  C   UNL     1      -0.350  -1.103  -5.237  1.00  0.00     0.261 C 
BRANCH  27  28
ATOM     28  O   UNL     1       0.335   0.077  -4.764  1.00  0.00    -0.460 OA
BRANCH  28  29
ATOM     29  C   UNL     1       0.550   0.197  -3.430  1.00  0.00     0.338 C 
ATOM     30  O   UNL     1       0.013  -0.453  -2.554  1.00  0.00    -0.246 OA
BRANCH  29  31
ATOM     31  C   UNL     1       1.761   1.045  -3.218  1.00  0.00     0.060 A 
ATOM     32  C   UNL     1       2.656   0.672  -2.202  1.00  0.00     0.016 A 
ATOM     33  C   UNL     1       2.065   2.136  -4.037  1.00  0.00     0.016 A 
ATOM     34  C   UNL     1       3.812   1.423  -1.962  1.00  0.00     0.010 A 
ATOM     35  C   UNL     1       3.218   2.894  -3.790  1.00  0.00     0.010 A 
ATOM     36  C   UNL     1       4.075   2.570  -2.721  1.00  0.00    -0.014 A 
BRANCH  36  37
ATOM     37  C   UNL     1       5.082   3.561  -2.251  1.00  0.00     0.031 A 
ATOM     38  C   UNL     1       4.580   4.763  -1.488  1.00  0.00     0.074 A 
ATOM     39  C   UNL     1       6.404   3.413  -2.458  1.00  0.00     0.049 A 
ATOM     40  N   UNL     1       5.242   5.789  -1.017  1.00  0.00    -0.248 NA
ATOM     41  C   UNL     1       3.132   4.810  -1.224  1.00  0.00     0.031 C 
ATOM     42  C   UNL     1       7.041   2.279  -3.124  1.00  0.00     0.029 A 
ATOM     43  N   UNL     1       7.454   4.238  -2.123  1.00  0.00    -0.354 N 
ATOM     44  C   UNL     1       4.291   6.606  -0.415  1.00  0.00     0.074 A 
ATOM     45  C   UNL     1       3.005   5.975  -0.611  1.00  0.00     0.031 C 
ATOM     46  C   UNL     1       8.372   2.482  -3.153  1.00  0.00     0.029 A 
ATOM     47  C   UNL     1       8.680   3.776  -2.542  1.00  0.00     0.049 A 
ATOM     48  H   UNL     1       7.337   5.081  -1.629  1.00  0.00     0.167 HD
ATOM     49  C   UNL     1       4.466   7.773   0.250  1.00  0.00     0.031 A 
ATOM     50  C   UNL     1       9.905   4.339  -2.460  1.00  0.00     0.031 A 
ATOM     51  C   UNL     1       5.738   8.418   0.433  1.00  0.00     0.049 A 
ATOM     52  C   UNL     1      10.066   5.687  -1.798  1.00  0.00     0.074 A 
ATOM     53  C   UNL     1       6.014   9.603   1.091  1.00  0.00     0.029 A 
ATOM     54  N   UNL     1       6.946   7.938  -0.049  1.00  0.00    -0.354 N 
ATOM     55  N   UNL     1       9.158   6.443  -1.227  1.00  0.00    -0.248 NA
ATOM     56  C   UNL     1      11.424   6.253  -1.762  1.00  0.00     0.031 C 
ATOM     57  C   UNL     1       7.379   9.871   0.955  1.00  0.00     0.029 A 
ATOM     58  C   UNL     1       7.966   8.815   0.278  1.00  0.00     0.049 A 
ATOM     59  H   UNL     1       7.061   7.097  -0.549  1.00  0.00     0.167 HD
ATOM     60  C   UNL     1       9.842   7.550  -0.728  1.00  0.00     0.074 A 
ATOM     61  C   UNL     1      11.239   7.363  -1.061  1.00  0.00     0.031 C 
ATOM     62  C   UNL     1       9.357   8.620  -0.049  1.00  0.00     0.031 A 
BRANCH  49  63
ATOM     63  C   UNL     1       3.233   8.448   0.793  1.00  0.00    -0.014 A 
ATOM     64  C   UNL     1       2.510   7.897   1.867  1.00  0.00     0.010 A 
ATOM     65  C   UNL     1       2.799   9.662   0.228  1.00  0.00     0.010 A 
ATOM     66  C   UNL     1       1.349   8.521   2.332  1.00  0.00     0.020 A 
ATOM     67  C   UNL     1       1.658  10.306   0.713  1.00  0.00     0.020 A 
ATOM     68  C   UNL     1       0.929   9.720   1.749  1.00  0.00     0.054 A 
BRANCH  68  69
ATOM     69  S   UNL     1      -0.577  10.510   2.377  1.00  0.00     0.124 S 
ATOM     70  O   UNL     1      -1.617   9.609   1.885  1.00  0.00    -0.237 OA
ATOM     71  O   UNL     1      -0.367  10.496   3.822  1.00  0.00    -0.237 OA
ATOM     72  O   UNL     1      -0.559  11.834   1.760  1.00  0.00    -0.744 OA
ENDBRANCH  68  69
ENDBRANCH  49  63
BRANCH  50  73
ATOM     73  C   UNL     1      11.092   3.637  -3.030  1.00  0.00    -0.014 A 
ATOM     74  C   UNL     1      12.105   3.141  -2.190  1.00  0.00     0.010 A 
ATOM     75  C   UNL     1      11.225   3.477  -4.422  1.00  0.00     0.010 A 
ATOM     76  C   UNL     1      13.233   2.513  -2.730  1.00  0.00     0.020 A 
ATOM     77  C   UNL     1      12.336   2.823  -4.964  1.00  0.00     0.020 A 
ATOM     78  C   UNL     1      13.338   2.354  -4.114  1.00  0.00     0.054 A 
BRANCH  78  79
ATOM     79  S   UNL     1      14.783   1.486  -4.787  1.00  0.00     0.124 S 
ATOM     80  O   UNL     1      15.852   2.455  -4.564  1.00  0.00    -0.237 OA
ATOM     81  O   UNL     1      14.838   0.282  -3.961  1.00  0.00    -0.237 OA
ATOM     82  O   UNL     1      14.425   1.258  -6.185  1.00  0.00    -0.744 OA
ENDBRANCH  78  79
ENDBRANCH  50  73
BRANCH  62  83
ATOM     83  C   UNL     1      10.343   9.651   0.444  1.00  0.00    -0.014 A 
ATOM     84  C   UNL     1      11.010  10.520  -0.438  1.00  0.00     0.010 A 
ATOM     85  C   UNL     1      10.556   9.791   1.829  1.00  0.00     0.010 A 
ATOM     86  C   UNL     1      11.897  11.483   0.054  1.00  0.00     0.020 A 
ATOM     87  C   UNL     1      11.417  10.774   2.326  1.00  0.00     0.020 A 
ATOM     88  C   UNL     1      12.095  11.604   1.433  1.00  0.00     0.054 A 
BRANCH  88  89
ATOM     89  S   UNL     1      13.221  12.888   2.047  1.00  0.00     0.124 S 
ATOM     90  O   UNL     1      14.526  12.354   1.669  1.00  0.00    -0.237 OA
ATOM     91  O   UNL     1      12.788  14.072   1.310  1.00  0.00    -0.237 OA
ATOM     92  O   UNL     1      12.956  12.924   3.484  1.00  0.00    -0.744 OA
ENDBRANCH  88  89
ENDBRANCH  62  83
ENDBRANCH  36  37
ENDBRANCH  29  31
ENDBRANCH  28  29
ENDBRANCH  27  28
ENDBRANCH  26  27
ENDBRANCH  25  26
ENDBRANCH  24  25
ENDBRANCH   1  24
TORSDOF 25
