REMARK SMILES COc1ccc(Br)c([C@H]2[NH2+][C@H](C(=O)OCCOCCOCCOC(=O)c3ccc(-c4c5nc(c(-c6ccc(S(=O)(=O)[O-])cc6)c6ccc([nH]6)c(-c6ccc(S(=O)(=O)[O-])cc6)c6nc(c(-c7ccc(S(=O)(=O)[O-])cc7)c7ccc4[nH]7)C=C6)C=C5)cc3)CS2)c1O
REMARK SMILES IDX 19 1 18 2 17 3 16 4 15 5 14 6 12 7 13 8 11 9 9 10 10 11
REMARK SMILES IDX 87 12 86 15 8 16 3 17 4 18 88 19 5 20 6 21 7 22 2 23 1 24
REMARK SMILES IDX 89 25 20 27 21 28 22 29 23 30 24 31 25 32 26 33 27 34 85 35
REMARK SMILES IDX 28 36 84 37 29 38 30 39 31 40 78 41 32 42 83 43 77 44 79 45
REMARK SMILES IDX 33 46 82 47 76 48 75 49 34 51 64 52 45 53 63 54 46 55 49 56
REMARK SMILES IDX 62 57 80 58 47 59 48 60 61 62 81 63 50 64 35 65 36 66 44 67
REMARK SMILES IDX 37 68 43 69 38 70 39 71 40 72 41 73 42 74 65 75 66 76 74 77
REMARK SMILES IDX 67 78 73 79 68 80 69 81 70 82 71 83 72 84 51 85 52 86 60 87
REMARK SMILES IDX 53 88 59 89 54 90 55 91 56 92 57 93 58 94
REMARK H PARENT 10 13 10 14 89 26 79 50 49 61
REMARK Flexibility Score: inf
ROOT
ATOM      1  C   UNL     1       4.106   4.359  -0.392  1.00  0.00     0.188 C 
ENDROOT
BRANCH   1   2
ATOM      2  C   UNL     1       4.765   3.527  -1.508  1.00  0.00     0.188 C 
BRANCH   2   3
ATOM      3  O   UNL     1       3.957   2.938  -2.523  1.00  0.00    -0.376 OA
BRANCH   3   4
ATOM      4  C   UNL     1       2.647   2.497  -2.204  1.00  0.00     0.202 C 
BRANCH   4   5
ATOM      5  C   UNL     1       2.464   1.478  -1.064  1.00  0.00     0.261 C 
BRANCH   5   6
ATOM      6  O   UNL     1       3.166   1.748   0.175  1.00  0.00    -0.459 OA
BRANCH   6   7
ATOM      7  C   UNL     1       4.167   0.887   0.486  1.00  0.00     0.365 C 
ATOM      8  O   UNL     1       4.438  -0.102  -0.196  1.00  0.00    -0.245 OA
BRANCH   7   9
ATOM      9  C   UNL     1       4.960   1.157   1.778  1.00  0.00     0.304 C 
ATOM     10  C   UNL     1       3.842   2.588   3.391  1.00  0.00     0.279 C 
ATOM     11  N   UNL     1       4.943   2.507   2.418  1.00  0.00    -0.319 N 
ATOM     12  S   UNL     1       3.401   0.895   3.902  1.00  0.00    -0.087 SA
ATOM     13  H   UNL     1       5.830   2.665   2.897  1.00  0.00     0.348 HD
ATOM     14  H   UNL     1       4.809   3.219   1.699  1.00  0.00     0.348 HD
ATOM     15  C   UNL     1       4.607   0.103   2.811  1.00  0.00     0.153 C 
BRANCH  10  16
ATOM     16  C   UNL     1       4.093   3.605   4.524  1.00  0.00     0.080 A 
ATOM     17  C   UNL     1       4.670   4.213   6.858  1.00  0.00     0.161 A 
ATOM     18  C   UNL     1       4.309   5.535   6.633  1.00  0.00     0.051 A 
ATOM     19  C   UNL     1       4.615   3.277   5.800  1.00  0.00     0.169 A 
ATOM     20  C   UNL     1       3.896   5.922   5.371  1.00  0.00     0.020 A 
ATOM     21  C   UNL     1       3.765   4.971   4.347  1.00  0.00     0.032 A 
ATOM     22  Br  UNL     1       3.059   5.679   2.747  1.00  0.00    -0.050 Br
BRANCH  17  23
ATOM     23  O   UNL     1       4.918   3.932   8.175  1.00  0.00    -0.493 OA
ATOM     24  C   UNL     1       6.061   3.135   8.442  1.00  0.00     0.278 C 
ENDBRANCH  17  23
BRANCH  19  25
ATOM     25  O   UNL     1       5.064   2.009   6.041  1.00  0.00    -0.504 OA
ATOM     26  H   UNL     1       5.411   1.787   6.883  1.00  0.00     0.293 HD
ENDBRANCH  19  25
ENDBRANCH  10  16
ENDBRANCH   7   9
ENDBRANCH   6   7
ENDBRANCH   5   6
ENDBRANCH   4   5
ENDBRANCH   3   4
ENDBRANCH   2   3
ENDBRANCH   1   2
BRANCH   1  27
ATOM     27  O   UNL     1       2.749   4.662  -0.636  1.00  0.00    -0.376 OA
BRANCH  27  28
ATOM     28  C   UNL     1       2.367   6.012  -0.775  1.00  0.00     0.202 C 
BRANCH  28  29
ATOM     29  C   UNL     1       3.045   6.870  -1.848  1.00  0.00     0.261 C 
BRANCH  29  30
ATOM     30  O   UNL     1       4.448   6.656  -2.059  1.00  0.00    -0.460 OA
BRANCH  30  31
ATOM     31  C   UNL     1       5.305   7.240  -1.191  1.00  0.00     0.338 C 
ATOM     32  O   UNL     1       5.015   7.916  -0.214  1.00  0.00    -0.246 OA
BRANCH  31  33
ATOM     33  C   UNL     1       6.668   6.766  -1.519  1.00  0.00     0.060 A 
ATOM     34  C   UNL     1       7.388   6.012  -0.582  1.00  0.00     0.016 A 
ATOM     35  C   UNL     1       7.227   7.063  -2.764  1.00  0.00     0.016 A 
ATOM     36  C   UNL     1       8.684   5.577  -0.879  1.00  0.00     0.010 A 
ATOM     37  C   UNL     1       8.528   6.642  -3.051  1.00  0.00     0.010 A 
ATOM     38  C   UNL     1       9.276   5.923  -2.101  1.00  0.00    -0.014 A 
BRANCH  38  39
ATOM     39  C   UNL     1      10.726   5.695  -2.334  1.00  0.00     0.031 A 
ATOM     40  C   UNL     1      11.669   6.859  -2.180  1.00  0.00     0.074 A 
ATOM     41  C   UNL     1      11.201   4.492  -2.704  1.00  0.00     0.049 A 
ATOM     42  N   UNL     1      12.951   6.929  -2.426  1.00  0.00    -0.248 NA
ATOM     43  C   UNL     1      11.078   8.116  -1.691  1.00  0.00     0.031 C 
ATOM     44  C   UNL     1      10.405   3.277  -2.858  1.00  0.00     0.029 A 
ATOM     45  N   UNL     1      12.477   4.104  -3.038  1.00  0.00    -0.354 N 
ATOM     46  C   UNL     1      13.319   8.239  -2.137  1.00  0.00     0.074 A 
ATOM     47  C   UNL     1      12.118   8.935  -1.729  1.00  0.00     0.031 C 
ATOM     48  C   UNL     1      11.206   2.282  -3.279  1.00  0.00     0.029 A 
ATOM     49  C   UNL     1      12.562   2.799  -3.462  1.00  0.00     0.049 A 
ATOM     50  H   UNL     1      13.255   4.704  -2.979  1.00  0.00     0.167 HD
ATOM     51  C   UNL     1      14.545   8.812  -2.204  1.00  0.00     0.031 A 
ATOM     52  C   UNL     1      13.604   2.109  -3.971  1.00  0.00     0.031 A 
ATOM     53  C   UNL     1      15.734   8.124  -2.635  1.00  0.00     0.049 A 
ATOM     54  C   UNL     1      14.946   2.784  -4.108  1.00  0.00     0.074 A 
ATOM     55  C   UNL     1      17.026   8.612  -2.721  1.00  0.00     0.029 A 
ATOM     56  N   UNL     1      15.775   6.807  -3.069  1.00  0.00    -0.354 N 
ATOM     57  N   UNL     1      15.289   4.013  -3.798  1.00  0.00    -0.248 NA
ATOM     58  C   UNL     1      16.046   1.976  -4.654  1.00  0.00     0.031 C 
ATOM     59  C   UNL     1      17.835   7.612  -3.270  1.00  0.00     0.029 A 
ATOM     60  C   UNL     1      17.064   6.475  -3.454  1.00  0.00     0.049 A 
ATOM     61  H   UNL     1      15.002   6.198  -3.100  1.00  0.00     0.167 HD
ATOM     62  C   UNL     1      16.647   4.114  -4.085  1.00  0.00     0.074 A 
ATOM     63  C   UNL     1      17.067   2.819  -4.579  1.00  0.00     0.031 C 
ATOM     64  C   UNL     1      17.473   5.183  -3.948  1.00  0.00     0.031 A 
BRANCH  51  65
ATOM     65  C   UNL     1      14.647  10.271  -1.841  1.00  0.00    -0.014 A 
ATOM     66  C   UNL     1      14.449  10.715  -0.520  1.00  0.00     0.010 A 
ATOM     67  C   UNL     1      14.960  11.215  -2.837  1.00  0.00     0.010 A 
ATOM     68  C   UNL     1      14.509  12.077  -0.213  1.00  0.00     0.020 A 
ATOM     69  C   UNL     1      15.055  12.575  -2.528  1.00  0.00     0.020 A 
ATOM     70  C   UNL     1      14.806  12.999  -1.221  1.00  0.00     0.054 A 
BRANCH  70  71
ATOM     71  S   UNL     1      14.877  14.760  -0.794  1.00  0.00     0.124 S 
ATOM     72  O   UNL     1      13.468  15.070  -0.561  1.00  0.00    -0.237 OA
ATOM     73  O   UNL     1      15.725  14.767   0.395  1.00  0.00    -0.237 OA
ATOM     74  O   UNL     1      15.462  15.383  -1.979  1.00  0.00    -0.744 OA
ENDBRANCH  70  71
ENDBRANCH  51  65
BRANCH  52  75
ATOM     75  C   UNL     1      13.411   0.701  -4.419  1.00  0.00    -0.014 A 
ATOM     76  C   UNL     1      14.010  -0.366  -3.727  1.00  0.00     0.010 A 
ATOM     77  C   UNL     1      12.610   0.420  -5.542  1.00  0.00     0.010 A 
ATOM     78  C   UNL     1      13.820  -1.685  -4.154  1.00  0.00     0.020 A 
ATOM     79  C   UNL     1      12.392  -0.898  -5.953  1.00  0.00     0.020 A 
ATOM     80  C   UNL     1      13.005  -1.943  -5.260  1.00  0.00     0.054 A 
BRANCH  80  81
ATOM     81  S   UNL     1      12.717  -3.666  -5.751  1.00  0.00     0.124 S 
ATOM     82  O   UNL     1      14.016  -4.049  -6.296  1.00  0.00    -0.237 OA
ATOM     83  O   UNL     1      12.352  -4.295  -4.484  1.00  0.00    -0.237 OA
ATOM     84  O   UNL     1      11.633  -3.569  -6.726  1.00  0.00    -0.744 OA
ENDBRANCH  80  81
ENDBRANCH  52  75
BRANCH  64  85
ATOM     85  C   UNL     1      18.929   4.995  -4.296  1.00  0.00    -0.014 A 
ATOM     86  C   UNL     1      19.355   4.832  -5.627  1.00  0.00     0.010 A 
ATOM     87  C   UNL     1      19.896   5.045  -3.274  1.00  0.00     0.010 A 
ATOM     88  C   UNL     1      20.714   4.690  -5.923  1.00  0.00     0.020 A 
ATOM     89  C   UNL     1      21.258   4.937  -3.569  1.00  0.00     0.020 A 
ATOM     90  C   UNL     1      21.657   4.745  -4.892  1.00  0.00     0.054 A 
BRANCH  90  91
ATOM     91  S   UNL     1      23.418   4.603  -5.309  1.00  0.00     0.124 S 
ATOM     92  O   UNL     1      23.531   3.194  -5.676  1.00  0.00    -0.237 OA
ATOM     93  O   UNL     1      23.563   5.553  -6.409  1.00  0.00    -0.237 OA
ATOM     94  O   UNL     1      24.099   4.981  -4.073  1.00  0.00    -0.744 OA
ENDBRANCH  90  91
ENDBRANCH  64  85
ENDBRANCH  38  39
ENDBRANCH  31  33
ENDBRANCH  30  31
ENDBRANCH  29  30
ENDBRANCH  28  29
ENDBRANCH  27  28
ENDBRANCH   1  27
TORSDOF 23
