REMARK SMILES O=C(Cc1cncnc1N1CCC2(CC1)OCCC[C@@H]2O)OCCOCCOCCOC(=O)c1ccc(-c2c3nc(c(-c4ccc(S(=O)(=O)[O-])cc4)c4ccc([nH]4)c(-c4ccc(S(=O)(=O)[O-])cc4)c4nc(c(-c5ccc(S(=O)(=O)[O-])cc5)c5ccc2[nH]5)C=C4)C=C3)cc1
REMARK SMILES IDX 26 1 25 2 24 3 23 4 22 5 2 6 1 7 3 8 4 9 5 10 9 11 6 12 8 13
REMARK SMILES IDX 7 14 10 15 11 16 15 17 12 18 14 19 13 20 16 21 20 22 17 23
REMARK SMILES IDX 19 24 18 25 21 26 27 28 28 29 29 30 30 31 31 32 32 33 33 34
REMARK SMILES IDX 34 35 35 36 93 37 36 38 92 39 37 40 38 41 39 42 86 43 40 44
REMARK SMILES IDX 91 45 85 46 87 47 41 48 90 49 84 50 83 51 42 53 72 54 53 55
REMARK SMILES IDX 71 56 54 57 57 58 70 59 88 60 55 61 56 62 69 64 89 65 58 66
REMARK SMILES IDX 43 67 44 68 52 69 45 70 51 71 46 72 47 73 48 74 49 75 50 76
REMARK SMILES IDX 73 77 74 78 82 79 75 80 81 81 76 82 77 83 78 84 79 85 80 86
REMARK SMILES IDX 59 87 60 88 68 89 61 90 67 91 62 92 63 93 64 94 65 95 66 96
REMARK H PARENT 21 27 87 52 57 63
REMARK Flexibility Score: inf
ROOT
ATOM      1  C   UNL     1       1.890   0.310   2.553  1.00  0.00     0.188 C 
ENDROOT
BRANCH   1   2
ATOM      2  O   UNL     1       3.127  -0.352   2.332  1.00  0.00    -0.376 OA
BRANCH   2   3
ATOM      3  C   UNL     1       3.873   0.136   1.226  1.00  0.00     0.202 C 
BRANCH   3   4
ATOM      4  C   UNL     1       3.019   0.710   0.084  1.00  0.00     0.261 C 
BRANCH   4   5
ATOM      5  O   UNL     1       1.889  -0.044  -0.353  1.00  0.00    -0.463 OA
BRANCH   5   6
ATOM      6  C   UNL     1       2.092  -1.016  -1.266  1.00  0.00     0.310 C 
ATOM      7  O   UNL     1       1.341  -1.147  -2.226  1.00  0.00    -0.252 OA
BRANCH   6   8
ATOM      8  C   UNL     1       3.119  -2.033  -0.888  1.00  0.00     0.163 C 
BRANCH   8   9
ATOM      9  C   UNL     1       4.355  -2.167  -1.735  1.00  0.00     0.024 A 
ATOM     10  C   UNL     1       4.712  -3.493  -1.978  1.00  0.00     0.121 A 
ATOM     11  C   UNL     1       5.243  -1.206  -2.246  1.00  0.00     0.135 A 
ATOM     12  N   UNL     1       5.769  -3.885  -2.695  1.00  0.00    -0.244 NA
ATOM     13  N   UNL     1       6.313  -1.580  -2.978  1.00  0.00    -0.219 NA
ATOM     14  C   UNL     1       6.510  -2.892  -3.177  1.00  0.00     0.224 A 
BRANCH  11  15
ATOM     15  N   UNL     1       5.107   0.177  -2.056  1.00  0.00    -0.356 N 
ATOM     16  C   UNL     1       4.845   0.918  -3.301  1.00  0.00     0.121 C 
ATOM     17  C   UNL     1       6.217   0.832  -1.330  1.00  0.00     0.121 C 
ATOM     18  C   UNL     1       4.237   2.281  -2.955  1.00  0.00     0.060 C 
ATOM     19  C   UNL     1       5.803   2.248  -0.876  1.00  0.00     0.060 C 
ATOM     20  C   UNL     1       5.023   3.120  -1.905  1.00  0.00     0.097 C 
ATOM     21  O   UNL     1       6.051   3.918  -2.540  1.00  0.00    -0.372 OA
ATOM     22  C   UNL     1       4.007   4.064  -1.151  1.00  0.00     0.146 C 
ATOM     23  C   UNL     1       5.631   5.044  -3.310  1.00  0.00     0.161 C 
ATOM     24  C   UNL     1       3.473   5.168  -2.059  1.00  0.00     0.037 C 
ATOM     25  C   UNL     1       4.641   5.965  -2.610  1.00  0.00     0.031 C 
BRANCH  22  26
ATOM     26  O   UNL     1       4.603   4.711  -0.019  1.00  0.00    -0.390 OA
ATOM     27  H   UNL     1       5.319   5.292  -0.319  1.00  0.00     0.211 HD
ENDBRANCH  22  26
ENDBRANCH  11  15
ENDBRANCH   8   9
ENDBRANCH   6   8
ENDBRANCH   5   6
ENDBRANCH   4   5
ENDBRANCH   3   4
ENDBRANCH   2   3
ENDBRANCH   1   2
BRANCH   1  28
ATOM     28  C   UNL     1       1.927   1.839   2.772  1.00  0.00     0.188 C 
BRANCH  28  29
ATOM     29  O   UNL     1       3.167   2.460   2.408  1.00  0.00    -0.376 OA
BRANCH  29  30
ATOM     30  C   UNL     1       3.779   3.242   3.425  1.00  0.00     0.202 C 
BRANCH  30  31
ATOM     31  C   UNL     1       4.671   2.458   4.398  1.00  0.00     0.261 C 
BRANCH  31  32
ATOM     32  O   UNL     1       4.136   1.218   4.863  1.00  0.00    -0.460 OA
BRANCH  32  33
ATOM     33  C   UNL     1       3.086   1.297   5.713  1.00  0.00     0.338 C 
ATOM     34  O   UNL     1       2.539   2.303   6.102  1.00  0.00    -0.246 OA
BRANCH  33  35
ATOM     35  C   UNL     1       2.590  -0.080   5.921  1.00  0.00     0.060 A 
ATOM     36  C   UNL     1       1.224  -0.325   5.737  1.00  0.00     0.016 A 
ATOM     37  C   UNL     1       3.467  -1.119   6.250  1.00  0.00     0.016 A 
ATOM     38  C   UNL     1       0.734  -1.621   5.843  1.00  0.00     0.010 A 
ATOM     39  C   UNL     1       2.962  -2.403   6.447  1.00  0.00     0.010 A 
ATOM     40  C   UNL     1       1.589  -2.643   6.276  1.00  0.00    -0.014 A 
BRANCH  40  41
ATOM     41  C   UNL     1       0.958  -3.801   6.938  1.00  0.00     0.031 A 
ATOM     42  C   UNL     1       0.531  -3.585   8.366  1.00  0.00     0.074 A 
ATOM     43  C   UNL     1       0.715  -4.953   6.295  1.00  0.00     0.049 A 
ATOM     44  N   UNL     1      -0.133  -4.375   9.165  1.00  0.00    -0.248 NA
ATOM     45  C   UNL     1       0.890  -2.285   8.968  1.00  0.00     0.031 C 
ATOM     46  C   UNL     1       1.042  -5.237   4.898  1.00  0.00     0.029 A 
ATOM     47  N   UNL     1       0.116  -6.101   6.743  1.00  0.00    -0.354 N 
ATOM     48  C   UNL     1      -0.276  -3.663  10.351  1.00  0.00     0.074 A 
ATOM     49  C   UNL     1       0.385  -2.393  10.183  1.00  0.00     0.031 C 
ATOM     50  C   UNL     1       0.636  -6.486   4.603  1.00  0.00     0.029 A 
ATOM     51  C   UNL     1       0.041  -7.091   5.794  1.00  0.00     0.049 A 
ATOM     52  H   UNL     1      -0.229  -6.206   7.659  1.00  0.00     0.167 HD
ATOM     53  C   UNL     1      -0.902  -4.039  11.488  1.00  0.00     0.031 A 
ATOM     54  C   UNL     1      -0.454  -8.340   5.892  1.00  0.00     0.031 A 
ATOM     55  C   UNL     1      -1.502  -5.330  11.660  1.00  0.00     0.049 A 
ATOM     56  C   UNL     1      -1.071  -8.770   7.201  1.00  0.00     0.074 A 
ATOM     57  C   UNL     1      -2.153  -5.836  12.768  1.00  0.00     0.029 A 
ATOM     58  N   UNL     1      -1.502  -6.328  10.696  1.00  0.00    -0.354 N 
ATOM     59  N   UNL     1      -1.229  -8.081   8.308  1.00  0.00    -0.248 NA
ATOM     60  C   UNL     1      -1.594 -10.141   7.266  1.00  0.00     0.031 C 
ATOM     61  C   UNL     1      -2.487  -7.167  12.497  1.00  0.00     0.029 A 
ATOM     62  C   UNL     1      -2.119  -7.460  11.192  1.00  0.00     0.049 A 
ATOM     63  H   UNL     1      -1.119  -6.242   9.793  1.00  0.00     0.167 HD
ATOM     64  C   UNL     1      -1.912  -8.918   9.185  1.00  0.00     0.074 A 
ATOM     65  C   UNL     1      -2.139 -10.162   8.475  1.00  0.00     0.031 C 
ATOM     66  C   UNL     1      -2.327  -8.682  10.456  1.00  0.00     0.031 A 
BRANCH  53  67
ATOM     67  C   UNL     1      -0.888  -3.066  12.635  1.00  0.00    -0.014 A 
ATOM     68  C   UNL     1      -1.611  -1.858  12.585  1.00  0.00     0.010 A 
ATOM     69  C   UNL     1      -0.123  -3.358  13.777  1.00  0.00     0.010 A 
ATOM     70  C   UNL     1      -1.535  -0.946  13.641  1.00  0.00     0.020 A 
ATOM     71  C   UNL     1      -0.071  -2.464  14.848  1.00  0.00     0.020 A 
ATOM     72  C   UNL     1      -0.764  -1.255  14.766  1.00  0.00     0.054 A 
BRANCH  72  73
ATOM     73  S   UNL     1      -0.701  -0.064  16.131  1.00  0.00     0.124 S 
ATOM     74  O   UNL     1       0.105   1.011  15.557  1.00  0.00    -0.237 OA
ATOM     75  O   UNL     1      -2.111   0.253  16.344  1.00  0.00    -0.237 OA
ATOM     76  O   UNL     1      -0.062  -0.809  17.213  1.00  0.00    -0.744 OA
ENDBRANCH  72  73
ENDBRANCH  53  67
BRANCH  54  77
ATOM     77  C   UNL     1      -0.398  -9.266   4.726  1.00  0.00    -0.014 A 
ATOM     78  C   UNL     1      -1.575  -9.678   4.075  1.00  0.00     0.010 A 
ATOM     79  C   UNL     1       0.840  -9.748   4.261  1.00  0.00     0.010 A 
ATOM     80  C   UNL     1      -1.516 -10.568   2.996  1.00  0.00     0.020 A 
ATOM     81  C   UNL     1       0.905 -10.615   3.165  1.00  0.00     0.020 A 
ATOM     82  C   UNL     1      -0.276 -11.027   2.546  1.00  0.00     0.054 A 
BRANCH  82  83
ATOM     83  S   UNL     1      -0.223 -12.143   1.115  1.00  0.00     0.124 S 
ATOM     84  O   UNL     1      -0.777 -13.374   1.668  1.00  0.00    -0.237 OA
ATOM     85  O   UNL     1      -1.066 -11.448   0.145  1.00  0.00    -0.237 OA
ATOM     86  O   UNL     1       1.196 -12.193   0.773  1.00  0.00    -0.744 OA
ENDBRANCH  82  83
ENDBRANCH  54  77
BRANCH  66  87
ATOM     87  C   UNL     1      -3.126  -9.764  11.135  1.00  0.00    -0.014 A 
ATOM     88  C   UNL     1      -2.542 -10.979  11.531  1.00  0.00     0.010 A 
ATOM     89  C   UNL     1      -4.484  -9.528  11.422  1.00  0.00     0.010 A 
ATOM     90  C   UNL     1      -3.317 -11.961  12.154  1.00  0.00     0.020 A 
ATOM     91  C   UNL     1      -5.251 -10.491  12.078  1.00  0.00     0.020 A 
ATOM     92  C   UNL     1      -4.667 -11.711  12.420  1.00  0.00     0.054 A 
BRANCH  92  93
ATOM     93  S   UNL     1      -5.648 -12.994  13.242  1.00  0.00     0.124 S 
ATOM     94  O   UNL     1      -5.809 -13.981  12.177  1.00  0.00    -0.237 OA
ATOM     95  O   UNL     1      -4.784 -13.398  14.348  1.00  0.00    -0.237 OA
ATOM     96  O   UNL     1      -6.871 -12.298  13.636  1.00  0.00    -0.744 OA
ENDBRANCH  92  93
ENDBRANCH  66  87
ENDBRANCH  40  41
ENDBRANCH  33  35
ENDBRANCH  32  33
ENDBRANCH  31  32
ENDBRANCH  30  31
ENDBRANCH  29  30
ENDBRANCH  28  29
ENDBRANCH   1  28
TORSDOF 23
