REMARK SMILES C/C(=N/OCc1ccccc1Nc1c(Cl)cccc1Cl)C(=O)OCCOCCOCCOC(=O)c1ccc(-c2c3nc(c(-c4ccc(S(=O)(=O)[O-])cc4)c4ccc([nH]4)c(-c4ccc(S(=O)(=O)[O-])cc4)c4nc(c(-c5ccc(S(=O)(=O)[O-])cc5)c5ccc2[nH]5)C=C4)C=C3)cc1
REMARK SMILES IDX 27 1 26 2 25 3 24 4 23 5 21 6 22 7 2 8 1 9 3 10 4 11 5 12
REMARK SMILES IDX 6 13 7 14 11 15 8 16 10 17 9 18 12 19 13 21 14 22 19 23
REMARK SMILES IDX 15 24 16 25 18 26 20 27 17 28 28 29 29 30 30 31 31 32 32 33
REMARK SMILES IDX 33 34 34 35 35 36 36 37 94 38 37 39 93 40 38 41 39 42 40 43
REMARK SMILES IDX 87 44 41 45 92 46 86 47 88 48 42 49 91 50 85 51 84 52 43 54
REMARK SMILES IDX 73 55 54 56 72 57 55 58 58 59 71 60 89 61 56 62 57 63 70 65
REMARK SMILES IDX 90 66 59 67 44 68 45 69 53 70 46 71 52 72 47 73 48 74 49 75
REMARK SMILES IDX 50 76 51 77 74 78 75 79 83 80 76 81 82 82 77 83 78 84 79 85
REMARK SMILES IDX 80 86 81 87 60 88 61 89 69 90 62 91 68 92 63 93 64 94 65 95
REMARK SMILES IDX 66 96 67 97
REMARK H PARENT 12 20 88 53 58 64
REMARK Flexibility Score: inf
ROOT
ATOM      1  C   UNL     1       0.418   1.542  -3.400  1.00  0.00     0.188 C 
ENDROOT
BRANCH   1   2
ATOM      2  O   UNL     1       1.095   1.601  -4.654  1.00  0.00    -0.376 OA
BRANCH   2   3
ATOM      3  C   UNL     1       1.220   0.410  -5.427  1.00  0.00     0.202 C 
BRANCH   3   4
ATOM      4  C   UNL     1       1.854  -0.799  -4.733  1.00  0.00     0.261 C 
BRANCH   4   5
ATOM      5  O   UNL     1       1.100  -1.166  -3.572  1.00  0.00    -0.459 OA
BRANCH   5   6
ATOM      6  C   UNL     1       1.794  -1.579  -2.498  1.00  0.00     0.355 C 
ATOM      7  O   UNL     1       2.976  -1.876  -2.444  1.00  0.00    -0.245 OA
BRANCH   6   8
ATOM      8  C   UNL     1       0.930  -1.471  -1.248  1.00  0.00     0.161 C 
ATOM      9  C   UNL     1       1.431  -0.545  -0.177  1.00  0.00     0.079 C 
ATOM     10  N   UNL     1      -0.214  -2.068  -1.083  1.00  0.00    -0.084 NA
BRANCH  10  11
ATOM     11  O   UNL     1      -0.544  -2.863  -2.193  1.00  0.00    -0.390 OA
BRANCH  11  12
ATOM     12  C   UNL     1      -1.451  -3.894  -1.782  1.00  0.00     0.302 C 
BRANCH  12  13
ATOM     13  C   UNL     1      -0.745  -5.054  -1.106  1.00  0.00     0.016 A 
ATOM     14  C   UNL     1       0.659  -5.163  -1.186  1.00  0.00     0.009 A 
ATOM     15  C   UNL     1      -1.472  -6.037  -0.400  1.00  0.00     0.045 A 
ATOM     16  C   UNL     1       1.349  -6.172  -0.523  1.00  0.00     0.001 A 
ATOM     17  C   UNL     1      -0.753  -7.051   0.257  1.00  0.00     0.026 A 
ATOM     18  C   UNL     1       0.641  -7.114   0.207  1.00  0.00     0.002 A 
BRANCH  15  19
ATOM     19  N   UNL     1      -2.882  -5.966  -0.318  1.00  0.00    -0.353 N 
ATOM     20  H   UNL     1      -3.303  -5.296  -0.904  1.00  0.00     0.167 HD
BRANCH  19  21
ATOM     21  C   UNL     1      -3.782  -6.715   0.481  1.00  0.00     0.076 A 
ATOM     22  C   UNL     1      -4.780  -7.489  -0.150  1.00  0.00     0.066 A 
ATOM     23  C   UNL     1      -3.686  -6.805   1.884  1.00  0.00     0.066 A 
ATOM     24  Cl  UNL     1      -5.000  -7.420  -1.868  1.00  0.00    -0.082 Cl
ATOM     25  C   UNL     1      -5.614  -8.344   0.577  1.00  0.00     0.023 A 
ATOM     26  C   UNL     1      -4.521  -7.665   2.611  1.00  0.00     0.023 A 
ATOM     27  Cl  UNL     1      -2.611  -5.806   2.804  1.00  0.00    -0.082 Cl
ATOM     28  C   UNL     1      -5.476  -8.441   1.958  1.00  0.00     0.003 A 
ENDBRANCH  19  21
ENDBRANCH  15  19
ENDBRANCH  12  13
ENDBRANCH  11  12
ENDBRANCH  10  11
ENDBRANCH   6   8
ENDBRANCH   5   6
ENDBRANCH   4   5
ENDBRANCH   3   4
ENDBRANCH   2   3
ENDBRANCH   1   2
BRANCH   1  29
ATOM     29  C   UNL     1      -0.959   0.849  -3.315  1.00  0.00     0.188 C 
BRANCH  29  30
ATOM     30  O   UNL     1      -1.491   0.468  -4.574  1.00  0.00    -0.376 OA
BRANCH  30  31
ATOM     31  C   UNL     1      -2.673   1.150  -4.966  1.00  0.00     0.202 C 
BRANCH  31  32
ATOM     32  C   UNL     1      -2.461   2.616  -5.369  1.00  0.00     0.261 C 
BRANCH  32  33
ATOM     33  O   UNL     1      -1.851   3.451  -4.368  1.00  0.00    -0.460 OA
BRANCH  33  34
ATOM     34  C   UNL     1      -2.586   3.712  -3.264  1.00  0.00     0.338 C 
ATOM     35  O   UNL     1      -3.714   3.316  -3.031  1.00  0.00    -0.246 OA
BRANCH  34  36
ATOM     36  C   UNL     1      -1.727   4.414  -2.283  1.00  0.00     0.060 A 
ATOM     37  C   UNL     1      -1.612   3.887  -0.991  1.00  0.00     0.016 A 
ATOM     38  C   UNL     1      -1.063   5.596  -2.624  1.00  0.00     0.016 A 
ATOM     39  C   UNL     1      -0.885   4.577  -0.018  1.00  0.00     0.010 A 
ATOM     40  C   UNL     1      -0.347   6.294  -1.644  1.00  0.00     0.010 A 
ATOM     41  C   UNL     1      -0.295   5.812  -0.324  1.00  0.00    -0.014 A 
BRANCH  41  42
ATOM     42  C   UNL     1       0.158   6.695   0.782  1.00  0.00     0.031 A 
ATOM     43  C   UNL     1      -0.803   7.736   1.300  1.00  0.00     0.074 A 
ATOM     44  C   UNL     1       1.367   6.556   1.355  1.00  0.00     0.049 A 
ATOM     45  N   UNL     1      -0.659   8.585   2.284  1.00  0.00    -0.248 NA
ATOM     46  C   UNL     1      -2.103   7.827   0.613  1.00  0.00     0.031 C 
ATOM     47  C   UNL     1       2.382   5.576   0.972  1.00  0.00     0.029 A 
ATOM     48  N   UNL     1       1.942   7.248   2.393  1.00  0.00    -0.354 N 
ATOM     49  C   UNL     1      -1.847   9.307   2.336  1.00  0.00     0.074 A 
ATOM     50  C   UNL     1      -2.685   8.823   1.262  1.00  0.00     0.031 C 
ATOM     51  C   UNL     1       3.457   5.729   1.768  1.00  0.00     0.029 A 
ATOM     52  C   UNL     1       3.214   6.827   2.703  1.00  0.00     0.049 A 
ATOM     53  H   UNL     1       1.486   7.978   2.871  1.00  0.00     0.167 HD
ATOM     54  C   UNL     1      -2.217  10.278   3.204  1.00  0.00     0.031 A 
ATOM     55  C   UNL     1       4.082   7.278   3.632  1.00  0.00     0.031 A 
ATOM     56  C   UNL     1      -1.382  10.780   4.262  1.00  0.00     0.049 A 
ATOM     57  C   UNL     1       3.668   8.397   4.555  1.00  0.00     0.074 A 
ATOM     58  C   UNL     1      -1.670  11.758   5.197  1.00  0.00     0.029 A 
ATOM     59  N   UNL     1      -0.090  10.347   4.521  1.00  0.00    -0.354 N 
ATOM     60  N   UNL     1       2.529   9.046   4.611  1.00  0.00    -0.248 NA
ATOM     61  C   UNL     1       4.657   8.832   5.553  1.00  0.00     0.031 C 
ATOM     62  C   UNL     1      -0.534  11.951   5.992  1.00  0.00     0.029 A 
ATOM     63  C   UNL     1       0.439  11.051   5.588  1.00  0.00     0.049 A 
ATOM     64  H   UNL     1       0.381   9.643   4.019  1.00  0.00     0.167 HD
ATOM     65  C   UNL     1       2.653   9.942   5.670  1.00  0.00     0.074 A 
ATOM     66  C   UNL     1       3.972   9.740   6.234  1.00  0.00     0.031 C 
ATOM     67  C   UNL     1       1.756  10.846   6.137  1.00  0.00     0.031 A 
BRANCH  54  68
ATOM     68  C   UNL     1      -3.584  10.881   3.019  1.00  0.00    -0.014 A 
ATOM     69  C   UNL     1      -4.748  10.153   3.328  1.00  0.00     0.010 A 
ATOM     70  C   UNL     1      -3.707  12.198   2.542  1.00  0.00     0.010 A 
ATOM     71  C   UNL     1      -6.010  10.716   3.124  1.00  0.00     0.020 A 
ATOM     72  C   UNL     1      -4.967  12.775   2.362  1.00  0.00     0.020 A 
ATOM     73  C   UNL     1      -6.111  12.023   2.636  1.00  0.00     0.054 A 
BRANCH  73  74
ATOM     74  S   UNL     1      -7.761  12.736   2.391  1.00  0.00     0.124 S 
ATOM     75  O   UNL     1      -8.214  12.038   1.190  1.00  0.00    -0.237 OA
ATOM     76  O   UNL     1      -8.454  12.376   3.625  1.00  0.00    -0.237 OA
ATOM     77  O   UNL     1      -7.500  14.163   2.220  1.00  0.00    -0.744 OA
ENDBRANCH  73  74
ENDBRANCH  54  68
BRANCH  55  78
ATOM     78  C   UNL     1       5.437   6.670   3.745  1.00  0.00    -0.014 A 
ATOM     79  C   UNL     1       5.784   5.884   4.858  1.00  0.00     0.010 A 
ATOM     80  C   UNL     1       6.398   6.894   2.742  1.00  0.00     0.010 A 
ATOM     81  C   UNL     1       7.071   5.350   4.976  1.00  0.00     0.020 A 
ATOM     82  C   UNL     1       7.677   6.340   2.843  1.00  0.00     0.020 A 
ATOM     83  C   UNL     1       8.010   5.581   3.966  1.00  0.00     0.054 A 
BRANCH  83  84
ATOM     84  S   UNL     1       9.660   4.839   4.115  1.00  0.00     0.124 S 
ATOM     85  O   UNL     1      10.281   5.681   5.133  1.00  0.00    -0.237 OA
ATOM     86  O   UNL     1       9.355   3.470   4.525  1.00  0.00    -0.237 OA
ATOM     87  O   UNL     1      10.215   4.969   2.770  1.00  0.00    -0.744 OA
ENDBRANCH  83  84
ENDBRANCH  55  78
BRANCH  67  88
ATOM     88  C   UNL     1       2.154  11.657   7.343  1.00  0.00    -0.014 A 
ATOM     89  C   UNL     1       3.132  12.664   7.261  1.00  0.00     0.010 A 
ATOM     90  C   UNL     1       1.518  11.421   8.576  1.00  0.00     0.010 A 
ATOM     91  C   UNL     1       3.505  13.383   8.401  1.00  0.00     0.020 A 
ATOM     92  C   UNL     1       1.867  12.156   9.712  1.00  0.00     0.020 A 
ATOM     93  C   UNL     1       2.875  13.118   9.622  1.00  0.00     0.054 A 
BRANCH  93  94
ATOM     94  S   UNL     1       3.371  14.063  11.088  1.00  0.00     0.124 S 
ATOM     95  O   UNL     1       4.642  13.436  11.438  1.00  0.00    -0.237 OA
ATOM     96  O   UNL     1       3.463  15.429  10.577  1.00  0.00    -0.237 OA
ATOM     97  O   UNL     1       2.281  13.832  12.034  1.00  0.00    -0.744 OA
ENDBRANCH  93  94
ENDBRANCH  67  88
ENDBRANCH  41  42
ENDBRANCH  34  36
ENDBRANCH  33  34
ENDBRANCH  32  33
ENDBRANCH  31  32
ENDBRANCH  30  31
ENDBRANCH  29  30
ENDBRANCH   1  29
TORSDOF 25
