REMARK SMILES COc1ccc2c(CC(=O)OCCOCCOCCOC(=O)c3ccc(-c4c5nc(c(-c6ccc(S(=O)(=O)[O-])cc6)c6ccc([nH]6)c(-c6ccc(S(=O)(=O)[O-])cc6)c6nc(c(-c7ccc(S(=O)(=O)[O-])cc7)c7ccc4[nH]7)C=C6)C=C5)cc3)c(C(=O)c3cc(C)ccn3)[nH]c2c1
REMARK SMILES IDX 15 1 14 2 13 3 12 4 11 5 9 6 10 7 8 8 7 9 3 10 4 11 95 12
REMARK SMILES IDX 5 13 94 14 6 15 93 16 83 17 2 19 1 20 84 21 85 22 86 23
REMARK SMILES IDX 87 24 92 25 88 26 91 27 89 28 90 29 16 30 17 31 18 32 19 33
REMARK SMILES IDX 20 34 21 35 22 36 23 37 24 38 82 39 25 40 81 41 26 42 27 43
REMARK SMILES IDX 28 44 75 45 29 46 80 47 74 48 76 49 30 50 79 51 73 52 72 53
REMARK SMILES IDX 31 55 61 56 42 57 60 58 43 59 46 60 59 61 77 62 44 63 45 64
REMARK SMILES IDX 58 66 78 67 47 68 32 69 33 70 41 71 34 72 40 73 35 74 36 75
REMARK SMILES IDX 37 76 38 77 39 78 62 79 63 80 71 81 64 82 70 83 65 84 66 85
REMARK SMILES IDX 67 86 68 87 69 88 48 89 49 90 57 91 50 92 56 93 51 94 52 95
REMARK SMILES IDX 53 96 54 97 55 98
REMARK H PARENT 93 18 76 54 46 65
REMARK Flexibility Score: inf
ROOT
ATOM      1  C   UNL     1       2.574   9.109  -4.222  1.00  0.00     0.188 C 
ENDROOT
BRANCH   1   2
ATOM      2  O   UNL     1       3.706   9.271  -5.074  1.00  0.00    -0.376 OA
BRANCH   2   3
ATOM      3  C   UNL     1       4.343   8.104  -5.577  1.00  0.00     0.202 C 
BRANCH   3   4
ATOM      4  C   UNL     1       4.874   7.113  -4.532  1.00  0.00     0.261 C 
BRANCH   4   5
ATOM      5  O   UNL     1       3.835   6.643  -3.646  1.00  0.00    -0.463 OA
BRANCH   5   6
ATOM      6  C   UNL     1       4.157   6.508  -2.333  1.00  0.00     0.310 C 
ATOM      7  O   UNL     1       5.314   6.493  -1.923  1.00  0.00    -0.252 OA
BRANCH   6   8
ATOM      8  C   UNL     1       2.953   6.561  -1.393  1.00  0.00     0.161 C 
BRANCH   8   9
ATOM      9  C   UNL     1       1.765   5.670  -1.689  1.00  0.00     0.000 A 
ATOM     10  C   UNL     1       1.128   1.528  -1.497  1.00  0.00     0.120 A 
ATOM     11  C   UNL     1       2.458   1.926  -1.388  1.00  0.00     0.047 A 
ATOM     12  C   UNL     1       0.124   2.439  -1.826  1.00  0.00     0.073 A 
ATOM     13  C   UNL     1       2.810   3.277  -1.513  1.00  0.00     0.014 A 
ATOM     14  C   UNL     1       0.490   3.787  -1.897  1.00  0.00     0.050 A 
ATOM     15  C   UNL     1       1.797   4.235  -1.720  1.00  0.00     0.004 A 
ATOM     16  N   UNL     1      -0.289   4.899  -2.094  1.00  0.00    -0.351 N 
ATOM     17  C   UNL     1       0.405   6.024  -1.706  1.00  0.00     0.093 A 
ATOM     18  H   UNL     1      -1.204   4.893  -2.457  1.00  0.00     0.167 HD
BRANCH  10  19
ATOM     19  O   UNL     1       0.745   0.225  -1.308  1.00  0.00    -0.497 OA
ATOM     20  C   UNL     1       1.043  -0.208   0.022  1.00  0.00     0.278 C 
ENDBRANCH  10  19
BRANCH  17  21
ATOM     21  C   UNL     1      -0.248   7.265  -1.309  1.00  0.00     0.227 C 
ATOM     22  O   UNL     1       0.319   8.132  -0.649  1.00  0.00    -0.285 OA
BRANCH  21  23
ATOM     23  C   UNL     1      -1.681   7.491  -1.673  1.00  0.00     0.113 A 
ATOM     24  C   UNL     1      -2.685   7.360  -0.717  1.00  0.00     0.036 A 
ATOM     25  N   UNL     1      -1.901   7.900  -2.950  1.00  0.00    -0.253 NA
ATOM     26  C   UNL     1      -3.995   7.700  -1.080  1.00  0.00    -0.047 A 
ATOM     27  C   UNL     1      -3.161   8.290  -3.245  1.00  0.00     0.112 A 
ATOM     28  C   UNL     1      -5.152   7.550  -0.136  1.00  0.00     0.044 C 
ATOM     29  C   UNL     1      -4.222   8.217  -2.357  1.00  0.00     0.023 A 
ENDBRANCH  21  23
ENDBRANCH  17  21
ENDBRANCH   8   9
ENDBRANCH   6   8
ENDBRANCH   5   6
ENDBRANCH   4   5
ENDBRANCH   3   4
ENDBRANCH   2   3
ENDBRANCH   1   2
BRANCH   1  30
ATOM     30  C   UNL     1       1.534   8.017  -4.560  1.00  0.00     0.188 C 
BRANCH  30  31
ATOM     31  O   UNL     1       1.513   7.644  -5.931  1.00  0.00    -0.376 OA
BRANCH  31  32
ATOM     32  C   UNL     1       0.311   7.982  -6.606  1.00  0.00     0.202 C 
BRANCH  32  33
ATOM     33  C   UNL     1       0.154   9.491  -6.798  1.00  0.00     0.261 C 
BRANCH  33  34
ATOM     34  O   UNL     1       0.066  10.189  -5.535  1.00  0.00    -0.460 OA
BRANCH  34  35
ATOM     35  C   UNL     1      -1.147  10.590  -5.118  1.00  0.00     0.338 C 
ATOM     36  O   UNL     1      -2.200  10.466  -5.745  1.00  0.00    -0.246 OA
BRANCH  35  37
ATOM     37  C   UNL     1      -1.074  11.252  -3.791  1.00  0.00     0.060 A 
ATOM     38  C   UNL     1      -0.421  10.679  -2.696  1.00  0.00     0.016 A 
ATOM     39  C   UNL     1      -1.796  12.429  -3.597  1.00  0.00     0.016 A 
ATOM     40  C   UNL     1      -0.557  11.220  -1.411  1.00  0.00     0.010 A 
ATOM     41  C   UNL     1      -1.868  13.013  -2.324  1.00  0.00     0.010 A 
ATOM     42  C   UNL     1      -1.282  12.398  -1.202  1.00  0.00    -0.014 A 
BRANCH  42  43
ATOM     43  C   UNL     1      -1.478  12.969   0.166  1.00  0.00     0.031 A 
ATOM     44  C   UNL     1      -2.873  13.172   0.710  1.00  0.00     0.074 A 
ATOM     45  C   UNL     1      -0.428  13.333   0.931  1.00  0.00     0.049 A 
ATOM     46  N   UNL     1      -3.265  13.846   1.764  1.00  0.00    -0.248 NA
ATOM     47  C   UNL     1      -3.974  12.541  -0.037  1.00  0.00     0.031 C 
ATOM     48  C   UNL     1       0.983  13.141   0.592  1.00  0.00     0.029 A 
ATOM     49  N   UNL     1      -0.390  13.957   2.157  1.00  0.00    -0.354 N 
ATOM     50  C   UNL     1      -4.654  13.769   1.775  1.00  0.00     0.074 A 
ATOM     51  C   UNL     1      -5.037  12.985   0.619  1.00  0.00     0.031 C 
ATOM     52  C   UNL     1       1.744  13.620   1.589  1.00  0.00     0.029 A 
ATOM     53  C   UNL     1       0.885  14.230   2.598  1.00  0.00     0.049 A 
ATOM     54  H   UNL     1      -1.198  14.186   2.671  1.00  0.00     0.167 HD
ATOM     55  C   UNL     1      -5.532  14.305   2.660  1.00  0.00     0.031 A 
ATOM     56  C   UNL     1       1.325  14.930   3.663  1.00  0.00     0.031 A 
ATOM     57  C   UNL     1      -5.157  15.065   3.827  1.00  0.00     0.049 A 
ATOM     58  C   UNL     1       0.333  15.568   4.598  1.00  0.00     0.074 A 
ATOM     59  C   UNL     1      -5.982  15.644   4.777  1.00  0.00     0.029 A 
ATOM     60  N   UNL     1      -3.855  15.341   4.213  1.00  0.00    -0.354 N 
ATOM     61  N   UNL     1      -0.977  15.538   4.561  1.00  0.00    -0.248 NA
ATOM     62  C   UNL     1       0.885  16.342   5.720  1.00  0.00     0.031 C 
ATOM     63  C   UNL     1      -5.181  16.313   5.710  1.00  0.00     0.029 A 
ATOM     64  C   UNL     1      -3.855  16.095   5.378  1.00  0.00     0.049 A 
ATOM     65  H   UNL     1      -3.048  15.046   3.732  1.00  0.00     0.167 HD
ATOM     66  C   UNL     1      -1.405  16.265   5.668  1.00  0.00     0.074 A 
ATOM     67  C   UNL     1      -0.214  16.706   6.365  1.00  0.00     0.031 C 
ATOM     68  C   UNL     1      -2.671  16.539   6.070  1.00  0.00     0.031 A 
BRANCH  55  69
ATOM     69  C   UNL     1      -7.003  14.134   2.375  1.00  0.00    -0.014 A 
ATOM     70  C   UNL     1      -7.644  12.891   2.522  1.00  0.00     0.010 A 
ATOM     71  C   UNL     1      -7.767  15.255   1.999  1.00  0.00     0.010 A 
ATOM     72  C   UNL     1      -9.011  12.765   2.256  1.00  0.00     0.020 A 
ATOM     73  C   UNL     1      -9.140  15.139   1.761  1.00  0.00     0.020 A 
ATOM     74  C   UNL     1      -9.749  13.889   1.872  1.00  0.00     0.054 A 
BRANCH  74  75
ATOM     75  S   UNL     1     -11.523  13.696   1.541  1.00  0.00     0.124 S 
ATOM     76  O   UNL     1     -11.513  12.978   0.269  1.00  0.00    -0.237 OA
ATOM     77  O   UNL     1     -11.982  12.925   2.693  1.00  0.00    -0.237 OA
ATOM     78  O   UNL     1     -12.016  15.070   1.477  1.00  0.00    -0.744 OA
ENDBRANCH  74  75
ENDBRANCH  55  69
BRANCH  56  79
ATOM     79  C   UNL     1       2.788  15.105   3.883  1.00  0.00    -0.014 A 
ATOM     80  C   UNL     1       3.426  14.499   4.980  1.00  0.00     0.010 A 
ATOM     81  C   UNL     1       3.553  15.882   2.993  1.00  0.00     0.010 A 
ATOM     82  C   UNL     1       4.797  14.678   5.190  1.00  0.00     0.020 A 
ATOM     83  C   UNL     1       4.929  16.035   3.180  1.00  0.00     0.020 A 
ATOM     84  C   UNL     1       5.540  15.442   4.286  1.00  0.00     0.054 A 
BRANCH  84  85
ATOM     85  S   UNL     1       7.328  15.616   4.546  1.00  0.00     0.124 S 
ATOM     86  O   UNL     1       7.381  16.548   5.668  1.00  0.00    -0.237 OA
ATOM     87  O   UNL     1       7.739  14.245   4.842  1.00  0.00    -0.237 OA
ATOM     88  O   UNL     1       7.809  16.141   3.271  1.00  0.00    -0.744 OA
ENDBRANCH  84  85
ENDBRANCH  56  79
BRANCH  68  89
ATOM     89  C   UNL     1      -2.837  17.311   7.355  1.00  0.00    -0.014 A 
ATOM     90  C   UNL     1      -2.493  18.672   7.448  1.00  0.00     0.010 A 
ATOM     91  C   UNL     1      -3.353  16.660   8.491  1.00  0.00     0.010 A 
ATOM     92  C   UNL     1      -2.610  19.351   8.665  1.00  0.00     0.020 A 
ATOM     93  C   UNL     1      -3.501  17.343   9.701  1.00  0.00     0.020 A 
ATOM     94  C   UNL     1      -3.106  18.679   9.787  1.00  0.00     0.054 A 
BRANCH  94  95
ATOM     95  S   UNL     1      -3.249  19.578  11.357  1.00  0.00     0.124 S 
ATOM     96  O   UNL     1      -1.857  19.658  11.789  1.00  0.00    -0.237 OA
ATOM     97  O   UNL     1      -3.854  20.843  10.949  1.00  0.00    -0.237 OA
ATOM     98  O   UNL     1      -4.106  18.719  12.171  1.00  0.00    -0.744 OA
ENDBRANCH  94  95
ENDBRANCH  68  89
ENDBRANCH  42  43
ENDBRANCH  35  37
ENDBRANCH  34  35
ENDBRANCH  33  34
ENDBRANCH  32  33
ENDBRANCH  31  32
ENDBRANCH  30  31
ENDBRANCH   1  30
TORSDOF 24
