REMARK SMILES NS(=O)(=O)c1ccc(-n2nc(C(=O)NCCCC(=O)OCCOCCOCCOC(=O)c3ccc(-c4c5nc(c(-c6ccc(S(=O)(=O)[O-])cc6)c6ccc([nH]6)c(-c6ccc(S(=O)(=O)[O-])cc6)c6nc(c(-c7ccc(S(=O)(=O)[O-])cc7)c7ccc4[nH]7)C=C6)C=C5)cc3)cc2-c2ccccc2)cc1
REMARK SMILES IDX 22 1 21 2 20 3 18 4 19 5 17 6 16 7 15 8 14 9 12 10 13 11
REMARK SMILES IDX 11 13 9 14 10 15 93 16 92 17 8 18 5 19 6 20 101 21 7 22
REMARK SMILES IDX 100 23 2 24 3 25 4 26 1 27 94 30 95 31 99 32 96 33 98 34
REMARK SMILES IDX 97 35 23 36 24 37 25 38 26 39 27 40 28 41 29 42 30 43 31 44
REMARK SMILES IDX 32 45 33 46 91 47 34 48 90 49 35 50 36 51 37 52 84 53 38 54
REMARK SMILES IDX 89 55 83 56 85 57 39 58 88 59 82 60 81 61 40 63 70 64 51 65
REMARK SMILES IDX 69 66 52 67 55 68 68 69 86 70 53 71 54 72 67 74 87 75 56 76
REMARK SMILES IDX 41 77 42 78 50 79 43 80 49 81 44 82 45 83 46 84 47 85 48 86
REMARK SMILES IDX 71 87 72 88 80 89 73 90 79 91 74 92 75 93 76 94 77 95 78 96
REMARK SMILES IDX 57 97 58 98 66 99 59 100 65 101 60 102 61 103 62 104 63 105
REMARK SMILES IDX 64 106
REMARK H PARENT 14 12 1 28 1 29 85 62 55 73
REMARK Flexibility Score: inf
ROOT
ATOM      1  C   UNL     1       2.034 -13.852   7.629  1.00  0.00     0.202 C 
ENDROOT
BRANCH   1   2
ATOM      2  C   UNL     1       1.207 -12.876   8.480  1.00  0.00     0.261 C 
BRANCH   2   3
ATOM      3  O   UNL     1       1.819 -11.581   8.627  1.00  0.00    -0.463 OA
BRANCH   3   4
ATOM      4  C   UNL     1       2.157 -11.178   9.874  1.00  0.00     0.305 C 
ATOM      5  O   UNL     1       1.879 -11.783  10.903  1.00  0.00    -0.252 OA
BRANCH   4   6
ATOM      6  C   UNL     1       2.963  -9.888   9.898  1.00  0.00     0.124 C 
BRANCH   6   7
ATOM      7  C   UNL     1       3.334  -9.208   8.578  1.00  0.00     0.033 C 
BRANCH   7   8
ATOM      8  C   UNL     1       2.159  -8.792   7.697  1.00  0.00     0.117 C 
BRANCH   8   9
ATOM      9  N   UNL     1       1.450  -7.659   8.248  1.00  0.00    -0.351 N 
ATOM     10  C   UNL     1       1.202  -6.379   7.814  1.00  0.00     0.271 C 
ATOM     11  O   UNL     1       0.509  -5.706   8.586  1.00  0.00    -0.267 OA
ATOM     12  H   UNL     1       1.057  -7.846   9.131  1.00  0.00     0.163 HD
BRANCH  10  13
ATOM     13  C   UNL     1       1.671  -5.840   6.515  1.00  0.00     0.151 A 
ATOM     14  N   UNL     1       1.703  -4.429   4.885  1.00  0.00    -0.232 N 
ATOM     15  N   UNL     1       1.330  -4.577   6.174  1.00  0.00    -0.162 NA
ATOM     16  C   UNL     1       2.482  -5.483   4.447  1.00  0.00     0.075 A 
ATOM     17  C   UNL     1       2.469  -6.394   5.483  1.00  0.00     0.065 A 
BRANCH  14  18
ATOM     18  C   UNL     1       1.282  -3.297   4.143  1.00  0.00     0.065 A 
ATOM     19  C   UNL     1       0.661  -1.056   2.624  1.00  0.00     0.082 A 
ATOM     20  C   UNL     1       0.587  -2.323   2.041  1.00  0.00     0.024 A 
ATOM     21  C   UNL     1       1.001  -0.904   3.974  1.00  0.00     0.024 A 
ATOM     22  C   UNL     1       0.910  -3.444   2.799  1.00  0.00     0.030 A 
ATOM     23  C   UNL     1       1.281  -2.034   4.747  1.00  0.00     0.030 A 
BRANCH  19  24
ATOM     24  S   UNL     1       0.396   0.373   1.620  1.00  0.00     0.238 S 
ATOM     25  O   UNL     1       1.135   1.481   2.160  1.00  0.00    -0.207 OA
ATOM     26  O   UNL     1      -1.018   0.452   1.302  1.00  0.00    -0.207 OA
BRANCH  24  27
ATOM     27  N   UNL     1       1.175  -0.026   0.185  1.00  0.00    -0.225 NA
ATOM     28  H   UNL     1       1.082   0.744  -0.477  1.00  0.00     0.137 HD
ATOM     29  H   UNL     1       0.752  -0.866  -0.209  1.00  0.00     0.137 HD
ENDBRANCH  24  27
ENDBRANCH  19  24
ENDBRANCH  14  18
BRANCH  16  30
ATOM     30  C   UNL     1       3.222  -5.542   3.189  1.00  0.00     0.000 A 
ATOM     31  C   UNL     1       4.169  -4.558   2.873  1.00  0.00     0.010 A 
ATOM     32  C   UNL     1       2.993  -6.587   2.287  1.00  0.00     0.010 A 
ATOM     33  C   UNL     1       4.858  -4.606   1.661  1.00  0.00     0.001 A 
ATOM     34  C   UNL     1       3.680  -6.630   1.073  1.00  0.00     0.001 A 
ATOM     35  C   UNL     1       4.609  -5.639   0.760  1.00  0.00     0.000 A 
ENDBRANCH  16  30
ENDBRANCH  10  13
ENDBRANCH   8   9
ENDBRANCH   7   8
ENDBRANCH   6   7
ENDBRANCH   4   6
ENDBRANCH   3   4
ENDBRANCH   2   3
ENDBRANCH   1   2
BRANCH   1  36
ATOM     36  O   UNL     1       3.407 -13.974   7.998  1.00  0.00    -0.376 OA
BRANCH  36  37
ATOM     37  C   UNL     1       4.232 -12.831   7.757  1.00  0.00     0.188 C 
BRANCH  37  38
ATOM     38  C   UNL     1       4.083 -12.209   6.364  1.00  0.00     0.188 C 
BRANCH  38  39
ATOM     39  O   UNL     1       2.784 -11.700   6.076  1.00  0.00    -0.376 OA
BRANCH  39  40
ATOM     40  C   UNL     1       2.447 -11.322   4.737  1.00  0.00     0.202 C 
BRANCH  40  41
ATOM     41  C   UNL     1       2.900 -12.155   3.527  1.00  0.00     0.261 C 
BRANCH  41  42
ATOM     42  O   UNL     1       4.271 -12.515   3.500  1.00  0.00    -0.460 OA
BRANCH  42  43
ATOM     43  C   UNL     1       5.192 -11.572   3.779  1.00  0.00     0.338 C 
ATOM     44  O   UNL     1       5.027 -10.369   3.839  1.00  0.00    -0.246 OA
BRANCH  43  45
ATOM     45  C   UNL     1       6.436 -12.301   4.088  1.00  0.00     0.060 A 
ATOM     46  C   UNL     1       7.620 -11.573   4.065  1.00  0.00     0.016 A 
ATOM     47  C   UNL     1       6.423 -13.708   4.187  1.00  0.00     0.016 A 
ATOM     48  C   UNL     1       8.769 -12.262   3.766  1.00  0.00     0.010 A 
ATOM     49  C   UNL     1       7.564 -14.396   3.895  1.00  0.00     0.010 A 
ATOM     50  C   UNL     1       8.666 -13.636   3.534  1.00  0.00    -0.014 A 
BRANCH  50  51
ATOM     51  C   UNL     1       9.651 -14.244   2.679  1.00  0.00     0.031 A 
ATOM     52  C   UNL     1      10.841 -14.727   3.380  1.00  0.00     0.074 A 
ATOM     53  C   UNL     1       9.413 -14.392   1.363  1.00  0.00     0.049 A 
ATOM     54  N   UNL     1      11.998 -14.161   3.412  1.00  0.00    -0.248 NA
ATOM     55  C   UNL     1      10.675 -15.853   4.307  1.00  0.00     0.031 C 
ATOM     56  C   UNL     1       8.154 -14.208   0.631  1.00  0.00     0.029 A 
ATOM     57  N   UNL     1      10.253 -14.864   0.412  1.00  0.00    -0.354 N 
ATOM     58  C   UNL     1      12.778 -14.987   4.203  1.00  0.00     0.074 A 
ATOM     59  C   UNL     1      11.866 -15.857   4.904  1.00  0.00     0.031 C 
ATOM     60  C   UNL     1       8.262 -14.794  -0.584  1.00  0.00     0.029 A 
ATOM     61  C   UNL     1       9.624 -15.275  -0.753  1.00  0.00     0.049 A 
ATOM     62  H   UNL     1      11.228 -14.911   0.537  1.00  0.00     0.167 HD
ATOM     63  C   UNL     1      14.121 -15.084   4.021  1.00  0.00     0.031 A 
ATOM     64  C   UNL     1      10.180 -16.044  -1.723  1.00  0.00     0.031 A 
ATOM     65  C   UNL     1      14.620 -14.059   3.140  1.00  0.00     0.049 A 
ATOM     66  C   UNL     1      11.658 -15.947  -1.565  1.00  0.00     0.074 A 
ATOM     67  C   UNL     1      14.647 -12.679   3.183  1.00  0.00     0.029 A 
ATOM     68  N   UNL     1      14.819 -14.408   1.822  1.00  0.00    -0.354 N 
ATOM     69  N   UNL     1      12.324 -14.845  -1.776  1.00  0.00    -0.248 NA
ATOM     70  C   UNL     1      12.331 -16.915  -0.707  1.00  0.00     0.031 C 
ATOM     71  C   UNL     1      14.413 -12.261   1.841  1.00  0.00     0.029 A 
ATOM     72  C   UNL     1      14.312 -13.400   1.039  1.00  0.00     0.049 A 
ATOM     73  H   UNL     1      15.248 -15.233   1.499  1.00  0.00     0.167 HD
ATOM     74  C   UNL     1      13.269 -14.791  -0.757  1.00  0.00     0.074 A 
ATOM     75  C   UNL     1      13.298 -16.141  -0.199  1.00  0.00     0.031 C 
ATOM     76  C   UNL     1      13.719 -13.594  -0.272  1.00  0.00     0.031 A 
BRANCH  63  77
ATOM     77  C   UNL     1      14.895 -16.334   4.325  1.00  0.00    -0.014 A 
ATOM     78  C   UNL     1      16.299 -16.294   4.274  1.00  0.00     0.010 A 
ATOM     79  C   UNL     1      14.286 -17.604   4.414  1.00  0.00     0.010 A 
ATOM     80  C   UNL     1      17.051 -17.475   4.258  1.00  0.00     0.020 A 
ATOM     81  C   UNL     1      15.025 -18.782   4.450  1.00  0.00     0.020 A 
ATOM     82  C   UNL     1      16.404 -18.711   4.332  1.00  0.00     0.054 A 
BRANCH  82  83
ATOM     83  S   UNL     1      17.369 -20.231   4.180  1.00  0.00     0.124 S 
ATOM     84  O   UNL     1      17.829 -20.154   2.797  1.00  0.00    -0.237 OA
ATOM     85  O   UNL     1      18.393 -20.051   5.204  1.00  0.00    -0.237 OA
ATOM     86  O   UNL     1      16.394 -21.283   4.458  1.00  0.00    -0.744 OA
ENDBRANCH  82  83
ENDBRANCH  63  77
BRANCH  64  87
ATOM     87  C   UNL     1       9.501 -17.095  -2.522  1.00  0.00    -0.014 A 
ATOM     88  C   UNL     1      10.115 -17.675  -3.646  1.00  0.00     0.010 A 
ATOM     89  C   UNL     1       8.334 -17.716  -2.025  1.00  0.00     0.010 A 
ATOM     90  C   UNL     1       9.612 -18.860  -4.214  1.00  0.00     0.020 A 
ATOM     91  C   UNL     1       7.821 -18.888  -2.590  1.00  0.00     0.020 A 
ATOM     92  C   UNL     1       8.478 -19.469  -3.669  1.00  0.00     0.054 A 
BRANCH  92  93
ATOM     93  S   UNL     1       7.937 -21.089  -4.291  1.00  0.00     0.124 S 
ATOM     94  O   UNL     1       7.410 -20.755  -5.611  1.00  0.00    -0.237 OA
ATOM     95  O   UNL     1       9.175 -21.863  -4.279  1.00  0.00    -0.237 OA
ATOM     96  O   UNL     1       6.936 -21.515  -3.313  1.00  0.00    -0.744 OA
ENDBRANCH  92  93
ENDBRANCH  64  87
BRANCH  76  97
ATOM     97  C   UNL     1      13.347 -12.336  -1.030  1.00  0.00    -0.014 A 
ATOM     98  C   UNL     1      12.015 -11.912  -1.213  1.00  0.00     0.010 A 
ATOM     99  C   UNL     1      14.381 -11.472  -1.428  1.00  0.00     0.010 A 
ATOM    100  C   UNL     1      11.727 -10.673  -1.806  1.00  0.00     0.020 A 
ATOM    101  C   UNL     1      14.102 -10.228  -2.002  1.00  0.00     0.020 A 
ATOM    102  C   UNL     1      12.776  -9.838  -2.198  1.00  0.00     0.054 A 
BRANCH 102 103
ATOM    103  S   UNL     1      12.399  -8.216  -2.919  1.00  0.00     0.124 S 
ATOM    104  O   UNL     1      11.856  -8.568  -4.228  1.00  0.00    -0.237 OA
ATOM    105  O   UNL     1      11.437  -7.654  -1.972  1.00  0.00    -0.237 OA
ATOM    106  O   UNL     1      13.694  -7.537  -2.947  1.00  0.00    -0.744 OA
ENDBRANCH 102 103
ENDBRANCH  76  97
ENDBRANCH  50  51
ENDBRANCH  43  45
ENDBRANCH  42  43
ENDBRANCH  41  42
ENDBRANCH  40  41
ENDBRANCH  39  40
ENDBRANCH  38  39
ENDBRANCH  37  38
ENDBRANCH  36  37
ENDBRANCH   1  36
TORSDOF 28
