REMARK SMILES O=C(CN1C(=O)COc2ccccc21)Nc1ccc(C(=O)OCCOCCOCCOC(=O)c2ccc(-c3c4nc(c(-c5ccc(S(=O)(=O)[O-])cc5)c5ccc([nH]5)c(-c5ccc(S(=O)(=O)[O-])cc5)c5nc(c(-c6ccc(S(=O)(=O)[O-])cc6)c6ccc3[nH]6)C=C5)C=C4)cc2)cc1
REMARK SMILES IDX 26 1 25 2 24 3 23 4 22 5 20 6 21 7 19 8 16 9 17 10 95 11
REMARK SMILES IDX 18 12 94 13 15 14 1 15 2 16 3 18 4 19 5 20 14 21 6 22 7 23
REMARK SMILES IDX 9 24 13 25 8 26 10 27 12 28 11 29 27 30 28 31 29 32 30 33
REMARK SMILES IDX 31 34 32 35 33 36 34 37 35 38 93 39 36 40 92 41 37 42 38 43
REMARK SMILES IDX 39 44 86 45 40 46 91 47 85 48 87 49 41 50 90 51 84 52 83 53
REMARK SMILES IDX 42 55 72 56 53 57 71 58 54 59 57 60 70 61 88 62 55 63 56 64
REMARK SMILES IDX 69 66 89 67 58 68 43 69 44 70 52 71 45 72 51 73 46 74 47 75
REMARK SMILES IDX 48 76 49 77 50 78 73 79 74 80 82 81 75 82 81 83 76 84 77 85
REMARK SMILES IDX 78 86 79 87 80 88 59 89 60 90 68 91 61 92 67 93 62 94 63 95
REMARK SMILES IDX 64 96 65 97 66 98
REMARK H PARENT 15 17 87 54 57 65
REMARK Flexibility Score: inf
ROOT
ATOM      1  C   UNL     1       1.043   8.066  -0.698  1.00  0.00     0.188 C 
ENDROOT
BRANCH   1   2
ATOM      2  O   UNL     1       0.126   9.114  -0.942  1.00  0.00    -0.376 OA
BRANCH   2   3
ATOM      3  C   UNL     1      -1.269   8.895  -0.794  1.00  0.00     0.202 C 
BRANCH   3   4
ATOM      4  C   UNL     1      -1.951   7.554  -1.104  1.00  0.00     0.261 C 
BRANCH   4   5
ATOM      5  O   UNL     1      -1.308   6.396  -0.557  1.00  0.00    -0.460 OA
BRANCH   5   6
ATOM      6  C   UNL     1      -0.893   5.493  -1.478  1.00  0.00     0.338 C 
ATOM      7  O   UNL     1      -1.051   5.545  -2.688  1.00  0.00    -0.246 OA
BRANCH   6   8
ATOM      8  C   UNL     1      -0.006   4.507  -0.841  1.00  0.00     0.060 A 
ATOM      9  C   UNL     1       1.705   2.565   0.171  1.00  0.00     0.041 A 
ATOM     10  C   UNL     1       2.176   3.479  -0.776  1.00  0.00     0.027 A 
ATOM     11  C   UNL     1       0.415   2.694   0.690  1.00  0.00     0.027 A 
ATOM     12  C   UNL     1       1.298   4.400  -1.337  1.00  0.00     0.018 A 
ATOM     13  C   UNL     1      -0.433   3.700   0.215  1.00  0.00     0.018 A 
BRANCH   9  14
ATOM     14  N   UNL     1       2.525   1.464   0.487  1.00  0.00    -0.325 N 
ATOM     15  O   UNL     1       0.989  -0.142  -0.209  1.00  0.00    -0.273 OA
ATOM     16  C   UNL     1       2.120   0.162   0.164  1.00  0.00     0.244 C 
ATOM     17  H   UNL     1       3.388   1.610   0.939  1.00  0.00     0.169 HD
BRANCH  16  18
ATOM     18  C   UNL     1       3.272  -0.857   0.187  1.00  0.00     0.226 C 
BRANCH  18  19
ATOM     19  N   UNL     1       3.864  -1.340  -1.074  1.00  0.00    -0.297 N 
ATOM     20  C   UNL     1       3.917  -2.717  -1.299  1.00  0.00     0.265 C 
ATOM     21  C   UNL     1       4.682  -0.498  -1.891  1.00  0.00     0.087 A 
ATOM     22  O   UNL     1       3.357  -3.557  -0.596  1.00  0.00    -0.270 OA
ATOM     23  C   UNL     1       4.709  -3.113  -2.543  1.00  0.00     0.330 C 
ATOM     24  C   UNL     1       5.738  -1.059  -2.622  1.00  0.00     0.143 A 
ATOM     25  C   UNL     1       4.506   0.878  -1.978  1.00  0.00     0.030 A 
ATOM     26  O   UNL     1       5.935  -2.412  -2.711  1.00  0.00    -0.482 OA
ATOM     27  C   UNL     1       6.681  -0.249  -3.262  1.00  0.00     0.049 A 
ATOM     28  C   UNL     1       5.433   1.700  -2.624  1.00  0.00     0.002 A 
ATOM     29  C   UNL     1       6.542   1.137  -3.240  1.00  0.00     0.004 A 
ENDBRANCH  18  19
ENDBRANCH  16  18
ENDBRANCH   9  14
ENDBRANCH   6   8
ENDBRANCH   5   6
ENDBRANCH   4   5
ENDBRANCH   3   4
ENDBRANCH   2   3
ENDBRANCH   1   2
BRANCH   1  30
ATOM     30  C   UNL     1       1.184   7.489   0.725  1.00  0.00     0.188 C 
BRANCH  30  31
ATOM     31  O   UNL     1       0.232   7.827   1.704  1.00  0.00    -0.376 OA
BRANCH  31  32
ATOM     32  C   UNL     1       0.212   9.124   2.273  1.00  0.00     0.202 C 
BRANCH  32  33
ATOM     33  C   UNL     1       1.357  10.154   2.221  1.00  0.00     0.261 C 
BRANCH  33  34
ATOM     34  O   UNL     1       2.333  10.031   1.186  1.00  0.00    -0.460 OA
BRANCH  34  35
ATOM     35  C   UNL     1       3.544   9.580   1.585  1.00  0.00     0.338 C 
ATOM     36  O   UNL     1       3.868   9.225   2.714  1.00  0.00    -0.246 OA
BRANCH  35  37
ATOM     37  C   UNL     1       4.405   9.397   0.407  1.00  0.00     0.060 A 
ATOM     38  C   UNL     1       4.787   8.097   0.048  1.00  0.00     0.016 A 
ATOM     39  C   UNL     1       4.872  10.501  -0.307  1.00  0.00     0.016 A 
ATOM     40  C   UNL     1       5.658   7.899  -1.022  1.00  0.00     0.010 A 
ATOM     41  C   UNL     1       5.760  10.300  -1.367  1.00  0.00     0.010 A 
ATOM     42  C   UNL     1       6.178   9.001  -1.712  1.00  0.00    -0.014 A 
BRANCH  42  43
ATOM     43  C   UNL     1       7.280   8.812  -2.686  1.00  0.00     0.031 A 
ATOM     44  C   UNL     1       8.692   9.075  -2.239  1.00  0.00     0.074 A 
ATOM     45  C   UNL     1       7.034   8.407  -3.944  1.00  0.00     0.049 A 
ATOM     46  N   UNL     1       9.802   9.027  -2.928  1.00  0.00    -0.248 NA
ATOM     47  C   UNL     1       8.875   9.444  -0.825  1.00  0.00     0.031 C 
ATOM     48  C   UNL     1       5.716   8.079  -4.486  1.00  0.00     0.029 A 
ATOM     49  N   UNL     1       7.890   8.216  -5.000  1.00  0.00    -0.354 N 
ATOM     50  C   UNL     1      10.813   9.373  -2.039  1.00  0.00     0.074 A 
ATOM     51  C   UNL     1      10.182   9.652  -0.767  1.00  0.00     0.031 C 
ATOM     52  C   UNL     1       5.851   7.739  -5.780  1.00  0.00     0.029 A 
ATOM     53  C   UNL     1       7.255   7.864  -6.167  1.00  0.00     0.049 A 
ATOM     54  H   UNL     1       8.866   8.320  -4.928  1.00  0.00     0.167 HD
ATOM     55  C   UNL     1      12.147   9.452  -2.261  1.00  0.00     0.031 A 
ATOM     56  C   UNL     1       7.746   7.690  -7.411  1.00  0.00     0.031 A 
ATOM     57  C   UNL     1      12.769   9.198  -3.533  1.00  0.00     0.049 A 
ATOM     58  C   UNL     1       9.224   7.861  -7.654  1.00  0.00     0.074 A 
ATOM     59  C   UNL     1      14.114   9.235  -3.855  1.00  0.00     0.029 A 
ATOM     60  N   UNL     1      12.088   8.876  -4.698  1.00  0.00    -0.354 N 
ATOM     61  N   UNL     1      10.173   8.157  -6.796  1.00  0.00    -0.248 NA
ATOM     62  C   UNL     1       9.698   7.667  -9.031  1.00  0.00     0.031 C 
ATOM     63  C   UNL     1      14.242   8.999  -5.227  1.00  0.00     0.029 A 
ATOM     64  C   UNL     1      12.983   8.742  -5.747  1.00  0.00     0.049 A 
ATOM     65  H   UNL     1      11.113   8.760  -4.769  1.00  0.00     0.167 HD
ATOM     66  C   UNL     1      11.359   8.155  -7.526  1.00  0.00     0.074 A 
ATOM     67  C   UNL     1      11.009   7.815  -8.890  1.00  0.00     0.031 C 
ATOM     68  C   UNL     1      12.623   8.406  -7.103  1.00  0.00     0.031 A 
BRANCH  55  69
ATOM     69  C   UNL     1      13.017   9.876  -1.107  1.00  0.00    -0.014 A 
ATOM     70  C   UNL     1      13.224   9.036   0.003  1.00  0.00     0.010 A 
ATOM     71  C   UNL     1      13.659  11.128  -1.145  1.00  0.00     0.010 A 
ATOM     72  C   UNL     1      14.019   9.459   1.071  1.00  0.00     0.020 A 
ATOM     73  C   UNL     1      14.480  11.541  -0.093  1.00  0.00     0.020 A 
ATOM     74  C   UNL     1      14.639  10.711   1.018  1.00  0.00     0.054 A 
BRANCH  74  75
ATOM     75  S   UNL     1      15.673  11.229   2.415  1.00  0.00     0.124 S 
ATOM     76  O   UNL     1      14.673  11.487   3.449  1.00  0.00    -0.237 OA
ATOM     77  O   UNL     1      16.518  10.060   2.638  1.00  0.00    -0.237 OA
ATOM     78  O   UNL     1      16.368  12.412   1.913  1.00  0.00    -0.744 OA
ENDBRANCH  74  75
ENDBRANCH  55  69
BRANCH  56  79
ATOM     79  C   UNL     1       6.825   7.352  -8.530  1.00  0.00    -0.014 A 
ATOM     80  C   UNL     1       6.866   6.085  -9.137  1.00  0.00     0.010 A 
ATOM     81  C   UNL     1       5.891   8.299  -8.991  1.00  0.00     0.010 A 
ATOM     82  C   UNL     1       5.998   5.774 -10.188  1.00  0.00     0.020 A 
ATOM     83  C   UNL     1       5.002   7.982 -10.022  1.00  0.00     0.020 A 
ATOM     84  C   UNL     1       5.067   6.723 -10.620  1.00  0.00     0.054 A 
BRANCH  84  85
ATOM     85  S   UNL     1       3.909   6.272 -11.942  1.00  0.00     0.124 S 
ATOM     86  O   UNL     1       4.781   6.239 -13.111  1.00  0.00    -0.237 OA
ATOM     87  O   UNL     1       3.407   4.977 -11.489  1.00  0.00    -0.237 OA
ATOM     88  O   UNL     1       2.929   7.355 -11.921  1.00  0.00    -0.744 OA
ENDBRANCH  84  85
ENDBRANCH  56  79
BRANCH  68  89
ATOM     89  C   UNL     1      13.737   8.284  -8.112  1.00  0.00    -0.014 A 
ATOM     90  C   UNL     1      13.902   9.226  -9.143  1.00  0.00     0.010 A 
ATOM     91  C   UNL     1      14.673   7.240  -7.985  1.00  0.00     0.010 A 
ATOM     92  C   UNL     1      14.962   9.108 -10.046  1.00  0.00     0.020 A 
ATOM     93  C   UNL     1      15.752   7.136  -8.867  1.00  0.00     0.020 A 
ATOM     94  C   UNL     1      15.882   8.064  -9.902  1.00  0.00     0.054 A 
BRANCH  94  95
ATOM     95  S   UNL     1      17.274   7.958 -11.060  1.00  0.00     0.124 S 
ATOM     96  O   UNL     1      16.616   7.518 -12.287  1.00  0.00    -0.237 OA
ATOM     97  O   UNL     1      17.782   9.328 -11.075  1.00  0.00    -0.237 OA
ATOM     98  O   UNL     1      18.165   6.977 -10.444  1.00  0.00    -0.744 OA
ENDBRANCH  94  95
ENDBRANCH  68  89
ENDBRANCH  42  43
ENDBRANCH  35  37
ENDBRANCH  34  35
ENDBRANCH  33  34
ENDBRANCH  32  33
ENDBRANCH  31  32
ENDBRANCH  30  31
ENDBRANCH   1  30
TORSDOF 23
