REMARK SMILES CCc1c(C)nn(CC(=O)N2CCC[C@@H](Cn3cc(C(=O)OCCOCCOCCOC(=O)c4ccc(-c5c6nc(c(-c7ccc(S(=O)(=O)[O-])cc7)c7ccc([nH]7)c(-c7ccc(S(=O)(=O)[O-])cc7)c7nc(c(-c8ccc(S(=O)(=O)[O-])cc8)c8ccc5[nH]8)C=C7)C=C6)cc4)nn3)C2)c1C
REMARK SMILES IDX 25 1 24 2 23 3 22 4 20 5 21 6 19 7 17 8 18 9 95 10 94 11
REMARK SMILES IDX 16 12 15 13 11 14 12 15 96 16 13 17 14 18 9 19 10 20 8 21
REMARK SMILES IDX 7 22 3 23 4 24 97 25 5 26 6 27 98 28 2 29 1 30 26 31 27 32
REMARK SMILES IDX 28 33 29 34 30 35 31 36 32 37 33 38 34 39 35 40 93 41 36 42
REMARK SMILES IDX 92 43 37 44 38 45 39 46 86 47 40 48 91 49 85 50 87 51 41 52
REMARK SMILES IDX 90 53 84 54 83 55 42 57 72 58 53 59 71 60 54 61 57 62 70 63
REMARK SMILES IDX 88 64 55 65 56 66 69 68 89 69 58 70 43 71 44 72 52 73 45 74
REMARK SMILES IDX 51 75 46 76 47 77 48 78 49 79 50 80 73 81 74 82 82 83 75 84
REMARK SMILES IDX 81 85 76 86 77 87 78 88 79 89 80 90 59 91 60 92 68 93 61 94
REMARK SMILES IDX 67 95 62 96 63 97 64 98 65 99 66 100
REMARK H PARENT 87 56 57 67
REMARK Flexibility Score: inf
ROOT
ATOM      1  O   UNL     1      -6.307  -0.959   0.987  1.00  0.00    -0.376 OA
ENDROOT
BRANCH   1   2
ATOM      2  C   UNL     1      -5.294  -1.737   1.607  1.00  0.00     0.202 C 
BRANCH   2   3
ATOM      3  C   UNL     1      -4.491  -2.803   0.834  1.00  0.00     0.261 C 
BRANCH   3   4
ATOM      4  O   UNL     1      -3.928  -2.352  -0.403  1.00  0.00    -0.458 OA
BRANCH   4   5
ATOM      5  C   UNL     1      -4.493  -2.875  -1.530  1.00  0.00     0.360 C 
ATOM      6  O   UNL     1      -5.173  -3.886  -1.553  1.00  0.00    -0.244 OA
BRANCH   5   7
ATOM      7  C   UNL     1      -4.276  -2.038  -2.701  1.00  0.00     0.190 A 
ATOM      8  N   UNL     1      -3.445  -0.933  -4.346  1.00  0.00    -0.251 N 
ATOM      9  C   UNL     1      -3.196  -1.240  -3.035  1.00  0.00     0.146 A 
ATOM     10  N   UNL     1      -4.740  -1.130  -4.637  1.00  0.00    -0.067 NA
ATOM     11  N   UNL     1      -5.233  -1.902  -3.679  1.00  0.00    -0.123 NA
BRANCH   8  12
ATOM     12  C   UNL     1      -2.472  -0.972  -5.425  1.00  0.00     0.151 C 
BRANCH  12  13
ATOM     13  C   UNL     1      -2.055  -2.420  -5.802  1.00  0.00     0.030 C 
ATOM     14  N   UNL     1      -1.016  -4.494  -4.824  1.00  0.00    -0.341 N 
ATOM     15  C   UNL     1      -2.145  -5.304  -5.288  1.00  0.00     0.119 C 
ATOM     16  C   UNL     1      -1.332  -3.096  -4.627  1.00  0.00     0.125 C 
ATOM     17  C   UNL     1      -2.780  -4.728  -6.547  1.00  0.00     0.022 C 
ATOM     18  C   UNL     1      -3.211  -3.281  -6.331  1.00  0.00     0.009 C 
BRANCH  14  19
ATOM     19  C   UNL     1       0.148  -5.132  -4.419  1.00  0.00     0.244 C 
ATOM     20  O   UNL     1       0.375  -6.283  -4.828  1.00  0.00    -0.273 OA
BRANCH  19  21
ATOM     21  C   UNL     1       1.081  -4.607  -3.328  1.00  0.00     0.244 C 
BRANCH  21  22
ATOM     22  N   UNL     1       1.228  -3.180  -3.099  1.00  0.00    -0.260 N 
ATOM     23  C   UNL     1       1.090  -1.114  -2.321  1.00  0.00    -0.004 A 
ATOM     24  C   UNL     1       1.849  -1.192  -3.525  1.00  0.00     0.063 A 
ATOM     25  C   UNL     1       0.716  -2.427  -2.064  1.00  0.00     0.039 A 
ATOM     26  C   UNL     1       2.447  -0.100  -4.335  1.00  0.00     0.069 C 
ATOM     27  N   UNL     1       1.963  -2.452  -3.960  1.00  0.00    -0.177 NA
ATOM     28  C   UNL     1      -0.107  -3.002  -0.965  1.00  0.00     0.066 C 
BRANCH  23  29
ATOM     29  C   UNL     1       0.726   0.111  -1.539  1.00  0.00     0.036 C 
ATOM     30  C   UNL     1       1.356   0.158  -0.154  1.00  0.00     0.009 C 
ENDBRANCH  23  29
ENDBRANCH  21  22
ENDBRANCH  19  21
ENDBRANCH  14  19
ENDBRANCH  12  13
ENDBRANCH   8  12
ENDBRANCH   5   7
ENDBRANCH   4   5
ENDBRANCH   3   4
ENDBRANCH   2   3
ENDBRANCH   1   2
BRANCH   1  31
ATOM     31  C   UNL     1      -6.102  -0.370  -0.288  1.00  0.00     0.188 C 
BRANCH  31  32
ATOM     32  C   UNL     1      -4.842   0.471  -0.580  1.00  0.00     0.188 C 
BRANCH  32  33
ATOM     33  O   UNL     1      -3.706   0.195   0.211  1.00  0.00    -0.376 OA
BRANCH  33  34
ATOM     34  C   UNL     1      -3.325   1.019   1.304  1.00  0.00     0.202 C 
BRANCH  34  35
ATOM     35  C   UNL     1      -4.278   1.911   2.103  1.00  0.00     0.261 C 
BRANCH  35  36
ATOM     36  O   UNL     1      -5.567   2.070   1.563  1.00  0.00    -0.460 OA
BRANCH  36  37
ATOM     37  C   UNL     1      -5.664   3.078   0.670  1.00  0.00     0.338 C 
ATOM     38  O   UNL     1      -4.748   3.706   0.170  1.00  0.00    -0.246 OA
BRANCH  37  39
ATOM     39  C   UNL     1      -7.083   3.309   0.405  1.00  0.00     0.060 A 
ATOM     40  C   UNL     1      -7.385   4.165  -0.655  1.00  0.00     0.016 A 
ATOM     41  C   UNL     1      -7.991   3.012   1.430  1.00  0.00     0.016 A 
ATOM     42  C   UNL     1      -8.482   4.976  -0.515  1.00  0.00     0.010 A 
ATOM     43  C   UNL     1      -9.059   3.848   1.588  1.00  0.00     0.010 A 
ATOM     44  C   UNL     1      -9.214   4.883   0.671  1.00  0.00    -0.014 A 
BRANCH  44  45
ATOM     45  C   UNL     1     -10.150   5.936   0.967  1.00  0.00     0.031 A 
ATOM     46  C   UNL     1     -11.457   5.746   0.322  1.00  0.00     0.074 A 
ATOM     47  C   UNL     1      -9.859   6.906   1.850  1.00  0.00     0.049 A 
ATOM     48  N   UNL     1     -11.952   6.415  -0.662  1.00  0.00    -0.248 NA
ATOM     49  C   UNL     1     -12.217   4.542   0.692  1.00  0.00     0.031 C 
ATOM     50  C   UNL     1      -8.720   6.990   2.770  1.00  0.00     0.029 A 
ATOM     51  N   UNL     1     -10.621   7.968   2.207  1.00  0.00    -0.354 N 
ATOM     52  C   UNL     1     -13.197   5.848  -0.888  1.00  0.00     0.074 A 
ATOM     53  C   UNL     1     -13.197   4.578  -0.208  1.00  0.00     0.031 C 
ATOM     54  C   UNL     1      -9.006   7.893   3.737  1.00  0.00     0.029 A 
ATOM     55  C   UNL     1     -10.281   8.524   3.430  1.00  0.00     0.049 A 
ATOM     56  H   UNL     1     -11.352   8.315   1.646  1.00  0.00     0.167 HD
ATOM     57  C   UNL     1     -14.240   6.582  -1.360  1.00  0.00     0.031 A 
ATOM     58  C   UNL     1     -11.065   9.351   4.169  1.00  0.00     0.031 A 
ATOM     59  C   UNL     1     -13.808   7.842  -1.908  1.00  0.00     0.049 A 
ATOM     60  C   UNL     1     -12.107   9.899   3.256  1.00  0.00     0.074 A 
ATOM     61  C   UNL     1     -12.930   8.208  -2.909  1.00  0.00     0.029 A 
ATOM     62  N   UNL     1     -13.990   8.964  -1.131  1.00  0.00    -0.354 N 
ATOM     63  N   UNL     1     -11.846  10.714   2.272  1.00  0.00    -0.248 NA
ATOM     64  C   UNL     1     -13.369   9.179   3.143  1.00  0.00     0.031 C 
ATOM     65  C   UNL     1     -12.272   9.372  -2.417  1.00  0.00     0.029 A 
ATOM     66  C   UNL     1     -12.825   9.687  -1.174  1.00  0.00     0.049 A 
ATOM     67  H   UNL     1     -14.807   9.204  -0.636  1.00  0.00     0.167 HD
ATOM     68  C   UNL     1     -12.673  10.303   1.234  1.00  0.00     0.074 A 
ATOM     69  C   UNL     1     -13.655   9.420   1.859  1.00  0.00     0.031 C 
ATOM     70  C   UNL     1     -12.317  10.483  -0.074  1.00  0.00     0.031 A 
BRANCH  57  71
ATOM     71  C   UNL     1     -15.662   6.326  -0.936  1.00  0.00    -0.014 A 
ATOM     72  C   UNL     1     -16.695   7.055  -1.549  1.00  0.00     0.010 A 
ATOM     73  C   UNL     1     -15.993   5.591   0.224  1.00  0.00     0.010 A 
ATOM     74  C   UNL     1     -17.980   7.092  -0.991  1.00  0.00     0.020 A 
ATOM     75  C   UNL     1     -17.279   5.578   0.757  1.00  0.00     0.020 A 
ATOM     76  C   UNL     1     -18.256   6.362   0.166  1.00  0.00     0.054 A 
BRANCH  76  77
ATOM     77  S   UNL     1     -19.881   6.504   0.944  1.00  0.00     0.124 S 
ATOM     78  O   UNL     1     -19.866   7.886   1.411  1.00  0.00    -0.237 OA
ATOM     79  O   UNL     1     -20.782   6.218  -0.169  1.00  0.00    -0.237 OA
ATOM     80  O   UNL     1     -19.849   5.486   1.991  1.00  0.00    -0.744 OA
ENDBRANCH  76  77
ENDBRANCH  57  71
BRANCH  58  81
ATOM     81  C   UNL     1     -11.183   9.404   5.649  1.00  0.00    -0.014 A 
ATOM     82  C   UNL     1     -11.922  10.426   6.275  1.00  0.00     0.010 A 
ATOM     83  C   UNL     1     -10.800   8.300   6.440  1.00  0.00     0.010 A 
ATOM     84  C   UNL     1     -12.322  10.312   7.618  1.00  0.00     0.020 A 
ATOM     85  C   UNL     1     -11.182   8.186   7.781  1.00  0.00     0.020 A 
ATOM     86  C   UNL     1     -11.967   9.181   8.357  1.00  0.00     0.054 A 
BRANCH  86  87
ATOM     87  S   UNL     1     -12.648   8.948  10.025  1.00  0.00     0.124 S 
ATOM     88  O   UNL     1     -11.933   9.960  10.797  1.00  0.00    -0.237 OA
ATOM     89  O   UNL     1     -14.073   9.195   9.824  1.00  0.00    -0.237 OA
ATOM     90  O   UNL     1     -12.303   7.564  10.348  1.00  0.00    -0.744 OA
ENDBRANCH  86  87
ENDBRANCH  58  81
BRANCH  70  91
ATOM     91  C   UNL     1     -11.140  11.381  -0.389  1.00  0.00    -0.014 A 
ATOM     92  C   UNL     1      -9.832  11.148   0.082  1.00  0.00     0.010 A 
ATOM     93  C   UNL     1     -11.337  12.405  -1.332  1.00  0.00     0.010 A 
ATOM     94  C   UNL     1      -8.758  11.935  -0.361  1.00  0.00     0.020 A 
ATOM     95  C   UNL     1     -10.269  13.180  -1.792  1.00  0.00     0.020 A 
ATOM     96  C   UNL     1      -8.986  12.947  -1.298  1.00  0.00     0.054 A 
BRANCH  96  97
ATOM     97  S   UNL     1      -7.586  13.928  -1.910  1.00  0.00     0.124 S 
ATOM     98  O   UNL     1      -7.214  14.716  -0.739  1.00  0.00    -0.237 OA
ATOM     99  O   UNL     1      -6.622  12.904  -2.312  1.00  0.00    -0.237 OA
ATOM    100  O   UNL     1      -8.155  14.696  -3.017  1.00  0.00    -0.744 OA
ENDBRANCH  96  97
ENDBRANCH  70  91
ENDBRANCH  44  45
ENDBRANCH  37  39
ENDBRANCH  36  37
ENDBRANCH  35  36
ENDBRANCH  34  35
ENDBRANCH  33  34
ENDBRANCH  32  33
ENDBRANCH  31  32
ENDBRANCH   1  31
TORSDOF 26
