REMARK SMILES Cc1c(CC(=O)OCCOCCOCCOC(=O)c2ccc(-c3c4nc(c(-c5ccc(S(=O)(=O)[O-])cc5)c5ccc([nH]5)c(-c5ccc(S(=O)(=O)[O-])cc5)c5nc(c(-c6ccc(S(=O)(=O)[O-])cc6)c6ccc3[nH]6)C=C5)C=C4)cc2)cc(-c2ccc(S(C)(=O)=O)cc2)n1-c1ccccc1
REMARK SMILES IDX 11 1 10 2 9 3 8 4 7 5 5 6 6 7 4 8 3 9 1 10 2 11 91 12 79 13
REMARK SMILES IDX 80 14 92 15 93 16 97 17 94 18 96 19 95 20 81 21 82 22 90 23
REMARK SMILES IDX 83 24 89 25 84 26 85 27 86 28 87 29 88 30 12 31 13 32 14 33
REMARK SMILES IDX 15 34 16 35 17 36 18 37 19 38 20 39 78 40 21 41 77 42 22 43
REMARK SMILES IDX 23 44 24 45 71 46 25 47 76 48 70 49 72 50 26 51 75 52 69 53
REMARK SMILES IDX 68 54 27 56 57 57 38 58 56 59 39 60 42 61 55 62 73 63 40 64
REMARK SMILES IDX 41 65 54 67 74 68 43 69 28 70 29 71 37 72 30 73 36 74 31 75
REMARK SMILES IDX 32 76 33 77 34 78 35 79 58 80 59 81 67 82 60 83 66 84 61 85
REMARK SMILES IDX 62 86 63 87 64 88 65 89 44 90 45 91 53 92 46 93 52 94 47 95
REMARK SMILES IDX 48 96 49 97 50 98 51 99
REMARK H PARENT 72 55 42 66
REMARK Flexibility Score: inf
ROOT
ATOM      1  C   UNL     1       2.717  -2.248   0.655  1.00  0.00     0.188 C 
ENDROOT
BRANCH   1   2
ATOM      2  O   UNL     1       3.633  -3.281   0.320  1.00  0.00    -0.376 OA
BRANCH   2   3
ATOM      3  C   UNL     1       4.205  -3.321  -0.977  1.00  0.00     0.202 C 
BRANCH   3   4
ATOM      4  C   UNL     1       3.279  -3.576  -2.171  1.00  0.00     0.261 C 
BRANCH   4   5
ATOM      5  O   UNL     1       2.139  -2.696  -2.234  1.00  0.00    -0.463 OA
BRANCH   5   6
ATOM      6  C   UNL     1       0.925  -3.302  -2.189  1.00  0.00     0.310 C 
ATOM      7  O   UNL     1       0.772  -4.522  -2.132  1.00  0.00    -0.252 OA
BRANCH   6   8
ATOM      8  C   UNL     1      -0.281  -2.384  -2.174  1.00  0.00     0.160 C 
BRANCH   8   9
ATOM      9  C   UNL     1      -0.114  -0.905  -2.397  1.00  0.00    -0.015 A 
ATOM     10  C   UNL     1      -0.397   0.102   0.015  1.00  0.00     0.065 C 
ATOM     11  C   UNL     1      -0.131   0.125  -1.456  1.00  0.00     0.024 A 
ATOM     12  N   UNL     1       0.077   1.324  -2.127  1.00  0.00    -0.314 N 
ATOM     13  C   UNL     1      -0.141  -0.261  -3.670  1.00  0.00     0.033 A 
ATOM     14  C   UNL     1      -0.137   1.111  -3.480  1.00  0.00     0.053 A 
BRANCH  12  15
ATOM     15  C   UNL     1       0.478   2.552  -1.547  1.00  0.00     0.046 A 
ATOM     16  C   UNL     1      -0.362   3.667  -1.598  1.00  0.00     0.026 A 
ATOM     17  C   UNL     1       1.787   2.661  -1.062  1.00  0.00     0.026 A 
ATOM     18  C   UNL     1       0.113   4.900  -1.150  1.00  0.00     0.002 A 
ATOM     19  C   UNL     1       2.259   3.903  -0.636  1.00  0.00     0.002 A 
ATOM     20  C   UNL     1       1.423   5.020  -0.680  1.00  0.00     0.000 A 
ENDBRANCH  12  15
BRANCH  14  21
ATOM     21  C   UNL     1      -0.267   2.174  -4.474  1.00  0.00    -0.001 A 
ATOM     22  C   UNL     1       0.839   2.942  -4.860  1.00  0.00     0.011 A 
ATOM     23  C   UNL     1      -1.525   2.447  -5.027  1.00  0.00     0.011 A 
ATOM     24  C   UNL     1       0.692   3.968  -5.796  1.00  0.00     0.021 A 
ATOM     25  C   UNL     1      -1.682   3.475  -5.958  1.00  0.00     0.021 A 
ATOM     26  C   UNL     1      -0.569   4.229  -6.339  1.00  0.00     0.067 A 
BRANCH  26  27
ATOM     27  S   UNL     1      -0.742   5.488  -7.579  1.00  0.00     0.175 S 
ATOM     28  C   UNL     1      -0.343   6.999  -6.744  1.00  0.00     0.163 C 
ATOM     29  O   UNL     1       0.295   5.236  -8.578  1.00  0.00    -0.224 OA
ATOM     30  O   UNL     1      -2.130   5.551  -7.965  1.00  0.00    -0.224 OA
ENDBRANCH  26  27
ENDBRANCH  14  21
ENDBRANCH   8   9
ENDBRANCH   6   8
ENDBRANCH   5   6
ENDBRANCH   4   5
ENDBRANCH   3   4
ENDBRANCH   2   3
ENDBRANCH   1   2
BRANCH   1  31
ATOM     31  C   UNL     1       2.884  -0.826   0.107  1.00  0.00     0.188 C 
BRANCH  31  32
ATOM     32  O   UNL     1       4.141  -0.388  -0.347  1.00  0.00    -0.376 OA
BRANCH  32  33
ATOM     33  C   UNL     1       5.172  -0.120   0.599  1.00  0.00     0.202 C 
BRANCH  33  34
ATOM     34  C   UNL     1       4.860   0.664   1.910  1.00  0.00     0.261 C 
BRANCH  34  35
ATOM     35  O   UNL     1       4.782  -0.066   3.197  1.00  0.00    -0.460 OA
BRANCH  35  36
ATOM     36  C   UNL     1       3.797   0.340   4.085  1.00  0.00     0.338 C 
ATOM     37  O   UNL     1       2.768   0.883   3.700  1.00  0.00    -0.246 OA
BRANCH  36  38
ATOM     38  C   UNL     1       4.026   0.040   5.595  1.00  0.00     0.060 A 
ATOM     39  C   UNL     1       3.202  -0.857   6.276  1.00  0.00     0.016 A 
ATOM     40  C   UNL     1       4.818   0.826   6.462  1.00  0.00     0.016 A 
ATOM     41  C   UNL     1       3.249  -1.019   7.728  1.00  0.00     0.010 A 
ATOM     42  C   UNL     1       4.825   0.693   7.949  1.00  0.00     0.010 A 
ATOM     43  C   UNL     1       4.061  -0.262   8.660  1.00  0.00    -0.014 A 
BRANCH  43  44
ATOM     44  C   UNL     1       3.586  -0.223  10.276  1.00  0.00     0.031 A 
ATOM     45  C   UNL     1       2.123   0.025  10.125  1.00  0.00     0.074 A 
ATOM     46  C   UNL     1       4.021  -0.228  11.628  1.00  0.00     0.049 A 
ATOM     47  N   UNL     1       1.723   1.076   9.468  1.00  0.00    -0.248 NA
ATOM     48  C   UNL     1       1.100  -1.002  10.316  1.00  0.00     0.031 C 
ATOM     49  C   UNL     1       5.407  -0.248  12.140  1.00  0.00     0.029 A 
ATOM     50  N   UNL     1       3.330  -0.211  12.916  1.00  0.00    -0.354 N 
ATOM     51  C   UNL     1       0.354   1.005   9.407  1.00  0.00     0.074 A 
ATOM     52  C   UNL     1       0.057  -0.385   9.745  1.00  0.00     0.031 C 
ATOM     53  C   UNL     1       5.472  -0.400  13.503  1.00  0.00     0.029 A 
ATOM     54  C   UNL     1       4.142  -0.434  14.122  1.00  0.00     0.049 A 
ATOM     55  H   UNL     1       2.360  -0.056  12.974  1.00  0.00     0.167 HD
ATOM     56  C   UNL     1      -0.306   2.122   9.831  1.00  0.00     0.031 A 
ATOM     57  C   UNL     1       3.816  -0.542  15.496  1.00  0.00     0.031 A 
ATOM     58  C   UNL     1      -0.685   2.014  11.218  1.00  0.00     0.049 A 
ATOM     59  C   UNL     1       2.588   0.245  15.669  1.00  0.00     0.074 A 
ATOM     60  C   UNL     1      -1.285   1.004  11.942  1.00  0.00     0.029 A 
ATOM     61  N   UNL     1      -0.024   2.826  12.123  1.00  0.00    -0.354 N 
ATOM     62  N   UNL     1       2.602   1.542  15.665  1.00  0.00    -0.248 NA
ATOM     63  C   UNL     1       1.299  -0.370  15.961  1.00  0.00     0.031 C 
ATOM     64  C   UNL     1      -0.547   0.946  13.139  1.00  0.00     0.029 A 
ATOM     65  C   UNL     1       0.154   2.135  13.303  1.00  0.00     0.049 A 
ATOM     66  H   UNL     1       0.273   3.749  11.951  1.00  0.00     0.167 HD
ATOM     67  C   UNL     1       1.306   1.849  15.373  1.00  0.00     0.074 A 
ATOM     68  C   UNL     1       0.529   0.713  15.838  1.00  0.00     0.031 C 
ATOM     69  C   UNL     1       1.103   2.623  14.276  1.00  0.00     0.031 A 
BRANCH  56  70
ATOM     70  C   UNL     1       0.159   3.420   9.226  1.00  0.00    -0.014 A 
ATOM     71  C   UNL     1      -0.744   4.179   8.471  1.00  0.00     0.010 A 
ATOM     72  C   UNL     1       1.484   3.892   9.367  1.00  0.00     0.010 A 
ATOM     73  C   UNL     1      -0.319   5.355   7.840  1.00  0.00     0.020 A 
ATOM     74  C   UNL     1       1.919   5.049   8.722  1.00  0.00     0.020 A 
ATOM     75  C   UNL     1       1.012   5.774   7.958  1.00  0.00     0.054 A 
BRANCH  75  76
ATOM     76  S   UNL     1       1.537   7.264   7.072  1.00  0.00     0.124 S 
ATOM     77  O   UNL     1       1.095   6.987   5.705  1.00  0.00    -0.237 OA
ATOM     78  O   UNL     1       0.790   8.310   7.763  1.00  0.00    -0.237 OA
ATOM     79  O   UNL     1       2.986   7.290   7.247  1.00  0.00    -0.744 OA
ENDBRANCH  75  76
ENDBRANCH  56  70
BRANCH  57  80
ATOM     80  C   UNL     1       4.291  -0.958  16.970  1.00  0.00    -0.014 A 
ATOM     81  C   UNL     1       3.821  -0.232  18.133  1.00  0.00     0.010 A 
ATOM     82  C   UNL     1       4.779  -2.240  17.292  1.00  0.00     0.010 A 
ATOM     83  C   UNL     1       3.736  -0.770  19.456  1.00  0.00     0.020 A 
ATOM     84  C   UNL     1       4.720  -2.784  18.628  1.00  0.00     0.020 A 
ATOM     85  C   UNL     1       4.164  -2.067  19.695  1.00  0.00     0.054 A 
BRANCH  85  86
ATOM     86  S   UNL     1       3.859  -2.847  21.342  1.00  0.00     0.124 S 
ATOM     87  O   UNL     1       4.738  -2.098  22.235  1.00  0.00    -0.237 OA
ATOM     88  O   UNL     1       2.428  -2.628  21.547  1.00  0.00    -0.237 OA
ATOM     89  O   UNL     1       4.234  -4.245  21.135  1.00  0.00    -0.744 OA
ENDBRANCH  85  86
ENDBRANCH  57  80
BRANCH  69  90
ATOM     90  C   UNL     1       2.033   3.810  14.086  1.00  0.00    -0.014 A 
ATOM     91  C   UNL     1       3.446   3.755  14.146  1.00  0.00     0.010 A 
ATOM     92  C   UNL     1       1.444   5.076  13.936  1.00  0.00     0.010 A 
ATOM     93  C   UNL     1       4.229   4.920  14.141  1.00  0.00     0.020 A 
ATOM     94  C   UNL     1       2.221   6.242  13.890  1.00  0.00     0.020 A 
ATOM     95  C   UNL     1       3.607   6.161  14.028  1.00  0.00     0.054 A 
BRANCH  95  96
ATOM     96  S   UNL     1       4.620   7.666  14.107  1.00  0.00     0.124 S 
ATOM     97  O   UNL     1       5.121   7.633  15.480  1.00  0.00    -0.237 OA
ATOM     98  O   UNL     1       5.625   7.435  13.074  1.00  0.00    -0.237 OA
ATOM     99  O   UNL     1       3.669   8.740  13.832  1.00  0.00    -0.744 OA
ENDBRANCH  95  96
ENDBRANCH  69  90
ENDBRANCH  43  44
ENDBRANCH  36  38
ENDBRANCH  35  36
ENDBRANCH  34  35
ENDBRANCH  33  34
ENDBRANCH  32  33
ENDBRANCH  31  32
ENDBRANCH   1  31
TORSDOF 24
