REMARK SMILES CC[C@@]1(CC(=O)OCCOCCOCCOC(=O)c2ccc(-c3c4nc(c(-c5ccc(S(=O)(=O)[O-])cc5)c5ccc([nH]5)c(-c5ccc(S(=O)(=O)[O-])cc5)c5nc(c(-c6ccc(S(=O)(=O)[O-])cc6)c6ccc3[nH]6)C=C5)C=C4)cc2)OC[C@H](Cc2ccccc2)c2c1[nH]c1ccccc21
REMARK SMILES IDX 11 1 10 2 9 3 8 4 7 5 5 6 6 7 4 8 3 9 79 10 90 11 80 12
REMARK SMILES IDX 89 13 91 14 81 15 97 16 92 17 96 19 93 20 95 21 94 22 2 23
REMARK SMILES IDX 1 24 82 25 83 26 84 27 88 28 85 29 87 30 86 31 12 32 13 33
REMARK SMILES IDX 14 34 15 35 16 36 17 37 18 38 19 39 20 40 78 41 21 42 77 43
REMARK SMILES IDX 22 44 23 45 24 46 71 47 25 48 76 49 70 50 72 51 26 52 75 53
REMARK SMILES IDX 69 54 68 55 27 57 57 58 38 59 56 60 39 61 42 62 55 63 73 64
REMARK SMILES IDX 40 65 41 66 54 68 74 69 43 70 28 71 29 72 37 73 30 74 36 75
REMARK SMILES IDX 31 76 32 77 33 78 34 79 35 80 58 81 59 82 67 83 60 84 66 85
REMARK SMILES IDX 61 86 62 87 63 88 64 89 65 90 44 91 45 92 53 93 46 94 52 95
REMARK SMILES IDX 47 96 48 97 49 98 50 99 51 100
REMARK H PARENT 91 18 72 56 42 67
REMARK Flexibility Score: inf
ROOT
ATOM      1  C   UNL     1      -3.060   0.751  -0.631  1.00  0.00     0.188 C 
ENDROOT
BRANCH   1   2
ATOM      2  O   UNL     1      -4.394   0.995  -0.234  1.00  0.00    -0.376 OA
BRANCH   2   3
ATOM      3  C   UNL     1      -4.612   2.250   0.410  1.00  0.00     0.202 C 
BRANCH   3   4
ATOM      4  C   UNL     1      -3.571   2.655   1.473  1.00  0.00     0.261 C 
BRANCH   4   5
ATOM      5  O   UNL     1      -2.262   2.959   0.901  1.00  0.00    -0.463 OA
BRANCH   5   6
ATOM      6  C   UNL     1      -1.199   2.575   1.658  1.00  0.00     0.309 C 
ATOM      7  O   UNL     1      -1.294   2.292   2.848  1.00  0.00    -0.252 OA
BRANCH   6   8
ATOM      8  C   UNL     1       0.067   2.304   0.854  1.00  0.00     0.164 C 
BRANCH   8   9
ATOM      9  C   UNL     1       1.044   3.364   0.348  1.00  0.00     0.118 C 
ATOM     10  O   UNL     1       2.213   2.738  -0.242  1.00  0.00    -0.368 OA
ATOM     11  C   UNL     1       1.533   4.127   1.516  1.00  0.00     0.053 A 
ATOM     12  C   UNL     1       3.126   2.066   0.633  1.00  0.00     0.170 C 
ATOM     13  C   UNL     1       2.727   3.978   2.190  1.00  0.00    -0.011 A 
ATOM     14  N   UNL     1       0.753   5.031   2.166  1.00  0.00    -0.356 N 
ATOM     15  C   UNL     1       3.762   2.968   1.717  1.00  0.00     0.052 C 
ATOM     16  C   UNL     1       2.703   4.958   3.236  1.00  0.00     0.003 A 
ATOM     17  C   UNL     1       1.475   5.626   3.154  1.00  0.00     0.046 A 
ATOM     18  H   UNL     1      -0.188   5.226   1.954  1.00  0.00     0.166 HD
ATOM     19  C   UNL     1       3.592   5.375   4.242  1.00  0.00     0.010 A 
ATOM     20  C   UNL     1       1.099   6.696   3.963  1.00  0.00     0.026 A 
ATOM     21  C   UNL     1       3.236   6.456   5.066  1.00  0.00     0.001 A 
ATOM     22  C   UNL     1       2.016   7.114   4.917  1.00  0.00     0.002 A 
BRANCH   9  23
ATOM     23  C   UNL     1       0.475   4.309  -0.729  1.00  0.00     0.039 C 
ATOM     24  C   UNL     1       1.348   4.534  -1.968  1.00  0.00     0.007 C 
ENDBRANCH   9  23
BRANCH  15  25
ATOM     25  C   UNL     1       4.266   2.039   2.823  1.00  0.00     0.046 C 
BRANCH  25  26
ATOM     26  C   UNL     1       5.351   1.025   2.498  1.00  0.00    -0.047 A 
ATOM     27  C   UNL     1       6.701   1.356   2.625  1.00  0.00     0.004 A 
ATOM     28  C   UNL     1       5.028  -0.318   2.243  1.00  0.00     0.004 A 
ATOM     29  C   UNL     1       7.685   0.361   2.569  1.00  0.00     0.000 A 
ATOM     30  C   UNL     1       6.003  -1.318   2.213  1.00  0.00     0.000 A 
ATOM     31  C   UNL     1       7.336  -0.977   2.388  1.00  0.00     0.000 A 
ENDBRANCH  25  26
ENDBRANCH  15  25
ENDBRANCH   8   9
ENDBRANCH   6   8
ENDBRANCH   5   6
ENDBRANCH   4   5
ENDBRANCH   3   4
ENDBRANCH   2   3
ENDBRANCH   1   2
BRANCH   1  32
ATOM     32  C   UNL     1      -2.526   1.714  -1.695  1.00  0.00     0.188 C 
BRANCH  32  33
ATOM     33  O   UNL     1      -3.076   3.021  -1.788  1.00  0.00    -0.376 OA
BRANCH  33  34
ATOM     34  C   UNL     1      -2.608   3.810  -2.886  1.00  0.00     0.202 C 
BRANCH  34  35
ATOM     35  C   UNL     1      -2.700   3.175  -4.290  1.00  0.00     0.261 C 
BRANCH  35  36
ATOM     36  O   UNL     1      -2.025   1.893  -4.405  1.00  0.00    -0.460 OA
BRANCH  36  37
ATOM     37  C   UNL     1      -0.673   1.875  -4.473  1.00  0.00     0.338 C 
ATOM     38  O   UNL     1       0.005   2.777  -4.949  1.00  0.00    -0.246 OA
BRANCH  37  39
ATOM     39  C   UNL     1      -0.128   0.774  -3.593  1.00  0.00     0.060 A 
ATOM     40  C   UNL     1      -0.839  -0.368  -3.188  1.00  0.00     0.016 A 
ATOM     41  C   UNL     1       1.073   1.041  -2.943  1.00  0.00     0.016 A 
ATOM     42  C   UNL     1      -0.453  -1.090  -2.024  1.00  0.00     0.010 A 
ATOM     43  C   UNL     1       1.447   0.316  -1.801  1.00  0.00     0.010 A 
ATOM     44  C   UNL     1       0.647  -0.691  -1.246  1.00  0.00    -0.014 A 
BRANCH  44  45
ATOM     45  C   UNL     1       1.218  -1.527  -0.136  1.00  0.00     0.031 A 
ATOM     46  C   UNL     1       1.951  -2.650  -0.742  1.00  0.00     0.074 A 
ATOM     47  C   UNL     1       1.230  -1.436   1.229  1.00  0.00     0.049 A 
ATOM     48  N   UNL     1       1.441  -3.829  -0.853  1.00  0.00    -0.248 NA
ATOM     49  C   UNL     1       3.179  -2.437  -1.518  1.00  0.00     0.031 C 
ATOM     50  C   UNL     1       0.533  -0.478   2.067  1.00  0.00     0.029 A 
ATOM     51  N   UNL     1       1.925  -2.142   2.206  1.00  0.00    -0.354 N 
ATOM     52  C   UNL     1       2.426  -4.581  -1.453  1.00  0.00     0.074 A 
ATOM     53  C   UNL     1       3.313  -3.639  -2.086  1.00  0.00     0.031 C 
ATOM     54  C   UNL     1       1.077  -0.397   3.307  1.00  0.00     0.029 A 
ATOM     55  C   UNL     1       2.019  -1.492   3.465  1.00  0.00     0.049 A 
ATOM     56  H   UNL     1       2.322  -3.026   2.036  1.00  0.00     0.167 HD
ATOM     57  C   UNL     1       2.605  -5.872  -1.074  1.00  0.00     0.031 A 
ATOM     58  C   UNL     1       2.587  -1.908   4.645  1.00  0.00     0.031 A 
ATOM     59  C   UNL     1       1.533  -6.315  -0.211  1.00  0.00     0.049 A 
ATOM     60  C   UNL     1       2.443  -3.372   4.641  1.00  0.00     0.074 A 
ATOM     61  C   UNL     1       0.221  -6.699  -0.382  1.00  0.00     0.029 A 
ATOM     62  N   UNL     1       1.698  -6.000   1.118  1.00  0.00    -0.354 N 
ATOM     63  N   UNL     1       1.276  -3.945   4.724  1.00  0.00    -0.248 NA
ATOM     64  C   UNL     1       3.533  -4.225   4.184  1.00  0.00     0.031 C 
ATOM     65  C   UNL     1      -0.431  -6.479   0.864  1.00  0.00     0.029 A 
ATOM     66  C   UNL     1       0.499  -6.013   1.787  1.00  0.00     0.049 A 
ATOM     67  H   UNL     1       2.565  -5.791   1.535  1.00  0.00     0.167 HD
ATOM     68  C   UNL     1       1.390  -5.019   3.870  1.00  0.00     0.074 A 
ATOM     69  C   UNL     1       2.819  -5.258   3.729  1.00  0.00     0.031 C 
ATOM     70  C   UNL     1       0.344  -5.391   3.085  1.00  0.00     0.031 A 
BRANCH  57  71
ATOM     71  C   UNL     1       3.927  -6.585  -1.113  1.00  0.00    -0.014 A 
ATOM     72  C   UNL     1       5.164  -5.941  -1.314  1.00  0.00     0.010 A 
ATOM     73  C   UNL     1       3.965  -7.936  -0.721  1.00  0.00     0.010 A 
ATOM     74  C   UNL     1       6.378  -6.606  -1.158  1.00  0.00     0.020 A 
ATOM     75  C   UNL     1       5.179  -8.605  -0.523  1.00  0.00     0.020 A 
ATOM     76  C   UNL     1       6.378  -7.934  -0.753  1.00  0.00     0.054 A 
BRANCH  76  77
ATOM     77  S   UNL     1       7.974  -8.732  -0.480  1.00  0.00     0.124 S 
ATOM     78  O   UNL     1       8.513  -8.791  -1.836  1.00  0.00    -0.237 OA
ATOM     79  O   UNL     1       8.638  -7.796   0.423  1.00  0.00    -0.237 OA
ATOM     80  O   UNL     1       7.616 -10.020   0.108  1.00  0.00    -0.744 OA
ENDBRANCH  76  77
ENDBRANCH  57  71
BRANCH  58  81
ATOM     81  C   UNL     1       3.486  -1.210   5.642  1.00  0.00    -0.014 A 
ATOM     82  C   UNL     1       3.849   0.133   5.512  1.00  0.00     0.010 A 
ATOM     83  C   UNL     1       4.234  -1.947   6.592  1.00  0.00     0.010 A 
ATOM     84  C   UNL     1       5.062   0.636   6.030  1.00  0.00     0.020 A 
ATOM     85  C   UNL     1       5.425  -1.444   7.163  1.00  0.00     0.020 A 
ATOM     86  C   UNL     1       5.887  -0.185   6.790  1.00  0.00     0.054 A 
BRANCH  86  87
ATOM     87  S   UNL     1       7.557   0.369   7.262  1.00  0.00     0.124 S 
ATOM     88  O   UNL     1       8.396  -0.253   6.241  1.00  0.00    -0.237 OA
ATOM     89  O   UNL     1       7.470   1.827   7.188  1.00  0.00    -0.237 OA
ATOM     90  O   UNL     1       7.717  -0.166   8.612  1.00  0.00    -0.744 OA
ENDBRANCH  86  87
ENDBRANCH  58  81
BRANCH  70  91
ATOM     91  C   UNL     1      -1.045  -5.013   3.532  1.00  0.00    -0.014 A 
ATOM     92  C   UNL     1      -1.911  -6.073   3.847  1.00  0.00     0.010 A 
ATOM     93  C   UNL     1      -1.550  -3.699   3.558  1.00  0.00     0.010 A 
ATOM     94  C   UNL     1      -3.255  -5.841   4.135  1.00  0.00     0.020 A 
ATOM     95  C   UNL     1      -2.899  -3.455   3.869  1.00  0.00     0.020 A 
ATOM     96  C   UNL     1      -3.747  -4.535   4.133  1.00  0.00     0.054 A 
BRANCH  96  97
ATOM     97  S   UNL     1      -5.512  -4.298   4.475  1.00  0.00     0.124 S 
ATOM     98  O   UNL     1      -6.134  -4.841   3.270  1.00  0.00    -0.237 OA
ATOM     99  O   UNL     1      -5.713  -5.088   5.688  1.00  0.00    -0.237 OA
ATOM    100  O   UNL     1      -5.651  -2.854   4.649  1.00  0.00    -0.744 OA
ENDBRANCH  96  97
ENDBRANCH  70  91
ENDBRANCH  44  45
ENDBRANCH  37  39
ENDBRANCH  36  37
ENDBRANCH  35  36
ENDBRANCH  34  35
ENDBRANCH  33  34
ENDBRANCH  32  33
ENDBRANCH   1  32
TORSDOF 24
