REMARK SMILES C[C@@H](C(=O)OCCOCCOCCOC(=O)c1ccc(-c2c3nc(c(-c4ccc(S(=O)(=O)[O-])cc4)c4ccc([nH]4)c(-c4ccc(S(=O)(=O)[O-])cc4)c4nc(c(-c5ccc(S(=O)(=O)[O-])cc5)c5ccc2[nH]5)C=C4)C=C3)cc1)c1ccc(-c2cccc(OC(=O)NC3CC3)c2)c(F)c1
REMARK SMILES IDX 9 1 8 2 7 3 6 4 5 5 3 6 4 7 2 8 1 9 77 10 78 11 96 12 79 13
REMARK SMILES IDX 94 14 80 15 95 16 81 17 82 18 93 19 83 20 85 21 84 22 86 23
REMARK SMILES IDX 87 24 88 25 89 26 90 28 91 29 92 30 10 31 11 32 12 33 13 34
REMARK SMILES IDX 14 35 15 36 16 37 17 38 18 39 76 40 19 41 75 42 20 43 21 44
REMARK SMILES IDX 22 45 69 46 23 47 74 48 68 49 70 50 24 51 73 52 67 53 66 54
REMARK SMILES IDX 25 56 55 57 36 58 54 59 37 60 40 61 53 62 71 63 38 64 39 65
REMARK SMILES IDX 52 67 72 68 41 69 26 70 27 71 35 72 28 73 34 74 29 75 30 76
REMARK SMILES IDX 31 77 32 78 33 79 56 80 57 81 65 82 58 83 64 84 59 85 60 86
REMARK SMILES IDX 61 87 62 88 63 89 42 90 43 91 51 92 44 93 50 94 45 95 46 96
REMARK SMILES IDX 47 97 48 98 49 99
REMARK H PARENT 89 27 70 55 40 66
REMARK Flexibility Score: inf
ROOT
ATOM      1  C   UNL     1       0.770   3.608   1.721  1.00  0.00     0.188 C 
ENDROOT
BRANCH   1   2
ATOM      2  O   UNL     1       1.756   4.327   2.423  1.00  0.00    -0.376 OA
BRANCH   2   3
ATOM      3  C   UNL     1       2.789   3.607   3.079  1.00  0.00     0.202 C 
BRANCH   3   4
ATOM      4  C   UNL     1       2.674   2.126   3.498  1.00  0.00     0.261 C 
BRANCH   4   5
ATOM      5  O   UNL     1       2.181   1.196   2.510  1.00  0.00    -0.463 OA
BRANCH   5   6
ATOM      6  C   UNL     1       1.214   0.330   2.937  1.00  0.00     0.313 C 
ATOM      7  O   UNL     1       0.775   0.329   4.083  1.00  0.00    -0.252 OA
BRANCH   6   8
ATOM      8  C   UNL     1       0.699  -0.655   1.868  1.00  0.00     0.126 C 
ATOM      9  C   UNL     1       1.408  -0.683   0.510  1.00  0.00     0.025 C 
BRANCH   8  10
ATOM     10  C   UNL     1      -0.816  -0.598   1.665  1.00  0.00    -0.031 A 
ATOM     11  C   UNL     1      -1.541   0.597   1.761  1.00  0.00     0.005 A 
ATOM     12  C   UNL     1      -1.531  -1.764   1.361  1.00  0.00     0.044 A 
ATOM     13  C   UNL     1      -2.929   0.626   1.613  1.00  0.00     0.012 A 
ATOM     14  C   UNL     1      -2.922  -1.731   1.221  1.00  0.00     0.131 A 
ATOM     15  C   UNL     1      -3.648  -0.543   1.362  1.00  0.00     0.018 A 
ATOM     16  F   UNL     1      -3.560  -2.888   0.982  1.00  0.00    -0.206 F 
BRANCH  15  17
ATOM     17  C   UNL     1      -5.110  -0.520   1.423  1.00  0.00    -0.012 A 
ATOM     18  C   UNL     1      -5.904   0.059   0.425  1.00  0.00     0.009 A 
ATOM     19  C   UNL     1      -5.734  -1.022   2.576  1.00  0.00     0.056 A 
ATOM     20  C   UNL     1      -7.293   0.117   0.571  1.00  0.00     0.004 A 
ATOM     21  C   UNL     1      -7.114  -0.967   2.722  1.00  0.00     0.133 A 
ATOM     22  C   UNL     1      -7.899  -0.402   1.716  1.00  0.00     0.047 A 
BRANCH  21  23
ATOM     23  O   UNL     1      -7.810  -1.449   3.858  1.00  0.00    -0.410 OA
BRANCH  23  24
ATOM     24  C   UNL     1      -7.241  -2.086   4.961  1.00  0.00     0.412 C 
ATOM     25  O   UNL     1      -6.046  -2.313   5.127  1.00  0.00    -0.224 OA
ATOM     26  N   UNL     1      -8.146  -2.517   5.893  1.00  0.00    -0.318 N 
ATOM     27  H   UNL     1      -7.751  -2.994   6.658  1.00  0.00     0.167 HD
BRANCH  26  28
ATOM     28  C   UNL     1      -9.563  -2.391   5.940  1.00  0.00     0.085 C 
ATOM     29  C   UNL     1     -10.499  -2.152   4.790  1.00  0.00     0.027 C 
ATOM     30  C   UNL     1     -10.409  -3.515   5.399  1.00  0.00     0.027 C 
ENDBRANCH  26  28
ENDBRANCH  23  24
ENDBRANCH  21  23
ENDBRANCH  15  17
ENDBRANCH   8  10
ENDBRANCH   6   8
ENDBRANCH   5   6
ENDBRANCH   4   5
ENDBRANCH   3   4
ENDBRANCH   2   3
ENDBRANCH   1   2
BRANCH   1  31
ATOM     31  C   UNL     1       1.193   2.869   0.445  1.00  0.00     0.188 C 
BRANCH  31  32
ATOM     32  O   UNL     1       2.501   2.976  -0.070  1.00  0.00    -0.376 OA
BRANCH  32  33
ATOM     33  C   UNL     1       3.051   4.256  -0.322  1.00  0.00     0.202 C 
BRANCH  33  34
ATOM     34  C   UNL     1       2.238   5.413  -0.932  1.00  0.00     0.261 C 
BRANCH  34  35
ATOM     35  O   UNL     1       0.815   5.375  -0.784  1.00  0.00    -0.460 OA
BRANCH  35  36
ATOM     36  C   UNL     1       0.133   4.861  -1.837  1.00  0.00     0.338 C 
ATOM     37  O   UNL     1       0.606   4.426  -2.877  1.00  0.00    -0.246 OA
BRANCH  36  38
ATOM     38  C   UNL     1      -1.290   4.721  -1.456  1.00  0.00     0.060 A 
ATOM     39  C   UNL     1      -1.875   3.447  -1.479  1.00  0.00     0.016 A 
ATOM     40  C   UNL     1      -2.044   5.836  -1.090  1.00  0.00     0.016 A 
ATOM     41  C   UNL     1      -3.224   3.288  -1.153  1.00  0.00     0.010 A 
ATOM     42  C   UNL     1      -3.402   5.679  -0.792  1.00  0.00     0.010 A 
ATOM     43  C   UNL     1      -4.005   4.410  -0.846  1.00  0.00    -0.014 A 
BRANCH  43  44
ATOM     44  C   UNL     1      -5.483   4.286  -0.763  1.00  0.00     0.031 A 
ATOM     45  C   UNL     1      -6.293   4.544  -2.003  1.00  0.00     0.074 A 
ATOM     46  C   UNL     1      -6.099   3.953   0.386  1.00  0.00     0.049 A 
ATOM     47  N   UNL     1      -7.589   4.520  -2.166  1.00  0.00    -0.248 NA
ATOM     48  C   UNL     1      -5.537   4.888  -3.219  1.00  0.00     0.031 C 
ATOM     49  C   UNL     1      -5.422   3.653   1.644  1.00  0.00     0.029 A 
ATOM     50  N   UNL     1      -7.433   3.796   0.677  1.00  0.00    -0.354 N 
ATOM     51  C   UNL     1      -7.808   4.878  -3.491  1.00  0.00     0.074 A 
ATOM     52  C   UNL     1      -6.511   5.117  -4.086  1.00  0.00     0.031 C 
ATOM     53  C   UNL     1      -6.339   3.298   2.560  1.00  0.00     0.029 A 
ATOM     54  C   UNL     1      -7.676   3.417   1.978  1.00  0.00     0.049 A 
ATOM     55  H   UNL     1      -8.148   3.941   0.016  1.00  0.00     0.167 HD
ATOM     56  C   UNL     1      -8.984   5.013  -4.149  1.00  0.00     0.031 A 
ATOM     57  C   UNL     1      -8.842   3.200   2.625  1.00  0.00     0.031 A 
ATOM     58  C   UNL     1     -10.274   4.800  -3.548  1.00  0.00     0.049 A 
ATOM     59  C   UNL     1     -10.140   3.366   1.866  1.00  0.00     0.074 A 
ATOM     60  C   UNL     1     -11.523   4.922  -4.131  1.00  0.00     0.029 A 
ATOM     61  N   UNL     1     -10.483   4.429  -2.228  1.00  0.00    -0.354 N 
ATOM     62  N   UNL     1     -10.328   3.658   0.599  1.00  0.00    -0.248 NA
ATOM     63  C   UNL     1     -11.387   3.172   2.622  1.00  0.00     0.031 C 
ATOM     64  C   UNL     1     -12.488   4.686  -3.147  1.00  0.00     0.029 A 
ATOM     65  C   UNL     1     -11.841   4.343  -1.972  1.00  0.00     0.049 A 
ATOM     66  H   UNL     1      -9.771   4.254  -1.571  1.00  0.00     0.167 HD
ATOM     67  C   UNL     1     -11.708   3.668   0.409  1.00  0.00     0.074 A 
ATOM     68  C   UNL     1     -12.306   3.307   1.677  1.00  0.00     0.031 C 
ATOM     69  C   UNL     1     -12.421   3.968  -0.706  1.00  0.00     0.031 A 
BRANCH  56  70
ATOM     70  C   UNL     1      -8.928   5.467  -5.583  1.00  0.00    -0.014 A 
ATOM     71  C   UNL     1      -8.442   4.628  -6.601  1.00  0.00     0.010 A 
ATOM     72  C   UNL     1      -9.402   6.749  -5.921  1.00  0.00     0.010 A 
ATOM     73  C   UNL     1      -8.395   5.076  -7.924  1.00  0.00     0.020 A 
ATOM     74  C   UNL     1      -9.387   7.189  -7.247  1.00  0.00     0.020 A 
ATOM     75  C   UNL     1      -8.868   6.354  -8.238  1.00  0.00     0.054 A 
BRANCH  75  76
ATOM     76  S   UNL     1      -8.817   6.898  -9.967  1.00  0.00     0.124 S 
ATOM     77  O   UNL     1      -7.384   7.084 -10.183  1.00  0.00    -0.237 OA
ATOM     78  O   UNL     1      -9.418   5.770 -10.674  1.00  0.00    -0.237 OA
ATOM     79  O   UNL     1      -9.610   8.125  -9.969  1.00  0.00    -0.744 OA
ENDBRANCH  75  76
ENDBRANCH  56  70
BRANCH  57  80
ATOM     80  C   UNL     1      -8.849   2.795   4.066  1.00  0.00    -0.014 A 
ATOM     81  C   UNL     1      -9.425   1.577   4.461  1.00  0.00     0.010 A 
ATOM     82  C   UNL     1      -8.299   3.626   5.061  1.00  0.00     0.010 A 
ATOM     83  C   UNL     1      -9.466   1.209   5.807  1.00  0.00     0.020 A 
ATOM     84  C   UNL     1      -8.288   3.233   6.407  1.00  0.00     0.020 A 
ATOM     85  C   UNL     1      -8.879   2.025   6.771  1.00  0.00     0.054 A 
BRANCH  85  86
ATOM     86  S   UNL     1      -8.885   1.458   8.493  1.00  0.00     0.124 S 
ATOM     87  O   UNL     1     -10.304   1.522   8.830  1.00  0.00    -0.237 OA
ATOM     88  O   UNL     1      -8.329   0.110   8.383  1.00  0.00    -0.237 OA
ATOM     89  O   UNL     1      -8.033   2.427   9.177  1.00  0.00    -0.744 OA
ENDBRANCH  85  86
ENDBRANCH  57  80
BRANCH  69  90
ATOM     90  C   UNL     1     -13.926   3.892  -0.622  1.00  0.00    -0.014 A 
ATOM     91  C   UNL     1     -14.665   4.824   0.129  1.00  0.00     0.010 A 
ATOM     92  C   UNL     1     -14.617   2.915  -1.364  1.00  0.00     0.010 A 
ATOM     93  C   UNL     1     -16.062   4.757   0.167  1.00  0.00     0.020 A 
ATOM     94  C   UNL     1     -16.014   2.866  -1.356  1.00  0.00     0.020 A 
ATOM     95  C   UNL     1     -16.727   3.779  -0.578  1.00  0.00     0.054 A 
BRANCH  95  96
ATOM     96  S   UNL     1     -18.541   3.743  -0.547  1.00  0.00     0.124 S 
ATOM     97  O   UNL     1     -18.813   3.252   0.801  1.00  0.00    -0.237 OA
ATOM     98  O   UNL     1     -18.893   5.140  -0.790  1.00  0.00    -0.237 OA
ATOM     99  O   UNL     1     -18.889   2.822  -1.627  1.00  0.00    -0.744 OA
ENDBRANCH  95  96
ENDBRANCH  69  90
ENDBRANCH  43  44
ENDBRANCH  36  38
ENDBRANCH  35  36
ENDBRANCH  34  35
ENDBRANCH  33  34
ENDBRANCH  32  33
ENDBRANCH  31  32
ENDBRANCH   1  31
TORSDOF 25
