REMARK SMILES CCOc1ccc(C(=O)N2CCC(C(=O)OCCOCCOCCOC(=O)c3ccc(-c4c5nc(c(-c6ccc(S(=O)(=O)[O-])cc6)c6ccc([nH]6)c(-c6ccc(S(=O)(=O)[O-])cc6)c6nc(c(-c7ccc(S(=O)(=O)[O-])cc7)c7ccc4[nH]7)C=C6)C=C5)cc3)(c3ccccc3)CC2)cc1OC
REMARK SMILES IDX 20 1 19 2 18 3 17 4 16 5 14 6 15 7 13 8 8 9 9 10 10 11 11 12
REMARK SMILES IDX 95 13 12 14 94 15 7 16 4 17 5 18 97 19 6 20 96 21 3 22 2 23
REMARK SMILES IDX 1 24 98 25 99 26 88 27 89 28 93 29 90 30 92 31 91 32 21 33
REMARK SMILES IDX 22 34 23 35 24 36 25 37 26 38 27 39 28 40 29 41 87 42 30 43
REMARK SMILES IDX 86 44 31 45 32 46 33 47 80 48 34 49 85 50 79 51 81 52 35 53
REMARK SMILES IDX 84 54 78 55 77 56 36 58 66 59 47 60 65 61 48 62 51 63 64 64
REMARK SMILES IDX 82 65 49 66 50 67 63 69 83 70 52 71 37 72 38 73 46 74 39 75
REMARK SMILES IDX 45 76 40 77 41 78 42 79 43 80 44 81 67 82 68 83 76 84 69 85
REMARK SMILES IDX 75 86 70 87 71 88 72 89 73 90 74 91 53 92 54 93 62 94 55 95
REMARK SMILES IDX 61 96 56 97 57 98 58 99 59 100 60 101
REMARK H PARENT 81 57 51 68
REMARK Flexibility Score: inf
ROOT
ATOM      1  C   UNL     1      13.059  -0.941  -2.828  1.00  0.00     0.188 C 
ENDROOT
BRANCH   1   2
ATOM      2  O   UNL     1      13.648  -0.899  -4.126  1.00  0.00    -0.376 OA
BRANCH   2   3
ATOM      3  C   UNL     1      13.472   0.255  -4.935  1.00  0.00     0.202 C 
BRANCH   3   4
ATOM      4  C   UNL     1      12.043   0.579  -5.378  1.00  0.00     0.261 C 
BRANCH   4   5
ATOM      5  O   UNL     1      11.104   0.694  -4.291  1.00  0.00    -0.463 OA
BRANCH   5   6
ATOM      6  C   UNL     1       9.932   0.025  -4.438  1.00  0.00     0.316 C 
ATOM      7  O   UNL     1       9.651  -0.606  -5.455  1.00  0.00    -0.251 OA
BRANCH   6   8
ATOM      8  C   UNL     1       8.939   0.165  -3.234  1.00  0.00     0.096 C 
ATOM      9  C   UNL     1       6.307   3.173  -1.376  1.00  0.00     0.253 C 
ATOM     10  O   UNL     1       6.741   4.190  -0.842  1.00  0.00    -0.269 OA
ATOM     11  N   UNL     1       7.126   2.234  -2.026  1.00  0.00    -0.339 N 
ATOM     12  C   UNL     1       8.342   1.877  -1.322  1.00  0.00     0.121 C 
ATOM     13  C   UNL     1       6.638   1.351  -3.084  1.00  0.00     0.121 C 
ATOM     14  C   UNL     1       9.414   1.169  -2.147  1.00  0.00     0.045 C 
ATOM     15  C   UNL     1       7.730   0.800  -3.970  1.00  0.00     0.045 C 
BRANCH   9  16
ATOM     16  C   UNL     1       4.864   2.848  -1.214  1.00  0.00     0.043 A 
ATOM     17  C   UNL     1       2.179   2.135  -0.899  1.00  0.00     0.161 A 
ATOM     18  C   UNL     1       2.546   3.486  -1.035  1.00  0.00     0.051 A 
ATOM     19  C   UNL     1       3.152   1.139  -0.902  1.00  0.00     0.161 A 
ATOM     20  C   UNL     1       3.890   3.845  -1.200  1.00  0.00     0.018 A 
ATOM     21  C   UNL     1       4.487   1.524  -0.969  1.00  0.00     0.064 A 
BRANCH  17  22
ATOM     22  O   UNL     1       0.852   1.829  -0.792  1.00  0.00    -0.490 OA
BRANCH  22  23
ATOM     23  C   UNL     1       0.363   2.023   0.539  1.00  0.00     0.226 C 
ATOM     24  C   UNL     1      -0.206   0.710   1.046  1.00  0.00     0.049 C 
ENDBRANCH  22  23
ENDBRANCH  17  22
BRANCH  19  25
ATOM     25  O   UNL     1       3.003  -0.211  -0.792  1.00  0.00    -0.493 OA
ATOM     26  C   UNL     1       1.829  -0.814  -1.313  1.00  0.00     0.278 C 
ENDBRANCH  19  25
ENDBRANCH   9  16
BRANCH   8  27
ATOM     27  C   UNL     1       8.647  -1.230  -2.597  1.00  0.00    -0.031 A 
ATOM     28  C   UNL     1       9.320  -2.397  -3.013  1.00  0.00     0.005 A 
ATOM     29  C   UNL     1       7.725  -1.402  -1.546  1.00  0.00     0.005 A 
ATOM     30  C   UNL     1       9.072  -3.651  -2.436  1.00  0.00     0.000 A 
ATOM     31  C   UNL     1       7.473  -2.653  -0.966  1.00  0.00     0.000 A 
ATOM     32  C   UNL     1       8.145  -3.781  -1.413  1.00  0.00     0.000 A 
ENDBRANCH   8  27
ENDBRANCH   6   8
ENDBRANCH   5   6
ENDBRANCH   4   5
ENDBRANCH   3   4
ENDBRANCH   2   3
ENDBRANCH   1   2
BRANCH   1  33
ATOM     33  C   UNL     1      12.879   0.362  -2.035  1.00  0.00     0.188 C 
BRANCH  33  34
ATOM     34  O   UNL     1      13.807   1.375  -2.378  1.00  0.00    -0.376 OA
BRANCH  34  35
ATOM     35  C   UNL     1      14.591   1.882  -1.315  1.00  0.00     0.202 C 
BRANCH  35  36
ATOM     36  C   UNL     1      15.703   0.913  -0.906  1.00  0.00     0.261 C 
BRANCH  36  37
ATOM     37  O   UNL     1      15.245  -0.373  -0.450  1.00  0.00    -0.460 OA
BRANCH  37  38
ATOM     38  C   UNL     1      14.518  -0.383   0.695  1.00  0.00     0.338 C 
ATOM     39  O   UNL     1      14.251   0.572   1.391  1.00  0.00    -0.246 OA
BRANCH  38  40
ATOM     40  C   UNL     1      13.915  -1.729   0.849  1.00  0.00     0.060 A 
ATOM     41  C   UNL     1      12.539  -1.825   1.100  1.00  0.00     0.016 A 
ATOM     42  C   UNL     1      14.700  -2.881   0.773  1.00  0.00     0.016 A 
ATOM     43  C   UNL     1      11.959  -3.072   1.345  1.00  0.00     0.010 A 
ATOM     44  C   UNL     1      14.121  -4.128   1.032  1.00  0.00     0.010 A 
ATOM     45  C   UNL     1      12.759  -4.222   1.371  1.00  0.00    -0.014 A 
BRANCH  45  46
ATOM     46  C   UNL     1      12.236  -5.466   1.992  1.00  0.00     0.031 A 
ATOM     47  C   UNL     1      12.567  -5.729   3.440  1.00  0.00     0.074 A 
ATOM     48  C   UNL     1      11.469  -6.338   1.314  1.00  0.00     0.049 A 
ATOM     49  N   UNL     1      12.233  -6.739   4.200  1.00  0.00    -0.248 NA
ATOM     50  C   UNL     1      13.393  -4.713   4.115  1.00  0.00     0.031 C 
ATOM     51  C   UNL     1      11.050  -6.196  -0.078  1.00  0.00     0.029 A 
ATOM     52  N   UNL     1      10.910  -7.527   1.716  1.00  0.00    -0.354 N 
ATOM     53  C   UNL     1      12.816  -6.487   5.438  1.00  0.00     0.074 A 
ATOM     54  C   UNL     1      13.550  -5.247   5.316  1.00  0.00     0.031 C 
ATOM     55  C   UNL     1      10.302  -7.261  -0.418  1.00  0.00     0.029 A 
ATOM     56  C   UNL     1      10.210  -8.171   0.725  1.00  0.00     0.049 A 
ATOM     57  H   UNL     1      11.003  -7.884   2.628  1.00  0.00     0.167 HD
ATOM     58  C   UNL     1      12.744  -7.214   6.578  1.00  0.00     0.031 A 
ATOM     59  C   UNL     1       9.577  -9.362   0.734  1.00  0.00     0.031 A 
ATOM     60  C   UNL     1      12.033  -8.457   6.702  1.00  0.00     0.049 A 
ATOM     61  C   UNL     1       9.547 -10.181   2.001  1.00  0.00     0.074 A 
ATOM     62  C   UNL     1      11.892  -9.262   7.819  1.00  0.00     0.029 A 
ATOM     63  N   UNL     1      11.352  -9.084   5.669  1.00  0.00    -0.354 N 
ATOM     64  N   UNL     1      10.077  -9.914   3.171  1.00  0.00    -0.248 NA
ATOM     65  C   UNL     1       8.816 -11.456   1.949  1.00  0.00     0.031 C 
ATOM     66  C   UNL     1      11.169 -10.401   7.448  1.00  0.00     0.029 A 
ATOM     67  C   UNL     1      10.805 -10.274   6.117  1.00  0.00     0.049 A 
ATOM     68  H   UNL     1      11.269  -8.733   4.753  1.00  0.00     0.167 HD
ATOM     69  C   UNL     1       9.715 -10.971   4.003  1.00  0.00     0.074 A 
ATOM     70  C   UNL     1       8.913 -11.875   3.203  1.00  0.00     0.031 C 
ATOM     71  C   UNL     1      10.012 -11.171   5.312  1.00  0.00     0.031 A 
BRANCH  58  72
ATOM     72  C   UNL     1      13.501  -6.691   7.771  1.00  0.00    -0.014 A 
ATOM     73  C   UNL     1      13.089  -5.527   8.447  1.00  0.00     0.010 A 
ATOM     74  C   UNL     1      14.649  -7.371   8.216  1.00  0.00     0.010 A 
ATOM     75  C   UNL     1      13.843  -5.023   9.509  1.00  0.00     0.020 A 
ATOM     76  C   UNL     1      15.389  -6.886   9.298  1.00  0.00     0.020 A 
ATOM     77  C   UNL     1      14.994  -5.702   9.922  1.00  0.00     0.054 A 
BRANCH  77  78
ATOM     78  S   UNL     1      15.961  -5.022  11.298  1.00  0.00     0.124 S 
ATOM     79  O   UNL     1      16.617  -3.879  10.667  1.00  0.00    -0.237 OA
ATOM     80  O   UNL     1      14.932  -4.691  12.281  1.00  0.00    -0.237 OA
ATOM     81  O   UNL     1      16.848  -6.120  11.674  1.00  0.00    -0.744 OA
ENDBRANCH  77  78
ENDBRANCH  58  72
BRANCH  59  82
ATOM     82  C   UNL     1       8.911  -9.855  -0.503  1.00  0.00    -0.014 A 
ATOM     83  C   UNL     1       7.509  -9.907  -0.592  1.00  0.00     0.010 A 
ATOM     84  C   UNL     1       9.682 -10.268  -1.605  1.00  0.00     0.010 A 
ATOM     85  C   UNL     1       6.890 -10.368  -1.758  1.00  0.00     0.020 A 
ATOM     86  C   UNL     1       9.067 -10.704  -2.782  1.00  0.00     0.020 A 
ATOM     87  C   UNL     1       7.673 -10.758  -2.849  1.00  0.00     0.054 A 
BRANCH  87  88
ATOM     88  S   UNL     1       6.847 -11.283  -4.377  1.00  0.00     0.124 S 
ATOM     89  O   UNL     1       6.337 -12.600  -4.010  1.00  0.00    -0.237 OA
ATOM     90  O   UNL     1       5.838 -10.242  -4.561  1.00  0.00    -0.237 OA
ATOM     91  O   UNL     1       7.923 -11.279  -5.365  1.00  0.00    -0.744 OA
ENDBRANCH  87  88
ENDBRANCH  59  82
BRANCH  71  92
ATOM     92  C   UNL     1       9.427 -12.388   5.983  1.00  0.00    -0.014 A 
ATOM     93  C   UNL     1       9.875 -13.686   5.680  1.00  0.00     0.010 A 
ATOM     94  C   UNL     1       8.429 -12.222   6.962  1.00  0.00     0.010 A 
ATOM     95  C   UNL     1       9.300 -14.797   6.306  1.00  0.00     0.020 A 
ATOM     96  C   UNL     1       7.873 -13.328   7.611  1.00  0.00     0.020 A 
ATOM     97  C   UNL     1       8.297 -14.611   7.263  1.00  0.00     0.054 A 
BRANCH  97  98
ATOM     98  S   UNL     1       7.571 -16.065   8.068  1.00  0.00     0.124 S 
ATOM     99  O   UNL     1       6.711 -16.597   7.015  1.00  0.00    -0.237 OA
ATOM    100  O   UNL     1       8.744 -16.875   8.391  1.00  0.00    -0.237 OA
ATOM    101  O   UNL     1       6.870 -15.508   9.223  1.00  0.00    -0.744 OA
ENDBRANCH  97  98
ENDBRANCH  71  92
ENDBRANCH  45  46
ENDBRANCH  38  40
ENDBRANCH  37  38
ENDBRANCH  36  37
ENDBRANCH  35  36
ENDBRANCH  34  35
ENDBRANCH  33  34
ENDBRANCH   1  33
TORSDOF 25
