REMARK SMILES O=C(OCCOCCOCCOC(=O)[C@H](Cc1ccccn1)[C@H]1CCS(=O)(=O)C1)c1ccc(-c2c3nc(c(-c4ccc(S(=O)(=O)[O-])cc4)c4ccc([nH]4)c(-c4ccc(S(=O)(=O)[O-])cc4)c4nc(c(-c5ccc(S(=O)(=O)[O-])cc5)c5ccc2[nH]5)C=C4)C=C3)cc1
REMARK SMILES IDX 7 1 6 2 5 3 4 4 3 5 2 6 1 7 30 8 31 9 89 10 32 11 88 12
REMARK SMILES IDX 33 13 34 14 35 15 82 16 36 17 87 18 81 19 83 20 37 21 86 22
REMARK SMILES IDX 80 23 79 24 38 26 68 27 49 28 67 29 50 30 53 31 66 32 84 33
REMARK SMILES IDX 51 34 52 35 65 37 85 38 54 39 39 40 40 41 48 42 41 43 47 44
REMARK SMILES IDX 42 45 43 46 44 47 45 48 46 49 69 50 70 51 78 52 71 53 77 54
REMARK SMILES IDX 72 55 73 56 74 57 75 58 76 59 55 60 56 61 64 62 57 63 63 64
REMARK SMILES IDX 58 65 59 66 60 67 61 68 62 69 8 70 9 71 10 72 11 73 12 74
REMARK SMILES IDX 13 75 14 76 15 77 16 78 17 79 18 80 22 81 19 82 21 83 20 84
REMARK SMILES IDX 23 85 24 86 29 87 25 88 26 89 27 90 28 91
REMARK H PARENT 83 25 53 36
REMARK Flexibility Score: inf
ROOT
ATOM      1  C   UNL     1       2.295   4.803   0.551  1.00  0.00     0.188 C 
ENDROOT
BRANCH   1   2
ATOM      2  O   UNL     1       2.568   6.158   0.165  1.00  0.00    -0.376 OA
BRANCH   2   3
ATOM      3  C   UNL     1       2.155   7.130   1.134  1.00  0.00     0.202 C 
BRANCH   3   4
ATOM      4  C   UNL     1       0.648   7.424   1.194  1.00  0.00     0.261 C 
BRANCH   4   5
ATOM      5  O   UNL     1      -0.163   6.315   0.795  1.00  0.00    -0.460 OA
BRANCH   5   6
ATOM      6  C   UNL     1      -0.543   5.967  -0.457  1.00  0.00     0.338 C 
ATOM      7  O   UNL     1      -1.199   4.933  -0.586  1.00  0.00    -0.246 OA
BRANCH   6   8
ATOM      8  C   UNL     1      -0.207   6.738  -1.700  1.00  0.00     0.060 A 
ATOM      9  C   UNL     1       0.791   7.710  -1.840  1.00  0.00     0.016 A 
ATOM     10  C   UNL     1      -0.927   6.385  -2.851  1.00  0.00     0.016 A 
ATOM     11  C   UNL     1       1.041   8.348  -3.054  1.00  0.00     0.010 A 
ATOM     12  C   UNL     1      -0.644   6.976  -4.085  1.00  0.00     0.010 A 
ATOM     13  C   UNL     1       0.328   7.987  -4.188  1.00  0.00    -0.014 A 
BRANCH  13  14
ATOM     14  C   UNL     1       0.454   8.780  -5.431  1.00  0.00     0.031 A 
ATOM     15  C   UNL     1      -0.752   9.572  -5.833  1.00  0.00     0.074 A 
ATOM     16  C   UNL     1       1.591   8.823  -6.155  1.00  0.00     0.049 A 
ATOM     17  N   UNL     1      -0.946  10.303  -6.893  1.00  0.00    -0.248 NA
ATOM     18  C   UNL     1      -1.904   9.524  -4.912  1.00  0.00     0.031 C 
ATOM     19  C   UNL     1       2.853   8.187  -5.791  1.00  0.00     0.029 A 
ATOM     20  N   UNL     1       1.881   9.434  -7.349  1.00  0.00    -0.354 N 
ATOM     21  C   UNL     1      -2.242  10.781  -6.768  1.00  0.00     0.074 A 
ATOM     22  C   UNL     1      -2.826  10.166  -5.602  1.00  0.00     0.031 C 
ATOM     23  C   UNL     1       3.768   8.395  -6.751  1.00  0.00     0.029 A 
ATOM     24  C   UNL     1       3.164   9.200  -7.798  1.00  0.00     0.049 A 
ATOM     25  H   UNL     1       1.232   9.989  -7.840  1.00  0.00     0.167 HD
ATOM     26  C   UNL     1      -2.870  11.707  -7.521  1.00  0.00     0.031 A 
ATOM     27  C   UNL     1       3.789   9.617  -8.916  1.00  0.00     0.031 A 
ATOM     28  C   UNL     1      -2.260  12.315  -8.664  1.00  0.00     0.049 A 
ATOM     29  C   UNL     1       3.036  10.565  -9.807  1.00  0.00     0.074 A 
ATOM     30  C   UNL     1      -2.780  13.262  -9.521  1.00  0.00     0.029 A 
ATOM     31  N   UNL     1      -0.975  12.020  -9.107  1.00  0.00    -0.354 N 
ATOM     32  N   UNL     1       1.818  11.035  -9.659  1.00  0.00    -0.248 NA
ATOM     33  C   UNL     1       3.747  11.082 -10.981  1.00  0.00     0.031 C 
ATOM     34  C   UNL     1      -1.828  13.497 -10.520  1.00  0.00     0.029 A 
ATOM     35  C   UNL     1      -0.690  12.751 -10.242  1.00  0.00     0.049 A 
ATOM     36  H   UNL     1      -0.361  11.384  -8.674  1.00  0.00     0.167 HD
ATOM     37  C   UNL     1       1.636  11.948 -10.686  1.00  0.00     0.074 A 
ATOM     38  C   UNL     1       2.870  11.958 -11.452  1.00  0.00     0.031 C 
ATOM     39  C   UNL     1       0.559  12.725 -10.964  1.00  0.00     0.031 A 
BRANCH  26  40
ATOM     40  C   UNL     1      -4.276  12.046  -7.112  1.00  0.00    -0.014 A 
ATOM     41  C   UNL     1      -4.543  12.687  -5.885  1.00  0.00     0.010 A 
ATOM     42  C   UNL     1      -5.348  11.595  -7.898  1.00  0.00     0.010 A 
ATOM     43  C   UNL     1      -5.852  12.785  -5.410  1.00  0.00     0.020 A 
ATOM     44  C   UNL     1      -6.662  11.728  -7.443  1.00  0.00     0.020 A 
ATOM     45  C   UNL     1      -6.903  12.293  -6.188  1.00  0.00     0.054 A 
BRANCH  45  46
ATOM     46  S   UNL     1      -8.589  12.390  -5.530  1.00  0.00     0.124 S 
ATOM     47  O   UNL     1      -8.571  11.353  -4.501  1.00  0.00    -0.237 OA
ATOM     48  O   UNL     1      -8.660  13.762  -5.036  1.00  0.00    -0.237 OA
ATOM     49  O   UNL     1      -9.430  12.103  -6.690  1.00  0.00    -0.744 OA
ENDBRANCH  45  46
ENDBRANCH  26  40
BRANCH  27  50
ATOM     50  C   UNL     1       5.200   9.219  -9.204  1.00  0.00    -0.014 A 
ATOM     51  C   UNL     1       6.245  10.156  -9.114  1.00  0.00     0.010 A 
ATOM     52  C   UNL     1       5.514   7.894  -9.564  1.00  0.00     0.010 A 
ATOM     53  C   UNL     1       7.566   9.787  -9.397  1.00  0.00     0.020 A 
ATOM     54  C   UNL     1       6.838   7.514  -9.828  1.00  0.00     0.020 A 
ATOM     55  C   UNL     1       7.855   8.466  -9.751  1.00  0.00     0.054 A 
BRANCH  55  56
ATOM     56  S   UNL     1       9.584   8.006 -10.070  1.00  0.00     0.124 S 
ATOM     57  O   UNL     1       9.872   8.726 -11.306  1.00  0.00    -0.237 OA
ATOM     58  O   UNL     1      10.265   8.502  -8.876  1.00  0.00    -0.237 OA
ATOM     59  O   UNL     1       9.536   6.550 -10.189  1.00  0.00    -0.744 OA
ENDBRANCH  55  56
ENDBRANCH  27  50
BRANCH  39  60
ATOM     60  C   UNL     1       0.692  13.687 -12.108  1.00  0.00    -0.014 A 
ATOM     61  C   UNL     1       0.705  13.242 -13.440  1.00  0.00     0.010 A 
ATOM     62  C   UNL     1       0.719  15.066 -11.833  1.00  0.00     0.010 A 
ATOM     63  C   UNL     1       0.767  14.167 -14.482  1.00  0.00     0.020 A 
ATOM     64  C   UNL     1       0.744  15.993 -12.873  1.00  0.00     0.020 A 
ATOM     65  C   UNL     1       0.780  15.535 -14.191  1.00  0.00     0.054 A 
BRANCH  65  66
ATOM     66  S   UNL     1       0.794  16.715 -15.565  1.00  0.00     0.124 S 
ATOM     67  O   UNL     1       2.163  16.591 -16.057  1.00  0.00    -0.237 OA
ATOM     68  O   UNL     1      -0.244  16.189 -16.448  1.00  0.00    -0.237 OA
ATOM     69  O   UNL     1       0.473  17.991 -14.928  1.00  0.00    -0.744 OA
ENDBRANCH  65  66
ENDBRANCH  39  60
ENDBRANCH  13  14
ENDBRANCH   6   8
ENDBRANCH   5   6
ENDBRANCH   4   5
ENDBRANCH   3   4
ENDBRANCH   2   3
ENDBRANCH   1   2
BRANCH   1  70
ATOM     70  C   UNL     1       3.467   3.848   0.302  1.00  0.00     0.188 C 
BRANCH  70  71
ATOM     71  O   UNL     1       4.632   4.035   1.103  1.00  0.00    -0.376 OA
BRANCH  71  72
ATOM     72  C   UNL     1       5.203   5.333   1.111  1.00  0.00     0.202 C 
BRANCH  72  73
ATOM     73  C   UNL     1       5.807   5.878  -0.187  1.00  0.00     0.261 C 
BRANCH  73  74
ATOM     74  O   UNL     1       5.162   5.491  -1.409  1.00  0.00    -0.463 OA
BRANCH  74  75
ATOM     75  C   UNL     1       5.840   4.569  -2.143  1.00  0.00     0.309 C 
ATOM     76  O   UNL     1       6.760   3.879  -1.716  1.00  0.00    -0.252 OA
BRANCH  75  77
ATOM     77  C   UNL     1       5.416   4.531  -3.607  1.00  0.00     0.109 C 
BRANCH  77  78
ATOM     78  C   UNL     1       5.869   5.770  -4.421  1.00  0.00     0.071 C 
BRANCH  78  79
ATOM     79  C   UNL     1       6.315   6.967  -3.622  1.00  0.00     0.041 A 
ATOM     80  C   UNL     1       7.615   7.031  -3.126  1.00  0.00     0.024 A 
ATOM     81  N   UNL     1       5.376   7.900  -3.333  1.00  0.00    -0.261 NA
ATOM     82  C   UNL     1       7.959   8.079  -2.279  1.00  0.00     0.003 A 
ATOM     83  C   UNL     1       5.751   8.928  -2.541  1.00  0.00     0.111 A 
ATOM     84  C   UNL     1       7.011   9.050  -1.980  1.00  0.00     0.020 A 
ENDBRANCH  78  79
ENDBRANCH  77  78
BRANCH  77  85
ATOM     85  C   UNL     1       3.964   4.051  -3.847  1.00  0.00     0.020 C 
ATOM     86  C   UNL     1       2.867   5.081  -3.560  1.00  0.00     0.021 C 
ATOM     87  C   UNL     1       3.776   3.580  -5.300  1.00  0.00     0.141 C 
ATOM     88  C   UNL     1       1.645   4.801  -4.433  1.00  0.00     0.137 C 
ATOM     89  S   UNL     1       2.029   3.500  -5.557  1.00  0.00     0.150 S 
ATOM     90  O   UNL     1       1.534   2.258  -5.008  1.00  0.00    -0.229 OA
ATOM     91  O   UNL     1       1.724   3.924  -6.910  1.00  0.00    -0.229 OA
ENDBRANCH  77  85
ENDBRANCH  75  77
ENDBRANCH  74  75
ENDBRANCH  73  74
ENDBRANCH  72  73
ENDBRANCH  71  72
ENDBRANCH  70  71
ENDBRANCH   1  70
TORSDOF 23
