REMARK SMILES O=C(OCCOCCOCCOC(=O)[C@]1(NC(=O)C2CCN(C(=O)C3CC3)CC2)CCCc2ccccc21)c1ccc(-c2c3nc(c(-c4ccc(S(=O)(=O)[O-])cc4)c4ccc([nH]4)c(-c4ccc(S(=O)(=O)[O-])cc4)c4nc(c(-c5ccc(S(=O)(=O)[O-])cc5)c5ccc2[nH]5)C=C4)C=C3)cc1
REMARK SMILES IDX 7 1 6 2 5 3 4 4 3 5 2 6 1 7 39 8 40 9 98 10 41 11 97 12
REMARK SMILES IDX 42 13 43 14 44 15 91 16 45 17 96 18 90 19 92 20 46 21 95 22
REMARK SMILES IDX 89 23 88 24 47 26 77 27 58 28 76 29 59 30 62 31 75 32 93 33
REMARK SMILES IDX 60 34 61 35 74 37 94 38 63 39 48 40 49 41 57 42 50 43 56 44
REMARK SMILES IDX 51 45 52 46 53 47 54 48 55 49 78 50 79 51 87 52 80 53 86 54
REMARK SMILES IDX 81 55 82 56 83 57 84 58 85 59 64 60 65 61 73 62 66 63 72 64
REMARK SMILES IDX 67 65 68 66 69 67 70 68 71 69 8 70 9 71 10 72 11 73 12 74
REMARK SMILES IDX 13 75 14 76 15 77 30 78 38 79 31 80 33 81 37 82 32 83 34 84
REMARK SMILES IDX 36 85 35 86 16 87 17 88 18 90 19 91 20 92 29 93 21 94 28 95
REMARK SMILES IDX 22 96 23 97 24 98 25 99 26 100 27 101
REMARK H PARENT 92 25 62 36 16 89
REMARK Flexibility Score: inf
ROOT
ATOM      1  C   UNL     1       2.877  -1.090  -0.930  1.00  0.00     0.188 C 
ENDROOT
BRANCH   1   2
ATOM      2  O   UNL     1       4.293  -0.969  -0.784  1.00  0.00    -0.376 OA
BRANCH   2   3
ATOM      3  C   UNL     1       4.893  -1.616   0.333  1.00  0.00     0.202 C 
BRANCH   3   4
ATOM      4  C   UNL     1       4.819  -0.869   1.666  1.00  0.00     0.261 C 
BRANCH   4   5
ATOM      5  O   UNL     1       3.535  -0.302   1.935  1.00  0.00    -0.460 OA
BRANCH   5   6
ATOM      6  C   UNL     1       3.087   0.945   1.648  1.00  0.00     0.338 C 
ATOM      7  O   UNL     1       2.022   1.289   2.163  1.00  0.00    -0.246 OA
BRANCH   6   8
ATOM      8  C   UNL     1       3.731   1.893   0.666  1.00  0.00     0.060 A 
ATOM      9  C   UNL     1       4.960   1.735   0.011  1.00  0.00     0.016 A 
ATOM     10  C   UNL     1       3.001   3.059   0.376  1.00  0.00     0.016 A 
ATOM     11  C   UNL     1       5.470   2.694  -0.870  1.00  0.00     0.010 A 
ATOM     12  C   UNL     1       3.505   4.030  -0.496  1.00  0.00     0.010 A 
ATOM     13  C   UNL     1       4.763   3.864  -1.099  1.00  0.00    -0.014 A 
BRANCH  13  14
ATOM     14  C   UNL     1       5.445   5.041  -1.679  1.00  0.00     0.031 A 
ATOM     15  C   UNL     1       5.883   6.081  -0.693  1.00  0.00     0.074 A 
ATOM     16  C   UNL     1       5.691   5.195  -2.993  1.00  0.00     0.049 A 
ATOM     17  N   UNL     1       6.406   7.253  -0.910  1.00  0.00    -0.248 NA
ATOM     18  C   UNL     1       5.764   5.723   0.735  1.00  0.00     0.031 C 
ATOM     19  C   UNL     1       5.560   4.172  -4.024  1.00  0.00     0.029 A 
ATOM     20  N   UNL     1       6.043   6.314  -3.704  1.00  0.00    -0.354 N 
ATOM     21  C   UNL     1       6.720   7.747   0.346  1.00  0.00     0.074 A 
ATOM     22  C   UNL     1       6.239   6.804   1.325  1.00  0.00     0.031 C 
ATOM     23  C   UNL     1       5.594   4.747  -5.238  1.00  0.00     0.029 A 
ATOM     24  C   UNL     1       5.872   6.165  -5.064  1.00  0.00     0.049 A 
ATOM     25  H   UNL     1       6.383   7.138  -3.286  1.00  0.00     0.167 HD
ATOM     26  C   UNL     1       7.407   8.868   0.649  1.00  0.00     0.031 A 
ATOM     27  C   UNL     1       5.947   7.074  -6.054  1.00  0.00     0.031 A 
ATOM     28  C   UNL     1       7.834   9.804  -0.347  1.00  0.00     0.049 A 
ATOM     29  C   UNL     1       6.503   8.421  -5.694  1.00  0.00     0.074 A 
ATOM     30  C   UNL     1       8.509  10.996  -0.182  1.00  0.00     0.029 A 
ATOM     31  N   UNL     1       7.601   9.651  -1.709  1.00  0.00    -0.354 N 
ATOM     32  N   UNL     1       6.825   8.877  -4.505  1.00  0.00    -0.248 NA
ATOM     33  C   UNL     1       6.806   9.335  -6.800  1.00  0.00     0.031 C 
ATOM     34  C   UNL     1       8.624  11.597  -1.440  1.00  0.00     0.029 A 
ATOM     35  C   UNL     1       8.085  10.745  -2.396  1.00  0.00     0.049 A 
ATOM     36  H   UNL     1       7.156   8.876  -2.122  1.00  0.00     0.167 HD
ATOM     37  C   UNL     1       7.452  10.094  -4.724  1.00  0.00     0.074 A 
ATOM     38  C   UNL     1       7.429  10.317  -6.159  1.00  0.00     0.031 C 
ATOM     39  C   UNL     1       8.033  10.929  -3.827  1.00  0.00     0.031 A 
BRANCH  26  40
ATOM     40  C   UNL     1       7.666   9.119   2.107  1.00  0.00    -0.014 A 
ATOM     41  C   UNL     1       8.530   8.286   2.846  1.00  0.00     0.010 A 
ATOM     42  C   UNL     1       6.965  10.140   2.768  1.00  0.00     0.010 A 
ATOM     43  C   UNL     1       8.636   8.429   4.231  1.00  0.00     0.020 A 
ATOM     44  C   UNL     1       7.093  10.306   4.149  1.00  0.00     0.020 A 
ATOM     45  C   UNL     1       7.907   9.433   4.875  1.00  0.00     0.054 A 
BRANCH  45  46
ATOM     46  S   UNL     1       8.036   9.580   6.677  1.00  0.00     0.124 S 
ATOM     47  O   UNL     1       7.285   8.411   7.129  1.00  0.00    -0.237 OA
ATOM     48  O   UNL     1       9.479   9.522   6.899  1.00  0.00    -0.237 OA
ATOM     49  O   UNL     1       7.415  10.870   6.965  1.00  0.00    -0.744 OA
ENDBRANCH  45  46
ENDBRANCH  26  40
BRANCH  27  50
ATOM     50  C   UNL     1       5.588   6.706  -7.452  1.00  0.00    -0.014 A 
ATOM     51  C   UNL     1       6.582   6.461  -8.414  1.00  0.00     0.010 A 
ATOM     52  C   UNL     1       4.237   6.565  -7.823  1.00  0.00     0.010 A 
ATOM     53  C   UNL     1       6.235   6.102  -9.722  1.00  0.00     0.020 A 
ATOM     54  C   UNL     1       3.884   6.192  -9.127  1.00  0.00     0.020 A 
ATOM     55  C   UNL     1       4.888   5.968 -10.071  1.00  0.00     0.054 A 
BRANCH  55  56
ATOM     56  S   UNL     1       4.475   5.464 -11.767  1.00  0.00     0.124 S 
ATOM     57  O   UNL     1       4.913   6.619 -12.544  1.00  0.00    -0.237 OA
ATOM     58  O   UNL     1       5.272   4.251 -11.932  1.00  0.00    -0.237 OA
ATOM     59  O   UNL     1       3.030   5.254 -11.721  1.00  0.00    -0.744 OA
ENDBRANCH  55  56
ENDBRANCH  27  50
BRANCH  39  60
ATOM     60  C   UNL     1       8.726  12.141  -4.373  1.00  0.00    -0.014 A 
ATOM     61  C   UNL     1       7.998  13.228  -4.883  1.00  0.00     0.010 A 
ATOM     62  C   UNL     1      10.128  12.225  -4.277  1.00  0.00     0.010 A 
ATOM     63  C   UNL     1       8.665  14.378  -5.303  1.00  0.00     0.020 A 
ATOM     64  C   UNL     1      10.794  13.386  -4.664  1.00  0.00     0.020 A 
ATOM     65  C   UNL     1      10.057  14.453  -5.183  1.00  0.00     0.054 A 
BRANCH  65  66
ATOM     66  S   UNL     1      10.886  15.992  -5.655  1.00  0.00     0.124 S 
ATOM     67  O   UNL     1      10.799  15.948  -7.112  1.00  0.00    -0.237 OA
ATOM     68  O   UNL     1      10.063  17.009  -5.005  1.00  0.00    -0.237 OA
ATOM     69  O   UNL     1      12.232  15.844  -5.106  1.00  0.00    -0.744 OA
ENDBRANCH  65  66
ENDBRANCH  39  60
ENDBRANCH  13  14
ENDBRANCH   6   8
ENDBRANCH   5   6
ENDBRANCH   4   5
ENDBRANCH   3   4
ENDBRANCH   2   3
ENDBRANCH   1   2
BRANCH   1  70
ATOM     70  C   UNL     1       2.313  -2.498  -1.140  1.00  0.00     0.188 C 
BRANCH  70  71
ATOM     71  O   UNL     1       2.784  -3.313  -2.205  1.00  0.00    -0.376 OA
BRANCH  71  72
ATOM     72  C   UNL     1       4.150  -3.252  -2.557  1.00  0.00     0.202 C 
BRANCH  72  73
ATOM     73  C   UNL     1       4.468  -2.275  -3.691  1.00  0.00     0.261 C 
BRANCH  73  74
ATOM     74  O   UNL     1       3.713  -1.048  -3.740  1.00  0.00    -0.461 OA
BRANCH  74  75
ATOM     75  C   UNL     1       2.448  -1.148  -4.254  1.00  0.00     0.336 C 
ATOM     76  O   UNL     1       1.872  -2.220  -4.439  1.00  0.00    -0.249 OA
BRANCH  75  77
ATOM     77  C   UNL     1       1.881   0.220  -4.794  1.00  0.00     0.164 C 
ATOM     78  C   UNL     1       2.896   1.393  -4.788  1.00  0.00     0.046 C 
ATOM     79  C   UNL     1       0.627   0.523  -3.921  1.00  0.00    -0.008 A 
ATOM     80  C   UNL     1       2.905   2.189  -3.495  1.00  0.00     0.008 C 
ATOM     81  C   UNL     1       0.577   1.623  -3.039  1.00  0.00    -0.042 A 
ATOM     82  C   UNL     1      -0.411  -0.419  -3.828  1.00  0.00     0.007 A 
ATOM     83  C   UNL     1       1.544   2.749  -3.174  1.00  0.00     0.036 C 
ATOM     84  C   UNL     1      -0.384   1.693  -2.019  1.00  0.00     0.004 A 
ATOM     85  C   UNL     1      -1.367  -0.346  -2.810  1.00  0.00     0.000 A 
ATOM     86  C   UNL     1      -1.332   0.690  -1.884  1.00  0.00     0.000 A 
BRANCH  77  87
ATOM     87  N   UNL     1       1.491   0.027  -6.230  1.00  0.00    -0.336 N 
ATOM     88  C   UNL     1       2.250  -0.426  -7.288  1.00  0.00     0.224 C 
ATOM     89  H   UNL     1       0.559   0.258  -6.448  1.00  0.00     0.164 HD
ATOM     90  O   UNL     1       1.952  -0.065  -8.426  1.00  0.00    -0.275 OA
BRANCH  88  91
ATOM     91  C   UNL     1       3.306  -1.507  -7.069  1.00  0.00     0.082 C 
ATOM     92  C   UNL     1       4.692  -1.269  -7.669  1.00  0.00     0.035 C 
ATOM     93  C   UNL     1       2.696  -2.881  -7.396  1.00  0.00     0.035 C 
ATOM     94  C   UNL     1       4.853  -1.818  -9.076  1.00  0.00     0.120 C 
ATOM     95  C   UNL     1       2.912  -3.254  -8.857  1.00  0.00     0.120 C 
ATOM     96  N   UNL     1       4.338  -3.187  -9.146  1.00  0.00    -0.342 N 
ATOM     97  C   UNL     1       5.259  -4.237  -9.180  1.00  0.00     0.225 C 
ATOM     98  O   UNL     1       6.459  -4.033  -9.017  1.00  0.00    -0.275 OA
BRANCH  97  99
ATOM     99  C   UNL     1       4.890  -5.661  -9.458  1.00  0.00     0.079 C 
ATOM    100  C   UNL     1       3.781  -6.436  -8.804  1.00  0.00     0.014 C 
ATOM    101  C   UNL     1       3.711  -6.109 -10.276  1.00  0.00     0.014 C 
ENDBRANCH  97  99
ENDBRANCH  88  91
ENDBRANCH  77  87
ENDBRANCH  75  77
ENDBRANCH  74  75
ENDBRANCH  73  74
ENDBRANCH  72  73
ENDBRANCH  71  72
ENDBRANCH  70  71
ENDBRANCH   1  70
TORSDOF 23
