REMARK SMILES CCC(CC)COc1cc2c(cc1Cl)C=C(C(=O)OCCOCCOCCOC(=O)c1ccc(-c3c4nc(c(-c5ccc(S(=O)(=O)[O-])cc5)c5ccc([nH]5)c(-c5ccc(S(=O)(=O)[O-])cc5)c5nc(c(-c6ccc(S(=O)(=O)[O-])cc6)c6ccc3[nH]6)C=C5)C=C4)cc1)[C@@H](C(F)(F)F)O2
REMARK SMILES IDX 23 1 22 2 21 3 20 4 19 5 17 6 18 7 16 8 8 9 9 10 13 11 10 12
REMARK SMILES IDX 12 13 14 14 11 15 96 16 15 17 91 18 7 19 6 20 3 21 2 22 1 23
REMARK SMILES IDX 4 24 5 25 92 26 93 27 94 28 95 29 24 30 25 31 26 32 27 33
REMARK SMILES IDX 28 34 29 35 30 36 31 37 32 38 90 39 33 40 89 41 34 42 35 43
REMARK SMILES IDX 36 44 83 45 37 46 88 47 82 48 84 49 38 50 87 51 81 52 80 53
REMARK SMILES IDX 39 55 69 56 50 57 68 58 51 59 54 60 67 61 85 62 52 63 53 64
REMARK SMILES IDX 66 66 86 67 55 68 40 69 41 70 49 71 42 72 48 73 43 74 44 75
REMARK SMILES IDX 45 76 46 77 47 78 70 79 71 80 79 81 72 82 78 83 73 84 74 85
REMARK SMILES IDX 75 86 76 87 77 88 56 89 57 90 65 91 58 92 64 93 59 94 60 95
REMARK SMILES IDX 61 96 62 97 63 98
REMARK H PARENT 84 54 54 65
REMARK Flexibility Score: inf
ROOT
ATOM      1  C   UNL     1      -2.308   6.022  -4.963  1.00  0.00     0.188 C 
ENDROOT
BRANCH   1   2
ATOM      2  O   UNL     1      -2.604   7.242  -5.601  1.00  0.00    -0.376 OA
BRANCH   2   3
ATOM      3  C   UNL     1      -1.747   7.748  -6.609  1.00  0.00     0.202 C 
BRANCH   3   4
ATOM      4  C   UNL     1      -0.818   6.893  -7.496  1.00  0.00     0.261 C 
BRANCH   4   5
ATOM      5  O   UNL     1      -0.727   5.492  -7.217  1.00  0.00    -0.460 OA
BRANCH   5   6
ATOM      6  C   UNL     1       0.393   5.109  -6.564  1.00  0.00     0.338 C 
ATOM      7  O   UNL     1       1.312   5.837  -6.226  1.00  0.00    -0.246 OA
BRANCH   6   8
ATOM      8  C   UNL     1       0.305   3.688  -6.177  1.00  0.00     0.087 C 
ATOM      9  C   UNL     1       1.188  -0.701  -3.958  1.00  0.00     0.141 A 
ATOM     10  C   UNL     1       0.338  -0.330  -5.010  1.00  0.00     0.095 A 
ATOM     11  C   UNL     1       2.009   0.264  -3.362  1.00  0.00     0.083 A 
ATOM     12  C   UNL     1       0.259   1.016  -5.392  1.00  0.00     0.131 A 
ATOM     13  C   UNL     1       1.805   1.613  -3.632  1.00  0.00     0.036 A 
ATOM     14  Cl  UNL     1       3.330  -0.143  -2.331  1.00  0.00    -0.080 Cl
ATOM     15  C   UNL     1       0.925   1.989  -4.642  1.00  0.00     0.019 A 
ATOM     16  O   UNL     1      -0.478   1.341  -6.504  1.00  0.00    -0.475 OA
ATOM     17  C   UNL     1       0.783   3.394  -4.964  1.00  0.00     0.027 C 
ATOM     18  C   UNL     1      -0.197   2.639  -7.132  1.00  0.00     0.316 C 
BRANCH   9  19
ATOM     19  O   UNL     1       1.290  -2.018  -3.591  1.00  0.00    -0.492 OA
BRANCH  19  20
ATOM     20  C   UNL     1       0.315  -2.440  -2.604  1.00  0.00     0.233 C 
BRANCH  20  21
ATOM     21  C   UNL     1       0.663  -2.008  -1.153  1.00  0.00     0.026 C 
BRANCH  21  22
ATOM     22  C   UNL     1       0.009  -0.651  -0.800  1.00  0.00     0.003 C 
ATOM     23  C   UNL     1       0.651   0.028   0.402  1.00  0.00     0.004 C 
ENDBRANCH  21  22
BRANCH  21  24
ATOM     24  C   UNL     1       0.334  -3.095  -0.104  1.00  0.00     0.003 C 
ATOM     25  C   UNL     1      -1.143  -3.375   0.123  1.00  0.00     0.004 C 
ENDBRANCH  21  24
ENDBRANCH  20  21
ENDBRANCH  19  20
ENDBRANCH   9  19
BRANCH  18  26
ATOM     26  C   UNL     1       0.761   2.490  -8.323  1.00  0.00     0.430 C 
ATOM     27  F   UNL     1       0.346   1.532  -9.184  1.00  0.00    -0.167 F 
ATOM     28  F   UNL     1       0.836   3.643  -9.033  1.00  0.00    -0.167 F 
ATOM     29  F   UNL     1       2.018   2.174  -7.938  1.00  0.00    -0.167 F 
ENDBRANCH  18  26
ENDBRANCH   6   8
ENDBRANCH   5   6
ENDBRANCH   4   5
ENDBRANCH   3   4
ENDBRANCH   2   3
ENDBRANCH   1   2
BRANCH   1  30
ATOM     30  C   UNL     1      -3.037   4.805  -5.572  1.00  0.00     0.188 C 
BRANCH  30  31
ATOM     31  O   UNL     1      -3.780   4.947  -6.773  1.00  0.00    -0.376 OA
BRANCH  31  32
ATOM     32  C   UNL     1      -4.759   5.977  -6.865  1.00  0.00     0.202 C 
BRANCH  32  33
ATOM     33  C   UNL     1      -5.766   6.249  -5.729  1.00  0.00     0.261 C 
BRANCH  33  34
ATOM     34  O   UNL     1      -5.242   6.239  -4.394  1.00  0.00    -0.460 OA
BRANCH  34  35
ATOM     35  C   UNL     1      -5.595   5.167  -3.632  1.00  0.00     0.338 C 
ATOM     36  O   UNL     1      -6.294   4.234  -3.957  1.00  0.00    -0.246 OA
BRANCH  35  37
ATOM     37  C   UNL     1      -4.799   5.203  -2.382  1.00  0.00     0.060 A 
ATOM     38  C   UNL     1      -4.905   6.275  -1.498  1.00  0.00     0.016 A 
ATOM     39  C   UNL     1      -3.930   4.137  -2.106  1.00  0.00     0.016 A 
ATOM     40  C   UNL     1      -4.151   6.268  -0.321  1.00  0.00     0.010 A 
ATOM     41  C   UNL     1      -3.161   4.142  -0.940  1.00  0.00     0.010 A 
ATOM     42  C   UNL     1      -3.284   5.198  -0.027  1.00  0.00    -0.014 A 
BRANCH  42  43
ATOM     43  C   UNL     1      -2.660   5.101   1.316  1.00  0.00     0.031 A 
ATOM     44  C   UNL     1      -1.219   5.435   1.555  1.00  0.00     0.074 A 
ATOM     45  C   UNL     1      -3.438   4.695   2.339  1.00  0.00     0.049 A 
ATOM     46  N   UNL     1      -0.578   5.500   2.694  1.00  0.00    -0.248 NA
ATOM     47  C   UNL     1      -0.388   5.727   0.378  1.00  0.00     0.031 C 
ATOM     48  C   UNL     1      -4.846   4.316   2.212  1.00  0.00     0.029 A 
ATOM     49  N   UNL     1      -3.171   4.551   3.677  1.00  0.00    -0.354 N 
ATOM     50  C   UNL     1       0.724   5.869   2.381  1.00  0.00     0.074 A 
ATOM     51  C   UNL     1       0.795   5.960   0.936  1.00  0.00     0.031 C 
ATOM     52  C   UNL     1      -5.331   4.022   3.427  1.00  0.00     0.029 A 
ATOM     53  C   UNL     1      -4.264   4.159   4.415  1.00  0.00     0.049 A 
ATOM     54  H   UNL     1      -2.284   4.713   4.071  1.00  0.00     0.167 HD
ATOM     55  C   UNL     1       1.751   6.126   3.226  1.00  0.00     0.031 A 
ATOM     56  C   UNL     1      -4.405   3.945   5.739  1.00  0.00     0.031 A 
ATOM     57  C   UNL     1       1.665   6.013   4.663  1.00  0.00     0.049 A 
ATOM     58  C   UNL     1      -3.239   4.200   6.651  1.00  0.00     0.074 A 
ATOM     59  C   UNL     1       2.642   6.301   5.602  1.00  0.00     0.029 A 
ATOM     60  N   UNL     1       0.556   5.571   5.371  1.00  0.00    -0.354 N 
ATOM     61  N   UNL     1      -2.042   4.640   6.346  1.00  0.00    -0.248 NA
ATOM     62  C   UNL     1      -3.442   3.950   8.084  1.00  0.00     0.031 C 
ATOM     63  C   UNL     1       2.156   5.954   6.863  1.00  0.00     0.029 A 
ATOM     64  C   UNL     1       0.842   5.537   6.728  1.00  0.00     0.049 A 
ATOM     65  H   UNL     1      -0.306   5.318   4.969  1.00  0.00     0.167 HD
ATOM     66  C   UNL     1      -1.355   4.740   7.551  1.00  0.00     0.074 A 
ATOM     67  C   UNL     1      -2.277   4.335   8.592  1.00  0.00     0.031 C 
ATOM     68  C   UNL     1      -0.075   5.130   7.767  1.00  0.00     0.031 A 
BRANCH  55  69
ATOM     69  C   UNL     1       3.068   6.588   2.650  1.00  0.00    -0.014 A 
ATOM     70  C   UNL     1       4.226   5.806   2.824  1.00  0.00     0.010 A 
ATOM     71  C   UNL     1       3.193   7.872   2.090  1.00  0.00     0.010 A 
ATOM     72  C   UNL     1       5.486   6.314   2.493  1.00  0.00     0.020 A 
ATOM     73  C   UNL     1       4.449   8.373   1.729  1.00  0.00     0.020 A 
ATOM     74  C   UNL     1       5.590   7.601   1.959  1.00  0.00     0.054 A 
BRANCH  74  75
ATOM     75  S   UNL     1       7.238   8.267   1.591  1.00  0.00     0.124 S 
ATOM     76  O   UNL     1       7.777   8.512   2.925  1.00  0.00    -0.237 OA
ATOM     77  O   UNL     1       7.861   7.175   0.848  1.00  0.00    -0.237 OA
ATOM     78  O   UNL     1       6.955   9.464   0.802  1.00  0.00    -0.744 OA
ENDBRANCH  74  75
ENDBRANCH  55  69
BRANCH  56  79
ATOM     79  C   UNL     1      -5.734   3.520   6.261  1.00  0.00    -0.014 A 
ATOM     80  C   UNL     1      -6.271   2.269   5.903  1.00  0.00     0.010 A 
ATOM     81  C   UNL     1      -6.513   4.402   7.030  1.00  0.00     0.010 A 
ATOM     82  C   UNL     1      -7.583   1.935   6.245  1.00  0.00     0.020 A 
ATOM     83  C   UNL     1      -7.815   4.056   7.406  1.00  0.00     0.020 A 
ATOM     84  C   UNL     1      -8.352   2.838   6.982  1.00  0.00     0.054 A 
BRANCH  84  85
ATOM     85  S   UNL     1     -10.076   2.411   7.351  1.00  0.00     0.124 S 
ATOM     86  O   UNL     1     -10.711   2.579   6.047  1.00  0.00    -0.237 OA
ATOM     87  O   UNL     1      -9.966   1.034   7.825  1.00  0.00    -0.237 OA
ATOM     88  O   UNL     1     -10.462   3.389   8.365  1.00  0.00    -0.744 OA
ENDBRANCH  84  85
ENDBRANCH  56  79
BRANCH  68  89
ATOM     89  C   UNL     1       0.444   5.140   9.185  1.00  0.00    -0.014 A 
ATOM     90  C   UNL     1       0.832   6.357   9.780  1.00  0.00     0.010 A 
ATOM     91  C   UNL     1       0.685   3.939   9.875  1.00  0.00     0.010 A 
ATOM     92  C   UNL     1       1.496   6.369  11.010  1.00  0.00     0.020 A 
ATOM     93  C   UNL     1       1.318   3.949  11.122  1.00  0.00     0.020 A 
ATOM     94  C   UNL     1       1.748   5.162  11.667  1.00  0.00     0.054 A 
BRANCH  94  95
ATOM     95  S   UNL     1       2.665   5.193  13.232  1.00  0.00     0.124 S 
ATOM     96  O   UNL     1       4.022   5.493  12.787  1.00  0.00    -0.237 OA
ATOM     97  O   UNL     1       1.995   6.259  13.973  1.00  0.00    -0.237 OA
ATOM     98  O   UNL     1       2.468   3.850  13.773  1.00  0.00    -0.744 OA
ENDBRANCH  94  95
ENDBRANCH  68  89
ENDBRANCH  42  43
ENDBRANCH  35  37
ENDBRANCH  34  35
ENDBRANCH  33  34
ENDBRANCH  32  33
ENDBRANCH  31  32
ENDBRANCH  30  31
ENDBRANCH   1  30
TORSDOF 26
