REMARK SMILES Cc1nn(C)c(=O)c(C(=O)N2CC[C@@H](C(=O)OCCOCCOCCOC(=O)c3ccc(-c4c5nc(c(-c6ccc(S(=O)(=O)[O-])cc6)c6ccc([nH]6)c(-c6ccc(S(=O)(=O)[O-])cc6)c6nc(c(-c7ccc(S(=O)(=O)[O-])cc7)c7ccc4[nH]7)C=C6)C=C5)cc3)[C@@H]2C)c1C
REMARK SMILES IDX 22 1 21 2 20 3 19 4 18 5 17 6 15 7 16 8 14 9 11 10 12 11
REMARK SMILES IDX 89 12 13 13 90 14 9 15 10 16 8 17 1 18 2 19 3 20 91 21 4 22
REMARK SMILES IDX 92 23 5 24 6 25 7 26 23 27 24 28 25 29 26 30 27 31 28 32
REMARK SMILES IDX 29 33 30 34 88 35 31 36 87 37 32 38 33 39 34 40 81 41 35 42
REMARK SMILES IDX 86 43 80 44 82 45 36 46 85 47 79 48 78 49 37 51 67 52 48 53
REMARK SMILES IDX 66 54 49 55 52 56 65 57 83 58 50 59 51 60 64 62 84 63 53 64
REMARK SMILES IDX 38 65 39 66 47 67 40 68 46 69 41 70 42 71 43 72 44 73 45 74
REMARK SMILES IDX 68 75 69 76 77 77 70 78 76 79 71 80 72 81 73 82 74 83 75 84
REMARK SMILES IDX 54 85 55 86 63 87 56 88 62 89 57 90 58 91 59 92 60 93 61 94
REMARK H PARENT 82 50 52 61
REMARK Flexibility Score: inf
ROOT
ATOM      1  C   UNL     1       2.188   4.498  -1.909  1.00  0.00     0.188 C 
ENDROOT
BRANCH   1   2
ATOM      2  C   UNL     1       1.979   5.982  -1.581  1.00  0.00     0.188 C 
BRANCH   2   3
ATOM      3  O   UNL     1       1.710   6.346  -0.235  1.00  0.00    -0.376 OA
BRANCH   3   4
ATOM      4  C   UNL     1       0.776   5.580   0.515  1.00  0.00     0.202 C 
BRANCH   4   5
ATOM      5  C   UNL     1      -0.597   5.246  -0.098  1.00  0.00     0.261 C 
BRANCH   5   6
ATOM      6  O   UNL     1      -0.571   4.541  -1.365  1.00  0.00    -0.463 OA
BRANCH   6   7
ATOM      7  C   UNL     1      -1.260   5.111  -2.382  1.00  0.00     0.311 C 
ATOM      8  O   UNL     1      -1.899   6.153  -2.263  1.00  0.00    -0.252 OA
BRANCH   7   9
ATOM      9  C   UNL     1      -1.212   4.384  -3.725  1.00  0.00     0.123 C 
ATOM     10  N   UNL     1      -1.460   2.063  -4.274  1.00  0.00    -0.335 N 
ATOM     11  C   UNL     1      -2.601   2.738  -4.855  1.00  0.00     0.121 C 
ATOM     12  C   UNL     1      -0.432   3.057  -3.939  1.00  0.00     0.096 C 
ATOM     13  C   UNL     1      -2.666   4.043  -4.092  1.00  0.00     0.039 C 
ATOM     14  C   UNL     1       0.526   3.204  -5.139  1.00  0.00     0.032 C 
BRANCH  10  15
ATOM     15  C   UNL     1      -1.466   0.682  -4.196  1.00  0.00     0.260 C 
ATOM     16  O   UNL     1      -2.353   0.033  -4.757  1.00  0.00    -0.269 OA
BRANCH  15  17
ATOM     17  C   UNL     1      -0.488  -0.064  -3.337  1.00  0.00     0.111 A 
ATOM     18  C   UNL     1       1.109  -0.281   0.085  1.00  0.00     0.069 C 
ATOM     19  C   UNL     1       0.524  -0.712  -1.244  1.00  0.00     0.062 A 
ATOM     20  N   UNL     1       0.797  -1.922  -1.609  1.00  0.00    -0.175 NA
ATOM     21  C   UNL     1      -0.316   0.234  -2.033  1.00  0.00    -0.010 A 
ATOM     22  N   UNL     1       0.412  -2.300  -2.863  1.00  0.00    -0.232 N 
ATOM     23  C   UNL     1      -0.997   1.314  -1.253  1.00  0.00     0.047 C 
ATOM     24  C   UNL     1       0.602  -3.708  -3.171  1.00  0.00     0.178 C 
ATOM     25  C   UNL     1      -0.003  -1.397  -3.840  1.00  0.00     0.279 A 
ATOM     26  O   UNL     1      -0.032  -1.678  -5.037  1.00  0.00    -0.267 OA
ENDBRANCH  15  17
ENDBRANCH  10  15
ENDBRANCH   7   9
ENDBRANCH   6   7
ENDBRANCH   5   6
ENDBRANCH   4   5
ENDBRANCH   3   4
ENDBRANCH   2   3
ENDBRANCH   1   2
BRANCH   1  27
ATOM     27  O   UNL     1       2.126   3.611  -0.821  1.00  0.00    -0.376 OA
BRANCH  27  28
ATOM     28  C   UNL     1       3.320   3.060  -0.293  1.00  0.00     0.202 C 
BRANCH  28  29
ATOM     29  C   UNL     1       4.676   3.796  -0.285  1.00  0.00     0.261 C 
BRANCH  29  30
ATOM     30  O   UNL     1       4.943   4.730  -1.337  1.00  0.00    -0.460 OA
BRANCH  30  31
ATOM     31  C   UNL     1       5.330   4.217  -2.527  1.00  0.00     0.338 C 
ATOM     32  O   UNL     1       5.470   3.032  -2.800  1.00  0.00    -0.246 OA
BRANCH  31  33
ATOM     33  C   UNL     1       5.272   5.311  -3.521  1.00  0.00     0.060 A 
ATOM     34  C   UNL     1       4.362   5.207  -4.585  1.00  0.00     0.016 A 
ATOM     35  C   UNL     1       6.078   6.442  -3.389  1.00  0.00     0.016 A 
ATOM     36  C   UNL     1       4.267   6.223  -5.534  1.00  0.00     0.010 A 
ATOM     37  C   UNL     1       6.017   7.439  -4.367  1.00  0.00     0.010 A 
ATOM     38  C   UNL     1       5.137   7.316  -5.458  1.00  0.00    -0.014 A 
BRANCH  38  39
ATOM     39  C   UNL     1       5.331   8.177  -6.647  1.00  0.00     0.031 A 
ATOM     40  C   UNL     1       6.467   7.831  -7.572  1.00  0.00     0.074 A 
ATOM     41  C   UNL     1       4.525   9.217  -6.920  1.00  0.00     0.049 A 
ATOM     42  N   UNL     1       6.947   8.500  -8.586  1.00  0.00    -0.248 NA
ATOM     43  C   UNL     1       7.155   6.554  -7.310  1.00  0.00     0.031 C 
ATOM     44  C   UNL     1       3.331   9.591  -6.165  1.00  0.00     0.029 A 
ATOM     45  N   UNL     1       4.605  10.158  -7.916  1.00  0.00    -0.354 N 
ATOM     46  C   UNL     1       8.005   7.738  -9.068  1.00  0.00     0.074 A 
ATOM     47  C   UNL     1       8.108   6.566  -8.229  1.00  0.00     0.031 C 
ATOM     48  C   UNL     1       2.797  10.695  -6.718  1.00  0.00     0.029 A 
ATOM     49  C   UNL     1       3.642  11.134  -7.828  1.00  0.00     0.049 A 
ATOM     50  H   UNL     1       5.287  10.136  -8.625  1.00  0.00     0.167 HD
ATOM     51  C   UNL     1       8.822   7.995 -10.116  1.00  0.00     0.031 A 
ATOM     52  C   UNL     1       3.487  12.270  -8.539  1.00  0.00     0.031 A 
ATOM     53  C   UNL     1       8.724   9.171 -10.936  1.00  0.00     0.049 A 
ATOM     54  C   UNL     1       4.479  12.595  -9.628  1.00  0.00     0.074 A 
ATOM     55  C   UNL     1       9.515   9.540 -12.009  1.00  0.00     0.029 A 
ATOM     56  N   UNL     1       7.776  10.171 -10.774  1.00  0.00    -0.354 N 
ATOM     57  N   UNL     1       5.505  11.893 -10.050  1.00  0.00    -0.248 NA
ATOM     58  C   UNL     1       4.290  13.869 -10.335  1.00  0.00     0.031 C 
ATOM     59  C   UNL     1       9.084  10.793 -12.456  1.00  0.00     0.029 A 
ATOM     60  C   UNL     1       7.980  11.171 -11.709  1.00  0.00     0.049 A 
ATOM     61  H   UNL     1       7.064  10.169 -10.094  1.00  0.00     0.167 HD
ATOM     62  C   UNL     1       6.074  12.633 -11.083  1.00  0.00     0.074 A 
ATOM     63  C   UNL     1       5.260  13.821 -11.239  1.00  0.00     0.031 C 
ATOM     64  C   UNL     1       7.171  12.358 -11.834  1.00  0.00     0.031 A 
BRANCH  51  65
ATOM     65  C   UNL     1       9.923   7.008 -10.396  1.00  0.00    -0.014 A 
ATOM     66  C   UNL     1       9.649   5.732 -10.919  1.00  0.00     0.010 A 
ATOM     67  C   UNL     1      11.260   7.379 -10.160  1.00  0.00     0.010 A 
ATOM     68  C   UNL     1      10.689   4.835 -11.176  1.00  0.00     0.020 A 
ATOM     69  C   UNL     1      12.305   6.497 -10.444  1.00  0.00     0.020 A 
ATOM     70  C   UNL     1      12.011   5.226 -10.941  1.00  0.00     0.054 A 
BRANCH  70  71
ATOM     71  S   UNL     1      13.342   4.054 -11.322  1.00  0.00     0.124 S 
ATOM     72  O   UNL     1      13.134   3.021 -10.310  1.00  0.00    -0.237 OA
ATOM     73  O   UNL     1      13.035   3.661 -12.694  1.00  0.00    -0.237 OA
ATOM     74  O   UNL     1      14.559   4.846 -11.160  1.00  0.00    -0.744 OA
ENDBRANCH  70  71
ENDBRANCH  51  65
BRANCH  52  75
ATOM     75  C   UNL     1       2.371  13.204  -8.221  1.00  0.00    -0.014 A 
ATOM     76  C   UNL     1       1.320  13.401  -9.133  1.00  0.00     0.010 A 
ATOM     77  C   UNL     1       2.352  13.902  -6.998  1.00  0.00     0.010 A 
ATOM     78  C   UNL     1       0.273  14.277  -8.831  1.00  0.00     0.020 A 
ATOM     79  C   UNL     1       1.291  14.756  -6.680  1.00  0.00     0.020 A 
ATOM     80  C   UNL     1       0.260  14.941  -7.601  1.00  0.00     0.054 A 
BRANCH  80  81
ATOM     81  S   UNL     1      -1.148  16.015  -7.205  1.00  0.00     0.124 S 
ATOM     82  O   UNL     1      -0.966  17.118  -8.143  1.00  0.00    -0.237 OA
ATOM     83  O   UNL     1      -2.289  15.142  -7.468  1.00  0.00    -0.237 OA
ATOM     84  O   UNL     1      -0.940  16.349  -5.798  1.00  0.00    -0.744 OA
ENDBRANCH  80  81
ENDBRANCH  52  75
BRANCH  64  85
ATOM     85  C   UNL     1       7.544  13.355 -12.902  1.00  0.00    -0.014 A 
ATOM     86  C   UNL     1       8.038  14.629 -12.570  1.00  0.00     0.010 A 
ATOM     87  C   UNL     1       7.423  13.002 -14.259  1.00  0.00     0.010 A 
ATOM     88  C   UNL     1       8.347  15.552 -13.574  1.00  0.00     0.020 A 
ATOM     89  C   UNL     1       7.766  13.908 -15.266  1.00  0.00     0.020 A 
ATOM     90  C   UNL     1       8.203  15.186 -14.916  1.00  0.00     0.054 A 
BRANCH  90  91
ATOM     91  S   UNL     1       8.605  16.405 -16.197  1.00  0.00     0.124 S 
ATOM     92  O   UNL     1       7.512  17.364 -16.056  1.00  0.00    -0.237 OA
ATOM     93  O   UNL     1       9.920  16.885 -15.780  1.00  0.00    -0.237 OA
ATOM     94  O   UNL     1       8.594  15.627 -17.433  1.00  0.00    -0.744 OA
ENDBRANCH  90  91
ENDBRANCH  64  85
ENDBRANCH  38  39
ENDBRANCH  31  33
ENDBRANCH  30  31
ENDBRANCH  29  30
ENDBRANCH  28  29
ENDBRANCH  27  28
ENDBRANCH   1  27
TORSDOF 22
