REMARK SMILES O=C(OCCOCCOCCOC(=O)[C@H]1CC[C@H](CNC(=O)c2ccccc2O)O1)c1ccc(-c2c3nc(c(-c4ccc(S(=O)(=O)[O-])cc4)c4ccc([nH]4)c(-c4ccc(S(=O)(=O)[O-])cc4)c4nc(c(-c5ccc(S(=O)(=O)[O-])cc5)c5ccc2[nH]5)C=C4)C=C3)cc1
REMARK SMILES IDX 8 1 7 2 6 3 5 4 4 5 3 6 2 7 1 8 31 9 32 10 90 11 33 12 89 13
REMARK SMILES IDX 34 14 35 15 36 16 83 17 37 18 88 19 82 20 84 21 38 22 87 23
REMARK SMILES IDX 81 24 80 25 39 27 69 28 50 29 68 30 51 31 54 32 67 33 85 34
REMARK SMILES IDX 52 35 53 36 66 38 86 39 55 40 40 41 41 42 49 43 42 44 48 45
REMARK SMILES IDX 43 46 44 47 45 48 46 49 47 50 70 51 71 52 79 53 72 54 78 55
REMARK SMILES IDX 73 56 74 57 75 58 76 59 77 60 56 61 57 62 65 63 58 64 64 65
REMARK SMILES IDX 59 66 60 67 61 68 62 69 63 70 9 71 10 72 11 73 12 74 13 75
REMARK SMILES IDX 14 76 15 77 16 78 30 79 17 80 18 81 19 82 20 83 21 84 22 86
REMARK SMILES IDX 23 87 24 88 28 89 25 90 27 91 26 92 29 93
REMARK H PARENT 84 26 54 37 20 85 29 94
REMARK Flexibility Score: inf
ROOT
ATOM      1  C   UNL     1      -1.133   1.872  -5.437  1.00  0.00     0.188 C 
ENDROOT
BRANCH   1   2
ATOM      2  C   UNL     1      -1.783   1.203  -4.225  1.00  0.00     0.188 C 
BRANCH   2   3
ATOM      3  O   UNL     1      -1.393  -0.161  -4.052  1.00  0.00    -0.376 OA
BRANCH   3   4
ATOM      4  C   UNL     1      -2.409  -1.023  -3.530  1.00  0.00     0.202 C 
BRANCH   4   5
ATOM      5  C   UNL     1      -2.904  -0.741  -2.098  1.00  0.00     0.261 C 
BRANCH   5   6
ATOM      6  O   UNL     1      -2.791   0.631  -1.686  1.00  0.00    -0.460 OA
BRANCH   6   7
ATOM      7  C   UNL     1      -1.798   1.214  -0.967  1.00  0.00     0.338 C 
ATOM      8  O   UNL     1      -1.967   2.366  -0.564  1.00  0.00    -0.246 OA
BRANCH   7   9
ATOM      9  C   UNL     1      -0.495   0.549  -0.661  1.00  0.00     0.060 A 
ATOM     10  C   UNL     1       0.043  -0.513  -1.385  1.00  0.00     0.016 A 
ATOM     11  C   UNL     1       0.271   1.076   0.392  1.00  0.00     0.016 A 
ATOM     12  C   UNL     1       1.236  -1.116  -1.026  1.00  0.00     0.010 A 
ATOM     13  C   UNL     1       1.499   0.505   0.739  1.00  0.00     0.010 A 
ATOM     14  C   UNL     1       1.958  -0.624   0.052  1.00  0.00    -0.014 A 
BRANCH  14  15
ATOM     15  C   UNL     1       3.079  -1.438   0.545  1.00  0.00     0.031 A 
ATOM     16  C   UNL     1       2.855  -2.241   1.790  1.00  0.00     0.074 A 
ATOM     17  C   UNL     1       4.197  -1.558  -0.191  1.00  0.00     0.049 A 
ATOM     18  N   UNL     1       3.692  -2.985   2.457  1.00  0.00    -0.248 NA
ATOM     19  C   UNL     1       1.494  -2.207   2.358  1.00  0.00     0.031 C 
ATOM     20  C   UNL     1       4.423  -0.929  -1.497  1.00  0.00     0.029 A 
ATOM     21  N   UNL     1       5.339  -2.276   0.036  1.00  0.00    -0.354 N 
ATOM     22  C   UNL     1       2.974  -3.469   3.544  1.00  0.00     0.074 A 
ATOM     23  C   UNL     1       1.637  -2.933   3.454  1.00  0.00     0.031 C 
ATOM     24  C   UNL     1       5.625  -1.307  -1.961  1.00  0.00     0.029 A 
ATOM     25  C   UNL     1       6.281  -2.135  -0.954  1.00  0.00     0.049 A 
ATOM     26  H   UNL     1       5.473  -2.840   0.832  1.00  0.00     0.167 HD
ATOM     27  C   UNL     1       3.409  -4.278   4.536  1.00  0.00     0.031 A 
ATOM     28  C   UNL     1       7.545  -2.593  -1.008  1.00  0.00     0.031 A 
ATOM     29  C   UNL     1       4.754  -4.778   4.593  1.00  0.00     0.049 A 
ATOM     30  C   UNL     1       8.044  -3.402   0.159  1.00  0.00     0.074 A 
ATOM     31  C   UNL     1       5.351  -5.550   5.569  1.00  0.00     0.029 A 
ATOM     32  N   UNL     1       5.714  -4.547   3.614  1.00  0.00    -0.354 N 
ATOM     33  N   UNL     1       7.389  -3.786   1.232  1.00  0.00    -0.248 NA
ATOM     34  C   UNL     1       9.447  -3.830   0.120  1.00  0.00     0.031 C 
ATOM     35  C   UNL     1       6.691  -5.733   5.210  1.00  0.00     0.029 A 
ATOM     36  C   UNL     1       6.908  -5.140   3.973  1.00  0.00     0.049 A 
ATOM     37  H   UNL     1       5.564  -4.035   2.787  1.00  0.00     0.167 HD
ATOM     38  C   UNL     1       8.293  -4.521   1.988  1.00  0.00     0.074 A 
ATOM     39  C   UNL     1       9.537  -4.537   1.240  1.00  0.00     0.031 C 
ATOM     40  C   UNL     1       8.119  -5.130   3.188  1.00  0.00     0.031 A 
BRANCH  27  41
ATOM     41  C   UNL     1       2.449  -4.565   5.660  1.00  0.00    -0.014 A 
ATOM     42  C   UNL     1       1.304  -5.362   5.476  1.00  0.00     0.010 A 
ATOM     43  C   UNL     1       2.675  -3.977   6.918  1.00  0.00     0.010 A 
ATOM     44  C   UNL     1       0.377  -5.519   6.512  1.00  0.00     0.020 A 
ATOM     45  C   UNL     1       1.768  -4.157   7.965  1.00  0.00     0.020 A 
ATOM     46  C   UNL     1       0.612  -4.908   7.748  1.00  0.00     0.054 A 
BRANCH  46  47
ATOM     47  S   UNL     1      -0.613  -5.115   9.069  1.00  0.00     0.124 S 
ATOM     48  O   UNL     1      -1.717  -4.288   8.588  1.00  0.00    -0.237 OA
ATOM     49  O   UNL     1      -0.854  -6.553   9.059  1.00  0.00    -0.237 OA
ATOM     50  O   UNL     1       0.071  -4.607  10.259  1.00  0.00    -0.744 OA
ENDBRANCH  46  47
ENDBRANCH  27  41
BRANCH  28  51
ATOM     51  C   UNL     1       8.421  -2.242  -2.161  1.00  0.00    -0.014 A 
ATOM     52  C   UNL     1       8.889  -3.227  -3.047  1.00  0.00     0.010 A 
ATOM     53  C   UNL     1       8.774  -0.898  -2.394  1.00  0.00     0.010 A 
ATOM     54  C   UNL     1       9.697  -2.877  -4.136  1.00  0.00     0.020 A 
ATOM     55  C   UNL     1       9.553  -0.539  -3.497  1.00  0.00     0.020 A 
ATOM     56  C   UNL     1      10.018  -1.534  -4.357  1.00  0.00     0.054 A 
BRANCH  56  57
ATOM     57  S   UNL     1      11.018  -1.099  -5.807  1.00  0.00     0.124 S 
ATOM     58  O   UNL     1      12.329  -1.623  -5.441  1.00  0.00    -0.237 OA
ATOM     59  O   UNL     1      10.330  -1.806  -6.884  1.00  0.00    -0.237 OA
ATOM     60  O   UNL     1      10.919   0.358  -5.865  1.00  0.00    -0.744 OA
ENDBRANCH  56  57
ENDBRANCH  28  51
BRANCH  40  61
ATOM     61  C   UNL     1       9.285  -5.901   3.739  1.00  0.00    -0.014 A 
ATOM     62  C   UNL     1      10.411  -5.247   4.267  1.00  0.00     0.010 A 
ATOM     63  C   UNL     1       9.205  -7.304   3.801  1.00  0.00     0.010 A 
ATOM     64  C   UNL     1      11.450  -5.989   4.830  1.00  0.00     0.020 A 
ATOM     65  C   UNL     1      10.227  -8.046   4.393  1.00  0.00     0.020 A 
ATOM     66  C   UNL     1      11.349  -7.383   4.894  1.00  0.00     0.054 A 
BRANCH  66  67
ATOM     67  S   UNL     1      12.682  -8.316   5.690  1.00  0.00     0.124 S 
ATOM     68  O   UNL     1      13.753  -8.215   4.704  1.00  0.00    -0.237 OA
ATOM     69  O   UNL     1      12.895  -7.573   6.930  1.00  0.00    -0.237 OA
ATOM     70  O   UNL     1      12.115  -9.652   5.861  1.00  0.00    -0.744 OA
ENDBRANCH  66  67
ENDBRANCH  40  61
ENDBRANCH  14  15
ENDBRANCH   7   9
ENDBRANCH   6   7
ENDBRANCH   5   6
ENDBRANCH   4   5
ENDBRANCH   3   4
ENDBRANCH   2   3
ENDBRANCH   1   2
BRANCH   1  71
ATOM     71  O   UNL     1      -1.463   1.347  -6.720  1.00  0.00    -0.376 OA
BRANCH  71  72
ATOM     72  C   UNL     1      -1.356  -0.060  -6.888  1.00  0.00     0.202 C 
BRANCH  72  73
ATOM     73  C   UNL     1       0.038  -0.710  -6.825  1.00  0.00     0.261 C 
BRANCH  73  74
ATOM     74  O   UNL     1       0.945  -0.191  -5.837  1.00  0.00    -0.461 OA
BRANCH  74  75
ATOM     75  C   UNL     1       1.867   0.691  -6.321  1.00  0.00     0.335 C 
ATOM     76  O   UNL     1       1.905   1.064  -7.493  1.00  0.00    -0.249 OA
BRANCH  75  77
ATOM     77  C   UNL     1       2.868   1.151  -5.231  1.00  0.00     0.228 C 
ATOM     78  C   UNL     1       3.863   2.128  -5.846  1.00  0.00     0.047 C 
ATOM     79  O   UNL     1       2.304   1.850  -4.101  1.00  0.00    -0.361 OA
ATOM     80  C   UNL     1       3.159   3.442  -5.612  1.00  0.00     0.037 C 
ATOM     81  C   UNL     1       2.635   3.261  -4.195  1.00  0.00     0.138 C 
BRANCH  81  82
ATOM     82  C   UNL     1       3.658   3.667  -3.104  1.00  0.00     0.148 C 
BRANCH  82  83
ATOM     83  N   UNL     1       4.123   5.046  -3.256  1.00  0.00    -0.349 N 
ATOM     84  C   UNL     1       4.383   6.010  -2.322  1.00  0.00     0.255 C 
ATOM     85  H   UNL     1       4.274   5.328  -4.187  1.00  0.00     0.163 HD
ATOM     86  O   UNL     1       4.683   7.147  -2.703  1.00  0.00    -0.269 OA
BRANCH  84  87
ATOM     87  C   UNL     1       4.247   5.756  -0.876  1.00  0.00     0.081 A 
ATOM     88  C   UNL     1       3.486   6.677  -0.140  1.00  0.00     0.018 A 
ATOM     89  C   UNL     1       4.913   4.721  -0.211  1.00  0.00     0.128 A 
ATOM     90  C   UNL     1       3.348   6.531   1.240  1.00  0.00     0.001 A 
ATOM     91  C   UNL     1       4.768   4.572   1.170  1.00  0.00     0.047 A 
ATOM     92  C   UNL     1       3.980   5.474   1.891  1.00  0.00     0.004 A 
BRANCH  89  93
ATOM     93  O   UNL     1       5.734   3.870  -0.895  1.00  0.00    -0.507 OA
ATOM     94  H   UNL     1       5.837   3.963  -1.821  1.00  0.00     0.293 HD
ENDBRANCH  89  93
ENDBRANCH  84  87
ENDBRANCH  82  83
ENDBRANCH  81  82
ENDBRANCH  75  77
ENDBRANCH  74  75
ENDBRANCH  73  74
ENDBRANCH  72  73
ENDBRANCH  71  72
ENDBRANCH   1  71
TORSDOF 24
