REMARK SMILES C[C@@H](O)[C@@H](NC(=O)c1csc(-c2ccsc2)n1)C(=O)OCCOCCOCCOC(=O)c1ccc(-c2c3nc(c(-c4ccc(S(=O)(=O)[O-])cc4)c4ccc([nH]4)c(-c4ccc(S(=O)(=O)[O-])cc4)c4nc(c(-c5ccc(S(=O)(=O)[O-])cc5)c5ccc2[nH]5)C=C4)C=C3)cc1
REMARK SMILES IDX 24 1 23 2 22 3 21 4 20 5 18 6 19 7 4 8 2 9 1 10 3 11 5 13
REMARK SMILES IDX 6 14 7 16 8 17 9 18 17 19 10 20 11 21 12 22 13 23 16 24
REMARK SMILES IDX 14 25 15 26 25 27 26 28 27 29 28 30 29 31 30 32 31 33 32 34
REMARK SMILES IDX 33 35 91 36 34 37 90 38 35 39 36 40 37 41 84 42 38 43 89 44
REMARK SMILES IDX 83 45 85 46 39 47 88 48 82 49 81 50 40 52 70 53 51 54 69 55
REMARK SMILES IDX 52 56 55 57 68 58 86 59 53 60 54 61 67 63 87 64 56 65 41 66
REMARK SMILES IDX 42 67 50 68 43 69 49 70 44 71 45 72 46 73 47 74 48 75 71 76
REMARK SMILES IDX 72 77 80 78 73 79 79 80 74 81 75 82 76 83 77 84 78 85 57 86
REMARK SMILES IDX 58 87 66 88 59 89 65 90 60 91 61 92 62 93 63 94 64 95
REMARK H PARENT 3 12 5 15 85 51 55 62
REMARK Flexibility Score: inf
ROOT
ATOM      1  C   UNL     1      -0.732  -4.166   3.330  1.00  0.00     0.188 C 
ENDROOT
BRANCH   1   2
ATOM      2  O   UNL     1      -1.486  -5.250   2.795  1.00  0.00    -0.376 OA
BRANCH   2   3
ATOM      3  C   UNL     1      -1.153  -5.785   1.529  1.00  0.00     0.202 C 
BRANCH   3   4
ATOM      4  C   UNL     1      -1.528  -4.962   0.301  1.00  0.00     0.261 C 
BRANCH   4   5
ATOM      5  O   UNL     1      -0.955  -3.678   0.022  1.00  0.00    -0.462 OA
BRANCH   5   6
ATOM      6  C   UNL     1      -1.615  -2.591   0.534  1.00  0.00     0.331 C 
ATOM      7  O   UNL     1      -2.386  -2.623   1.483  1.00  0.00    -0.250 OA
BRANCH   6   8
ATOM      8  C   UNL     1      -1.335  -1.314  -0.252  1.00  0.00     0.221 C 
BRANCH   8   9
ATOM      9  C   UNL     1       0.208  -1.039  -0.198  1.00  0.00     0.145 C 
ATOM     10  C   UNL     1       0.667   0.225  -0.924  1.00  0.00     0.041 C 
BRANCH   9  11
ATOM     11  O   UNL     1       0.651  -0.884   1.157  1.00  0.00    -0.391 OA
ATOM     12  H   UNL     1       0.237  -0.097   1.545  1.00  0.00     0.211 HD
ENDBRANCH   9  11
ENDBRANCH   8   9
BRANCH   8  13
ATOM     13  N   UNL     1      -1.836  -1.384  -1.643  1.00  0.00    -0.335 N 
ATOM     14  C   UNL     1      -2.952  -1.946  -2.227  1.00  0.00     0.271 C 
ATOM     15  H   UNL     1      -1.245  -0.935  -2.291  1.00  0.00     0.164 HD
ATOM     16  O   UNL     1      -3.150  -1.645  -3.407  1.00  0.00    -0.267 OA
BRANCH  14  17
ATOM     17  C   UNL     1      -3.749  -3.001  -1.586  1.00  0.00     0.139 A 
ATOM     18  C   UNL     1      -3.966  -4.215  -2.220  1.00  0.00     0.101 A 
ATOM     19  N   UNL     1      -4.374  -2.903  -0.342  1.00  0.00    -0.231 NA
ATOM     20  S   UNL     1      -4.863  -5.275  -1.220  1.00  0.00    -0.122 S 
ATOM     21  C   UNL     1      -4.843  -4.083   0.034  1.00  0.00     0.125 A 
BRANCH  21  22
ATOM     22  C   UNL     1      -5.148  -4.415   1.481  1.00  0.00     0.021 A 
ATOM     23  C   UNL     1      -5.478  -3.461   2.489  1.00  0.00     0.023 A 
ATOM     24  C   UNL     1      -5.015  -5.683   2.019  1.00  0.00     0.076 A 
ATOM     25  C   UNL     1      -5.613  -4.035   3.737  1.00  0.00     0.065 A 
ATOM     26  S   UNL     1      -5.294  -5.714   3.711  1.00  0.00    -0.152 S 
ENDBRANCH  21  22
ENDBRANCH  14  17
ENDBRANCH   8  13
ENDBRANCH   6   8
ENDBRANCH   5   6
ENDBRANCH   4   5
ENDBRANCH   3   4
ENDBRANCH   2   3
ENDBRANCH   1   2
BRANCH   1  27
ATOM     27  C   UNL     1       0.578  -3.760   2.643  1.00  0.00     0.188 C 
BRANCH  27  28
ATOM     28  O   UNL     1       1.349  -4.825   2.137  1.00  0.00    -0.376 OA
BRANCH  28  29
ATOM     29  C   UNL     1       2.270  -5.500   2.968  1.00  0.00     0.202 C 
BRANCH  29  30
ATOM     30  C   UNL     1       2.035  -5.692   4.474  1.00  0.00     0.261 C 
BRANCH  30  31
ATOM     31  O   UNL     1       1.553  -4.578   5.243  1.00  0.00    -0.460 OA
BRANCH  31  32
ATOM     32  C   UNL     1       2.270  -3.437   5.261  1.00  0.00     0.338 C 
ATOM     33  O   UNL     1       3.358  -3.256   4.732  1.00  0.00    -0.246 OA
BRANCH  32  34
ATOM     34  C   UNL     1       1.404  -2.364   5.816  1.00  0.00     0.060 A 
ATOM     35  C   UNL     1       1.275  -1.161   5.106  1.00  0.00     0.016 A 
ATOM     36  C   UNL     1       0.719  -2.536   7.023  1.00  0.00     0.016 A 
ATOM     37  C   UNL     1       0.542  -0.102   5.641  1.00  0.00     0.010 A 
ATOM     38  C   UNL     1      -0.004  -1.467   7.567  1.00  0.00     0.010 A 
ATOM     39  C   UNL     1      -0.041  -0.225   6.908  1.00  0.00    -0.014 A 
BRANCH  39  40
ATOM     40  C   UNL     1      -0.458   1.004   7.632  1.00  0.00     0.031 A 
ATOM     41  C   UNL     1       0.485   1.574   8.665  1.00  0.00     0.074 A 
ATOM     42  C   UNL     1      -1.603   1.647   7.340  1.00  0.00     0.049 A 
ATOM     43  N   UNL     1       0.365   2.651   9.398  1.00  0.00    -0.248 NA
ATOM     44  C   UNL     1       1.732   0.827   8.900  1.00  0.00     0.031 C 
ATOM     45  C   UNL     1      -2.577   1.231   6.332  1.00  0.00     0.029 A 
ATOM     46  N   UNL     1      -2.133   2.801   7.865  1.00  0.00    -0.354 N 
ATOM     47  C   UNL     1       1.512   2.704  10.184  1.00  0.00     0.074 A 
ATOM     48  C   UNL     1       2.297   1.532   9.868  1.00  0.00     0.031 C 
ATOM     49  C   UNL     1      -3.586   2.120   6.310  1.00  0.00     0.029 A 
ATOM     50  C   UNL     1      -3.345   3.151   7.319  1.00  0.00     0.049 A 
ATOM     51  H   UNL     1      -1.687   3.327   8.567  1.00  0.00     0.167 HD
ATOM     52  C   UNL     1       1.889   3.647  11.080  1.00  0.00     0.031 A 
ATOM     53  C   UNL     1      -4.169   4.179   7.606  1.00  0.00     0.031 A 
ATOM     54  C   UNL     1       1.103   4.808  11.404  1.00  0.00     0.049 A 
ATOM     55  C   UNL     1      -3.760   5.183   8.656  1.00  0.00     0.074 A 
ATOM     56  C   UNL     1       1.401   5.828  12.289  1.00  0.00     0.029 A 
ATOM     57  N   UNL     1      -0.140   5.100  10.861  1.00  0.00    -0.354 N 
ATOM     58  N   UNL     1      -2.662   5.230   9.373  1.00  0.00    -0.248 NA
ATOM     59  C   UNL     1      -4.697   6.284   8.919  1.00  0.00     0.031 C 
ATOM     60  C   UNL     1       0.310   6.703  12.331  1.00  0.00     0.029 A 
ATOM     61  C   UNL     1      -0.633   6.271  11.412  1.00  0.00     0.049 A 
ATOM     62  H   UNL     1      -0.602   4.556  10.183  1.00  0.00     0.167 HD
ATOM     63  C   UNL     1      -2.762   6.385  10.146  1.00  0.00     0.074 A 
ATOM     64  C   UNL     1      -4.018   7.013   9.794  1.00  0.00     0.031 C 
ATOM     65  C   UNL     1      -1.890   6.883  11.060  1.00  0.00     0.031 A 
BRANCH  52  66
ATOM     66  C   UNL     1       3.195   3.439  11.804  1.00  0.00    -0.014 A 
ATOM     67  C   UNL     1       4.430   3.533  11.135  1.00  0.00     0.010 A 
ATOM     68  C   UNL     1       3.188   3.178  13.187  1.00  0.00     0.010 A 
ATOM     69  C   UNL     1       5.628   3.332  11.827  1.00  0.00     0.020 A 
ATOM     70  C   UNL     1       4.385   3.009  13.889  1.00  0.00     0.020 A 
ATOM     71  C   UNL     1       5.597   3.071  13.200  1.00  0.00     0.054 A 
BRANCH  71  72
ATOM     72  S   UNL     1       7.169   2.843  14.077  1.00  0.00     0.124 S 
ATOM     73  O   UNL     1       7.614   1.549  13.565  1.00  0.00    -0.237 OA
ATOM     74  O   UNL     1       7.951   3.995  13.636  1.00  0.00    -0.237 OA
ATOM     75  O   UNL     1       6.786   2.855  15.487  1.00  0.00    -0.744 OA
ENDBRANCH  71  72
ENDBRANCH  52  66
BRANCH  53  76
ATOM     76  C   UNL     1      -5.471   4.314   6.893  1.00  0.00    -0.014 A 
ATOM     77  C   UNL     1      -5.706   5.383   6.010  1.00  0.00     0.010 A 
ATOM     78  C   UNL     1      -6.492   3.369   7.104  1.00  0.00     0.010 A 
ATOM     79  C   UNL     1      -6.942   5.515   5.368  1.00  0.00     0.020 A 
ATOM     80  C   UNL     1      -7.717   3.479   6.439  1.00  0.00     0.020 A 
ATOM     81  C   UNL     1      -7.938   4.559   5.583  1.00  0.00     0.054 A 
BRANCH  81  82
ATOM     82  S   UNL     1      -9.514   4.723   4.700  1.00  0.00     0.124 S 
ATOM     83  O   UNL     1     -10.120   5.871   5.368  1.00  0.00    -0.237 OA
ATOM     84  O   UNL     1      -9.081   4.948   3.323  1.00  0.00    -0.237 OA
ATOM     85  O   UNL     1     -10.175   3.442   4.936  1.00  0.00    -0.744 OA
ENDBRANCH  81  82
ENDBRANCH  53  76
BRANCH  65  86
ATOM     86  C   UNL     1      -2.241   8.200  11.708  1.00  0.00    -0.014 A 
ATOM     87  C   UNL     1      -3.321   8.321  12.602  1.00  0.00     0.010 A 
ATOM     88  C   UNL     1      -1.458   9.336  11.429  1.00  0.00     0.010 A 
ATOM     89  C   UNL     1      -3.647   9.564  13.154  1.00  0.00     0.020 A 
ATOM     90  C   UNL     1      -1.757  10.572  12.008  1.00  0.00     0.020 A 
ATOM     91  C   UNL     1      -2.866  10.683  12.847  1.00  0.00     0.054 A 
BRANCH  91  92
ATOM     92  S   UNL     1      -3.310  12.285  13.574  1.00  0.00     0.124 S 
ATOM     93  O   UNL     1      -4.516  12.632  12.827  1.00  0.00    -0.237 OA
ATOM     94  O   UNL     1      -3.516  11.953  14.981  1.00  0.00    -0.237 OA
ATOM     95  O   UNL     1      -2.146  13.124  13.301  1.00  0.00    -0.744 OA
ENDBRANCH  91  92
ENDBRANCH  65  86
ENDBRANCH  39  40
ENDBRANCH  32  34
ENDBRANCH  31  32
ENDBRANCH  30  31
ENDBRANCH  29  30
ENDBRANCH  28  29
ENDBRANCH  27  28
ENDBRANCH   1  27
TORSDOF 25
