REMARK SMILES C#CCNC(=O)[C@H](C)S(=O)(=O)c1ccc(C(=O)OCCOCCOCCOC(=O)c2ccc(-c3c4nc(c(-c5ccc(S(=O)(=O)[O-])cc5)c5ccc([nH]5)c(-c5ccc(S(=O)(=O)[O-])cc5)c5nc(c(-c6ccc(S(=O)(=O)[O-])cc6)c6ccc3[nH]6)C=C5)C=C4)cc2)cc1F
REMARK SMILES IDX 22 1 21 2 20 3 19 4 18 5 16 6 17 7 15 8 12 9 13 10 91 11
REMARK SMILES IDX 14 12 90 13 92 14 9 15 10 16 11 17 7 18 8 19 5 20 4 21 6 23
REMARK SMILES IDX 3 24 2 25 1 26 23 27 24 28 25 29 26 30 27 31 28 32 29 33
REMARK SMILES IDX 30 34 31 35 89 36 32 37 88 38 33 39 34 40 35 41 82 42 36 43
REMARK SMILES IDX 87 44 81 45 83 46 37 47 86 48 80 49 79 50 38 52 68 53 49 54
REMARK SMILES IDX 67 55 50 56 53 57 66 58 84 59 51 60 52 61 65 63 85 64 54 65
REMARK SMILES IDX 39 66 40 67 48 68 41 69 47 70 42 71 43 72 44 73 45 74 46 75
REMARK SMILES IDX 69 76 70 77 78 78 71 79 77 80 72 81 73 82 74 83 75 84 76 85
REMARK SMILES IDX 55 86 56 87 64 88 57 89 63 90 58 91 59 92 60 93 61 94 62 95
REMARK H PARENT 4 22 83 51 53 62
REMARK Flexibility Score: inf
ROOT
ATOM      1  C   UNL     1      -1.254   1.281  -6.063  1.00  0.00     0.188 C 
ENDROOT
BRANCH   1   2
ATOM      2  O   UNL     1      -0.181   0.887  -6.905  1.00  0.00    -0.376 OA
BRANCH   2   3
ATOM      3  C   UNL     1       0.450  -0.370  -6.677  1.00  0.00     0.202 C 
BRANCH   3   4
ATOM      4  C   UNL     1       0.887  -0.744  -5.253  1.00  0.00     0.261 C 
BRANCH   4   5
ATOM      5  O   UNL     1      -0.214  -0.875  -4.337  1.00  0.00    -0.460 OA
BRANCH   5   6
ATOM      6  C   UNL     1      -0.150  -0.102  -3.231  1.00  0.00     0.338 C 
ATOM      7  O   UNL     1       0.748   0.641  -2.876  1.00  0.00    -0.246 OA
BRANCH   6   8
ATOM      8  C   UNL     1      -1.450  -0.140  -2.550  1.00  0.00     0.063 A 
ATOM      9  C   UNL     1      -3.756  -0.008  -1.038  1.00  0.00     0.103 A 
ATOM     10  C   UNL     1      -3.511   0.983  -1.988  1.00  0.00     0.024 A 
ATOM     11  C   UNL     1      -2.996  -1.171  -1.047  1.00  0.00     0.142 A 
ATOM     12  C   UNL     1      -2.281   0.984  -2.633  1.00  0.00     0.017 A 
ATOM     13  C   UNL     1      -1.848  -1.259  -1.827  1.00  0.00     0.056 A 
ATOM     14  F   UNL     1      -3.316  -2.213  -0.274  1.00  0.00    -0.206 F 
BRANCH   9  15
ATOM     15  S   UNL     1      -4.891   0.300   0.295  1.00  0.00     0.192 S 
ATOM     16  O   UNL     1      -5.733  -0.881   0.378  1.00  0.00    -0.223 OA
ATOM     17  O   UNL     1      -5.539   1.574   0.035  1.00  0.00    -0.223 OA
BRANCH  15  18
ATOM     18  C   UNL     1      -3.967   0.445   1.802  1.00  0.00     0.199 C 
ATOM     19  C   UNL     1      -3.283  -0.873   2.188  1.00  0.00     0.036 C 
BRANCH  18  20
ATOM     20  C   UNL     1      -2.998   1.575   2.131  1.00  0.00     0.239 C 
ATOM     21  N   UNL     1      -2.506   2.584   1.393  1.00  0.00    -0.344 N 
ATOM     22  H   UNL     1      -1.852   3.134   1.882  1.00  0.00     0.164 HD
ATOM     23  O   UNL     1      -2.523   1.573   3.285  1.00  0.00    -0.274 OA
BRANCH  21  24
ATOM     24  C   UNL     1      -2.721   3.035   0.055  1.00  0.00     0.206 C 
BRANCH  24  25
ATOM     25  C   UNL     1      -3.220   4.469  -0.015  1.00  0.00    -0.085 C 
ATOM     26  C   UNL     1      -3.647   5.699  -0.074  1.00  0.00     0.006 C 
ENDBRANCH  24  25
ENDBRANCH  21  24
ENDBRANCH  18  20
ENDBRANCH  15  18
ENDBRANCH   9  15
ENDBRANCH   6   8
ENDBRANCH   5   6
ENDBRANCH   4   5
ENDBRANCH   3   4
ENDBRANCH   2   3
ENDBRANCH   1   2
BRANCH   1  27
ATOM     27  C   UNL     1      -2.476   0.348  -5.927  1.00  0.00     0.188 C 
BRANCH  27  28
ATOM     28  O   UNL     1      -2.350  -0.900  -6.553  1.00  0.00    -0.376 OA
BRANCH  28  29
ATOM     29  C   UNL     1      -2.866  -1.086  -7.853  1.00  0.00     0.202 C 
BRANCH  29  30
ATOM     30  C   UNL     1      -3.221   0.039  -8.848  1.00  0.00     0.261 C 
BRANCH  30  31
ATOM     31  O   UNL     1      -3.117   1.403  -8.430  1.00  0.00    -0.460 OA
BRANCH  31  32
ATOM     32  C   UNL     1      -4.273   1.999  -8.042  1.00  0.00     0.338 C 
ATOM     33  O   UNL     1      -5.367   1.473  -7.936  1.00  0.00    -0.246 OA
BRANCH  32  34
ATOM     34  C   UNL     1      -3.973   3.369  -7.578  1.00  0.00     0.060 A 
ATOM     35  C   UNL     1      -4.171   3.689  -6.228  1.00  0.00     0.016 A 
ATOM     36  C   UNL     1      -3.542   4.343  -8.480  1.00  0.00     0.016 A 
ATOM     37  C   UNL     1      -3.964   4.997  -5.781  1.00  0.00     0.010 A 
ATOM     38  C   UNL     1      -3.353   5.655  -8.033  1.00  0.00     0.010 A 
ATOM     39  C   UNL     1      -3.591   5.997  -6.689  1.00  0.00    -0.014 A 
BRANCH  39  40
ATOM     40  C   UNL     1      -3.609   7.425  -6.281  1.00  0.00     0.031 A 
ATOM     41  C   UNL     1      -4.803   8.267  -6.648  1.00  0.00     0.074 A 
ATOM     42  C   UNL     1      -2.586   7.972  -5.598  1.00  0.00     0.049 A 
ATOM     43  N   UNL     1      -5.010   9.543  -6.451  1.00  0.00    -0.248 NA
ATOM     44  C   UNL     1      -5.908   7.575  -7.332  1.00  0.00     0.031 C 
ATOM     45  C   UNL     1      -1.392   7.261  -5.146  1.00  0.00     0.029 A 
ATOM     46  N   UNL     1      -2.388   9.264  -5.175  1.00  0.00    -0.354 N 
ATOM     47  C   UNL     1      -6.261   9.812  -6.996  1.00  0.00     0.074 A 
ATOM     48  C   UNL     1      -6.753   8.571  -7.555  1.00  0.00     0.031 C 
ATOM     49  C   UNL     1      -0.579   8.129  -4.518  1.00  0.00     0.029 A 
ATOM     50  C   UNL     1      -1.177   9.463  -4.556  1.00  0.00     0.049 A 
ATOM     51  H   UNL     1      -3.052   9.980  -5.303  1.00  0.00     0.167 HD
ATOM     52  C   UNL     1      -6.941  10.982  -7.026  1.00  0.00     0.031 A 
ATOM     53  C   UNL     1      -0.604  10.595  -4.096  1.00  0.00     0.031 A 
ATOM     54  C   UNL     1      -6.444  12.221  -6.487  1.00  0.00     0.049 A 
ATOM     55  C   UNL     1      -1.348  11.903  -4.209  1.00  0.00     0.074 A 
ATOM     56  C   UNL     1      -7.067  13.456  -6.457  1.00  0.00     0.029 A 
ATOM     57  N   UNL     1      -5.201  12.385  -5.895  1.00  0.00    -0.354 N 
ATOM     58  N   UNL     1      -2.542  12.134  -4.702  1.00  0.00    -0.248 NA
ATOM     59  C   UNL     1      -0.668  13.101  -3.696  1.00  0.00     0.031 C 
ATOM     60  C   UNL     1      -6.176  14.381  -5.903  1.00  0.00     0.029 A 
ATOM     61  C   UNL     1      -5.027  13.707  -5.521  1.00  0.00     0.049 A 
ATOM     62  H   UNL     1      -4.540  11.668  -5.760  1.00  0.00     0.167 HD
ATOM     63  C   UNL     1      -2.769  13.496  -4.524  1.00  0.00     0.074 A 
ATOM     64  C   UNL     1      -1.594  14.034  -3.870  1.00  0.00     0.031 C 
ATOM     65  C   UNL     1      -3.855  14.234  -4.866  1.00  0.00     0.031 A 
BRANCH  52  66
ATOM     66  C   UNL     1      -8.289  10.987  -7.701  1.00  0.00    -0.014 A 
ATOM     67  C   UNL     1      -9.396  10.335  -7.128  1.00  0.00     0.010 A 
ATOM     68  C   UNL     1      -8.458  11.688  -8.909  1.00  0.00     0.010 A 
ATOM     69  C   UNL     1     -10.637  10.352  -7.771  1.00  0.00     0.020 A 
ATOM     70  C   UNL     1      -9.704  11.732  -9.540  1.00  0.00     0.020 A 
ATOM     71  C   UNL     1     -10.782  11.049  -8.974  1.00  0.00     0.054 A 
BRANCH  71  72
ATOM     72  S   UNL     1     -12.409  11.071  -9.775  1.00  0.00     0.124 S 
ATOM     73  O   UNL     1     -12.524   9.698 -10.261  1.00  0.00    -0.237 OA
ATOM     74  O   UNL     1     -13.303  11.425  -8.675  1.00  0.00    -0.237 OA
ATOM     75  O   UNL     1     -12.272  12.088 -10.815  1.00  0.00    -0.744 OA
ENDBRANCH  71  72
ENDBRANCH  52  66
BRANCH  53  76
ATOM     76  C   UNL     1       0.759  10.550  -3.495  1.00  0.00    -0.014 A 
ATOM     77  C   UNL     1       0.949  10.796  -2.124  1.00  0.00     0.010 A 
ATOM     78  C   UNL     1       1.879  10.268  -4.298  1.00  0.00     0.010 A 
ATOM     79  C   UNL     1       2.233  10.777  -1.571  1.00  0.00     0.020 A 
ATOM     80  C   UNL     1       3.162  10.219  -3.744  1.00  0.00     0.020 A 
ATOM     81  C   UNL     1       3.331  10.484  -2.384  1.00  0.00     0.054 A 
BRANCH  81  82
ATOM     82  S   UNL     1       4.981  10.413  -1.633  1.00  0.00     0.124 S 
ATOM     83  O   UNL     1       5.254  11.821  -1.362  1.00  0.00    -0.237 OA
ATOM     84  O   UNL     1       4.755   9.574  -0.458  1.00  0.00    -0.237 OA
ATOM     85  O   UNL     1       5.805   9.804  -2.675  1.00  0.00    -0.744 OA
ENDBRANCH  81  82
ENDBRANCH  53  76
BRANCH  65  86
ATOM     86  C   UNL     1      -3.856  15.696  -4.498  1.00  0.00    -0.014 A 
ATOM     87  C   UNL     1      -3.027  16.623  -5.154  1.00  0.00     0.010 A 
ATOM     88  C   UNL     1      -4.752  16.159  -3.514  1.00  0.00     0.010 A 
ATOM     89  C   UNL     1      -3.070  17.978  -4.810  1.00  0.00     0.020 A 
ATOM     90  C   UNL     1      -4.819  17.516  -3.190  1.00  0.00     0.020 A 
ATOM     91  C   UNL     1      -3.966  18.416  -3.830  1.00  0.00     0.054 A 
BRANCH  91  92
ATOM     92  S   UNL     1      -4.031  20.184  -3.432  1.00  0.00     0.124 S 
ATOM     93  O   UNL     1      -2.781  20.378  -2.702  1.00  0.00    -0.237 OA
ATOM     94  O   UNL     1      -4.092  20.808  -4.752  1.00  0.00    -0.237 OA
ATOM     95  O   UNL     1      -5.247  20.316  -2.631  1.00  0.00    -0.744 OA
ENDBRANCH  91  92
ENDBRANCH  65  86
ENDBRANCH  39  40
ENDBRANCH  32  34
ENDBRANCH  31  32
ENDBRANCH  30  31
ENDBRANCH  29  30
ENDBRANCH  28  29
ENDBRANCH  27  28
ENDBRANCH   1  27
TORSDOF 25
