REMARK SMILES O=C(CNC(=O)N1CC(OCCOCCOCCOC(=O)c2ccc(-c3c4nc(c(-c5ccc(S(=O)(=O)[O-])cc5)c5ccc([nH]5)c(-c5ccc(S(=O)(=O)[O-])cc5)c5nc(c(-c6ccc(S(=O)(=O)[O-])cc6)c6ccc3[nH]6)C=C5)C=C4)cc2)=Nc2ccccc21)N[C@H](C(=O)[O-])c1ccccc1
REMARK SMILES IDX 14 1 13 2 12 3 11 4 10 5 9 6 7 7 8 8 88 9 83 10 87 11 82 12
REMARK SMILES IDX 84 13 86 14 85 15 5 16 4 17 6 19 3 20 2 21 1 22 89 23 90 25
REMARK SMILES IDX 94 26 95 27 99 28 96 29 98 30 97 31 91 32 92 33 93 34 15 35
REMARK SMILES IDX 16 36 17 37 18 38 19 39 20 40 21 41 22 42 23 43 81 44 24 45
REMARK SMILES IDX 80 46 25 47 26 48 27 49 74 50 28 51 79 52 73 53 75 54 29 55
REMARK SMILES IDX 78 56 72 57 71 58 30 60 60 61 41 62 59 63 42 64 45 65 58 66
REMARK SMILES IDX 76 67 43 68 44 69 57 71 77 72 46 73 31 74 32 75 40 76 33 77
REMARK SMILES IDX 39 78 34 79 35 80 36 81 37 82 38 83 61 84 62 85 70 86 63 87
REMARK SMILES IDX 69 88 64 89 65 90 66 91 67 92 68 93 47 94 48 95 56 96 49 97
REMARK SMILES IDX 55 98 50 99 51 100 52 101 53 102 54 103
REMARK H PARENT 4 18 89 24 75 59 45 70
REMARK Flexibility Score: inf
ROOT
ATOM      1  C   UNL     1       0.235   4.268   2.184  1.00  0.00     0.188 C 
ENDROOT
BRANCH   1   2
ATOM      2  O   UNL     1      -0.786   4.323   3.176  1.00  0.00    -0.376 OA
BRANCH   2   3
ATOM      3  C   UNL     1      -2.092   4.676   2.767  1.00  0.00     0.201 C 
BRANCH   3   4
ATOM      4  C   UNL     1      -2.371   6.180   2.737  1.00  0.00     0.259 C 
BRANCH   4   5
ATOM      5  O   UNL     1      -1.515   6.944   1.860  1.00  0.00    -0.477 OA
BRANCH   5   6
ATOM      6  C   UNL     1      -0.296   7.300   2.347  1.00  0.00     0.209 C 
ATOM      7  N   UNL     1       2.023   7.507   1.501  1.00  0.00    -0.283 N 
ATOM      8  C   UNL     1       0.621   7.899   1.306  1.00  0.00     0.224 C 
ATOM      9  C   UNL     1       2.420   7.395   2.880  1.00  0.00     0.072 A 
ATOM     10  C   UNL     1       1.412   7.222   3.873  1.00  0.00     0.091 A 
ATOM     11  C   UNL     1       3.747   7.492   3.300  1.00  0.00     0.029 A 
ATOM     12  N   UNL     1       0.044   7.096   3.575  1.00  0.00    -0.214 NA
ATOM     13  C   UNL     1       1.763   7.027   5.213  1.00  0.00     0.030 A 
ATOM     14  C   UNL     1       4.077   7.348   4.657  1.00  0.00     0.002 A 
ATOM     15  C   UNL     1       3.093   7.082   5.607  1.00  0.00     0.002 A 
BRANCH   7  16
ATOM     16  C   UNL     1       2.833   7.644   0.395  1.00  0.00     0.322 C 
ATOM     17  N   UNL     1       3.874   6.814   0.147  1.00  0.00    -0.329 N 
ATOM     18  H   UNL     1       4.529   7.175  -0.494  1.00  0.00     0.165 HD
ATOM     19  O   UNL     1       2.569   8.476  -0.480  1.00  0.00    -0.248 OA
BRANCH  17  20
ATOM     20  C   UNL     1       4.207   5.485   0.652  1.00  0.00     0.218 C 
BRANCH  20  21
ATOM     21  C   UNL     1       4.551   4.465  -0.479  1.00  0.00     0.240 C 
ATOM     22  O   UNL     1       5.698   4.297  -0.874  1.00  0.00    -0.273 OA
ATOM     23  N   UNL     1       3.418   3.921  -1.033  1.00  0.00    -0.342 N 
ATOM     24  H   UNL     1       2.594   4.446  -0.909  1.00  0.00     0.164 HD
BRANCH  23  25
ATOM     25  C   UNL     1       3.257   2.650  -1.796  1.00  0.00     0.158 C 
BRANCH  25  26
ATOM     26  C   UNL     1       3.411   2.792  -3.297  1.00  0.00    -0.020 A 
ATOM     27  C   UNL     1       3.788   1.714  -4.112  1.00  0.00     0.006 A 
ATOM     28  C   UNL     1       2.997   3.980  -3.924  1.00  0.00     0.006 A 
ATOM     29  C   UNL     1       3.785   1.832  -5.503  1.00  0.00     0.000 A 
ATOM     30  C   UNL     1       2.998   4.101  -5.313  1.00  0.00     0.000 A 
ATOM     31  C   UNL     1       3.398   3.028  -6.103  1.00  0.00     0.000 A 
ENDBRANCH  25  26
BRANCH  25  32
ATOM     32  C   UNL     1       3.689   1.289  -1.137  1.00  0.00     0.068 C 
ATOM     33  O   UNL     1       2.897   0.313  -1.371  1.00  0.00    -0.548 OA
ATOM     34  O   UNL     1       4.704   1.279  -0.384  1.00  0.00    -0.548 OA
ENDBRANCH  25  32
ENDBRANCH  23  25
ENDBRANCH  20  21
ENDBRANCH  17  20
ENDBRANCH   7  16
ENDBRANCH   5   6
ENDBRANCH   4   5
ENDBRANCH   3   4
ENDBRANCH   2   3
ENDBRANCH   1   2
BRANCH   1  35
ATOM     35  C   UNL     1      -0.165   3.936   0.756  1.00  0.00     0.188 C 
BRANCH  35  36
ATOM     36  O   UNL     1      -0.916   2.725   0.758  1.00  0.00    -0.376 OA
BRANCH  36  37
ATOM     37  C   UNL     1      -0.206   1.599   0.258  1.00  0.00     0.202 C 
BRANCH  37  38
ATOM     38  C   UNL     1       0.554   0.671   1.246  1.00  0.00     0.261 C 
BRANCH  38  39
ATOM     39  O   UNL     1       1.449   1.113   2.297  1.00  0.00    -0.460 OA
BRANCH  39  40
ATOM     40  C   UNL     1       2.442   1.932   1.921  1.00  0.00     0.338 C 
ATOM     41  O   UNL     1       2.373   2.665   0.932  1.00  0.00    -0.246 OA
BRANCH  40  42
ATOM     42  C   UNL     1       3.524   2.160   2.899  1.00  0.00     0.060 A 
ATOM     43  C   UNL     1       3.724   3.483   3.292  1.00  0.00     0.016 A 
ATOM     44  C   UNL     1       4.527   1.222   3.144  1.00  0.00     0.016 A 
ATOM     45  C   UNL     1       4.967   3.896   3.758  1.00  0.00     0.010 A 
ATOM     46  C   UNL     1       5.741   1.631   3.743  1.00  0.00     0.010 A 
ATOM     47  C   UNL     1       5.995   2.986   4.022  1.00  0.00    -0.014 A 
BRANCH  47  48
ATOM     48  C   UNL     1       7.304   3.504   4.543  1.00  0.00     0.031 A 
ATOM     49  C   UNL     1       8.602   3.216   3.824  1.00  0.00     0.074 A 
ATOM     50  C   UNL     1       7.332   4.315   5.626  1.00  0.00     0.049 A 
ATOM     51  N   UNL     1       9.831   3.414   4.239  1.00  0.00    -0.248 NA
ATOM     52  C   UNL     1       8.514   2.630   2.477  1.00  0.00     0.031 C 
ATOM     53  C   UNL     1       6.155   4.768   6.374  1.00  0.00     0.029 A 
ATOM     54  N   UNL     1       8.376   4.938   6.273  1.00  0.00    -0.354 N 
ATOM     55  C   UNL     1      10.660   2.895   3.247  1.00  0.00     0.074 A 
ATOM     56  C   UNL     1       9.793   2.412   2.192  1.00  0.00     0.031 C 
ATOM     57  C   UNL     1       6.529   5.657   7.303  1.00  0.00     0.029 A 
ATOM     58  C   UNL     1       7.983   5.722   7.335  1.00  0.00     0.049 A 
ATOM     59  H   UNL     1       9.317   4.833   6.001  1.00  0.00     0.167 HD
ATOM     60  C   UNL     1      12.014   2.804   3.241  1.00  0.00     0.031 A 
ATOM     61  C   UNL     1       8.694   6.367   8.283  1.00  0.00     0.031 A 
ATOM     62  C   UNL     1      12.863   3.332   4.287  1.00  0.00     0.049 A 
ATOM     63  C   UNL     1      10.188   6.211   8.287  1.00  0.00     0.074 A 
ATOM     64  C   UNL     1      14.241   3.253   4.404  1.00  0.00     0.029 A 
ATOM     65  N   UNL     1      12.416   4.060   5.382  1.00  0.00    -0.354 N 
ATOM     66  N   UNL     1      10.952   5.588   7.422  1.00  0.00    -0.248 NA
ATOM     67  C   UNL     1      10.914   6.804   9.417  1.00  0.00     0.031 C 
ATOM     68  C   UNL     1      14.620   3.885   5.594  1.00  0.00     0.029 A 
ATOM     69  C   UNL     1      13.488   4.421   6.185  1.00  0.00     0.049 A 
ATOM     70  H   UNL     1      11.475   4.286   5.562  1.00  0.00     0.167 HD
ATOM     71  C   UNL     1      12.248   5.711   7.904  1.00  0.00     0.074 A 
ATOM     72  C   UNL     1      12.169   6.499   9.118  1.00  0.00     0.031 C 
ATOM     73  C   UNL     1      13.397   5.205   7.393  1.00  0.00     0.031 A 
BRANCH  60  74
ATOM     74  C   UNL     1      12.670   2.022   2.125  1.00  0.00    -0.014 A 
ATOM     75  C   UNL     1      12.761   2.509   0.809  1.00  0.00     0.010 A 
ATOM     76  C   UNL     1      13.263   0.779   2.427  1.00  0.00     0.010 A 
ATOM     77  C   UNL     1      13.407   1.758  -0.184  1.00  0.00     0.020 A 
ATOM     78  C   UNL     1      13.931   0.040   1.446  1.00  0.00     0.020 A 
ATOM     79  C   UNL     1      13.990   0.528   0.141  1.00  0.00     0.054 A 
BRANCH  79  80
ATOM     80  S   UNL     1      14.869  -0.404  -1.148  1.00  0.00     0.124 S 
ATOM     81  O   UNL     1      13.775  -0.894  -1.982  1.00  0.00    -0.237 OA
ATOM     82  O   UNL     1      15.719   0.614  -1.762  1.00  0.00    -0.237 OA
ATOM     83  O   UNL     1      15.590  -1.435  -0.403  1.00  0.00    -0.744 OA
ENDBRANCH  79  80
ENDBRANCH  60  74
BRANCH  61  84
ATOM     84  C   UNL     1       7.995   7.119   9.369  1.00  0.00    -0.014 A 
ATOM     85  C   UNL     1       8.150   8.510   9.503  1.00  0.00     0.010 A 
ATOM     86  C   UNL     1       7.153   6.444  10.275  1.00  0.00     0.010 A 
ATOM     87  C   UNL     1       7.484   9.206  10.520  1.00  0.00     0.020 A 
ATOM     88  C   UNL     1       6.453   7.139  11.264  1.00  0.00     0.020 A 
ATOM     89  C   UNL     1       6.634   8.516  11.390  1.00  0.00     0.054 A 
BRANCH  89  90
ATOM     90  S   UNL     1       5.732   9.441  12.665  1.00  0.00     0.124 S 
ATOM     91  O   UNL     1       6.779   9.706  13.648  1.00  0.00    -0.237 OA
ATOM     92  O   UNL     1       5.246  10.608  11.932  1.00  0.00    -0.237 OA
ATOM     93  O   UNL     1       4.692   8.509  13.096  1.00  0.00    -0.744 OA
ENDBRANCH  89  90
ENDBRANCH  61  84
BRANCH  73  94
ATOM     94  C   UNL     1      14.672   5.528   8.128  1.00  0.00    -0.014 A 
ATOM     95  C   UNL     1      14.976   4.934   9.366  1.00  0.00     0.010 A 
ATOM     96  C   UNL     1      15.592   6.424   7.554  1.00  0.00     0.010 A 
ATOM     97  C   UNL     1      16.160   5.261  10.035  1.00  0.00     0.020 A 
ATOM     98  C   UNL     1      16.789   6.732   8.206  1.00  0.00     0.020 A 
ATOM     99  C   UNL     1      17.058   6.161   9.452  1.00  0.00     0.054 A 
BRANCH  99 100
ATOM    100  S   UNL     1      18.600   6.549  10.325  1.00  0.00     0.124 S 
ATOM    101  O   UNL     1      18.131   7.407  11.410  1.00  0.00    -0.237 OA
ATOM    102  O   UNL     1      19.082   5.231  10.733  1.00  0.00    -0.237 OA
ATOM    103  O   UNL     1      19.416   7.217   9.314  1.00  0.00    -0.744 OA
ENDBRANCH  99 100
ENDBRANCH  73  94
ENDBRANCH  47  48
ENDBRANCH  40  42
ENDBRANCH  39  40
ENDBRANCH  38  39
ENDBRANCH  37  38
ENDBRANCH  36  37
ENDBRANCH  35  36
ENDBRANCH   1  35
TORSDOF 25
