REMARK SMILES Cc1cc(SCC(=O)OCCOCCOCCOC(=O)c2ccc(-c3c4nc(c(-c5ccc(S(=O)(=O)[O-])cc5)c5ccc([nH]5)c(-c5ccc(S(=O)(=O)[O-])cc5)c5nc(c(-c6ccc(S(=O)(=O)[O-])cc6)c6ccc3[nH]6)C=C5)C=C4)cc2)c2cc(I)ccc2n1
REMARK SMILES IDX 14 1 13 2 12 3 11 4 10 5 9 6 7 7 8 8 6 9 5 10 4 11 1 12 2 13
REMARK SMILES IDX 3 14 88 15 87 16 81 17 86 18 82 19 85 20 83 21 84 22 15 23
REMARK SMILES IDX 16 24 17 25 18 26 19 27 20 28 21 29 22 30 80 31 23 32 79 33
REMARK SMILES IDX 24 34 25 35 26 36 73 37 27 38 78 39 72 40 74 41 28 42 77 43
REMARK SMILES IDX 71 44 70 45 29 47 59 48 40 49 58 50 41 51 44 52 57 53 75 54
REMARK SMILES IDX 42 55 43 56 56 58 76 59 45 60 30 61 31 62 39 63 32 64 38 65
REMARK SMILES IDX 33 66 34 67 35 68 36 69 37 70 60 71 61 72 69 73 62 74 68 75
REMARK SMILES IDX 63 76 64 77 65 78 66 79 67 80 46 81 47 82 55 83 48 84 54 85
REMARK SMILES IDX 49 86 50 87 51 88 52 89 53 90
REMARK H PARENT 74 46 44 57
REMARK Flexibility Score: inf
ROOT
ATOM      1  C   UNL     1      -2.442   1.518  -0.556  1.00  0.00     0.188 C 
ENDROOT
BRANCH   1   2
ATOM      2  C   UNL     1      -2.938   0.056  -0.574  1.00  0.00     0.188 C 
BRANCH   2   3
ATOM      3  O   UNL     1      -4.208  -0.206  -1.165  1.00  0.00    -0.376 OA
BRANCH   3   4
ATOM      4  C   UNL     1      -5.301   0.629  -0.790  1.00  0.00     0.202 C 
BRANCH   4   5
ATOM      5  C   UNL     1      -5.644   0.602   0.702  1.00  0.00     0.261 C 
BRANCH   5   6
ATOM      6  O   UNL     1      -4.646   1.352   1.418  1.00  0.00    -0.463 OA
BRANCH   6   7
ATOM      7  C   UNL     1      -4.502   1.084   2.741  1.00  0.00     0.316 C 
ATOM      8  O   UNL     1      -5.316   0.459   3.407  1.00  0.00    -0.251 OA
BRANCH   7   9
ATOM      9  C   UNL     1      -3.115   1.475   3.229  1.00  0.00     0.197 C 
BRANCH   9  10
ATOM     10  S   UNL     1      -2.758   3.259   3.026  1.00  0.00    -0.114 SA
BRANCH  10  11
ATOM     11  C   UNL     1      -1.027   3.343   2.466  1.00  0.00     0.019 A 
ATOM     12  C   UNL     1       2.239   1.396   2.557  1.00  0.00     0.067 C 
ATOM     13  C   UNL     1       1.183   2.414   2.252  1.00  0.00     0.039 A 
ATOM     14  C   UNL     1      -0.119   2.308   2.726  1.00  0.00     0.039 A 
ATOM     15  N   UNL     1       1.599   3.459   1.514  1.00  0.00    -0.253 NA
ATOM     16  C   UNL     1       0.773   4.484   1.310  1.00  0.00     0.072 A 
ATOM     17  C   UNL     1      -0.556   4.512   1.787  1.00  0.00     0.015 A 
ATOM     18  C   UNL     1       1.296   5.573   0.628  1.00  0.00     0.030 A 
ATOM     19  C   UNL     1      -1.295   5.709   1.581  1.00  0.00     0.026 A 
ATOM     20  C   UNL     1       0.566   6.744   0.445  1.00  0.00     0.017 A 
ATOM     21  C   UNL     1      -0.728   6.814   0.941  1.00  0.00     0.014 A 
ATOM     22  I   UNL     1      -1.800   8.585   0.768  1.00  0.00    -0.044 I 
ENDBRANCH  10  11
ENDBRANCH   9  10
ENDBRANCH   7   9
ENDBRANCH   6   7
ENDBRANCH   5   6
ENDBRANCH   4   5
ENDBRANCH   3   4
ENDBRANCH   2   3
ENDBRANCH   1   2
BRANCH   1  23
ATOM     23  O   UNL     1      -2.805   2.345  -1.653  1.00  0.00    -0.376 OA
BRANCH  23  24
ATOM     24  C   UNL     1      -2.433   1.871  -2.943  1.00  0.00     0.202 C 
BRANCH  24  25
ATOM     25  C   UNL     1      -0.926   1.709  -3.125  1.00  0.00     0.261 C 
BRANCH  25  26
ATOM     26  O   UNL     1      -0.469   0.564  -2.381  1.00  0.00    -0.460 OA
BRANCH  26  27
ATOM     27  C   UNL     1       0.856   0.570  -2.114  1.00  0.00     0.338 C 
ATOM     28  O   UNL     1       1.681   1.349  -2.551  1.00  0.00    -0.246 OA
BRANCH  27  29
ATOM     29  C   UNL     1       1.188  -0.539  -1.194  1.00  0.00     0.060 A 
ATOM     30  C   UNL     1       2.149  -1.462  -1.595  1.00  0.00     0.016 A 
ATOM     31  C   UNL     1       0.697  -0.566   0.115  1.00  0.00     0.016 A 
ATOM     32  C   UNL     1       2.657  -2.376  -0.668  1.00  0.00     0.010 A 
ATOM     33  C   UNL     1       1.245  -1.448   1.053  1.00  0.00     0.010 A 
ATOM     34  C   UNL     1       2.264  -2.332   0.685  1.00  0.00    -0.014 A 
BRANCH  34  35
ATOM     35  C   UNL     1       3.058  -3.083   1.700  1.00  0.00     0.031 A 
ATOM     36  C   UNL     1       2.464  -4.153   2.570  1.00  0.00     0.074 A 
ATOM     37  C   UNL     1       4.361  -2.766   1.859  1.00  0.00     0.049 A 
ATOM     38  N   UNL     1       3.087  -5.051   3.291  1.00  0.00    -0.248 NA
ATOM     39  C   UNL     1       0.999  -4.204   2.687  1.00  0.00     0.031 C 
ATOM     40  C   UNL     1       5.038  -1.635   1.217  1.00  0.00     0.029 A 
ATOM     41  N   UNL     1       5.359  -3.383   2.575  1.00  0.00    -0.354 N 
ATOM     42  C   UNL     1       2.095  -5.790   3.921  1.00  0.00     0.074 A 
ATOM     43  C   UNL     1       0.832  -5.175   3.575  1.00  0.00     0.031 C 
ATOM     44  C   UNL     1       6.349  -1.691   1.495  1.00  0.00     0.029 A 
ATOM     45  C   UNL     1       6.609  -2.858   2.332  1.00  0.00     0.049 A 
ATOM     46  H   UNL     1       5.196  -4.126   3.201  1.00  0.00     0.167 HD
ATOM     47  C   UNL     1       2.222  -6.909   4.673  1.00  0.00     0.031 A 
ATOM     48  C   UNL     1       7.835  -3.296   2.682  1.00  0.00     0.031 A 
ATOM     49  C   UNL     1       3.483  -7.520   5.000  1.00  0.00     0.049 A 
ATOM     50  C   UNL     1       7.970  -4.591   3.432  1.00  0.00     0.074 A 
ATOM     51  C   UNL     1       3.714  -8.720   5.649  1.00  0.00     0.029 A 
ATOM     52  N   UNL     1       4.725  -6.978   4.708  1.00  0.00    -0.354 N 
ATOM     53  N   UNL     1       7.024  -5.394   3.856  1.00  0.00    -0.248 NA
ATOM     54  C   UNL     1       9.333  -5.059   3.720  1.00  0.00     0.031 C 
ATOM     55  C   UNL     1       5.096  -8.882   5.791  1.00  0.00     0.029 A 
ATOM     56  C   UNL     1       5.726  -7.808   5.182  1.00  0.00     0.049 A 
ATOM     57  H   UNL     1       4.873  -6.129   4.233  1.00  0.00     0.167 HD
ATOM     58  C   UNL     1       7.677  -6.469   4.447  1.00  0.00     0.074 A 
ATOM     59  C   UNL     1       9.098  -6.225   4.308  1.00  0.00     0.031 C 
ATOM     60  C   UNL     1       7.141  -7.559   5.049  1.00  0.00     0.031 A 
BRANCH  47  61
ATOM     61  C   UNL     1       0.962  -7.598   5.132  1.00  0.00    -0.014 A 
ATOM     62  C   UNL     1       0.663  -7.711   6.501  1.00  0.00     0.010 A 
ATOM     63  C   UNL     1       0.121  -8.227   4.195  1.00  0.00     0.010 A 
ATOM     64  C   UNL     1      -0.449  -8.447   6.925  1.00  0.00     0.020 A 
ATOM     65  C   UNL     1      -1.005  -8.939   4.612  1.00  0.00     0.020 A 
ATOM     66  C   UNL     1      -1.273  -9.060   5.976  1.00  0.00     0.054 A 
BRANCH  66  67
ATOM     67  S   UNL     1      -2.716 -10.006   6.535  1.00  0.00     0.124 S 
ATOM     68  O   UNL     1      -2.113 -11.265   6.961  1.00  0.00    -0.237 OA
ATOM     69  O   UNL     1      -3.256  -9.168   7.603  1.00  0.00    -0.237 OA
ATOM     70  O   UNL     1      -3.553 -10.085   5.338  1.00  0.00    -0.744 OA
ENDBRANCH  66  67
ENDBRANCH  47  61
BRANCH  48  71
ATOM     71  C   UNL     1       9.031  -2.554   2.195  1.00  0.00    -0.014 A 
ATOM     72  C   UNL     1       9.373  -1.305   2.742  1.00  0.00     0.010 A 
ATOM     73  C   UNL     1       9.778  -3.058   1.115  1.00  0.00     0.010 A 
ATOM     74  C   UNL     1      10.416  -0.554   2.192  1.00  0.00     0.020 A 
ATOM     75  C   UNL     1      10.836  -2.319   0.577  1.00  0.00     0.020 A 
ATOM     76  C   UNL     1      11.131  -1.060   1.103  1.00  0.00     0.054 A 
BRANCH  76  77
ATOM     77  S   UNL     1      12.449  -0.048   0.373  1.00  0.00     0.124 S 
ATOM     78  O   UNL     1      11.684   0.935  -0.389  1.00  0.00    -0.237 OA
ATOM     79  O   UNL     1      13.144   0.468   1.550  1.00  0.00    -0.237 OA
ATOM     80  O   UNL     1      13.211  -1.005  -0.426  1.00  0.00    -0.744 OA
ENDBRANCH  76  77
ENDBRANCH  48  71
BRANCH  60  81
ATOM     81  C   UNL     1       8.077  -8.583   5.633  1.00  0.00    -0.014 A 
ATOM     82  C   UNL     1       8.154  -9.867   5.061  1.00  0.00     0.010 A 
ATOM     83  C   UNL     1       8.774  -8.319   6.824  1.00  0.00     0.010 A 
ATOM     84  C   UNL     1       8.881 -10.880   5.691  1.00  0.00     0.020 A 
ATOM     85  C   UNL     1       9.524  -9.324   7.443  1.00  0.00     0.020 A 
ATOM     86  C   UNL     1       9.549 -10.605   6.887  1.00  0.00     0.054 A 
BRANCH  86  87
ATOM     87  S   UNL     1      10.454 -11.942   7.715  1.00  0.00     0.124 S 
ATOM     88  O   UNL     1       9.378 -12.677   8.374  1.00  0.00    -0.237 OA
ATOM     89  O   UNL     1      11.100 -12.634   6.603  1.00  0.00    -0.237 OA
ATOM     90  O   UNL     1      11.366 -11.233   8.610  1.00  0.00    -0.744 OA
ENDBRANCH  86  87
ENDBRANCH  60  81
ENDBRANCH  34  35
ENDBRANCH  27  29
ENDBRANCH  26  27
ENDBRANCH  25  26
ENDBRANCH  24  25
ENDBRANCH  23  24
ENDBRANCH   1  23
TORSDOF 22
