REMARK SMILES Cc1cc(S(F)(F)(F)(F)F)cc2c1O[C@H](C(F)(F)F)C(C(=O)OCCOCCOCCOC(=O)c1ccc(-c3c4nc(c(-c5ccc(S(=O)(=O)[O-])cc5)c5ccc([nH]5)c(-c5ccc(S(=O)(=O)[O-])cc5)c5nc(c(-c6ccc(S(=O)(=O)[O-])cc6)c6ccc3[nH]6)C=C5)C=C4)cc1)=C2
REMARK SMILES IDX 28 1 27 2 26 3 25 4 24 5 23 6 21 7 22 8 20 9 1 10 2 11 3 12
REMARK SMILES IDX 13 13 4 14 12 15 14 16 11 17 95 18 15 19 5 20 6 21 7 22 8 23
REMARK SMILES IDX 9 24 10 25 16 26 17 27 18 28 19 29 29 30 30 31 31 32 32 33
REMARK SMILES IDX 33 34 34 35 35 36 36 37 94 38 37 39 93 40 38 41 39 42 40 43
REMARK SMILES IDX 87 44 41 45 92 46 86 47 88 48 42 49 91 50 85 51 84 52 43 54
REMARK SMILES IDX 73 55 54 56 72 57 55 58 58 59 71 60 89 61 56 62 57 63 70 65
REMARK SMILES IDX 90 66 59 67 44 68 45 69 53 70 46 71 52 72 47 73 48 74 49 75
REMARK SMILES IDX 50 76 51 77 74 78 75 79 83 80 76 81 82 82 77 83 78 84 79 85
REMARK SMILES IDX 80 86 81 87 60 88 61 89 69 90 62 91 68 92 63 93 64 94 65 95
REMARK SMILES IDX 66 96 67 97
REMARK H PARENT 88 53 58 64
REMARK Flexibility Score: inf
ROOT
ATOM      1  C   UNL     1      -1.984   2.014   6.371  1.00  0.00     0.188 C 
ENDROOT
BRANCH   1   2
ATOM      2  C   UNL     1      -3.121   2.862   5.826  1.00  0.00     0.188 C 
BRANCH   2   3
ATOM      3  O   UNL     1      -4.121   3.011   6.823  1.00  0.00    -0.376 OA
BRANCH   3   4
ATOM      4  C   UNL     1      -4.617   1.732   7.190  1.00  0.00     0.202 C 
BRANCH   4   5
ATOM      5  C   UNL     1      -5.217   1.053   5.970  1.00  0.00     0.261 C 
BRANCH   5   6
ATOM      6  O   UNL     1      -4.218   0.904   4.973  1.00  0.00    -0.460 OA
BRANCH   6   7
ATOM      7  C   UNL     1      -3.567   2.049   4.442  1.00  0.00     0.338 C 
ATOM      8  O   UNL     1      -3.880   3.208   4.860  1.00  0.00    -0.246 OA
BRANCH   7   9
ATOM      9  C   UNL     1      -2.498   1.890   3.374  1.00  0.00     0.087 C 
ATOM     10  C   UNL     1       0.950   0.062  -0.060  1.00  0.00     0.048 C 
ATOM     11  C   UNL     1       0.443   1.407   0.436  1.00  0.00    -0.007 A 
ATOM     12  C   UNL     1       1.063   2.530  -0.066  1.00  0.00     0.031 A 
ATOM     13  C   UNL     1      -0.540   1.548   1.415  1.00  0.00     0.130 A 
ATOM     14  C   UNL     1       0.724   3.795   0.396  1.00  0.00     0.108 A 
ATOM     15  C   UNL     1      -0.886   2.837   1.879  1.00  0.00     0.019 A 
ATOM     16  O   UNL     1      -1.237   0.391   1.990  1.00  0.00    -0.475 OA
ATOM     17  C   UNL     1      -0.241   3.957   1.350  1.00  0.00     0.036 A 
ATOM     18  C   UNL     1      -1.920   2.956   2.907  1.00  0.00     0.027 C 
ATOM     19  C   UNL     1      -2.177   0.605   2.936  1.00  0.00     0.316 C 
BRANCH  14  20
ATOM     20  S   UNL     1       1.569   5.248  -0.276  1.00  0.00     0.310 S 
ATOM     21  F   UNL     1       2.634   5.360   0.895  1.00  0.00    -0.094 F 
ATOM     22  F   UNL     1       0.591   6.093   0.625  1.00  0.00    -0.094 F 
ATOM     23  F   UNL     1       2.183   6.545  -0.875  1.00  0.00    -0.094 F 
ATOM     24  F   UNL     1       2.635   4.389  -1.064  1.00  0.00    -0.094 F 
ATOM     25  F   UNL     1       1.033   3.927   0.408  1.00  0.00    -0.094 F 
ENDBRANCH  14  20
BRANCH  19  26
ATOM     26  C   UNL     1      -3.451   0.178   2.226  1.00  0.00     0.430 C 
ATOM     27  F   UNL     1      -3.326  -1.078   1.807  1.00  0.00    -0.167 F 
ATOM     28  F   UNL     1      -4.477   0.264   3.068  1.00  0.00    -0.167 F 
ATOM     29  F   UNL     1      -3.666   0.974   1.183  1.00  0.00    -0.167 F 
ENDBRANCH  19  26
ENDBRANCH   7   9
ENDBRANCH   6   7
ENDBRANCH   5   6
ENDBRANCH   4   5
ENDBRANCH   3   4
ENDBRANCH   2   3
ENDBRANCH   1   2
BRANCH   1  30
ATOM     30  O   UNL     1      -2.481   0.735   6.737  1.00  0.00    -0.376 OA
BRANCH  30  31
ATOM     31  C   UNL     1      -3.480   0.884   7.735  1.00  0.00     0.202 C 
BRANCH  31  32
ATOM     32  C   UNL     1      -2.880   1.564   8.955  1.00  0.00     0.261 C 
BRANCH  32  33
ATOM     33  O   UNL     1      -2.384   2.843   8.588  1.00  0.00    -0.460 OA
BRANCH  33  34
ATOM     34  C   UNL     1      -1.369   2.954   7.601  1.00  0.00     0.338 C 
ATOM     35  O   UNL     1      -0.906   1.909   7.045  1.00  0.00    -0.246 OA
BRANCH  34  36
ATOM     36  C   UNL     1      -0.838   4.323   7.208  1.00  0.00     0.060 A 
ATOM     37  C   UNL     1      -0.657   4.594   5.856  1.00  0.00     0.016 A 
ATOM     38  C   UNL     1      -0.524   5.257   8.080  1.00  0.00     0.016 A 
ATOM     39  C   UNL     1      -0.646   5.956   5.482  1.00  0.00     0.010 A 
ATOM     40  C   UNL     1      -0.013   6.489   7.657  1.00  0.00     0.010 A 
ATOM     41  C   UNL     1      -0.069   6.842   6.390  1.00  0.00    -0.014 A 
BRANCH  41  42
ATOM     42  C   UNL     1       0.482   8.181   5.930  1.00  0.00     0.031 A 
ATOM     43  C   UNL     1       1.843   8.368   6.177  1.00  0.00     0.074 A 
ATOM     44  C   UNL     1      -0.343   9.143   5.372  1.00  0.00     0.049 A 
ATOM     45  N   UNL     1       2.579   9.447   5.903  1.00  0.00    -0.248 NA
ATOM     46  C   UNL     1       2.713   7.361   6.802  1.00  0.00     0.031 C 
ATOM     47  C   UNL     1      -1.715   8.959   5.111  1.00  0.00     0.029 A 
ATOM     48  N   UNL     1      -0.006  10.418   4.976  1.00  0.00    -0.354 N 
ATOM     49  C   UNL     1       3.847   9.244   6.268  1.00  0.00     0.074 A 
ATOM     50  C   UNL     1       3.950   7.902   6.857  1.00  0.00     0.031 C 
ATOM     51  C   UNL     1      -2.200  10.110   4.577  1.00  0.00     0.029 A 
ATOM     52  C   UNL     1      -1.140  11.033   4.493  1.00  0.00     0.049 A 
ATOM     53  H   UNL     1       0.891  10.821   5.028  1.00  0.00     0.167 HD
ATOM     54  C   UNL     1       4.921  10.125   6.131  1.00  0.00     0.031 A 
ATOM     55  C   UNL     1      -1.264  12.324   4.006  1.00  0.00     0.031 A 
ATOM     56  C   UNL     1       4.805  11.402   5.604  1.00  0.00     0.049 A 
ATOM     57  C   UNL     1      -0.201  13.227   3.923  1.00  0.00     0.074 A 
ATOM     58  C   UNL     1       5.879  12.300   5.452  1.00  0.00     0.029 A 
ATOM     59  N   UNL     1       3.666  12.025   5.145  1.00  0.00    -0.354 N 
ATOM     60  N   UNL     1       1.073  13.011   4.252  1.00  0.00    -0.248 NA
ATOM     61  C   UNL     1      -0.327  14.608   3.439  1.00  0.00     0.031 C 
ATOM     62  C   UNL     1       5.393  13.452   4.918  1.00  0.00     0.029 A 
ATOM     63  C   UNL     1       4.007  13.292   4.728  1.00  0.00     0.049 A 
ATOM     64  H   UNL     1       2.764  11.632   5.119  1.00  0.00     0.167 HD
ATOM     65  C   UNL     1       1.801  14.104   4.016  1.00  0.00     0.074 A 
ATOM     66  C   UNL     1       0.909  15.150   3.497  1.00  0.00     0.031 C 
ATOM     67  C   UNL     1       3.173  14.271   4.209  1.00  0.00     0.031 A 
BRANCH  54  68
ATOM     68  C   UNL     1       6.294   9.659   6.587  1.00  0.00    -0.014 A 
ATOM     69  C   UNL     1       6.903   8.546   6.016  1.00  0.00     0.010 A 
ATOM     70  C   UNL     1       6.940  10.309   7.531  1.00  0.00     0.010 A 
ATOM     71  C   UNL     1       8.312   8.485   6.100  1.00  0.00     0.020 A 
ATOM     72  C   UNL     1       8.204   9.885   7.956  1.00  0.00     0.020 A 
ATOM     73  C   UNL     1       8.883   8.996   7.264  1.00  0.00     0.054 A 
BRANCH  73  74
ATOM     74  S   UNL     1      10.521   8.450   7.809  1.00  0.00     0.124 S 
ATOM     75  O   UNL     1      10.499   6.939   8.054  1.00  0.00    -0.237 OA
ATOM     76  O   UNL     1      11.554   8.777   6.729  1.00  0.00    -0.237 OA
ATOM     77  O   UNL     1      10.937   9.256   9.259  1.00  0.00    -0.744 OA
ENDBRANCH  73  74
ENDBRANCH  54  68
BRANCH  55  78
ATOM     78  C   UNL     1      -2.634  12.785   3.536  1.00  0.00    -0.014 A 
ATOM     79  C   UNL     1      -2.841  13.207   2.227  1.00  0.00     0.010 A 
ATOM     80  C   UNL     1      -3.655  12.802   4.367  1.00  0.00     0.010 A 
ATOM     81  C   UNL     1      -4.167  13.138   1.744  1.00  0.00     0.020 A 
ATOM     82  C   UNL     1      -4.914  13.243   3.945  1.00  0.00     0.020 A 
ATOM     83  C   UNL     1      -5.176  13.409   2.666  1.00  0.00     0.054 A 
BRANCH  83  84
ATOM     84  S   UNL     1      -6.806  13.975   2.119  1.00  0.00     0.124 S 
ATOM     85  O   UNL     1      -6.658  15.292   1.353  1.00  0.00    -0.237 OA
ATOM     86  O   UNL     1      -7.431  12.920   1.204  1.00  0.00    -0.237 OA
ATOM     87  O   UNL     1      -7.812  14.217   3.480  1.00  0.00    -0.744 OA
ENDBRANCH  83  84
ENDBRANCH  55  78
BRANCH  67  88
ATOM     88  C   UNL     1       3.791  15.606   3.827  1.00  0.00    -0.014 A 
ATOM     89  C   UNL     1       3.322  16.758   4.450  1.00  0.00     0.010 A 
ATOM     90  C   UNL     1       4.741  15.726   2.925  1.00  0.00     0.010 A 
ATOM     91  C   UNL     1       4.196  17.867   4.466  1.00  0.00     0.020 A 
ATOM     92  C   UNL     1       5.260  16.983   2.595  1.00  0.00     0.020 A 
ATOM     93  C   UNL     1       5.001  18.036   3.341  1.00  0.00     0.054 A 
BRANCH  93  94
ATOM     94  S   UNL     1       5.675  19.661   2.918  1.00  0.00     0.124 S 
ATOM     95  O   UNL     1       4.526  20.645   2.686  1.00  0.00    -0.237 OA
ATOM     96  O   UNL     1       6.553  20.164   4.066  1.00  0.00    -0.237 OA
ATOM     97  O   UNL     1       6.614  19.536   1.494  1.00  0.00    -0.744 OA
ENDBRANCH  93  94
ENDBRANCH  67  88
ENDBRANCH  41  42
ENDBRANCH  34  36
ENDBRANCH  33  34
ENDBRANCH  32  33
ENDBRANCH  31  32
ENDBRANCH  30  31
ENDBRANCH   1  30
TORSDOF 22
