REMARK SMILES O=C(OCCOCCOCCOC(=O)c1ccc(-c2c3nc(c(-c4ccc(S(=O)(=O)[O-])cc4)c4ccc([nH]4)c(-c4ccc(S(=O)(=O)[O-])cc4)c4nc(c(-c5ccc(S(=O)(=O)[O-])cc5)c5ccc2[nH]5)C=C4)C=C3)cc1)C1=Cc2cc(Cl)cc(-c3ccc(CO)cc3)c2O[C@@H]1C(F)(F)F
REMARK SMILES IDX 7 1 6 2 5 3 4 4 3 5 2 6 1 7 75 8 76 9 93 10 77 11 92 12
REMARK SMILES IDX 78 13 91 14 79 15 82 16 80 17 81 18 94 19 95 20 96 21 97 22
REMARK SMILES IDX 83 23 84 24 90 25 85 26 89 27 86 28 87 29 88 30 8 32 9 33
REMARK SMILES IDX 10 34 11 35 12 36 13 37 14 38 15 39 16 40 74 41 17 42 73 43
REMARK SMILES IDX 18 44 19 45 20 46 67 47 21 48 72 49 66 50 68 51 22 52 71 53
REMARK SMILES IDX 65 54 64 55 23 57 53 58 34 59 52 60 35 61 38 62 51 63 69 64
REMARK SMILES IDX 36 65 37 66 50 68 70 69 39 70 24 71 25 72 33 73 26 74 32 75
REMARK SMILES IDX 27 76 28 77 29 78 30 79 31 80 54 81 55 82 63 83 56 84 62 85
REMARK SMILES IDX 57 86 58 87 59 88 60 89 61 90 40 91 41 92 49 93 42 94 48 95
REMARK SMILES IDX 43 96 44 97 45 98 46 99 47 100
REMARK H PARENT 88 31 68 56 38 67
REMARK Flexibility Score: inf
ROOT
ATOM      1  C   UNL     1       1.114   1.433  -1.841  1.00  0.00     0.188 C 
ENDROOT
BRANCH   1   2
ATOM      2  O   UNL     1       2.507   1.379  -1.602  1.00  0.00    -0.376 OA
BRANCH   2   3
ATOM      3  C   UNL     1       3.119   0.138  -1.934  1.00  0.00     0.202 C 
BRANCH   3   4
ATOM      4  C   UNL     1       2.751  -1.040  -1.019  1.00  0.00     0.261 C 
BRANCH   4   5
ATOM      5  O   UNL     1       2.176  -0.621   0.237  1.00  0.00    -0.460 OA
BRANCH   5   6
ATOM      6  C   UNL     1       2.787  -1.020   1.379  1.00  0.00     0.338 C 
ATOM      7  O   UNL     1       2.320  -1.888   2.102  1.00  0.00    -0.246 OA
BRANCH   6   8
ATOM      8  C   UNL     1       3.966  -0.196   1.768  1.00  0.00     0.087 C 
ATOM      9  C   UNL     1       5.015  -0.868   2.281  1.00  0.00     0.027 C 
ATOM     10  C   UNL     1       4.255   1.011   0.930  1.00  0.00     0.316 C 
ATOM     11  C   UNL     1       6.085  -1.075   1.272  1.00  0.00     0.019 A 
ATOM     12  O   UNL     1       5.278   0.732  -0.086  1.00  0.00    -0.475 OA
ATOM     13  C   UNL     1       7.090  -2.008   1.521  1.00  0.00     0.032 A 
ATOM     14  C   UNL     1       5.992  -0.449   0.013  1.00  0.00     0.135 A 
ATOM     15  C   UNL     1       7.940  -2.381   0.489  1.00  0.00     0.042 A 
ATOM     16  C   UNL     1       6.670  -1.022  -1.099  1.00  0.00     0.026 A 
ATOM     17  Cl  UNL     1       9.213  -3.498   0.783  1.00  0.00    -0.084 Cl
ATOM     18  C   UNL     1       7.701  -1.940  -0.811  1.00  0.00     0.033 A 
BRANCH  10  19
ATOM     19  C   UNL     1       4.434   2.279   1.776  1.00  0.00     0.430 C 
ATOM     20  F   UNL     1       4.433   3.394   1.011  1.00  0.00    -0.167 F 
ATOM     21  F   UNL     1       3.401   2.410   2.650  1.00  0.00    -0.167 F 
ATOM     22  F   UNL     1       5.574   2.270   2.499  1.00  0.00    -0.167 F 
ENDBRANCH  10  19
BRANCH  16  23
ATOM     23  C   UNL     1       6.183  -1.056  -2.515  1.00  0.00    -0.015 A 
ATOM     24  C   UNL     1       5.495  -2.215  -2.960  1.00  0.00     0.009 A 
ATOM     25  C   UNL     1       6.444  -0.082  -3.483  1.00  0.00     0.009 A 
ATOM     26  C   UNL     1       5.066  -2.381  -4.286  1.00  0.00     0.007 A 
ATOM     27  C   UNL     1       6.017  -0.249  -4.824  1.00  0.00     0.007 A 
ATOM     28  C   UNL     1       5.311  -1.391  -5.237  1.00  0.00    -0.023 A 
BRANCH  28  29
ATOM     29  C   UNL     1       4.818  -1.568  -6.653  1.00  0.00     0.191 C 
BRANCH  29  30
ATOM     30  O   UNL     1       5.607  -2.527  -7.344  1.00  0.00    -0.392 OA
ATOM     31  H   UNL     1       6.528  -2.226  -7.376  1.00  0.00     0.211 HD
ENDBRANCH  29  30
ENDBRANCH  28  29
ENDBRANCH  16  23
ENDBRANCH   6   8
ENDBRANCH   5   6
ENDBRANCH   4   5
ENDBRANCH   3   4
ENDBRANCH   2   3
ENDBRANCH   1   2
BRANCH   1  32
ATOM     32  C   UNL     1       0.791   1.723  -3.306  1.00  0.00     0.188 C 
BRANCH  32  33
ATOM     33  O   UNL     1       1.683   1.054  -4.192  1.00  0.00    -0.376 OA
BRANCH  33  34
ATOM     34  C   UNL     1       2.548   1.901  -4.952  1.00  0.00     0.202 C 
BRANCH  34  35
ATOM     35  C   UNL     1       3.639   2.741  -4.245  1.00  0.00     0.261 C 
BRANCH  35  36
ATOM     36  O   UNL     1       3.243   3.545  -3.125  1.00  0.00    -0.460 OA
BRANCH  36  37
ATOM     37  C   UNL     1       2.510   4.646  -3.389  1.00  0.00     0.338 C 
ATOM     38  O   UNL     1       2.118   5.016  -4.476  1.00  0.00    -0.246 OA
BRANCH  37  39
ATOM     39  C   UNL     1       2.124   5.261  -2.103  1.00  0.00     0.060 A 
ATOM     40  C   UNL     1       0.819   5.068  -1.642  1.00  0.00     0.016 A 
ATOM     41  C   UNL     1       3.005   6.093  -1.405  1.00  0.00     0.016 A 
ATOM     42  C   UNL     1       0.376   5.729  -0.501  1.00  0.00     0.010 A 
ATOM     43  C   UNL     1       2.549   6.783  -0.272  1.00  0.00     0.010 A 
ATOM     44  C   UNL     1       1.219   6.634   0.156  1.00  0.00    -0.014 A 
BRANCH  44  45
ATOM     45  C   UNL     1       0.596   7.563   1.130  1.00  0.00     0.031 A 
ATOM     46  C   UNL     1       0.099   8.893   0.626  1.00  0.00     0.074 A 
ATOM     47  C   UNL     1       0.350   7.181   2.396  1.00  0.00     0.049 A 
ATOM     48  N   UNL     1      -0.599   9.808   1.248  1.00  0.00    -0.248 NA
ATOM     49  C   UNL     1       0.415   9.226  -0.773  1.00  0.00     0.031 C 
ATOM     50  C   UNL     1       0.736   5.898   2.983  1.00  0.00     0.029 A 
ATOM     51  N   UNL     1      -0.306   7.833   3.410  1.00  0.00    -0.354 N 
ATOM     52  C   UNL     1      -0.825  10.811   0.312  1.00  0.00     0.074 A 
ATOM     53  C   UNL     1      -0.151  10.416  -0.905  1.00  0.00     0.031 C 
ATOM     54  C   UNL     1       0.310   5.858   4.258  1.00  0.00     0.029 A 
ATOM     55  C   UNL     1      -0.362   7.116   4.582  1.00  0.00     0.049 A 
ATOM     56  H   UNL     1      -0.699   8.729   3.308  1.00  0.00     0.167 HD
ATOM     57  C   UNL     1      -1.543  11.951   0.446  1.00  0.00     0.031 A 
ATOM     58  C   UNL     1      -0.887   7.443   5.779  1.00  0.00     0.031 A 
ATOM     59  C   UNL     1      -2.181  12.360   1.670  1.00  0.00     0.049 A 
ATOM     60  C   UNL     1      -1.602   8.763   5.931  1.00  0.00     0.074 A 
ATOM     61  C   UNL     1      -2.912  13.508   1.918  1.00  0.00     0.029 A 
ATOM     62  N   UNL     1      -2.156  11.639   2.854  1.00  0.00    -0.354 N 
ATOM     63  N   UNL     1      -1.826   9.691   5.029  1.00  0.00    -0.248 NA
ATOM     64  C   UNL     1      -2.154   9.069   7.258  1.00  0.00     0.031 C 
ATOM     65  C   UNL     1      -3.278  13.510   3.268  1.00  0.00     0.029 A 
ATOM     66  C   UNL     1      -2.837  12.329   3.843  1.00  0.00     0.049 A 
ATOM     67  H   UNL     1      -1.718  10.765   2.974  1.00  0.00     0.167 HD
ATOM     68  C   UNL     1      -2.563  10.679   5.676  1.00  0.00     0.074 A 
ATOM     69  C   UNL     1      -2.774  10.219   7.033  1.00  0.00     0.031 C 
ATOM     70  C   UNL     1      -3.023  11.863   5.195  1.00  0.00     0.031 A 
BRANCH  57  71
ATOM     71  C   UNL     1      -1.651  12.851  -0.758  1.00  0.00    -0.014 A 
ATOM     72  C   UNL     1      -2.423  12.480  -1.875  1.00  0.00     0.010 A 
ATOM     73  C   UNL     1      -1.008  14.102  -0.757  1.00  0.00     0.010 A 
ATOM     74  C   UNL     1      -2.527  13.331  -2.978  1.00  0.00     0.020 A 
ATOM     75  C   UNL     1      -1.133  14.969  -1.847  1.00  0.00     0.020 A 
ATOM     76  C   UNL     1      -1.883  14.572  -2.956  1.00  0.00     0.054 A 
BRANCH  76  77
ATOM     77  S   UNL     1      -2.070  15.672  -4.387  1.00  0.00     0.124 S 
ATOM     78  O   UNL     1      -1.296  14.973  -5.409  1.00  0.00    -0.237 OA
ATOM     79  O   UNL     1      -3.516  15.684  -4.593  1.00  0.00    -0.237 OA
ATOM     80  O   UNL     1      -1.498  16.936  -3.930  1.00  0.00    -0.744 OA
ENDBRANCH  76  77
ENDBRANCH  57  71
BRANCH  58  81
ATOM     81  C   UNL     1      -0.727   6.524   6.943  1.00  0.00    -0.014 A 
ATOM     82  C   UNL     1      -1.834   5.900   7.544  1.00  0.00     0.010 A 
ATOM     83  C   UNL     1       0.555   6.295   7.477  1.00  0.00     0.010 A 
ATOM     84  C   UNL     1      -1.666   5.090   8.673  1.00  0.00     0.020 A 
ATOM     85  C   UNL     1       0.732   5.460   8.583  1.00  0.00     0.020 A 
ATOM     86  C   UNL     1      -0.383   4.875   9.185  1.00  0.00     0.054 A 
BRANCH  86  87
ATOM     87  S   UNL     1      -0.182   3.798  10.632  1.00  0.00     0.124 S 
ATOM     88  O   UNL     1      -0.729   4.624  11.704  1.00  0.00    -0.237 OA
ATOM     89  O   UNL     1      -0.975   2.628  10.266  1.00  0.00    -0.237 OA
ATOM     90  O   UNL     1       1.260   3.571  10.691  1.00  0.00    -0.744 OA
ENDBRANCH  86  87
ENDBRANCH  58  81
BRANCH  70  91
ATOM     91  C   UNL     1      -3.819  12.728   6.140  1.00  0.00    -0.014 A 
ATOM     92  C   UNL     1      -3.216  13.348   7.250  1.00  0.00     0.010 A 
ATOM     93  C   UNL     1      -5.191  12.935   5.906  1.00  0.00     0.010 A 
ATOM     94  C   UNL     1      -3.982  14.105   8.141  1.00  0.00     0.020 A 
ATOM     95  C   UNL     1      -5.953  13.722   6.774  1.00  0.00     0.020 A 
ATOM     96  C   UNL     1      -5.348  14.281   7.901  1.00  0.00     0.054 A 
BRANCH  96  97
ATOM     97  S   UNL     1      -6.321  15.264   9.074  1.00  0.00     0.124 S 
ATOM     98  O   UNL     1      -6.409  14.366  10.222  1.00  0.00    -0.237 OA
ATOM     99  O   UNL     1      -5.490  16.450   9.266  1.00  0.00    -0.237 OA
ATOM    100  O   UNL     1      -7.579  15.500   8.370  1.00  0.00    -0.744 OA
ENDBRANCH  96  97
ENDBRANCH  70  91
ENDBRANCH  44  45
ENDBRANCH  37  39
ENDBRANCH  36  37
ENDBRANCH  35  36
ENDBRANCH  34  35
ENDBRANCH  33  34
ENDBRANCH  32  33
ENDBRANCH   1  32
TORSDOF 24
