REMARK SMILES O=C(Nc1ccc(N2CC[NH+](CC(=O)N3CCOCC3)CC2)c(C(=O)OCCOCCOCCOC(=O)c2ccc(-c3c4nc(c(-c5ccc(S(=O)(=O)[O-])cc5)c5ccc([nH]5)c(-c5ccc(S(=O)(=O)[O-])cc5)c5nc(c(-c6ccc(S(=O)(=O)[O-])cc6)c6ccc3[nH]6)C=C5)C=C4)cc2)c1)c1cccc(Cl)c1
REMARK SMILES IDX 30 1 29 2 28 3 27 4 26 5 24 6 25 7 23 8 4 9 5 10 98 11 6 12
REMARK SMILES IDX 7 13 3 14 1 15 2 16 99 18 100 19 105 20 101 21 103 22 102 23
REMARK SMILES IDX 104 24 8 25 9 26 22 27 10 28 21 29 11 30 12 32 13 33 14 34
REMARK SMILES IDX 15 35 16 36 20 37 17 38 19 39 18 40 31 41 32 42 33 43 34 44
REMARK SMILES IDX 35 45 36 46 37 47 38 48 39 49 97 50 40 51 96 52 41 53 42 54
REMARK SMILES IDX 43 55 90 56 44 57 95 58 89 59 91 60 45 61 94 62 88 63 87 64
REMARK SMILES IDX 46 66 76 67 57 68 75 69 58 70 61 71 74 72 92 73 59 74 60 75
REMARK SMILES IDX 73 77 93 78 62 79 47 80 48 81 56 82 49 83 55 84 50 85 51 86
REMARK SMILES IDX 52 87 53 88 54 89 77 90 78 91 86 92 79 93 85 94 80 95 81 96
REMARK SMILES IDX 82 97 83 98 84 99 63 100 64 101 72 102 65 103 71 104 66 105
REMARK SMILES IDX 67 106 68 107 69 108 70 109
REMARK H PARENT 3 17 11 31 91 65 61 76
REMARK Flexibility Score: inf
ROOT
ATOM      1  C   UNL     1       7.770   1.865   3.586  1.00  0.00     0.188 C 
ENDROOT
BRANCH   1   2
ATOM      2  O   UNL     1       7.367   3.229   3.664  1.00  0.00    -0.376 OA
BRANCH   2   3
ATOM      3  C   UNL     1       7.798   4.008   2.547  1.00  0.00     0.202 C 
BRANCH   3   4
ATOM      4  C   UNL     1       6.766   3.959   1.417  1.00  0.00     0.261 C 
BRANCH   4   5
ATOM      5  O   UNL     1       6.350   2.603   1.165  1.00  0.00    -0.460 OA
BRANCH   5   6
ATOM      6  C   UNL     1       6.536   2.093  -0.080  1.00  0.00     0.340 C 
ATOM      7  O   UNL     1       7.007   2.689  -1.023  1.00  0.00    -0.246 OA
BRANCH   6   8
ATOM      8  C   UNL     1       6.164   0.639  -0.034  1.00  0.00     0.085 A 
ATOM      9  C   UNL     1       4.305  -0.862   0.299  1.00  0.00     0.042 A 
ATOM     10  C   UNL     1       5.081  -1.938  -0.100  1.00  0.00     0.028 A 
ATOM     11  C   UNL     1       4.902   0.373   0.503  1.00  0.00     0.044 A 
ATOM     12  C   UNL     1       6.386  -1.701  -0.555  1.00  0.00     0.029 A 
ATOM     13  C   UNL     1       6.941  -0.403  -0.608  1.00  0.00     0.052 A 
BRANCH   9  14
ATOM     14  N   UNL     1       2.904  -0.980   0.277  1.00  0.00    -0.322 N 
ATOM     15  O   UNL     1       0.798  -0.179  -0.109  1.00  0.00    -0.269 OA
ATOM     16  C   UNL     1       2.011  -0.035  -0.224  1.00  0.00     0.255 C 
ATOM     17  H   UNL     1       2.519  -1.806   0.650  1.00  0.00     0.170 HD
BRANCH  16  18
ATOM     18  C   UNL     1       2.529   1.155  -0.966  1.00  0.00     0.041 A 
ATOM     19  C   UNL     1       3.443   1.007  -2.025  1.00  0.00     0.014 A 
ATOM     20  C   UNL     1       2.226   2.427  -0.473  1.00  0.00     0.034 A 
ATOM     21  C   UNL     1       4.144   2.118  -2.499  1.00  0.00     0.002 A 
ATOM     22  C   UNL     1       2.921   3.531  -0.968  1.00  0.00     0.041 A 
ATOM     23  C   UNL     1       3.894   3.379  -1.957  1.00  0.00     0.020 A 
ATOM     24  Cl  UNL     1       2.635   5.090  -0.296  1.00  0.00    -0.084 Cl
ENDBRANCH  16  18
ENDBRANCH   9  14
BRANCH  13  25
ATOM     25  N   UNL     1       8.220  -0.184  -1.145  1.00  0.00    -0.360 N 
ATOM     26  C   UNL     1       8.992  -1.263  -1.836  1.00  0.00     0.178 C 
ATOM     27  C   UNL     1       9.060   0.582  -0.240  1.00  0.00     0.178 C 
ATOM     28  C   UNL     1      10.428  -0.815  -2.279  1.00  0.00     0.284 C 
ATOM     29  C   UNL     1      10.306   1.138  -0.923  1.00  0.00     0.284 C 
ATOM     30  N   UNL     1      11.186   0.081  -1.386  1.00  0.00    -0.324 N 
ATOM     31  H   UNL     1      11.932   0.496  -1.942  1.00  0.00     0.348 HD
BRANCH  30  32
ATOM     32  C   UNL     1      12.005  -0.562  -0.341  1.00  0.00     0.363 C 
BRANCH  32  33
ATOM     33  C   UNL     1      11.283  -1.474   0.647  1.00  0.00     0.277 C 
ATOM     34  O   UNL     1      11.050  -2.654   0.370  1.00  0.00    -0.268 OA
ATOM     35  N   UNL     1      10.932  -0.938   1.878  1.00  0.00    -0.333 N 
ATOM     36  C   UNL     1      10.680   0.447   2.257  1.00  0.00     0.148 C 
ATOM     37  C   UNL     1      10.633  -1.826   2.968  1.00  0.00     0.148 C 
ATOM     38  C   UNL     1      11.528   0.974   3.390  1.00  0.00     0.181 C 
ATOM     39  C   UNL     1      11.057  -1.111   4.267  1.00  0.00     0.181 C 
ATOM     40  O   UNL     1      12.052  -0.093   4.138  1.00  0.00    -0.378 OA
ENDBRANCH  32  33
ENDBRANCH  30  32
ENDBRANCH  13  25
ENDBRANCH   6   8
ENDBRANCH   5   6
ENDBRANCH   4   5
ENDBRANCH   3   4
ENDBRANCH   2   3
ENDBRANCH   1   2
BRANCH   1  41
ATOM     41  C   UNL     1       6.666   0.849   3.894  1.00  0.00     0.188 C 
BRANCH  41  42
ATOM     42  O   UNL     1       5.742   1.111   4.934  1.00  0.00    -0.376 OA
BRANCH  42  43
ATOM     43  C   UNL     1       6.144   1.948   5.996  1.00  0.00     0.202 C 
BRANCH  43  44
ATOM     44  C   UNL     1       7.346   1.522   6.859  1.00  0.00     0.261 C 
BRANCH  44  45
ATOM     45  O   UNL     1       8.122   0.369   6.464  1.00  0.00    -0.460 OA
BRANCH  45  46
ATOM     46  C   UNL     1       7.681  -0.850   6.890  1.00  0.00     0.338 C 
ATOM     47  O   UNL     1       6.595  -1.087   7.380  1.00  0.00    -0.246 OA
BRANCH  46  48
ATOM     48  C   UNL     1       8.740  -1.883   6.636  1.00  0.00     0.060 A 
ATOM     49  C   UNL     1       8.504  -2.929   5.737  1.00  0.00     0.016 A 
ATOM     50  C   UNL     1      10.002  -1.802   7.243  1.00  0.00     0.016 A 
ATOM     51  C   UNL     1       9.562  -3.794   5.341  1.00  0.00     0.010 A 
ATOM     52  C   UNL     1      11.049  -2.692   6.874  1.00  0.00     0.010 A 
ATOM     53  C   UNL     1      10.882  -3.643   5.835  1.00  0.00    -0.014 A 
BRANCH  53  54
ATOM     54  C   UNL     1      12.020  -4.527   5.302  1.00  0.00     0.031 A 
ATOM     55  C   UNL     1      12.186  -5.799   6.060  1.00  0.00     0.074 A 
ATOM     56  C   UNL     1      12.937  -4.319   4.302  1.00  0.00     0.049 A 
ATOM     57  N   UNL     1      12.974  -6.807   5.818  1.00  0.00    -0.248 NA
ATOM     58  C   UNL     1      11.450  -5.868   7.332  1.00  0.00     0.031 C 
ATOM     59  C   UNL     1      13.316  -3.059   3.681  1.00  0.00     0.029 A 
ATOM     60  N   UNL     1      13.718  -5.204   3.556  1.00  0.00    -0.354 N 
ATOM     61  C   UNL     1      12.876  -7.606   6.939  1.00  0.00     0.074 A 
ATOM     62  C   UNL     1      11.974  -6.953   7.862  1.00  0.00     0.031 C 
ATOM     63  C   UNL     1      13.927  -3.251   2.502  1.00  0.00     0.029 A 
ATOM     64  C   UNL     1      14.256  -4.655   2.385  1.00  0.00     0.049 A 
ATOM     65  H   UNL     1      13.878  -6.136   3.830  1.00  0.00     0.167 HD
ATOM     66  C   UNL     1      13.512  -8.764   7.207  1.00  0.00     0.031 A 
ATOM     67  C   UNL     1      15.009  -5.165   1.376  1.00  0.00     0.031 A 
ATOM     68  C   UNL     1      14.525  -9.334   6.374  1.00  0.00     0.049 A 
ATOM     69  C   UNL     1      15.645  -6.502   1.647  1.00  0.00     0.074 A 
ATOM     70  C   UNL     1      15.277 -10.469   6.600  1.00  0.00     0.029 A 
ATOM     71  N   UNL     1      14.967  -8.783   5.177  1.00  0.00    -0.354 N 
ATOM     72  N   UNL     1      15.466  -7.288   2.680  1.00  0.00    -0.248 NA
ATOM     73  C   UNL     1      16.670  -6.970   0.701  1.00  0.00     0.031 C 
ATOM     74  C   UNL     1      16.210 -10.579   5.565  1.00  0.00     0.029 A 
ATOM     75  C   UNL     1      15.985  -9.560   4.652  1.00  0.00     0.049 A 
ATOM     76  H   UNL     1      14.610  -7.964   4.764  1.00  0.00     0.167 HD
ATOM     77  C   UNL     1      16.385  -8.314   2.538  1.00  0.00     0.074 A 
ATOM     78  C   UNL     1      17.076  -8.091   1.284  1.00  0.00     0.031 C 
ATOM     79  C   UNL     1      16.655  -9.326   3.396  1.00  0.00     0.031 A 
BRANCH  66  80
ATOM     80  C   UNL     1      13.152  -9.369   8.530  1.00  0.00    -0.014 A 
ATOM     81  C   UNL     1      11.844  -9.846   8.754  1.00  0.00     0.010 A 
ATOM     82  C   UNL     1      14.042  -9.240   9.608  1.00  0.00     0.010 A 
ATOM     83  C   UNL     1      11.399 -10.078  10.054  1.00  0.00     0.020 A 
ATOM     84  C   UNL     1      13.610  -9.512  10.906  1.00  0.00     0.020 A 
ATOM     85  C   UNL     1      12.281  -9.890  11.122  1.00  0.00     0.054 A 
BRANCH  85  86
ATOM     86  S   UNL     1      11.654 -10.109  12.807  1.00  0.00     0.124 S 
ATOM     87  O   UNL     1      10.868  -8.892  12.994  1.00  0.00    -0.237 OA
ATOM     88  O   UNL     1      10.884 -11.345  12.703  1.00  0.00    -0.237 OA
ATOM     89  O   UNL     1      12.867 -10.199  13.616  1.00  0.00    -0.744 OA
ENDBRANCH  85  86
ENDBRANCH  66  80
BRANCH  67  90
ATOM     90  C   UNL     1      15.353  -4.417   0.102  1.00  0.00    -0.014 A 
ATOM     91  C   UNL     1      14.998  -4.952  -1.158  1.00  0.00     0.010 A 
ATOM     92  C   UNL     1      16.075  -3.207   0.103  1.00  0.00     0.010 A 
ATOM     93  C   UNL     1      15.337  -4.301  -2.360  1.00  0.00     0.020 A 
ATOM     94  C   UNL     1      16.377  -2.527  -1.091  1.00  0.00     0.020 A 
ATOM     95  C   UNL     1      16.013  -3.081  -2.319  1.00  0.00     0.054 A 
BRANCH  95  96
ATOM     96  S   UNL     1      16.370  -2.204  -3.875  1.00  0.00     0.124 S 
ATOM     97  O   UNL     1      17.463  -2.994  -4.432  1.00  0.00    -0.237 OA
ATOM     98  O   UNL     1      15.100  -2.291  -4.590  1.00  0.00    -0.237 OA
ATOM     99  O   UNL     1      16.735  -0.859  -3.432  1.00  0.00    -0.744 OA
ENDBRANCH  95  96
ENDBRANCH  67  90
BRANCH  79 100
ATOM    100  C   UNL     1      17.704 -10.315   2.984  1.00  0.00    -0.014 A 
ATOM    101  C   UNL     1      19.074 -10.001   3.022  1.00  0.00     0.010 A 
ATOM    102  C   UNL     1      17.300 -11.617   2.644  1.00  0.00     0.010 A 
ATOM    103  C   UNL     1      20.023 -10.979   2.721  1.00  0.00     0.020 A 
ATOM    104  C   UNL     1      18.245 -12.604   2.373  1.00  0.00     0.020 A 
ATOM    105  C   UNL     1      19.602 -12.277   2.407  1.00  0.00     0.054 A 
BRANCH 105 106
ATOM    106  S   UNL     1      20.851 -13.553   2.104  1.00  0.00     0.124 S 
ATOM    107  O   UNL     1      21.365 -13.170   0.792  1.00  0.00    -0.237 OA
ATOM    108  O   UNL     1      21.774 -13.369   3.221  1.00  0.00    -0.237 OA
ATOM    109  O   UNL     1      20.087 -14.799   2.134  1.00  0.00    -0.744 OA
ENDBRANCH 105 106
ENDBRANCH  79 100
ENDBRANCH  53  54
ENDBRANCH  46  48
ENDBRANCH  45  46
ENDBRANCH  44  45
ENDBRANCH  43  44
ENDBRANCH  42  43
ENDBRANCH  41  42
ENDBRANCH   1  41
TORSDOF 25
