REMARK SMILES O=C(OCCOCCOCCOC(=O)[C@@H](c1ccccc1)N1C(=O)/C(=C\c2ccc(-c3ccc(F)cc3)o2)SC1=S)c1ccc(-c2c3nc(c(-c4ccc(S(=O)(=O)[O-])cc4)c4ccc([nH]4)c(-c4ccc(S(=O)(=O)[O-])cc4)c4nc(c(-c5ccc(S(=O)(=O)[O-])cc5)c5ccc2[nH]5)C=C4)C=C3)cc1
REMARK SMILES IDX 7 1 6 2 5 3 4 4 3 5 2 6 1 7 42 8 43 9 101 10 44 11 100 12
REMARK SMILES IDX 45 13 46 14 47 15 94 16 48 17 99 18 93 19 95 20 49 21 98 22
REMARK SMILES IDX 92 23 91 24 50 26 80 27 61 28 79 29 62 30 65 31 78 32 96 33
REMARK SMILES IDX 63 34 64 35 77 37 97 38 66 39 51 40 52 41 60 42 53 43 59 44
REMARK SMILES IDX 54 45 55 46 56 47 57 48 58 49 81 50 82 51 90 52 83 53 89 54
REMARK SMILES IDX 84 55 85 56 86 57 87 58 88 59 67 60 68 61 76 62 69 63 75 64
REMARK SMILES IDX 70 65 71 66 72 67 73 68 74 69 8 70 9 71 10 72 11 73 12 74
REMARK SMILES IDX 13 75 14 76 15 77 16 78 17 79 21 80 18 81 20 82 19 83 22 84
REMARK SMILES IDX 23 85 40 86 24 87 25 88 39 89 41 90 26 91 27 92 28 93 38 94
REMARK SMILES IDX 29 95 30 96 31 97 32 98 37 99 33 100 36 101 34 102 35 103
REMARK H PARENT 95 25 65 36
REMARK Flexibility Score: inf
ROOT
ATOM      1  C   UNL     1       2.805  -1.387   0.276  1.00  0.00     0.188 C 
ENDROOT
BRANCH   1   2
ATOM      2  O   UNL     1       4.221  -1.273   0.101  1.00  0.00    -0.376 OA
BRANCH   2   3
ATOM      3  C   UNL     1       4.920  -0.834   1.265  1.00  0.00     0.202 C 
BRANCH   3   4
ATOM      4  C   UNL     1       4.915   0.687   1.501  1.00  0.00     0.261 C 
BRANCH   4   5
ATOM      5  O   UNL     1       3.695   1.347   1.130  1.00  0.00    -0.460 OA
BRANCH   5   6
ATOM      6  C   UNL     1       3.279   1.814  -0.073  1.00  0.00     0.338 C 
ATOM      7  O   UNL     1       2.156   2.322  -0.117  1.00  0.00    -0.246 OA
BRANCH   6   8
ATOM      8  C   UNL     1       4.068   1.760  -1.355  1.00  0.00     0.060 A 
ATOM      9  C   UNL     1       5.245   1.045  -1.576  1.00  0.00     0.016 A 
ATOM     10  C   UNL     1       3.539   2.467  -2.456  1.00  0.00     0.016 A 
ATOM     11  C   UNL     1       5.871   1.023  -2.832  1.00  0.00     0.010 A 
ATOM     12  C   UNL     1       4.159   2.447  -3.721  1.00  0.00     0.010 A 
ATOM     13  C   UNL     1       5.336   1.716  -3.921  1.00  0.00    -0.014 A 
BRANCH  13  14
ATOM     14  C   UNL     1       6.166   1.803  -5.158  1.00  0.00     0.031 A 
ATOM     15  C   UNL     1       6.884   3.065  -5.399  1.00  0.00     0.074 A 
ATOM     16  C   UNL     1       6.176   0.893  -6.154  1.00  0.00     0.049 A 
ATOM     17  N   UNL     1       7.449   3.429  -6.509  1.00  0.00    -0.248 NA
ATOM     18  C   UNL     1       6.778   4.102  -4.364  1.00  0.00     0.031 C 
ATOM     19  C   UNL     1       5.020   0.075  -6.366  1.00  0.00     0.029 A 
ATOM     20  N   UNL     1       6.991   0.591  -7.242  1.00  0.00    -0.354 N 
ATOM     21  C   UNL     1       7.687   4.771  -6.352  1.00  0.00     0.074 A 
ATOM     22  C   UNL     1       7.181   5.158  -5.050  1.00  0.00     0.031 C 
ATOM     23  C   UNL     1       5.248  -0.692  -7.431  1.00  0.00     0.029 A 
ATOM     24  C   UNL     1       6.588  -0.538  -7.976  1.00  0.00     0.049 A 
ATOM     25  H   UNL     1       7.784   1.124  -7.478  1.00  0.00     0.167 HD
ATOM     26  C   UNL     1       8.263   5.596  -7.247  1.00  0.00     0.031 A 
ATOM     27  C   UNL     1       7.208  -1.256  -8.984  1.00  0.00     0.031 A 
ATOM     28  C   UNL     1       8.674   5.172  -8.555  1.00  0.00     0.049 A 
ATOM     29  C   UNL     1       8.079  -0.355  -9.803  1.00  0.00     0.074 A 
ATOM     30  C   UNL     1       9.317   5.908  -9.528  1.00  0.00     0.029 A 
ATOM     31  N   UNL     1       8.476   3.892  -9.076  1.00  0.00    -0.354 N 
ATOM     32  N   UNL     1       8.260   0.929  -9.636  1.00  0.00    -0.248 NA
ATOM     33  C   UNL     1       8.664  -0.912 -11.026  1.00  0.00     0.031 C 
ATOM     34  C   UNL     1       9.501   5.084 -10.642  1.00  0.00     0.029 A 
ATOM     35  C   UNL     1       9.028   3.815 -10.344  1.00  0.00     0.049 A 
ATOM     36  H   UNL     1       8.014   3.157  -8.613  1.00  0.00     0.167 HD
ATOM     37  C   UNL     1       8.845   1.368 -10.798  1.00  0.00     0.074 A 
ATOM     38  C   UNL     1       9.076   0.196 -11.625  1.00  0.00     0.031 C 
ATOM     39  C   UNL     1       9.124   2.636 -11.163  1.00  0.00     0.031 A 
BRANCH  26  40
ATOM     40  C   UNL     1       8.444   7.001  -6.774  1.00  0.00    -0.014 A 
ATOM     41  C   UNL     1       9.286   7.260  -5.673  1.00  0.00     0.010 A 
ATOM     42  C   UNL     1       7.675   8.039  -7.320  1.00  0.00     0.010 A 
ATOM     43  C   UNL     1       9.287   8.513  -5.069  1.00  0.00     0.020 A 
ATOM     44  C   UNL     1       7.709   9.310  -6.742  1.00  0.00     0.020 A 
ATOM     45  C   UNL     1       8.490   9.527  -5.603  1.00  0.00     0.054 A 
BRANCH  45  46
ATOM     46  S   UNL     1       8.495  11.140  -4.780  1.00  0.00     0.124 S 
ATOM     47  O   UNL     1       7.657  10.883  -3.612  1.00  0.00    -0.237 OA
ATOM     48  O   UNL     1       9.913  11.351  -4.500  1.00  0.00    -0.237 OA
ATOM     49  O   UNL     1       7.920  12.037  -5.779  1.00  0.00    -0.744 OA
ENDBRANCH  45  46
ENDBRANCH  26  40
BRANCH  27  50
ATOM     50  C   UNL     1       6.982  -2.700  -9.558  1.00  0.00    -0.014 A 
ATOM     51  C   UNL     1       7.556  -3.817  -8.911  1.00  0.00     0.010 A 
ATOM     52  C   UNL     1       6.263  -3.026 -10.745  1.00  0.00     0.010 A 
ATOM     53  C   UNL     1       7.248  -5.154  -9.290  1.00  0.00     0.020 A 
ATOM     54  C   UNL     1       5.864  -4.347 -11.073  1.00  0.00     0.020 A 
ATOM     55  C   UNL     1       6.330  -5.410 -10.313  1.00  0.00     0.054 A 
BRANCH  55  56
ATOM     56  S   UNL     1       5.647  -7.087 -10.578  1.00  0.00     0.124 S 
ATOM     57  O   UNL     1       6.215  -7.464 -11.868  1.00  0.00    -0.237 OA
ATOM     58  O   UNL     1       6.148  -7.840  -9.429  1.00  0.00    -0.237 OA
ATOM     59  O   UNL     1       4.202  -6.873 -10.570  1.00  0.00    -0.744 OA
ENDBRANCH  55  56
ENDBRANCH  27  50
BRANCH  39  60
ATOM     60  C   UNL     1       9.703   2.767 -12.527  1.00  0.00    -0.014 A 
ATOM     61  C   UNL     1       8.885   2.760 -13.670  1.00  0.00     0.010 A 
ATOM     62  C   UNL     1      11.097   2.848 -12.647  1.00  0.00     0.010 A 
ATOM     63  C   UNL     1       9.472   2.823 -14.932  1.00  0.00     0.020 A 
ATOM     64  C   UNL     1      11.681   2.926 -13.903  1.00  0.00     0.020 A 
ATOM     65  C   UNL     1      10.866   2.905 -15.037  1.00  0.00     0.054 A 
BRANCH  65  66
ATOM     66  S   UNL     1      11.611   3.015 -16.681  1.00  0.00     0.124 S 
ATOM     67  O   UNL     1      11.402   1.665 -17.197  1.00  0.00    -0.237 OA
ATOM     68  O   UNL     1      10.820   4.065 -17.317  1.00  0.00    -0.237 OA
ATOM     69  O   UNL     1      13.001   3.368 -16.405  1.00  0.00    -0.744 OA
ENDBRANCH  65  66
ENDBRANCH  39  60
ENDBRANCH  13  14
ENDBRANCH   6   8
ENDBRANCH   5   6
ENDBRANCH   4   5
ENDBRANCH   3   4
ENDBRANCH   2   3
ENDBRANCH   1   2
BRANCH   1  70
ATOM     70  C   UNL     1       2.321  -2.714   0.868  1.00  0.00     0.188 C 
BRANCH  70  71
ATOM     71  O   UNL     1       3.268  -3.291   1.762  1.00  0.00    -0.376 OA
BRANCH  71  72
ATOM     72  C   UNL     1       3.854  -4.519   1.318  1.00  0.00     0.202 C 
BRANCH  72  73
ATOM     73  C   UNL     1       4.652  -4.449   0.008  1.00  0.00     0.261 C 
BRANCH  73  74
ATOM     74  O   UNL     1       3.808  -4.183  -1.126  1.00  0.00    -0.461 OA
BRANCH  74  75
ATOM     75  C   UNL     1       3.099  -5.215  -1.662  1.00  0.00     0.334 C 
ATOM     76  O   UNL     1       3.212  -6.361  -1.246  1.00  0.00    -0.249 OA
BRANCH  75  77
ATOM     77  C   UNL     1       2.064  -4.758  -2.753  1.00  0.00     0.232 C 
BRANCH  77  78
ATOM     78  C   UNL     1       2.188  -3.270  -3.091  1.00  0.00    -0.014 A 
ATOM     79  C   UNL     1       3.433  -2.718  -3.434  1.00  0.00     0.006 A 
ATOM     80  C   UNL     1       1.048  -2.446  -3.145  1.00  0.00     0.006 A 
ATOM     81  C   UNL     1       3.530  -1.389  -3.808  1.00  0.00     0.000 A 
ATOM     82  C   UNL     1       1.152  -1.113  -3.543  1.00  0.00     0.000 A 
ATOM     83  C   UNL     1       2.392  -0.592  -3.883  1.00  0.00     0.000 A 
ENDBRANCH  77  78
BRANCH  77  84
ATOM     84  N   UNL     1       2.042  -5.697  -3.924  1.00  0.00    -0.274 N 
ATOM     85  C   UNL     1       2.236  -5.262  -5.227  1.00  0.00     0.267 C 
ATOM     86  C   UNL     1       1.565  -6.992  -3.856  1.00  0.00     0.149 C 
ATOM     87  O   UNL     1       2.214  -4.103  -5.599  1.00  0.00    -0.268 OA
ATOM     88  C   UNL     1       2.261  -6.409  -6.196  1.00  0.00     0.084 C 
ATOM     89  S   UNL     1       1.874  -7.853  -5.364  1.00  0.00    -0.054 SA
ATOM     90  S   UNL     1       0.703  -7.728  -2.626  1.00  0.00    -0.052 S 
ATOM     91  C   UNL     1       2.539  -6.329  -7.507  1.00  0.00     0.068 C 
BRANCH  91  92
ATOM     92  C   UNL     1       3.081  -5.125  -8.011  1.00  0.00     0.128 A 
ATOM     93  C   UNL     1       4.317  -4.670  -7.625  1.00  0.00     0.051 A 
ATOM     94  O   UNL     1       2.477  -4.179  -8.832  1.00  0.00    -0.457 OA
ATOM     95  C   UNL     1       4.417  -3.392  -8.135  1.00  0.00     0.051 A 
ATOM     96  C   UNL     1       3.329  -3.095  -8.930  1.00  0.00     0.134 A 
BRANCH  96  97
ATOM     97  C   UNL     1       2.936  -1.927  -9.780  1.00  0.00     0.017 A 
ATOM     98  C   UNL     1       1.612  -1.539  -9.960  1.00  0.00     0.015 A 
ATOM     99  C   UNL     1       3.885  -1.070 -10.384  1.00  0.00     0.015 A 
ATOM    100  C   UNL     1       1.279  -0.416 -10.754  1.00  0.00     0.040 A 
ATOM    101  C   UNL     1       3.583   0.004 -11.229  1.00  0.00     0.040 A 
ATOM    102  C   UNL     1       2.261   0.320 -11.411  1.00  0.00     0.123 A 
ATOM    103  F   UNL     1       1.929   1.359 -12.188  1.00  0.00    -0.207 F 
ENDBRANCH  96  97
ENDBRANCH  91  92
ENDBRANCH  77  84
ENDBRANCH  75  77
ENDBRANCH  74  75
ENDBRANCH  73  74
ENDBRANCH  72  73
ENDBRANCH  71  72
ENDBRANCH  70  71
ENDBRANCH   1  70
TORSDOF 24
