REMARK SMILES Cc1nsc(N(C)S(=O)(=O)c2cn[nH]c2C)c1C(=O)OCCOCCOCCOC(=O)c1ccc(-c2c3nc(c(-c4ccc(S(=O)(=O)[O-])cc4)c4ccc([nH]4)c(-c4ccc(S(=O)(=O)[O-])cc4)c4nc(c(-c5ccc(S(=O)(=O)[O-])cc5)c5ccc2[nH]5)C=C4)C=C3)cc1
REMARK SMILES IDX 24 1 23 2 22 3 21 4 20 5 18 6 19 7 17 8 1 9 2 10 3 11 4 12
REMARK SMILES IDX 5 13 6 14 7 15 8 16 9 17 10 18 11 19 12 20 15 21 13 22 14 23
REMARK SMILES IDX 16 24 25 26 26 27 27 28 28 29 29 30 30 31 31 32 32 33 33 34
REMARK SMILES IDX 91 35 34 36 90 37 35 38 36 39 37 40 84 41 38 42 89 43 83 44
REMARK SMILES IDX 85 45 39 46 88 47 82 48 81 49 40 51 70 52 51 53 69 54 52 55
REMARK SMILES IDX 55 56 68 57 86 58 53 59 54 60 67 62 87 63 56 64 41 65 42 66
REMARK SMILES IDX 50 67 43 68 49 69 44 70 45 71 46 72 47 73 48 74 71 75 72 76
REMARK SMILES IDX 80 77 73 78 79 79 74 80 75 81 76 82 77 83 78 84 57 85 58 86
REMARK SMILES IDX 66 87 59 88 65 89 60 90 61 91 62 92 63 93 64 94
REMARK H PARENT 14 25 85 50 55 61
REMARK Flexibility Score: inf
ROOT
ATOM      1  C   UNL     1       3.391   3.744  -0.596  1.00  0.00     0.188 C 
ENDROOT
BRANCH   1   2
ATOM      2  O   UNL     1       3.587   4.301   0.695  1.00  0.00    -0.376 OA
BRANCH   2   3
ATOM      3  C   UNL     1       2.430   4.785   1.369  1.00  0.00     0.202 C 
BRANCH   3   4
ATOM      4  C   UNL     1       1.497   3.679   1.867  1.00  0.00     0.261 C 
BRANCH   4   5
ATOM      5  O   UNL     1       1.072   2.824   0.797  1.00  0.00    -0.460 OA
BRANCH   5   6
ATOM      6  C   UNL     1       0.002   3.209   0.041  1.00  0.00     0.343 C 
ATOM      7  O   UNL     1      -0.812   4.044   0.362  1.00  0.00    -0.246 OA
BRANCH   6   8
ATOM      8  C   UNL     1      -0.032   2.438  -1.200  1.00  0.00     0.118 A 
ATOM      9  C   UNL     1       0.388   0.115   0.006  1.00  0.00     0.069 C 
ATOM     10  C   UNL     1       0.122   0.983  -1.186  1.00  0.00     0.068 A 
ATOM     11  N   UNL     1       0.050   0.370  -2.361  1.00  0.00    -0.195 NA
ATOM     12  S   UNL     1      -0.121   1.489  -3.538  1.00  0.00    -0.017 S 
ATOM     13  C   UNL     1      -0.137   2.900  -2.518  1.00  0.00     0.140 A 
BRANCH  13  14
ATOM     14  N   UNL     1      -0.166   4.226  -3.154  1.00  0.00    -0.258 N 
ATOM     15  C   UNL     1      -0.744   4.334  -4.515  1.00  0.00     0.165 C 
BRANCH  14  16
ATOM     16  S   UNL     1      -0.211   5.643  -2.239  1.00  0.00     0.268 S 
ATOM     17  O   UNL     1      -1.597   5.953  -1.959  1.00  0.00    -0.201 OA
ATOM     18  O   UNL     1       0.801   5.587  -1.213  1.00  0.00    -0.201 OA
BRANCH  16  19
ATOM     19  C   UNL     1       0.326   7.015  -3.132  1.00  0.00     0.128 A 
ATOM     20  C   UNL     1      -0.066   8.323  -2.794  1.00  0.00     0.157 A 
ATOM     21  C   UNL     1       1.238   7.169  -4.163  1.00  0.00     0.053 A 
ATOM     22  N   UNL     1       0.489   9.241  -3.587  1.00  0.00    -0.183 NA
ATOM     23  N   UNL     1       1.277   8.522  -4.402  1.00  0.00    -0.281 N 
ATOM     24  C   UNL     1       2.095   6.243  -4.937  1.00  0.00     0.067 C 
ATOM     25  H   UNL     1       1.833   8.927  -5.107  1.00  0.00     0.190 HD
ENDBRANCH  16  19
ENDBRANCH  14  16
ENDBRANCH  13  14
ENDBRANCH   6   8
ENDBRANCH   5   6
ENDBRANCH   4   5
ENDBRANCH   3   4
ENDBRANCH   2   3
ENDBRANCH   1   2
BRANCH   1  26
ATOM     26  C   UNL     1       3.718   2.241  -0.720  1.00  0.00     0.188 C 
BRANCH  26  27
ATOM     27  O   UNL     1       4.364   1.527   0.325  1.00  0.00    -0.376 OA
BRANCH  27  28
ATOM     28  C   UNL     1       5.328   2.169   1.143  1.00  0.00     0.202 C 
BRANCH  28  29
ATOM     29  C   UNL     1       6.587   2.729   0.491  1.00  0.00     0.261 C 
BRANCH  29  30
ATOM     30  O   UNL     1       6.351   3.666  -0.553  1.00  0.00    -0.460 OA
BRANCH  30  31
ATOM     31  C   UNL     1       6.506   3.167  -1.800  1.00  0.00     0.338 C 
ATOM     32  O   UNL     1       6.569   1.991  -2.118  1.00  0.00    -0.246 OA
BRANCH  31  33
ATOM     33  C   UNL     1       6.707   4.270  -2.751  1.00  0.00     0.060 A 
ATOM     34  C   UNL     1       6.777   3.934  -4.106  1.00  0.00     0.016 A 
ATOM     35  C   UNL     1       7.075   5.542  -2.289  1.00  0.00     0.016 A 
ATOM     36  C   UNL     1       7.405   4.806  -4.973  1.00  0.00     0.010 A 
ATOM     37  C   UNL     1       7.713   6.407  -3.155  1.00  0.00     0.010 A 
ATOM     38  C   UNL     1       7.945   5.991  -4.465  1.00  0.00    -0.014 A 
BRANCH  38  39
ATOM     39  C   UNL     1       8.791   6.780  -5.340  1.00  0.00     0.031 A 
ATOM     40  C   UNL     1       8.072   7.602  -6.329  1.00  0.00     0.074 A 
ATOM     41  C   UNL     1      10.129   6.836  -5.192  1.00  0.00     0.049 A 
ATOM     42  N   UNL     1       8.061   7.469  -7.613  1.00  0.00    -0.248 NA
ATOM     43  C   UNL     1       7.159   8.633  -5.812  1.00  0.00     0.031 C 
ATOM     44  C   UNL     1      10.914   6.300  -4.075  1.00  0.00     0.029 A 
ATOM     45  N   UNL     1      11.060   7.479  -5.955  1.00  0.00    -0.354 N 
ATOM     46  C   UNL     1       7.318   8.543  -8.084  1.00  0.00     0.074 A 
ATOM     47  C   UNL     1       6.641   9.109  -6.943  1.00  0.00     0.031 C 
ATOM     48  C   UNL     1      12.161   6.819  -4.122  1.00  0.00     0.029 A 
ATOM     49  C   UNL     1      12.298   7.602  -5.340  1.00  0.00     0.049 A 
ATOM     50  H   UNL     1      10.871   7.823  -6.857  1.00  0.00     0.167 HD
ATOM     51  C   UNL     1       7.531   9.070  -9.318  1.00  0.00     0.031 A 
ATOM     52  C   UNL     1      13.358   8.324  -5.771  1.00  0.00     0.031 A 
ATOM     53  C   UNL     1       8.326   8.210 -10.153  1.00  0.00     0.049 A 
ATOM     54  C   UNL     1      13.209   8.546  -7.226  1.00  0.00     0.074 A 
ATOM     55  C   UNL     1       8.141   7.011 -10.804  1.00  0.00     0.029 A 
ATOM     56  N   UNL     1       9.677   8.449 -10.114  1.00  0.00    -0.354 N 
ATOM     57  N   UNL     1      13.272   7.585  -8.103  1.00  0.00    -0.248 NA
ATOM     58  C   UNL     1      12.673   9.805  -7.727  1.00  0.00     0.031 C 
ATOM     59  C   UNL     1       9.435   6.423 -10.922  1.00  0.00     0.029 A 
ATOM     60  C   UNL     1      10.368   7.287 -10.348  1.00  0.00     0.049 A 
ATOM     61  H   UNL     1      10.090   9.327  -9.943  1.00  0.00     0.167 HD
ATOM     62  C   UNL     1      12.412   7.974  -9.112  1.00  0.00     0.074 A 
ATOM     63  C   UNL     1      12.221   9.403  -8.919  1.00  0.00     0.031 C 
ATOM     64  C   UNL     1      11.696   7.050  -9.813  1.00  0.00     0.031 A 
BRANCH  51  65
ATOM     65  C   UNL     1       7.401  10.544  -9.606  1.00  0.00    -0.014 A 
ATOM     66  C   UNL     1       7.480  10.997 -10.936  1.00  0.00     0.010 A 
ATOM     67  C   UNL     1       7.484  11.521  -8.589  1.00  0.00     0.010 A 
ATOM     68  C   UNL     1       7.666  12.355 -11.229  1.00  0.00     0.020 A 
ATOM     69  C   UNL     1       7.622  12.879  -8.870  1.00  0.00     0.020 A 
ATOM     70  C   UNL     1       7.744  13.285 -10.191  1.00  0.00     0.054 A 
BRANCH  70  71
ATOM     71  S   UNL     1       8.081  15.022 -10.568  1.00  0.00     0.124 S 
ATOM     72  O   UNL     1       9.461  14.963 -11.039  1.00  0.00    -0.237 OA
ATOM     73  O   UNL     1       7.074  15.320 -11.582  1.00  0.00    -0.237 OA
ATOM     74  O   UNL     1       7.883  15.693  -9.285  1.00  0.00    -0.744 OA
ENDBRANCH  70  71
ENDBRANCH  51  65
BRANCH  52  75
ATOM     75  C   UNL     1      14.403   8.989  -4.962  1.00  0.00    -0.014 A 
ATOM     76  C   UNL     1      15.628   9.377  -5.533  1.00  0.00     0.010 A 
ATOM     77  C   UNL     1      14.085   9.478  -3.679  1.00  0.00     0.010 A 
ATOM     78  C   UNL     1      16.477  10.275  -4.867  1.00  0.00     0.020 A 
ATOM     79  C   UNL     1      14.931  10.365  -3.006  1.00  0.00     0.020 A 
ATOM     80  C   UNL     1      16.112  10.780  -3.616  1.00  0.00     0.054 A 
BRANCH  80  81
ATOM     81  S   UNL     1      17.125  12.077  -2.848  1.00  0.00     0.124 S 
ATOM     82  O   UNL     1      18.330  11.345  -2.468  1.00  0.00    -0.237 OA
ATOM     83  O   UNL     1      17.285  13.039  -3.935  1.00  0.00    -0.237 OA
ATOM     84  O   UNL     1      16.303  12.540  -1.732  1.00  0.00    -0.744 OA
ENDBRANCH  80  81
ENDBRANCH  52  75
BRANCH  64  85
ATOM     85  C   UNL     1      12.219   5.636  -9.830  1.00  0.00    -0.014 A 
ATOM     86  C   UNL     1      12.316   4.829  -8.680  1.00  0.00     0.010 A 
ATOM     87  C   UNL     1      12.562   5.079 -11.074  1.00  0.00     0.010 A 
ATOM     88  C   UNL     1      12.772   3.506  -8.771  1.00  0.00     0.020 A 
ATOM     89  C   UNL     1      12.999   3.756 -11.174  1.00  0.00     0.020 A 
ATOM     90  C   UNL     1      13.113   2.979 -10.020  1.00  0.00     0.054 A 
BRANCH  90  91
ATOM     91  S   UNL     1      13.660   1.253 -10.136  1.00  0.00     0.124 S 
ATOM     92  O   UNL     1      14.990   1.300  -9.536  1.00  0.00    -0.237 OA
ATOM     93  O   UNL     1      12.646   0.537  -9.365  1.00  0.00    -0.237 OA
ATOM     94  O   UNL     1      13.639   0.978 -11.573  1.00  0.00    -0.744 OA
ENDBRANCH  90  91
ENDBRANCH  64  85
ENDBRANCH  38  39
ENDBRANCH  31  33
ENDBRANCH  30  31
ENDBRANCH  29  30
ENDBRANCH  28  29
ENDBRANCH  27  28
ENDBRANCH  26  27
ENDBRANCH   1  26
TORSDOF 23
