REMARK SMILES O=C(Nc1cccc(F)c1C(=O)OCCOCCOCCOC(=O)c1ccc(-c2c3nc(c(-c4ccc(S(=O)(=O)[O-])cc4)c4ccc([nH]4)c(-c4ccc(S(=O)(=O)[O-])cc4)c4nc(c(-c5ccc(S(=O)(=O)[O-])cc5)c5ccc2[nH]5)C=C4)C=C3)cc1)c1ccc(Cl)nc1
REMARK SMILES IDX 18 1 17 2 16 3 15 4 14 5 13 6 11 7 12 8 10 9 4 10 5 11 6 12
REMARK SMILES IDX 8 13 7 14 9 15 3 16 1 17 2 18 85 20 86 21 91 22 87 23 90 24
REMARK SMILES IDX 88 25 89 26 19 27 20 28 21 29 22 30 23 31 24 32 25 33 26 34
REMARK SMILES IDX 84 35 27 36 83 37 28 38 29 39 30 40 77 41 31 42 82 43 76 44
REMARK SMILES IDX 78 45 32 46 81 47 75 48 74 49 33 51 63 52 44 53 62 54 45 55
REMARK SMILES IDX 48 56 61 57 79 58 46 59 47 60 60 62 80 63 49 64 34 65 35 66
REMARK SMILES IDX 43 67 36 68 42 69 37 70 38 71 39 72 40 73 41 74 64 75 65 76
REMARK SMILES IDX 73 77 66 78 72 79 67 80 68 81 69 82 70 83 71 84 50 85 51 86
REMARK SMILES IDX 59 87 52 88 58 89 53 90 54 91 55 92 56 93 57 94
REMARK H PARENT 3 19 78 50 48 61
REMARK Flexibility Score: inf
ROOT
ATOM      1  C   UNL     1       4.402  -3.127   3.767  1.00  0.00     0.188 C 
ENDROOT
BRANCH   1   2
ATOM      2  C   UNL     1       3.078  -3.543   3.091  1.00  0.00     0.188 C 
BRANCH   2   3
ATOM      3  O   UNL     1       2.757  -4.911   3.152  1.00  0.00    -0.376 OA
BRANCH   3   4
ATOM      4  C   UNL     1       3.189  -5.817   2.152  1.00  0.00     0.202 C 
BRANCH   4   5
ATOM      5  C   UNL     1       4.212  -5.518   1.041  1.00  0.00     0.261 C 
BRANCH   5   6
ATOM      6  O   UNL     1       4.930  -4.288   1.127  1.00  0.00    -0.460 OA
BRANCH   6   7
ATOM      7  C   UNL     1       4.681  -3.390   0.143  1.00  0.00     0.343 C 
ATOM      8  O   UNL     1       3.897  -3.517  -0.783  1.00  0.00    -0.246 OA
BRANCH   7   9
ATOM      9  C   UNL     1       5.332  -2.114   0.467  1.00  0.00     0.119 A 
ATOM     10  C   UNL     1       4.589  -0.921   0.489  1.00  0.00     0.059 A 
ATOM     11  C   UNL     1       5.244   0.280   0.803  1.00  0.00     0.027 A 
ATOM     12  C   UNL     1       6.619   0.298   1.049  1.00  0.00     0.005 A 
ATOM     13  C   UNL     1       6.707  -2.083   0.699  1.00  0.00     0.139 A 
ATOM     14  C   UNL     1       7.353  -0.884   0.989  1.00  0.00     0.040 A 
ATOM     15  F   UNL     1       7.441  -3.203   0.629  1.00  0.00    -0.206 F 
BRANCH  10  16
ATOM     16  N   UNL     1       3.196  -0.930   0.248  1.00  0.00    -0.321 N 
ATOM     17  O   UNL     1       1.224   0.111  -0.150  1.00  0.00    -0.269 OA
ATOM     18  C   UNL     1       2.429   0.040  -0.361  1.00  0.00     0.257 C 
ATOM     19  H   UNL     1       2.712  -1.731   0.553  1.00  0.00     0.170 HD
BRANCH  18  20
ATOM     20  C   UNL     1       3.059   0.915  -1.372  1.00  0.00     0.058 A 
ATOM     21  C   UNL     1       2.700   2.255  -1.488  1.00  0.00     0.018 A 
ATOM     22  C   UNL     1       4.011   0.406  -2.253  1.00  0.00     0.126 A 
ATOM     23  C   UNL     1       3.368   3.048  -2.421  1.00  0.00     0.042 A 
ATOM     24  N   UNL     1       4.697   1.157  -3.144  1.00  0.00    -0.244 NA
ATOM     25  C   UNL     1       4.355   2.460  -3.200  1.00  0.00     0.129 A 
ATOM     26  Cl  UNL     1       5.281   3.384  -4.308  1.00  0.00    -0.062 Cl
ENDBRANCH  18  20
ENDBRANCH  10  16
ENDBRANCH   7   9
ENDBRANCH   6   7
ENDBRANCH   5   6
ENDBRANCH   4   5
ENDBRANCH   3   4
ENDBRANCH   2   3
ENDBRANCH   1   2
BRANCH   1  27
ATOM     27  O   UNL     1       5.225  -4.091   4.404  1.00  0.00    -0.376 OA
BRANCH  27  28
ATOM     28  C   UNL     1       4.634  -5.019   5.301  1.00  0.00     0.202 C 
BRANCH  28  29
ATOM     29  C   UNL     1       3.743  -4.528   6.454  1.00  0.00     0.261 C 
BRANCH  29  30
ATOM     30  O   UNL     1       2.738  -3.566   6.099  1.00  0.00    -0.460 OA
BRANCH  30  31
ATOM     31  C   UNL     1       2.946  -2.311   6.574  1.00  0.00     0.338 C 
ATOM     32  O   UNL     1       3.877  -1.927   7.260  1.00  0.00    -0.246 OA
BRANCH  31  33
ATOM     33  C   UNL     1       1.956  -1.388   5.983  1.00  0.00     0.060 A 
ATOM     34  C   UNL     1       2.421  -0.336   5.181  1.00  0.00     0.016 A 
ATOM     35  C   UNL     1       0.597  -1.515   6.266  1.00  0.00     0.016 A 
ATOM     36  C   UNL     1       1.527   0.607   4.675  1.00  0.00     0.010 A 
ATOM     37  C   UNL     1      -0.295  -0.554   5.780  1.00  0.00     0.010 A 
ATOM     38  C   UNL     1       0.169   0.527   5.007  1.00  0.00    -0.014 A 
BRANCH  38  39
ATOM     39  C   UNL     1      -0.735   1.660   4.693  1.00  0.00     0.031 A 
ATOM     40  C   UNL     1      -1.033   2.667   5.769  1.00  0.00     0.074 A 
ATOM     41  C   UNL     1      -1.279   1.800   3.472  1.00  0.00     0.049 A 
ATOM     42  N   UNL     1      -1.827   3.706   5.736  1.00  0.00    -0.248 NA
ATOM     43  C   UNL     1      -0.342   2.475   7.054  1.00  0.00     0.031 C 
ATOM     44  C   UNL     1      -1.028   0.925   2.330  1.00  0.00     0.029 A 
ATOM     45  N   UNL     1      -2.167   2.733   2.995  1.00  0.00    -0.354 N 
ATOM     46  C   UNL     1      -1.742   4.285   6.997  1.00  0.00     0.074 A 
ATOM     47  C   UNL     1      -0.839   3.466   7.778  1.00  0.00     0.031 C 
ATOM     48  C   UNL     1      -1.760   1.352   1.287  1.00  0.00     0.029 A 
ATOM     49  C   UNL     1      -2.556   2.507   1.697  1.00  0.00     0.049 A 
ATOM     50  H   UNL     1      -2.492   3.492   3.532  1.00  0.00     0.167 HD
ATOM     51  C   UNL     1      -2.357   5.398   7.463  1.00  0.00     0.031 A 
ATOM     52  C   UNL     1      -3.468   3.142   0.934  1.00  0.00     0.031 A 
ATOM     53  C   UNL     1      -3.279   6.193   6.694  1.00  0.00     0.049 A 
ATOM     54  C   UNL     1      -4.206   4.329   1.497  1.00  0.00     0.074 A 
ATOM     55  C   UNL     1      -3.946   7.344   7.073  1.00  0.00     0.029 A 
ATOM     56  N   UNL     1      -3.677   5.909   5.396  1.00  0.00    -0.354 N 
ATOM     57  N   UNL     1      -4.094   4.885   2.681  1.00  0.00    -0.248 NA
ATOM     58  C   UNL     1      -5.186   4.981   0.617  1.00  0.00     0.031 C 
ATOM     59  C   UNL     1      -4.795   7.721   6.027  1.00  0.00     0.029 A 
ATOM     60  C   UNL     1      -4.605   6.845   4.969  1.00  0.00     0.049 A 
ATOM     61  H   UNL     1      -3.348   5.154   4.857  1.00  0.00     0.167 HD
ATOM     62  C   UNL     1      -4.971   5.966   2.679  1.00  0.00     0.074 A 
ATOM     63  C   UNL     1      -5.596   5.992   1.372  1.00  0.00     0.031 C 
ATOM     64  C   UNL     1      -5.229   6.857   3.668  1.00  0.00     0.031 A 
BRANCH  51  65
ATOM     65  C   UNL     1      -2.087   5.782   8.895  1.00  0.00    -0.014 A 
ATOM     66  C   UNL     1      -0.827   6.260   9.300  1.00  0.00     0.010 A 
ATOM     67  C   UNL     1      -3.110   5.657   9.852  1.00  0.00     0.010 A 
ATOM     68  C   UNL     1      -0.578   6.548  10.645  1.00  0.00     0.020 A 
ATOM     69  C   UNL     1      -2.875   5.973  11.193  1.00  0.00     0.020 A 
ATOM     70  C   UNL     1      -1.602   6.393  11.584  1.00  0.00     0.054 A 
BRANCH  70  71
ATOM     71  S   UNL     1      -1.248   6.756  13.326  1.00  0.00     0.124 S 
ATOM     72  O   UNL     1      -0.420   5.615  13.708  1.00  0.00    -0.237 OA
ATOM     73  O   UNL     1      -0.553   8.039  13.251  1.00  0.00    -0.237 OA
ATOM     74  O   UNL     1      -2.570   6.802  13.947  1.00  0.00    -0.744 OA
ENDBRANCH  70  71
ENDBRANCH  51  65
BRANCH  52  75
ATOM     75  C   UNL     1      -3.742   2.651  -0.444  1.00  0.00    -0.014 A 
ATOM     76  C   UNL     1      -3.330   3.390  -1.566  1.00  0.00     0.010 A 
ATOM     77  C   UNL     1      -4.390   1.416  -0.639  1.00  0.00     0.010 A 
ATOM     78  C   UNL     1      -3.560   2.903  -2.857  1.00  0.00     0.020 A 
ATOM     79  C   UNL     1      -4.598   0.914  -1.927  1.00  0.00     0.020 A 
ATOM     80  C   UNL     1      -4.185   1.664  -3.029  1.00  0.00     0.054 A 
BRANCH  80  81
ATOM     81  S   UNL     1      -4.398   1.019  -4.712  1.00  0.00     0.124 S 
ATOM     82  O   UNL     1      -5.448   1.884  -5.239  1.00  0.00    -0.237 OA
ATOM     83  O   UNL     1      -3.071   1.211  -5.292  1.00  0.00    -0.237 OA
ATOM     84  O   UNL     1      -4.782  -0.374  -4.500  1.00  0.00    -0.744 OA
ENDBRANCH  80  81
ENDBRANCH  52  75
BRANCH  64  85
ATOM     85  C   UNL     1      -6.210   7.964   3.373  1.00  0.00    -0.014 A 
ATOM     86  C   UNL     1      -7.588   7.712   3.258  1.00  0.00     0.010 A 
ATOM     87  C   UNL     1      -5.747   9.290   3.271  1.00  0.00     0.010 A 
ATOM     88  C   UNL     1      -8.482   8.760   3.016  1.00  0.00     0.020 A 
ATOM     89  C   UNL     1      -6.640  10.344   3.058  1.00  0.00     0.020 A 
ATOM     90  C   UNL     1      -8.002  10.070   2.918  1.00  0.00     0.054 A 
BRANCH  90  91
ATOM     91  S   UNL     1      -9.186  11.418   2.648  1.00  0.00     0.124 S 
ATOM     92  O   UNL     1      -9.558  11.221   1.250  1.00  0.00    -0.237 OA
ATOM     93  O   UNL     1     -10.232  11.126   3.625  1.00  0.00    -0.237 OA
ATOM     94  O   UNL     1      -8.407  12.624   2.921  1.00  0.00    -0.744 OA
ENDBRANCH  90  91
ENDBRANCH  64  85
ENDBRANCH  38  39
ENDBRANCH  31  33
ENDBRANCH  30  31
ENDBRANCH  29  30
ENDBRANCH  28  29
ENDBRANCH  27  28
ENDBRANCH   1  27
TORSDOF 22
