REMARK SMILES O=C(OCCOCCOCCOC(=O)[C@H]1CC(=O)N(Cc2cccc(Cl)c2)C1)c1ccc(-c2c3nc(c(-c4ccc(S(=O)(=O)[O-])cc4)c4ccc([nH]4)c(-c4ccc(S(=O)(=O)[O-])cc4)c4nc(c(-c5ccc(S(=O)(=O)[O-])cc5)c5ccc2[nH]5)C=C4)C=C3)cc1
REMARK SMILES IDX 7 1 6 2 5 3 4 4 3 5 2 6 1 7 29 8 30 9 88 10 31 11 87 12
REMARK SMILES IDX 32 13 33 14 34 15 81 16 35 17 86 18 80 19 82 20 36 21 85 22
REMARK SMILES IDX 79 23 78 24 37 26 67 27 48 28 66 29 49 30 52 31 65 32 83 33
REMARK SMILES IDX 50 34 51 35 64 37 84 38 53 39 38 40 39 41 47 42 40 43 46 44
REMARK SMILES IDX 41 45 42 46 43 47 44 48 45 49 68 50 69 51 77 52 70 53 76 54
REMARK SMILES IDX 71 55 72 56 73 57 74 58 75 59 54 60 55 61 63 62 56 63 62 64
REMARK SMILES IDX 57 65 58 66 59 67 60 68 61 69 8 70 9 71 10 72 11 73 12 74
REMARK SMILES IDX 13 75 14 76 15 77 16 78 28 79 17 80 19 81 18 82 20 83 21 84
REMARK SMILES IDX 22 85 27 86 23 87 25 88 24 89 26 90
REMARK H PARENT 82 25 52 36
REMARK Flexibility Score: inf
ROOT
ATOM      1  C   UNL     1      -0.839  -4.402  -0.608  1.00  0.00     0.188 C 
ENDROOT
BRANCH   1   2
ATOM      2  O   UNL     1      -1.001  -5.106  -1.843  1.00  0.00    -0.376 OA
BRANCH   2   3
ATOM      3  C   UNL     1      -2.105  -6.020  -1.841  1.00  0.00     0.202 C 
BRANCH   3   4
ATOM      4  C   UNL     1      -1.964  -7.270  -0.950  1.00  0.00     0.261 C 
BRANCH   4   5
ATOM      5  O   UNL     1      -1.092  -7.101   0.180  1.00  0.00    -0.460 OA
BRANCH   5   6
ATOM      6  C   UNL     1       0.252  -7.272   0.267  1.00  0.00     0.338 C 
ATOM      7  O   UNL     1       0.779  -7.111   1.367  1.00  0.00    -0.246 OA
BRANCH   6   8
ATOM      8  C   UNL     1       1.140  -7.596  -0.897  1.00  0.00     0.060 A 
ATOM      9  C   UNL     1       0.757  -7.568  -2.238  1.00  0.00     0.016 A 
ATOM     10  C   UNL     1       2.481  -7.916  -0.615  1.00  0.00     0.016 A 
ATOM     11  C   UNL     1       1.626  -7.908  -3.262  1.00  0.00     0.010 A 
ATOM     12  C   UNL     1       3.380  -8.229  -1.644  1.00  0.00     0.010 A 
ATOM     13  C   UNL     1       2.937  -8.256  -2.972  1.00  0.00    -0.014 A 
BRANCH  13  14
ATOM     14  C   UNL     1       3.747  -8.829  -4.062  1.00  0.00     0.031 A 
ATOM     15  C   UNL     1       3.908 -10.312  -4.088  1.00  0.00     0.074 A 
ATOM     16  C   UNL     1       4.191  -8.065  -5.077  1.00  0.00     0.049 A 
ATOM     17  N   UNL     1       4.564 -11.044  -4.941  1.00  0.00    -0.248 NA
ATOM     18  C   UNL     1       3.174 -11.079  -3.064  1.00  0.00     0.031 C 
ATOM     19  C   UNL     1       3.862  -6.658  -5.256  1.00  0.00     0.029 A 
ATOM     20  N   UNL     1       5.019  -8.331  -6.131  1.00  0.00    -0.354 N 
ATOM     21  C   UNL     1       4.300 -12.355  -4.579  1.00  0.00     0.074 A 
ATOM     22  C   UNL     1       3.465 -12.325  -3.401  1.00  0.00     0.031 C 
ATOM     23  C   UNL     1       4.597  -6.136  -6.248  1.00  0.00     0.029 A 
ATOM     24  C   UNL     1       5.428  -7.191  -6.793  1.00  0.00     0.049 A 
ATOM     25  H   UNL     1       5.295  -9.240  -6.392  1.00  0.00     0.167 HD
ATOM     26  C   UNL     1       4.710 -13.478  -5.205  1.00  0.00     0.031 A 
ATOM     27  C   UNL     1       6.401  -7.026  -7.704  1.00  0.00     0.031 A 
ATOM     28  C   UNL     1       5.585 -13.451  -6.343  1.00  0.00     0.049 A 
ATOM     29  C   UNL     1       7.037  -8.276  -8.228  1.00  0.00     0.074 A 
ATOM     30  C   UNL     1       6.128 -14.511  -7.042  1.00  0.00     0.029 A 
ATOM     31  N   UNL     1       6.066 -12.287  -6.933  1.00  0.00    -0.354 N 
ATOM     32  N   UNL     1       6.800  -9.517  -7.872  1.00  0.00    -0.248 NA
ATOM     33  C   UNL     1       8.007  -8.121  -9.312  1.00  0.00     0.031 C 
ATOM     34  C   UNL     1       6.997 -13.987  -8.004  1.00  0.00     0.029 A 
ATOM     35  C   UNL     1       6.937 -12.601  -7.959  1.00  0.00     0.049 A 
ATOM     36  H   UNL     1       5.822 -11.373  -6.660  1.00  0.00     0.167 HD
ATOM     37  C   UNL     1       7.550 -10.302  -8.729  1.00  0.00     0.074 A 
ATOM     38  C   UNL     1       8.253  -9.389  -9.614  1.00  0.00     0.031 C 
ATOM     39  C   UNL     1       7.630 -11.652  -8.797  1.00  0.00     0.031 A 
BRANCH  26  40
ATOM     40  C   UNL     1       4.280 -14.786  -4.605  1.00  0.00    -0.014 A 
ATOM     41  C   UNL     1       2.940 -15.215  -4.654  1.00  0.00     0.010 A 
ATOM     42  C   UNL     1       5.229 -15.578  -3.938  1.00  0.00     0.010 A 
ATOM     43  C   UNL     1       2.552 -16.393  -4.010  1.00  0.00     0.020 A 
ATOM     44  C   UNL     1       4.850 -16.770  -3.316  1.00  0.00     0.020 A 
ATOM     45  C   UNL     1       3.510 -17.161  -3.341  1.00  0.00     0.054 A 
BRANCH  45  46
ATOM     46  S   UNL     1       2.982 -18.686  -2.516  1.00  0.00     0.124 S 
ATOM     47  O   UNL     1       2.212 -18.169  -1.387  1.00  0.00    -0.237 OA
ATOM     48  O   UNL     1       2.200 -19.355  -3.553  1.00  0.00    -0.237 OA
ATOM     49  O   UNL     1       4.237 -19.344  -2.163  1.00  0.00    -0.744 OA
ENDBRANCH  45  46
ENDBRANCH  26  40
BRANCH  27  50
ATOM     50  C   UNL     1       6.859  -5.676  -8.132  1.00  0.00    -0.014 A 
ATOM     51  C   UNL     1       6.565  -5.163  -9.406  1.00  0.00     0.010 A 
ATOM     52  C   UNL     1       7.662  -4.914  -7.262  1.00  0.00     0.010 A 
ATOM     53  C   UNL     1       7.103  -3.936  -9.820  1.00  0.00     0.020 A 
ATOM     54  C   UNL     1       8.191  -3.683  -7.666  1.00  0.00     0.020 A 
ATOM     55  C   UNL     1       7.924  -3.208  -8.952  1.00  0.00     0.054 A 
BRANCH  55  56
ATOM     56  S   UNL     1       8.602  -1.607  -9.481  1.00  0.00     0.124 S 
ATOM     57  O   UNL     1       9.801  -2.013 -10.208  1.00  0.00    -0.237 OA
ATOM     58  O   UNL     1       7.532  -1.043 -10.298  1.00  0.00    -0.237 OA
ATOM     59  O   UNL     1       8.841  -0.912  -8.217  1.00  0.00    -0.744 OA
ENDBRANCH  55  56
ENDBRANCH  27  50
BRANCH  39  60
ATOM     60  C   UNL     1       8.488 -12.207  -9.893  1.00  0.00    -0.014 A 
ATOM     61  C   UNL     1       9.888 -12.102  -9.841  1.00  0.00     0.010 A 
ATOM     62  C   UNL     1       7.875 -12.878 -10.965  1.00  0.00     0.010 A 
ATOM     63  C   UNL     1      10.663 -12.639 -10.867  1.00  0.00     0.020 A 
ATOM     64  C   UNL     1       8.650 -13.449 -11.971  1.00  0.00     0.020 A 
ATOM     65  C   UNL     1      10.039 -13.314 -11.921  1.00  0.00     0.054 A 
BRANCH  65  66
ATOM     66  S   UNL     1      11.074 -14.059 -13.206  1.00  0.00     0.124 S 
ATOM     67  O   UNL     1      11.538 -12.885 -13.939  1.00  0.00    -0.237 OA
ATOM     68  O   UNL     1      12.092 -14.759 -12.427  1.00  0.00    -0.237 OA
ATOM     69  O   UNL     1      10.150 -14.925 -13.935  1.00  0.00    -0.744 OA
ENDBRANCH  65  66
ENDBRANCH  39  60
ENDBRANCH  13  14
ENDBRANCH   6   8
ENDBRANCH   5   6
ENDBRANCH   4   5
ENDBRANCH   3   4
ENDBRANCH   2   3
ENDBRANCH   1   2
BRANCH   1  70
ATOM     70  C   UNL     1      -0.646  -2.892  -0.746  1.00  0.00     0.188 C 
BRANCH  70  71
ATOM     71  O   UNL     1      -1.668  -2.131  -1.381  1.00  0.00    -0.376 OA
BRANCH  71  72
ATOM     72  C   UNL     1      -2.149  -2.572  -2.645  1.00  0.00     0.202 C 
BRANCH  72  73
ATOM     73  C   UNL     1      -1.196  -2.574  -3.851  1.00  0.00     0.261 C 
BRANCH  73  74
ATOM     74  O   UNL     1       0.135  -3.024  -3.567  1.00  0.00    -0.463 OA
BRANCH  74  75
ATOM     75  C   UNL     1       1.034  -2.025  -3.379  1.00  0.00     0.311 C 
ATOM     76  O   UNL     1       0.772  -0.829  -3.458  1.00  0.00    -0.252 OA
BRANCH  75  77
ATOM     77  C   UNL     1       2.393  -2.513  -2.950  1.00  0.00     0.128 C 
ATOM     78  C   UNL     1       2.766  -3.960  -3.213  1.00  0.00     0.117 C 
ATOM     79  C   UNL     1       3.385  -1.728  -3.784  1.00  0.00     0.135 C 
ATOM     80  C   UNL     1       4.253  -3.872  -3.495  1.00  0.00     0.223 C 
ATOM     81  N   UNL     1       4.485  -2.619  -4.018  1.00  0.00    -0.337 N 
ATOM     82  O   UNL     1       5.065  -4.756  -3.328  1.00  0.00    -0.275 OA
BRANCH  81  83
ATOM     83  C   UNL     1       5.689  -2.204  -4.734  1.00  0.00     0.155 C 
BRANCH  83  84
ATOM     84  C   UNL     1       5.324  -1.331  -5.916  1.00  0.00    -0.027 A 
ATOM     85  C   UNL     1       5.080   0.042  -5.730  1.00  0.00     0.005 A 
ATOM     86  C   UNL     1       5.056  -1.897  -7.171  1.00  0.00     0.026 A 
ATOM     87  C   UNL     1       4.554   0.820  -6.760  1.00  0.00     0.002 A 
ATOM     88  C   UNL     1       4.547  -1.110  -8.204  1.00  0.00     0.041 A 
ATOM     89  C   UNL     1       4.292   0.244  -8.002  1.00  0.00     0.020 A 
ATOM     90  Cl  UNL     1       4.130  -1.832  -9.711  1.00  0.00    -0.084 Cl
ENDBRANCH  83  84
ENDBRANCH  81  83
ENDBRANCH  75  77
ENDBRANCH  74  75
ENDBRANCH  73  74
ENDBRANCH  72  73
ENDBRANCH  71  72
ENDBRANCH  70  71
ENDBRANCH   1  70
TORSDOF 22
