REMARK SMILES CC(C)N(c1cc2c(cc1Cl)C=C(C(=O)OCCOCCOCCOC(=O)c1ccc(-c3c4nc(c(-c5ccc(S(=O)(=O)[O-])cc5)c5ccc([nH]5)c(-c5ccc(S(=O)(=O)[O-])cc5)c5nc(c(-c6ccc(S(=O)(=O)[O-])cc6)c6ccc3[nH]6)C=C5)C=C4)cc1)[C@@H](C(F)(F)F)O2)C(C)C
REMARK SMILES IDX 21 1 20 2 19 3 18 4 17 5 16 6 14 7 15 8 13 9 5 10 6 11 10 12
REMARK SMILES IDX 7 13 9 14 11 15 8 16 93 17 12 18 88 19 4 20 2 21 1 22 3 23
REMARK SMILES IDX 94 24 95 25 96 26 89 27 90 28 91 29 92 30 22 31 23 32 24 33
REMARK SMILES IDX 25 34 26 35 27 36 28 37 29 38 87 39 30 40 86 41 31 42 32 43
REMARK SMILES IDX 33 44 80 45 34 46 85 47 79 48 81 49 35 50 84 51 78 52 77 53
REMARK SMILES IDX 36 55 66 56 47 57 65 58 48 59 51 60 64 61 82 62 49 63 50 64
REMARK SMILES IDX 63 66 83 67 52 68 37 69 38 70 46 71 39 72 45 73 40 74 41 75
REMARK SMILES IDX 42 76 43 77 44 78 67 79 68 80 76 81 69 82 75 83 70 84 71 85
REMARK SMILES IDX 72 86 73 87 74 88 53 89 54 90 62 91 55 92 61 93 56 94 57 95
REMARK SMILES IDX 58 96 59 97 60 98
REMARK H PARENT 81 54 51 65
REMARK Flexibility Score: inf
ROOT
ATOM      1  C   UNL     1      -3.684   2.712   7.875  1.00  0.00     0.188 C 
ENDROOT
BRANCH   1   2
ATOM      2  C   UNL     1      -4.043   4.183   8.174  1.00  0.00     0.188 C 
BRANCH   2   3
ATOM      3  O   UNL     1      -5.104   4.306   9.102  1.00  0.00    -0.376 OA
BRANCH   3   4
ATOM      4  C   UNL     1      -6.340   4.807   8.627  1.00  0.00     0.202 C 
BRANCH   4   5
ATOM      5  C   UNL     1      -7.082   4.007   7.545  1.00  0.00     0.261 C 
BRANCH   5   6
ATOM      6  O   UNL     1      -6.264   3.430   6.516  1.00  0.00    -0.460 OA
BRANCH   6   7
ATOM      7  C   UNL     1      -5.998   4.200   5.439  1.00  0.00     0.338 C 
ATOM      8  O   UNL     1      -6.366   5.349   5.265  1.00  0.00    -0.246 OA
BRANCH   7   9
ATOM      9  C   UNL     1      -5.085   3.463   4.537  1.00  0.00     0.087 C 
ATOM     10  C   UNL     1      -1.556   2.185   1.132  1.00  0.00     0.060 A 
ATOM     11  C   UNL     1      -2.600   1.508   1.805  1.00  0.00     0.074 A 
ATOM     12  C   UNL     1      -1.301   3.511   1.552  1.00  0.00     0.065 A 
ATOM     13  C   UNL     1      -3.396   2.131   2.778  1.00  0.00     0.130 A 
ATOM     14  C   UNL     1      -2.077   4.123   2.550  1.00  0.00     0.034 A 
ATOM     15  Cl  UNL     1      -0.121   4.542   0.815  1.00  0.00    -0.082 Cl
ATOM     16  C   UNL     1      -3.147   3.450   3.137  1.00  0.00     0.019 A 
ATOM     17  O   UNL     1      -4.410   1.383   3.308  1.00  0.00    -0.475 OA
ATOM     18  C   UNL     1      -4.032   4.139   4.061  1.00  0.00     0.027 C 
ATOM     19  C   UNL     1      -5.361   2.016   4.215  1.00  0.00     0.316 C 
BRANCH  10  20
ATOM     20  N   UNL     1      -0.889   1.529   0.073  1.00  0.00    -0.365 N 
BRANCH  20  21
ATOM     21  C   UNL     1       0.591   1.472   0.102  1.00  0.00     0.076 C 
ATOM     22  C   UNL     1       1.121   0.050   0.287  1.00  0.00     0.030 C 
ATOM     23  C   UNL     1       1.259   2.128  -1.107  1.00  0.00     0.030 C 
ENDBRANCH  20  21
BRANCH  20  24
ATOM     24  C   UNL     1      -1.758   0.991  -1.001  1.00  0.00     0.076 C 
ATOM     25  C   UNL     1      -1.605   1.734  -2.325  1.00  0.00     0.030 C 
ATOM     26  C   UNL     1      -1.621  -0.517  -1.189  1.00  0.00     0.030 C 
ENDBRANCH  20  24
ENDBRANCH  10  20
BRANCH  19  27
ATOM     27  C   UNL     1      -6.777   1.803   3.659  1.00  0.00     0.430 C 
ATOM     28  F   UNL     1      -6.997   0.499   3.356  1.00  0.00    -0.167 F 
ATOM     29  F   UNL     1      -7.731   2.151   4.556  1.00  0.00    -0.167 F 
ATOM     30  F   UNL     1      -6.999   2.520   2.535  1.00  0.00    -0.167 F 
ENDBRANCH  19  27
ENDBRANCH   7   9
ENDBRANCH   6   7
ENDBRANCH   5   6
ENDBRANCH   4   5
ENDBRANCH   3   4
ENDBRANCH   2   3
ENDBRANCH   1   2
BRANCH   1  31
ATOM     31  O   UNL     1      -4.295   1.672   8.634  1.00  0.00    -0.376 OA
BRANCH  31  32
ATOM     32  C   UNL     1      -4.356   1.796  10.052  1.00  0.00     0.202 C 
BRANCH  32  33
ATOM     33  C   UNL     1      -3.046   1.964  10.833  1.00  0.00     0.261 C 
BRANCH  33  34
ATOM     34  O   UNL     1      -2.244   3.079  10.414  1.00  0.00    -0.460 OA
BRANCH  34  35
ATOM     35  C   UNL     1      -1.054   2.763   9.842  1.00  0.00     0.338 C 
ATOM     36  O   UNL     1      -0.591   1.648   9.671  1.00  0.00    -0.246 OA
BRANCH  35  37
ATOM     37  C   UNL     1      -0.463   3.982   9.250  1.00  0.00     0.060 A 
ATOM     38  C   UNL     1      -0.216   5.116  10.025  1.00  0.00     0.016 A 
ATOM     39  C   UNL     1      -0.147   3.973   7.884  1.00  0.00     0.016 A 
ATOM     40  C   UNL     1       0.368   6.239   9.430  1.00  0.00     0.010 A 
ATOM     41  C   UNL     1       0.418   5.101   7.289  1.00  0.00     0.010 A 
ATOM     42  C   UNL     1       0.695   6.237   8.062  1.00  0.00    -0.014 A 
BRANCH  42  43
ATOM     43  C   UNL     1       1.460   7.365   7.478  1.00  0.00     0.031 A 
ATOM     44  C   UNL     1       0.785   8.455   6.702  1.00  0.00     0.074 A 
ATOM     45  C   UNL     1       2.794   7.392   7.664  1.00  0.00     0.049 A 
ATOM     46  N   UNL     1       1.306   9.554   6.220  1.00  0.00    -0.248 NA
ATOM     47  C   UNL     1      -0.651   8.299   6.431  1.00  0.00     0.031 C 
ATOM     48  C   UNL     1       3.554   6.374   8.392  1.00  0.00     0.029 A 
ATOM     49  N   UNL     1       3.741   8.305   7.276  1.00  0.00    -0.354 N 
ATOM     50  C   UNL     1       0.260  10.239   5.617  1.00  0.00     0.074 A 
ATOM     51  C   UNL     1      -0.918   9.407   5.748  1.00  0.00     0.031 C 
ATOM     52  C   UNL     1       4.846   6.735   8.425  1.00  0.00     0.029 A 
ATOM     53  C   UNL     1       5.011   7.994   7.701  1.00  0.00     0.049 A 
ATOM     54  H   UNL     1       3.531   9.106   6.743  1.00  0.00     0.167 HD
ATOM     55  C   UNL     1       0.284  11.460   5.032  1.00  0.00     0.031 A 
ATOM     56  C   UNL     1       6.178   8.650   7.545  1.00  0.00     0.031 A 
ATOM     57  C   UNL     1       1.471  12.266   4.886  1.00  0.00     0.049 A 
ATOM     58  C   UNL     1       6.187   9.976   6.837  1.00  0.00     0.074 A 
ATOM     59  C   UNL     1       1.582  13.530   4.331  1.00  0.00     0.029 A 
ATOM     60  N   UNL     1       2.747  11.894   5.283  1.00  0.00    -0.354 N 
ATOM     61  N   UNL     1       5.175  10.645   6.339  1.00  0.00    -0.248 NA
ATOM     62  C   UNL     1       7.486  10.646   6.684  1.00  0.00     0.031 C 
ATOM     63  C   UNL     1       2.930  13.892   4.329  1.00  0.00     0.029 A 
ATOM     64  C   UNL     1       3.653  12.889   4.954  1.00  0.00     0.049 A 
ATOM     65  H   UNL     1       2.974  11.048   5.732  1.00  0.00     0.167 HD
ATOM     66  C   UNL     1       5.710  11.825   5.836  1.00  0.00     0.074 A 
ATOM     67  C   UNL     1       7.134  11.784   6.098  1.00  0.00     0.031 C 
ATOM     68  C   UNL     1       5.072  12.848   5.218  1.00  0.00     0.031 A 
BRANCH  55  69
ATOM     69  C   UNL     1      -1.010  12.038   4.519  1.00  0.00    -0.014 A 
ATOM     70  C   UNL     1      -1.188  12.260   3.140  1.00  0.00     0.010 A 
ATOM     71  C   UNL     1      -1.986  12.507   5.417  1.00  0.00     0.010 A 
ATOM     72  C   UNL     1      -2.296  12.973   2.672  1.00  0.00     0.020 A 
ATOM     73  C   UNL     1      -3.109  13.198   4.951  1.00  0.00     0.020 A 
ATOM     74  C   UNL     1      -3.243  13.448   3.583  1.00  0.00     0.054 A 
BRANCH  74  75
ATOM     75  S   UNL     1      -4.652  14.409   2.963  1.00  0.00     0.124 S 
ATOM     76  O   UNL     1      -4.036  15.694   2.648  1.00  0.00    -0.237 OA
ATOM     77  O   UNL     1      -5.095  13.621   1.815  1.00  0.00    -0.237 OA
ATOM     78  O   UNL     1      -5.580  14.421   4.092  1.00  0.00    -0.744 OA
ENDBRANCH  74  75
ENDBRANCH  55  69
BRANCH  56  79
ATOM     79  C   UNL     1       7.414   8.071   8.136  1.00  0.00    -0.014 A 
ATOM     80  C   UNL     1       7.958   6.878   7.625  1.00  0.00     0.010 A 
ATOM     81  C   UNL     1       7.998   8.656   9.274  1.00  0.00     0.010 A 
ATOM     82  C   UNL     1       9.025   6.250   8.271  1.00  0.00     0.020 A 
ATOM     83  C   UNL     1       9.085   8.046   9.907  1.00  0.00     0.020 A 
ATOM     84  C   UNL     1       9.571   6.831   9.418  1.00  0.00     0.054 A 
BRANCH  84  85
ATOM     85  S   UNL     1      10.918   5.969  10.274  1.00  0.00     0.124 S 
ATOM     86  O   UNL     1      10.201   4.893  10.953  1.00  0.00    -0.237 OA
ATOM     87  O   UNL     1      11.782   5.552   9.172  1.00  0.00    -0.237 OA
ATOM     88  O   UNL     1      11.480   6.995  11.148  1.00  0.00    -0.744 OA
ENDBRANCH  84  85
ENDBRANCH  56  79
BRANCH  68  89
ATOM     89  C   UNL     1       5.883  14.036   4.767  1.00  0.00    -0.014 A 
ATOM     90  C   UNL     1       5.679  15.289   5.377  1.00  0.00     0.010 A 
ATOM     91  C   UNL     1       6.721  13.951   3.642  1.00  0.00     0.010 A 
ATOM     92  C   UNL     1       6.255  16.442   4.839  1.00  0.00     0.020 A 
ATOM     93  C   UNL     1       7.323  15.100   3.118  1.00  0.00     0.020 A 
ATOM     94  C   UNL     1       7.060  16.342   3.701  1.00  0.00     0.054 A 
BRANCH  94  95
ATOM     95  S   UNL     1       7.743  17.859   2.977  1.00  0.00     0.124 S 
ATOM     96  O   UNL     1       6.576  18.438   2.318  1.00  0.00    -0.237 OA
ATOM     97  O   UNL     1       8.229  18.584   4.148  1.00  0.00    -0.237 OA
ATOM     98  O   UNL     1       8.788  17.370   2.079  1.00  0.00    -0.744 OA
ENDBRANCH  94  95
ENDBRANCH  68  89
ENDBRANCH  42  43
ENDBRANCH  35  37
ENDBRANCH  34  35
ENDBRANCH  33  34
ENDBRANCH  32  33
ENDBRANCH  31  32
ENDBRANCH   1  31
TORSDOF 24
