REMARK SMILES Cc1cccc(O[C@H]2CC[C@@]([NH2+]C(C)C)(C(=O)OCCOCCOCCOC(=O)c3ccc(-c4c5nc(c(-c6ccc(S(=O)(=O)[O-])cc6)c6ccc([nH]6)c(-c6ccc(S(=O)(=O)[O-])cc6)c6nc(c(-c7ccc(S(=O)(=O)[O-])cc7)c7ccc4[nH]7)C=C6)C=C5)cc3)C2)c1
REMARK SMILES IDX 23 1 22 2 21 3 20 4 19 5 18 6 16 7 17 8 11 9 8 10 9 11 90 12
REMARK SMILES IDX 10 13 7 14 6 15 1 16 2 17 3 18 91 19 4 20 5 21 12 22 13 25
REMARK SMILES IDX 14 26 15 27 24 28 25 29 26 30 27 31 28 32 29 33 30 34 31 35
REMARK SMILES IDX 89 36 32 37 88 38 33 39 34 40 35 41 82 42 36 43 87 44 81 45
REMARK SMILES IDX 83 46 37 47 86 48 80 49 79 50 38 52 68 53 49 54 67 55 50 56
REMARK SMILES IDX 53 57 66 58 84 59 51 60 52 61 65 63 85 64 54 65 39 66 40 67
REMARK SMILES IDX 48 68 41 69 47 70 42 71 43 72 44 73 45 74 46 75 69 76 70 77
REMARK SMILES IDX 78 78 71 79 77 80 72 81 73 82 74 83 75 84 76 85 55 86 56 87
REMARK SMILES IDX 64 88 57 89 63 90 58 91 59 92 60 93 61 94 62 95
REMARK H PARENT 12 23 12 24 83 51 53 62
REMARK Flexibility Score: inf
ROOT
ATOM      1  C   UNL     1      -2.726  10.022   0.106  1.00  0.00     0.188 C 
ENDROOT
BRANCH   1   2
ATOM      2  C   UNL     1      -2.120   9.647   1.450  1.00  0.00     0.188 C 
BRANCH   2   3
ATOM      3  O   UNL     1      -0.754   9.980   1.820  1.00  0.00    -0.376 OA
BRANCH   3   4
ATOM      4  C   UNL     1       0.516   9.870   1.089  1.00  0.00     0.202 C 
BRANCH   4   5
ATOM      5  C   UNL     1       1.808   8.573   0.782  1.00  0.00     0.261 C 
BRANCH   5   6
ATOM      6  O   UNL     1       1.722   6.802   0.404  1.00  0.00    -0.459 OA
BRANCH   6   7
ATOM      7  C   UNL     1       1.132   5.520   0.963  1.00  0.00     0.368 C 
ATOM      8  O   UNL     1       0.485   5.405   2.017  1.00  0.00    -0.245 OA
BRANCH   7   9
ATOM      9  C   UNL     1       1.471   4.097   0.449  1.00  0.00     0.198 C 
ATOM     10  C   UNL     1      -0.399   2.851  -0.773  1.00  0.00     0.180 C 
ATOM     11  C   UNL     1       0.490   3.615  -1.751  1.00  0.00     0.052 C 
ATOM     12  C   UNL     1       0.223   3.132   0.598  1.00  0.00     0.126 C 
ATOM     13  C   UNL     1       1.763   4.081  -1.036  1.00  0.00     0.085 C 
BRANCH  10  14
ATOM     14  O   UNL     1      -1.796   3.187  -0.723  1.00  0.00    -0.490 OA
BRANCH  14  15
ATOM     15  C   UNL     1      -2.577   3.228  -1.848  1.00  0.00     0.119 A 
ATOM     16  C   UNL     1      -5.740   5.218  -2.612  1.00  0.00     0.044 C 
ATOM     17  C   UNL     1      -4.570   4.288  -2.789  1.00  0.00    -0.047 A 
ATOM     18  C   UNL     1      -4.118   3.973  -4.070  1.00  0.00     0.003 A 
ATOM     19  C   UNL     1      -3.841   3.816  -1.683  1.00  0.00     0.049 A 
ATOM     20  C   UNL     1      -2.947   3.234  -4.235  1.00  0.00     0.004 A 
ATOM     21  C   UNL     1      -2.180   2.861  -3.127  1.00  0.00     0.046 A 
ENDBRANCH  14  15
ENDBRANCH  10  14
BRANCH   9  22
ATOM     22  N   UNL     1       2.593   3.503   1.306  1.00  0.00    -0.330 N 
ATOM     23  H   UNL     1       3.450   4.002   1.068  1.00  0.00     0.347 HD
ATOM     24  H   UNL     1       2.575   2.507   1.085  1.00  0.00     0.347 HD
BRANCH  22  25
ATOM     25  C   UNL     1       2.456   3.547   2.806  1.00  0.00     0.176 C 
ATOM     26  C   UNL     1       1.519   2.535   3.475  1.00  0.00     0.075 C 
ATOM     27  C   UNL     1       3.855   3.393   3.428  1.00  0.00     0.075 C 
ENDBRANCH  22  25
ENDBRANCH   9  22
ENDBRANCH   7   9
ENDBRANCH   6   7
ENDBRANCH   5   6
ENDBRANCH   4   5
ENDBRANCH   3   4
ENDBRANCH   2   3
ENDBRANCH   1   2
BRANCH   1  28
ATOM     28  O   UNL     1      -1.675  10.204  -0.811  1.00  0.00    -0.376 OA
BRANCH  28  29
ATOM     29  C   UNL     1      -2.003  10.838  -2.018  1.00  0.00     0.202 C 
BRANCH  29  30
ATOM     30  C   UNL     1      -2.921  10.020  -2.929  1.00  0.00     0.261 C 
BRANCH  30  31
ATOM     31  O   UNL     1      -2.245   8.922  -3.586  1.00  0.00    -0.460 OA
BRANCH  31  32
ATOM     32  C   UNL     1      -2.569   7.622  -3.228  1.00  0.00     0.338 C 
ATOM     33  O   UNL     1      -3.056   6.856  -4.009  1.00  0.00    -0.246 OA
BRANCH  32  34
ATOM     34  C   UNL     1      -1.901   7.238  -1.944  1.00  0.00     0.060 A 
ATOM     35  C   UNL     1      -2.404   6.562  -0.828  1.00  0.00     0.016 A 
ATOM     36  C   UNL     1      -0.664   7.724  -1.803  1.00  0.00     0.016 A 
ATOM     37  C   UNL     1      -1.771   6.529   0.502  1.00  0.00     0.010 A 
ATOM     38  C   UNL     1      -0.211   7.844  -0.494  1.00  0.00     0.010 A 
ATOM     39  C   UNL     1      -0.647   7.295   0.796  1.00  0.00    -0.014 A 
BRANCH  39  40
ATOM     40  C   UNL     1       0.110   7.566   2.421  1.00  0.00     0.031 A 
ATOM     41  C   UNL     1       1.830   7.447   2.963  1.00  0.00     0.074 A 
ATOM     42  C   UNL     1      -0.628   7.886   3.514  1.00  0.00     0.049 A 
ATOM     43  N   UNL     1       2.373   8.279   3.830  1.00  0.00    -0.248 NA
ATOM     44  C   UNL     1       3.037   6.666   2.406  1.00  0.00     0.031 C 
ATOM     45  C   UNL     1      -0.173   8.728   4.628  1.00  0.00     0.029 A 
ATOM     46  N   UNL     1      -1.928   7.566   3.875  1.00  0.00    -0.354 N 
ATOM     47  C   UNL     1       3.768   8.255   3.743  1.00  0.00     0.074 A 
ATOM     48  C   UNL     1       4.143   7.299   2.779  1.00  0.00     0.031 C 
ATOM     49  C   UNL     1      -1.044   8.653   5.639  1.00  0.00     0.029 A 
ATOM     50  C   UNL     1      -1.994   7.630   5.277  1.00  0.00     0.049 A 
ATOM     51  H   UNL     1      -2.666   7.337   3.264  1.00  0.00     0.167 HD
ATOM     52  C   UNL     1       4.596   8.920   4.582  1.00  0.00     0.031 A 
ATOM     53  C   UNL     1      -2.221   6.498   5.997  1.00  0.00     0.031 A 
ATOM     54  C   UNL     1       3.969   8.940   5.873  1.00  0.00     0.049 A 
ATOM     55  C   UNL     1      -1.079   6.143   6.910  1.00  0.00     0.074 A 
ATOM     56  C   UNL     1       3.128   9.828   6.504  1.00  0.00     0.029 A 
ATOM     57  N   UNL     1       3.798   7.701   6.482  1.00  0.00    -0.354 N 
ATOM     58  N   UNL     1       0.125   6.642   6.799  1.00  0.00    -0.248 NA
ATOM     59  C   UNL     1      -1.205   5.244   8.051  1.00  0.00     0.031 C 
ATOM     60  C   UNL     1       2.293   9.051   7.360  1.00  0.00     0.029 A 
ATOM     61  C   UNL     1       2.691   7.721   7.302  1.00  0.00     0.049 A 
ATOM     62  H   UNL     1       4.385   6.922   6.346  1.00  0.00     0.167 HD
ATOM     63  C   UNL     1       0.918   6.157   7.796  1.00  0.00     0.074 A 
ATOM     64  C   UNL     1       0.038   5.290   8.561  1.00  0.00     0.031 C 
ATOM     65  C   UNL     1       2.236   6.488   7.933  1.00  0.00     0.031 A 
BRANCH  52  66
ATOM     66  C   UNL     1       5.954   9.479   4.213  1.00  0.00    -0.014 A 
ATOM     67  C   UNL     1       6.692  10.178   5.187  1.00  0.00     0.010 A 
ATOM     68  C   UNL     1       6.458   9.539   2.889  1.00  0.00     0.010 A 
ATOM     69  C   UNL     1       7.838  10.928   4.861  1.00  0.00     0.020 A 
ATOM     70  C   UNL     1       7.622  10.264   2.555  1.00  0.00     0.020 A 
ATOM     71  C   UNL     1       8.289  10.981   3.543  1.00  0.00     0.054 A 
BRANCH  71  72
ATOM     72  S   UNL     1       9.706  12.046   3.134  1.00  0.00     0.124 S 
ATOM     73  O   UNL     1       9.185  13.381   3.417  1.00  0.00    -0.237 OA
ATOM     74  O   UNL     1      10.741  11.568   4.048  1.00  0.00    -0.237 OA
ATOM     75  O   UNL     1       9.956  11.769   1.720  1.00  0.00    -0.744 OA
ENDBRANCH  71  72
ENDBRANCH  52  66
BRANCH  53  76
ATOM     76  C   UNL     1      -3.252   5.631   5.351  1.00  0.00    -0.014 A 
ATOM     77  C   UNL     1      -4.561   6.164   5.405  1.00  0.00     0.010 A 
ATOM     78  C   UNL     1      -2.910   4.800   4.263  1.00  0.00     0.010 A 
ATOM     79  C   UNL     1      -5.414   6.079   4.304  1.00  0.00     0.020 A 
ATOM     80  C   UNL     1      -3.779   4.702   3.156  1.00  0.00     0.020 A 
ATOM     81  C   UNL     1      -4.992   5.408   3.160  1.00  0.00     0.054 A 
BRANCH  81  82
ATOM     82  S   UNL     1      -5.874   5.759   1.605  1.00  0.00     0.124 S 
ATOM     83  O   UNL     1      -6.555   4.504   1.319  1.00  0.00    -0.237 OA
ATOM     84  O   UNL     1      -6.738   6.893   1.927  1.00  0.00    -0.237 OA
ATOM     85  O   UNL     1      -4.790   6.110   0.706  1.00  0.00    -0.744 OA
ENDBRANCH  81  82
ENDBRANCH  53  76
BRANCH  65  86
ATOM     86  C   UNL     1       3.190   5.672   8.764  1.00  0.00    -0.014 A 
ATOM     87  C   UNL     1       2.971   4.316   9.057  1.00  0.00     0.010 A 
ATOM     88  C   UNL     1       4.413   6.235   9.189  1.00  0.00     0.010 A 
ATOM     89  C   UNL     1       3.844   3.601   9.879  1.00  0.00     0.020 A 
ATOM     90  C   UNL     1       5.329   5.508   9.951  1.00  0.00     0.020 A 
ATOM     91  C   UNL     1       5.005   4.214  10.344  1.00  0.00     0.054 A 
BRANCH  91  92
ATOM     92  S   UNL     1       6.086   3.309  11.471  1.00  0.00     0.124 S 
ATOM     93  O   UNL     1       5.450   3.568  12.760  1.00  0.00    -0.237 OA
ATOM     94  O   UNL     1       5.986   1.933  10.989  1.00  0.00    -0.237 OA
ATOM     95  O   UNL     1       7.389   3.938  11.276  1.00  0.00    -0.744 OA
ENDBRANCH  91  92
ENDBRANCH  65  86
ENDBRANCH  39  40
ENDBRANCH  32  34
ENDBRANCH  31  32
ENDBRANCH  30  31
ENDBRANCH  29  30
ENDBRANCH  28  29
ENDBRANCH   1  28
TORSDOF 24
