REMARK SMILES CC[C@H]1SC[C@H](C(=O)OCCOCCOCCOC(=O)c2ccc(-c3c4nc(c(-c5ccc(S(=O)(=O)[O-])cc5)c5ccc([nH]5)c(-c5ccc(S(=O)(=O)[O-])cc5)c5nc(c(-c6ccc(S(=O)(=O)[O-])cc6)c6ccc3[nH]6)C=C5)C=C4)cc2)N1C(=O)Cc1ccc(F)c(F)c1
REMARK SMILES IDX 13 1 12 2 11 3 10 4 9 5 7 6 8 7 6 8 3 9 4 10 81 11 5 12 2 13
REMARK SMILES IDX 1 14 82 15 83 16 84 17 85 18 86 19 92 20 87 21 90 22 88 23
REMARK SMILES IDX 91 24 89 25 14 26 15 27 16 28 17 29 18 30 19 31 20 32 21 33
REMARK SMILES IDX 22 34 80 35 23 36 79 37 24 38 25 39 26 40 73 41 27 42 78 43
REMARK SMILES IDX 72 44 74 45 28 46 77 47 71 48 70 49 29 51 59 52 40 53 58 54
REMARK SMILES IDX 41 55 44 56 57 57 75 58 42 59 43 60 56 62 76 63 45 64 30 65
REMARK SMILES IDX 31 66 39 67 32 68 38 69 33 70 34 71 35 72 36 73 37 74 60 75
REMARK SMILES IDX 61 76 69 77 62 78 68 79 63 80 64 81 65 82 66 83 67 84 46 85
REMARK SMILES IDX 47 86 55 87 48 88 54 89 49 90 50 91 51 92 52 93 53 94
REMARK H PARENT 74 50 44 61
REMARK Flexibility Score: inf
ROOT
ATOM      1  C   UNL     1       0.791  -2.201  -6.968  1.00  0.00     0.188 C 
ENDROOT
BRANCH   1   2
ATOM      2  O   UNL     1      -0.160  -2.925  -7.743  1.00  0.00    -0.376 OA
BRANCH   2   3
ATOM      3  C   UNL     1      -1.360  -2.274  -8.128  1.00  0.00     0.202 C 
BRANCH   3   4
ATOM      4  C   UNL     1      -2.364  -2.030  -7.003  1.00  0.00     0.261 C 
BRANCH   4   5
ATOM      5  O   UNL     1      -1.831  -1.269  -5.892  1.00  0.00    -0.462 OA
BRANCH   5   6
ATOM      6  C   UNL     1      -1.877  -1.892  -4.686  1.00  0.00     0.329 C 
ATOM      7  O   UNL     1      -2.358  -3.014  -4.554  1.00  0.00    -0.250 OA
BRANCH   6   8
ATOM      8  C   UNL     1      -1.505  -0.985  -3.470  1.00  0.00     0.206 C 
ATOM      9  C   UNL     1       0.633  -0.621  -2.244  1.00  0.00     0.144 C 
ATOM     10  S   UNL     1       0.128  -2.321  -1.909  1.00  0.00    -0.134 SA
ATOM     11  N   UNL     1      -0.209  -0.209  -3.374  1.00  0.00    -0.316 N 
ATOM     12  C   UNL     1      -1.596  -1.905  -2.234  1.00  0.00     0.109 C 
BRANCH   9  13
ATOM     13  C   UNL     1       0.348   0.250  -0.995  1.00  0.00     0.033 C 
ATOM     14  C   UNL     1       1.185  -0.103   0.227  1.00  0.00     0.007 C 
ENDBRANCH   9  13
BRANCH  11  15
ATOM     15  C   UNL     1      -0.010   1.007  -4.022  1.00  0.00     0.228 C 
ATOM     16  O   UNL     1      -0.937   1.582  -4.596  1.00  0.00    -0.274 OA
BRANCH  15  17
ATOM     17  C   UNL     1       1.421   1.578  -4.102  1.00  0.00     0.135 C 
BRANCH  17  18
ATOM     18  C   UNL     1       1.867   2.551  -3.032  1.00  0.00    -0.036 A 
ATOM     19  C   UNL     1       1.293   3.827  -2.933  1.00  0.00     0.007 A 
ATOM     20  C   UNL     1       2.904   2.210  -2.139  1.00  0.00     0.046 A 
ATOM     21  C   UNL     1       1.709   4.720  -1.937  1.00  0.00     0.043 A 
ATOM     22  C   UNL     1       3.293   3.095  -1.135  1.00  0.00     0.159 A 
ATOM     23  C   UNL     1       2.696   4.342  -1.032  1.00  0.00     0.158 A 
ATOM     24  F   UNL     1       4.236   2.723  -0.259  1.00  0.00    -0.204 F 
ATOM     25  F   UNL     1       3.061   5.191  -0.061  1.00  0.00    -0.204 F 
ENDBRANCH  17  18
ENDBRANCH  15  17
ENDBRANCH  11  15
ENDBRANCH   6   8
ENDBRANCH   5   6
ENDBRANCH   4   5
ENDBRANCH   3   4
ENDBRANCH   2   3
ENDBRANCH   1   2
BRANCH   1  26
ATOM     26  C   UNL     1       0.804  -0.669  -7.035  1.00  0.00     0.188 C 
BRANCH  26  27
ATOM     27  O   UNL     1       0.704  -0.190  -8.369  1.00  0.00    -0.376 OA
BRANCH  27  28
ATOM     28  C   UNL     1       1.596   0.874  -8.667  1.00  0.00     0.202 C 
BRANCH  28  29
ATOM     29  C   UNL     1       2.865   0.287  -9.289  1.00  0.00     0.261 C 
BRANCH  29  30
ATOM     30  O   UNL     1       3.593  -0.597  -8.413  1.00  0.00    -0.460 OA
BRANCH  30  31
ATOM     31  C   UNL     1       4.107  -0.040  -7.301  1.00  0.00     0.338 C 
ATOM     32  O   UNL     1       4.023   1.136  -6.955  1.00  0.00    -0.246 OA
BRANCH  31  33
ATOM     33  C   UNL     1       4.636  -1.099  -6.431  1.00  0.00     0.060 A 
ATOM     34  C   UNL     1       4.069  -1.267  -5.163  1.00  0.00     0.016 A 
ATOM     35  C   UNL     1       5.725  -1.870  -6.824  1.00  0.00     0.016 A 
ATOM     36  C   UNL     1       4.625  -2.151  -4.248  1.00  0.00     0.010 A 
ATOM     37  C   UNL     1       6.278  -2.769  -5.912  1.00  0.00     0.010 A 
ATOM     38  C   UNL     1       5.756  -2.885  -4.609  1.00  0.00    -0.014 A 
BRANCH  38  39
ATOM     39  C   UNL     1       6.491  -3.670  -3.593  1.00  0.00     0.031 A 
ATOM     40  C   UNL     1       7.827  -3.165  -3.130  1.00  0.00     0.074 A 
ATOM     41  C   UNL     1       5.983  -4.812  -3.096  1.00  0.00     0.049 A 
ATOM     42  N   UNL     1       8.750  -3.779  -2.440  1.00  0.00    -0.248 NA
ATOM     43  C   UNL     1       8.171  -1.782  -3.504  1.00  0.00     0.031 C 
ATOM     44  C   UNL     1       4.655  -5.352  -3.388  1.00  0.00     0.029 A 
ATOM     45  N   UNL     1       6.545  -5.735  -2.252  1.00  0.00    -0.354 N 
ATOM     46  C   UNL     1       9.804  -2.879  -2.341  1.00  0.00     0.074 A 
ATOM     47  C   UNL     1       9.406  -1.675  -3.036  1.00  0.00     0.031 C 
ATOM     48  C   UNL     1       4.513  -6.526  -2.750  1.00  0.00     0.029 A 
ATOM     49  C   UNL     1       5.762  -6.850  -2.066  1.00  0.00     0.049 A 
ATOM     50  H   UNL     1       7.422  -5.612  -1.821  1.00  0.00     0.167 HD
ATOM     51  C   UNL     1      11.002  -3.053  -1.736  1.00  0.00     0.031 A 
ATOM     52  C   UNL     1       6.045  -8.021  -1.463  1.00  0.00     0.031 A 
ATOM     53  C   UNL     1      11.377  -4.252  -1.037  1.00  0.00     0.049 A 
ATOM     54  C   UNL     1       7.413  -8.226  -0.867  1.00  0.00     0.074 A 
ATOM     55  C   UNL     1      12.566  -4.534  -0.390  1.00  0.00     0.029 A 
ATOM     56  N   UNL     1      10.564  -5.366  -0.891  1.00  0.00    -0.354 N 
ATOM     57  N   UNL     1       8.423  -7.390  -0.817  1.00  0.00    -0.248 NA
ATOM     58  C   UNL     1       7.683  -9.536  -0.257  1.00  0.00     0.031 C 
ATOM     59  C   UNL     1      12.489  -5.838   0.108  1.00  0.00     0.029 A 
ATOM     60  C   UNL     1      11.232  -6.346  -0.181  1.00  0.00     0.049 A 
ATOM     61  H   UNL     1       9.648  -5.447  -1.241  1.00  0.00     0.167 HD
ATOM     62  C   UNL     1       9.439  -8.063  -0.147  1.00  0.00     0.074 A 
ATOM     63  C   UNL     1       8.920  -9.372   0.194  1.00  0.00     0.031 C 
ATOM     64  C   UNL     1      10.689  -7.637   0.160  1.00  0.00     0.031 A 
BRANCH  51  65
ATOM     65  C   UNL     1      12.010  -1.945  -1.857  1.00  0.00    -0.014 A 
ATOM     66  C   UNL     1      11.872  -0.741  -1.145  1.00  0.00     0.010 A 
ATOM     67  C   UNL     1      13.135  -2.128  -2.683  1.00  0.00     0.010 A 
ATOM     68  C   UNL     1      12.824   0.273  -1.283  1.00  0.00     0.020 A 
ATOM     69  C   UNL     1      14.101  -1.127  -2.805  1.00  0.00     0.020 A 
ATOM     70  C   UNL     1      13.930   0.075  -2.116  1.00  0.00     0.054 A 
BRANCH  70  71
ATOM     71  S   UNL     1      15.162   1.399  -2.263  1.00  0.00     0.124 S 
ATOM     72  O   UNL     1      14.459   2.371  -3.097  1.00  0.00    -0.237 OA
ATOM     73  O   UNL     1      15.371   1.798  -0.874  1.00  0.00    -0.237 OA
ATOM     74  O   UNL     1      16.302   0.743  -2.898  1.00  0.00    -0.744 OA
ENDBRANCH  70  71
ENDBRANCH  51  65
BRANCH  52  75
ATOM     75  C   UNL     1       5.035  -9.114  -1.454  1.00  0.00    -0.014 A 
ATOM     76  C   UNL     1       4.411  -9.504  -0.256  1.00  0.00     0.010 A 
ATOM     77  C   UNL     1       4.687  -9.768  -2.650  1.00  0.00     0.010 A 
ATOM     78  C   UNL     1       3.470 -10.538  -0.254  1.00  0.00     0.020 A 
ATOM     79  C   UNL     1       3.726 -10.783  -2.656  1.00  0.00     0.020 A 
ATOM     80  C   UNL     1       3.132 -11.170  -1.454  1.00  0.00     0.054 A 
BRANCH  80  81
ATOM     81  S   UNL     1       1.874 -12.477  -1.434  1.00  0.00     0.124 S 
ATOM     82  O   UNL     1       2.609 -13.596  -0.854  1.00  0.00    -0.237 OA
ATOM     83  O   UNL     1       0.830 -11.900  -0.591  1.00  0.00    -0.237 OA
ATOM     84  O   UNL     1       1.515 -12.627  -2.843  1.00  0.00    -0.744 OA
ENDBRANCH  80  81
ENDBRANCH  52  75
BRANCH  64  85
ATOM     85  C   UNL     1      11.572  -8.567   0.946  1.00  0.00    -0.014 A 
ATOM     86  C   UNL     1      12.191  -9.672   0.338  1.00  0.00     0.010 A 
ATOM     87  C   UNL     1      11.857  -8.272   2.292  1.00  0.00     0.010 A 
ATOM     88  C   UNL     1      13.073 -10.474   1.067  1.00  0.00     0.020 A 
ATOM     89  C   UNL     1      12.755  -9.057   3.017  1.00  0.00     0.020 A 
ATOM     90  C   UNL     1      13.353 -10.158   2.401  1.00  0.00     0.054 A 
BRANCH  90  91
ATOM     91  S   UNL     1      14.558 -11.169   3.305  1.00  0.00     0.124 S 
ATOM     92  O   UNL     1      13.797 -12.386   3.570  1.00  0.00    -0.237 OA
ATOM     93  O   UNL     1      15.648 -11.306   2.342  1.00  0.00    -0.237 OA
ATOM     94  O   UNL     1      14.874 -10.362   4.481  1.00  0.00    -0.744 OA
ENDBRANCH  90  91
ENDBRANCH  64  85
ENDBRANCH  38  39
ENDBRANCH  31  33
ENDBRANCH  30  31
ENDBRANCH  29  30
ENDBRANCH  28  29
ENDBRANCH  27  28
ENDBRANCH  26  27
ENDBRANCH   1  26
TORSDOF 24
