REMARK SMILES COc1cccc(-c2c(C(=O)OCCOCCOCCOC(=O)c3ccc(-c4c5nc(c(-c6ccc(S(=O)(=O)[O-])cc6)c6ccc([nH]6)c(-c6ccc(S(=O)(=O)[O-])cc6)c6nc(c(-c7ccc(S(=O)(=O)[O-])cc7)c7ccc4[nH]7)C=C6)C=C5)cc3)nnn2-c2ccc(OC(F)(F)F)cc2)c1
REMARK SMILES IDX 16 1 15 2 14 3 13 4 12 5 10 6 11 7 9 8 8 9 86 10 84 11 85 12
REMARK SMILES IDX 7 13 3 14 4 15 98 16 5 17 6 18 2 19 1 20 87 21 88 22 97 23
REMARK SMILES IDX 89 24 96 25 90 26 91 27 92 28 93 29 94 30 95 31 17 32 18 33
REMARK SMILES IDX 19 34 20 35 21 36 22 37 23 38 24 39 25 40 83 41 26 42 82 43
REMARK SMILES IDX 27 44 28 45 29 46 76 47 30 48 81 49 75 50 77 51 31 52 80 53
REMARK SMILES IDX 74 54 73 55 32 57 62 58 43 59 61 60 44 61 47 62 60 63 78 64
REMARK SMILES IDX 45 65 46 66 59 68 79 69 48 70 33 71 34 72 42 73 35 74 41 75
REMARK SMILES IDX 36 76 37 77 38 78 39 79 40 80 63 81 64 82 72 83 65 84 71 85
REMARK SMILES IDX 66 86 67 87 68 88 69 89 70 90 49 91 50 92 58 93 51 94 57 95
REMARK SMILES IDX 52 96 53 97 54 98 55 99 56 100
REMARK H PARENT 77 56 47 67
REMARK Flexibility Score: inf
ROOT
ATOM      1  C   UNL     1       4.872   3.900   5.744  1.00  0.00     0.188 C 
ENDROOT
BRANCH   1   2
ATOM      2  O   UNL     1       4.219   4.560   6.817  1.00  0.00    -0.376 OA
BRANCH   2   3
ATOM      3  C   UNL     1       2.959   5.183   6.621  1.00  0.00     0.202 C 
BRANCH   3   4
ATOM      4  C   UNL     1       2.643   6.021   5.363  1.00  0.00     0.261 C 
BRANCH   4   5
ATOM      5  O   UNL     1       3.001   5.430   4.105  1.00  0.00    -0.458 OA
BRANCH   5   6
ATOM      6  C   UNL     1       4.031   6.017   3.424  1.00  0.00     0.361 C 
ATOM      7  O   UNL     1       4.521   7.090   3.717  1.00  0.00    -0.244 OA
BRANCH   6   8
ATOM      8  C   UNL     1       4.569   5.162   2.369  1.00  0.00     0.198 A 
ATOM      9  C   UNL     1       3.928   4.369   1.425  1.00  0.00     0.109 A 
ATOM     10  N   UNL     1       4.993   3.898   0.658  1.00  0.00    -0.212 N 
ATOM     11  N   UNL     1       5.930   4.952   2.279  1.00  0.00    -0.122 NA
ATOM     12  N   UNL     1       6.157   4.075   1.313  1.00  0.00    -0.061 NA
BRANCH   9  13
ATOM     13  C   UNL     1       2.522   4.056   1.139  1.00  0.00     0.007 A 
ATOM     14  C   UNL     1       0.838   2.477   0.335  1.00  0.00     0.119 A 
ATOM     15  C   UNL     1      -0.096   3.512   0.315  1.00  0.00     0.046 A 
ATOM     16  C   UNL     1       2.139   2.747   0.767  1.00  0.00     0.056 A 
ATOM     17  C   UNL     1       0.253   4.795   0.738  1.00  0.00     0.005 A 
ATOM     18  C   UNL     1       1.558   5.067   1.145  1.00  0.00     0.011 A 
BRANCH  14  19
ATOM     19  O   UNL     1       0.374   1.284  -0.145  1.00  0.00    -0.497 OA
ATOM     20  C   UNL     1       1.105   0.112   0.197  1.00  0.00     0.278 C 
ENDBRANCH  14  19
ENDBRANCH   9  13
BRANCH  10  21
ATOM     21  C   UNL     1       4.980   3.494  -0.696  1.00  0.00     0.067 A 
ATOM     22  C   UNL     1       5.771   2.433  -1.136  1.00  0.00     0.032 A 
ATOM     23  C   UNL     1       4.174   4.197  -1.597  1.00  0.00     0.032 A 
ATOM     24  C   UNL     1       5.681   2.034  -2.475  1.00  0.00     0.049 A 
ATOM     25  C   UNL     1       4.127   3.822  -2.937  1.00  0.00     0.049 A 
ATOM     26  C   UNL     1       4.857   2.720  -3.381  1.00  0.00     0.129 A 
BRANCH  26  27
ATOM     27  O   UNL     1       4.851   2.222  -4.653  1.00  0.00    -0.406 OA
BRANCH  27  28
ATOM     28  C   UNL     1       4.006   2.861  -5.597  1.00  0.00     0.573 C 
ATOM     29  F   UNL     1       2.717   2.857  -5.193  1.00  0.00    -0.132 F 
ATOM     30  F   UNL     1       4.402   4.135  -5.817  1.00  0.00    -0.132 F 
ATOM     31  F   UNL     1       4.075   2.194  -6.771  1.00  0.00    -0.132 F 
ENDBRANCH  27  28
ENDBRANCH  26  27
ENDBRANCH  10  21
ENDBRANCH   6   8
ENDBRANCH   5   6
ENDBRANCH   4   5
ENDBRANCH   3   4
ENDBRANCH   2   3
ENDBRANCH   1   2
BRANCH   1  32
ATOM     32  C   UNL     1       4.115   2.864   4.881  1.00  0.00     0.188 C 
BRANCH  32  33
ATOM     33  O   UNL     1       2.706   2.943   4.910  1.00  0.00    -0.376 OA
BRANCH  33  34
ATOM     34  C   UNL     1       1.891   2.096   5.708  1.00  0.00     0.202 C 
BRANCH  34  35
ATOM     35  C   UNL     1       2.323   1.460   7.029  1.00  0.00     0.261 C 
BRANCH  35  36
ATOM     36  O   UNL     1       3.699   1.540   7.305  1.00  0.00    -0.460 OA
BRANCH  36  37
ATOM     37  C   UNL     1       4.421   0.559   6.725  1.00  0.00     0.338 C 
ATOM     38  O   UNL     1       4.033  -0.263   5.919  1.00  0.00    -0.246 OA
BRANCH  37  39
ATOM     39  C   UNL     1       5.786   0.639   7.254  1.00  0.00     0.060 A 
ATOM     40  C   UNL     1       6.723  -0.177   6.619  1.00  0.00     0.016 A 
ATOM     41  C   UNL     1       5.903   1.052   8.584  1.00  0.00     0.016 A 
ATOM     42  C   UNL     1       7.569  -0.895   7.424  1.00  0.00     0.010 A 
ATOM     43  C   UNL     1       6.697   0.293   9.389  1.00  0.00     0.010 A 
ATOM     44  C   UNL     1       7.426  -0.742   8.803  1.00  0.00    -0.014 A 
BRANCH  44  45
ATOM     45  C   UNL     1       8.050  -1.707   9.671  1.00  0.00     0.031 A 
ATOM     46  C   UNL     1       9.431  -1.320  10.017  1.00  0.00     0.074 A 
ATOM     47  C   UNL     1       7.338  -2.722  10.194  1.00  0.00     0.049 A 
ATOM     48  N   UNL     1      10.529  -1.841   9.583  1.00  0.00    -0.248 NA
ATOM     49  C   UNL     1       9.608  -0.036  10.722  1.00  0.00     0.031 C 
ATOM     50  C   UNL     1       5.888  -2.946  10.135  1.00  0.00     0.029 A 
ATOM     51  N   UNL     1       7.755  -3.710  11.019  1.00  0.00    -0.354 N 
ATOM     52  C   UNL     1      11.532  -1.073  10.159  1.00  0.00     0.074 A 
ATOM     53  C   UNL     1      10.915   0.159  10.567  1.00  0.00     0.031 C 
ATOM     54  C   UNL     1       5.538  -3.829  11.102  1.00  0.00     0.029 A 
ATOM     55  C   UNL     1       6.744  -4.311  11.756  1.00  0.00     0.049 A 
ATOM     56  H   UNL     1       8.700  -3.980  11.091  1.00  0.00     0.167 HD
ATOM     57  C   UNL     1      12.706  -1.620  10.574  1.00  0.00     0.031 A 
ATOM     58  C   UNL     1       6.912  -5.053  12.883  1.00  0.00     0.031 A 
ATOM     59  C   UNL     1      12.888  -2.943  10.039  1.00  0.00     0.049 A 
ATOM     60  C   UNL     1       8.356  -5.418  12.950  1.00  0.00     0.074 A 
ATOM     61  C   UNL     1      12.996  -3.459   8.764  1.00  0.00     0.029 A 
ATOM     62  N   UNL     1      12.547  -3.995  10.860  1.00  0.00    -0.354 N 
ATOM     63  N   UNL     1       8.940  -6.203  12.085  1.00  0.00    -0.248 NA
ATOM     64  C   UNL     1       9.250  -4.511  13.661  1.00  0.00     0.031 C 
ATOM     65  C   UNL     1      12.283  -4.690   8.804  1.00  0.00     0.029 A 
ATOM     66  C   UNL     1      11.841  -4.904  10.113  1.00  0.00     0.049 A 
ATOM     67  H   UNL     1      12.770  -4.080  11.815  1.00  0.00     0.167 HD
ATOM     68  C   UNL     1      10.177  -5.618  11.839  1.00  0.00     0.074 A 
ATOM     69  C   UNL     1      10.341  -4.620  12.896  1.00  0.00     0.031 C 
ATOM     70  C   UNL     1      10.816  -5.784  10.643  1.00  0.00     0.031 A 
BRANCH  57  71
ATOM     71  C   UNL     1      13.455  -1.126  11.787  1.00  0.00    -0.014 A 
ATOM     72  C   UNL     1      14.698  -1.706  12.095  1.00  0.00     0.010 A 
ATOM     73  C   UNL     1      12.879  -0.293  12.771  1.00  0.00     0.010 A 
ATOM     74  C   UNL     1      15.299  -1.508  13.345  1.00  0.00     0.020 A 
ATOM     75  C   UNL     1      13.490  -0.048  13.998  1.00  0.00     0.020 A 
ATOM     76  C   UNL     1      14.682  -0.687  14.291  1.00  0.00     0.054 A 
BRANCH  76  77
ATOM     77  S   UNL     1      15.409  -0.515  15.936  1.00  0.00     0.124 S 
ATOM     78  O   UNL     1      15.266  -1.867  16.468  1.00  0.00    -0.237 OA
ATOM     79  O   UNL     1      16.772  -0.092  15.627  1.00  0.00    -0.237 OA
ATOM     80  O   UNL     1      14.576   0.501  16.575  1.00  0.00    -0.744 OA
ENDBRANCH  76  77
ENDBRANCH  57  71
BRANCH  58  81
ATOM     81  C   UNL     1       6.005  -5.117  14.063  1.00  0.00    -0.014 A 
ATOM     82  C   UNL     1       6.113  -6.134  15.030  1.00  0.00     0.010 A 
ATOM     83  C   UNL     1       5.176  -4.017  14.372  1.00  0.00     0.010 A 
ATOM     84  C   UNL     1       5.442  -6.038  16.267  1.00  0.00     0.020 A 
ATOM     85  C   UNL     1       4.503  -3.915  15.596  1.00  0.00     0.020 A 
ATOM     86  C   UNL     1       4.650  -4.920  16.547  1.00  0.00     0.054 A 
BRANCH  86  87
ATOM     87  S   UNL     1       3.896  -4.733  18.192  1.00  0.00     0.124 S 
ATOM     88  O   UNL     1       2.890  -5.791  18.197  1.00  0.00    -0.237 OA
ATOM     89  O   UNL     1       5.031  -4.936  19.088  1.00  0.00    -0.237 OA
ATOM     90  O   UNL     1       3.362  -3.372  18.174  1.00  0.00    -0.744 OA
ENDBRANCH  86  87
ENDBRANCH  58  81
BRANCH  70  91
ATOM     91  C   UNL     1      10.292  -6.825   9.679  1.00  0.00    -0.014 A 
ATOM     92  C   UNL     1       9.032  -6.752   9.050  1.00  0.00     0.010 A 
ATOM     93  C   UNL     1      11.202  -7.805   9.246  1.00  0.00     0.010 A 
ATOM     94  C   UNL     1       8.697  -7.644   8.017  1.00  0.00     0.020 A 
ATOM     95  C   UNL     1      10.881  -8.681   8.208  1.00  0.00     0.020 A 
ATOM     96  C   UNL     1       9.628  -8.601   7.600  1.00  0.00     0.054 A 
BRANCH  96  97
ATOM     97  S   UNL     1       9.226  -9.705   6.216  1.00  0.00     0.124 S 
ATOM     98  O   UNL     1       8.204 -10.575   6.790  1.00  0.00    -0.237 OA
ATOM     99  O   UNL     1       8.760  -8.780   5.185  1.00  0.00    -0.237 OA
ATOM    100  O   UNL     1      10.498 -10.362   5.914  1.00  0.00    -0.744 OA
ENDBRANCH  96  97
ENDBRANCH  70  91
ENDBRANCH  44  45
ENDBRANCH  37  39
ENDBRANCH  36  37
ENDBRANCH  35  36
ENDBRANCH  34  35
ENDBRANCH  33  34
ENDBRANCH  32  33
ENDBRANCH   1  32
TORSDOF 25
