REMARK SMILES O=C(OCCOCCOCCOC(=O)c1ccccc1C(=O)Nc1ccc(N2C(=O)[C@H]3[C@@H]4CC[C@@H](C4)[C@@H]3C2=O)cc1)c1ccc(-c2c3nc(c(-c4ccc(S(=O)(=O)[O-])cc4)c4ccc([nH]4)c(-c4ccc(S(=O)(=O)[O-])cc4)c4nc(c(-c5ccc(S(=O)(=O)[O-])cc5)c5ccc2[nH]5)C=C4)C=C3)cc1
REMARK SMILES IDX 7 1 6 2 5 3 4 4 3 5 2 6 1 7 42 8 43 9 101 10 44 11 100 12
REMARK SMILES IDX 45 13 46 14 47 15 94 16 48 17 99 18 93 19 95 20 49 21 98 22
REMARK SMILES IDX 92 23 91 24 50 26 80 27 61 28 79 29 62 30 65 31 78 32 96 33
REMARK SMILES IDX 63 34 64 35 77 37 97 38 66 39 51 40 52 41 60 42 53 43 59 44
REMARK SMILES IDX 54 45 55 46 56 47 57 48 58 49 81 50 82 51 90 52 83 53 89 54
REMARK SMILES IDX 84 55 85 56 86 57 87 58 88 59 67 60 68 61 76 62 69 63 75 64
REMARK SMILES IDX 70 65 71 66 72 67 73 68 74 69 8 70 9 71 10 72 11 73 12 74
REMARK SMILES IDX 13 75 14 76 15 77 16 78 20 79 17 80 19 81 18 82 21 83 22 84
REMARK SMILES IDX 23 85 24 87 25 88 41 89 26 90 40 91 27 92 28 93 29 94 38 95
REMARK SMILES IDX 30 96 31 97 37 98 39 99 32 100 35 101 33 102 36 103 34 104
REMARK H PARENT 95 25 65 36 23 86
REMARK Flexibility Score: inf
ROOT
ATOM      1  C   UNL     1       0.586  -0.419  -1.679  1.00  0.00     0.188 C 
ENDROOT
BRANCH   1   2
ATOM      2  O   UNL     1       1.505   0.294  -0.817  1.00  0.00    -0.376 OA
BRANCH   2   3
ATOM      3  C   UNL     1       2.504  -0.509  -0.150  1.00  0.00     0.202 C 
BRANCH   3   4
ATOM      4  C   UNL     1       2.287  -0.877   1.317  1.00  0.00     0.261 C 
BRANCH   4   5
ATOM      5  O   UNL     1       0.981  -0.499   1.746  1.00  0.00    -0.460 OA
BRANCH   5   6
ATOM      6  C   UNL     1       0.698   0.647   2.410  1.00  0.00     0.338 C 
ATOM      7  O   UNL     1      -0.454   0.889   2.754  1.00  0.00    -0.246 OA
BRANCH   6   8
ATOM      8  C   UNL     1       1.786   1.575   2.816  1.00  0.00     0.060 A 
ATOM      9  C   UNL     1       2.783   2.007   1.942  1.00  0.00     0.016 A 
ATOM     10  C   UNL     1       1.778   2.068   4.122  1.00  0.00     0.016 A 
ATOM     11  C   UNL     1       3.827   2.817   2.381  1.00  0.00     0.010 A 
ATOM     12  C   UNL     1       2.778   2.951   4.544  1.00  0.00     0.010 A 
ATOM     13  C   UNL     1       3.832   3.309   3.685  1.00  0.00    -0.014 A 
BRANCH  13  14
ATOM     14  C   UNL     1       4.994   4.082   4.192  1.00  0.00     0.031 A 
ATOM     15  C   UNL     1       5.781   3.507   5.332  1.00  0.00     0.074 A 
ATOM     16  C   UNL     1       5.392   5.239   3.627  1.00  0.00     0.049 A 
ATOM     17  N   UNL     1       6.615   4.098   6.143  1.00  0.00    -0.248 NA
ATOM     18  C   UNL     1       5.577   2.075   5.609  1.00  0.00     0.031 C 
ATOM     19  C   UNL     1       4.818   5.843   2.426  1.00  0.00     0.029 A 
ATOM     20  N   UNL     1       6.398   6.104   3.978  1.00  0.00    -0.354 N 
ATOM     21  C   UNL     1       6.954   3.138   7.088  1.00  0.00     0.074 A 
ATOM     22  C   UNL     1       6.268   1.917   6.728  1.00  0.00     0.031 C 
ATOM     23  C   UNL     1       5.517   6.943   2.103  1.00  0.00     0.029 A 
ATOM     24  C   UNL     1       6.519   7.184   3.134  1.00  0.00     0.049 A 
ATOM     25  H   UNL     1       6.980   5.964   4.760  1.00  0.00     0.167 HD
ATOM     26  C   UNL     1       7.742   3.284   8.179  1.00  0.00     0.031 A 
ATOM     27  C   UNL     1       7.317   8.267   3.213  1.00  0.00     0.031 A 
ATOM     28  C   UNL     1       8.457   4.492   8.478  1.00  0.00     0.049 A 
ATOM     29  C   UNL     1       8.200   8.412   4.423  1.00  0.00     0.074 A 
ATOM     30  C   UNL     1       9.205   4.811   9.596  1.00  0.00     0.029 A 
ATOM     31  N   UNL     1       8.545   5.573   7.612  1.00  0.00    -0.354 N 
ATOM     32  N   UNL     1       8.359   7.584   5.430  1.00  0.00    -0.248 NA
ATOM     33  C   UNL     1       8.980   9.652   4.532  1.00  0.00     0.031 C 
ATOM     34  C   UNL     1       9.744   6.091   9.404  1.00  0.00     0.029 A 
ATOM     35  C   UNL     1       9.352   6.553   8.156  1.00  0.00     0.049 A 
ATOM     36  H   UNL     1       8.098   5.632   6.737  1.00  0.00     0.167 HD
ATOM     37  C   UNL     1       9.246   8.207   6.298  1.00  0.00     0.074 A 
ATOM     38  C   UNL     1       9.615   9.468   5.683  1.00  0.00     0.031 C 
ATOM     39  C   UNL     1       9.700   7.789   7.506  1.00  0.00     0.031 A 
BRANCH  26  40
ATOM     40  C   UNL     1       7.762   2.137   9.148  1.00  0.00    -0.014 A 
ATOM     41  C   UNL     1       8.484   0.960   8.888  1.00  0.00     0.010 A 
ATOM     42  C   UNL     1       6.966   2.215  10.306  1.00  0.00     0.010 A 
ATOM     43  C   UNL     1       8.361  -0.143   9.739  1.00  0.00     0.020 A 
ATOM     44  C   UNL     1       6.856   1.122  11.169  1.00  0.00     0.020 A 
ATOM     45  C   UNL     1       7.532  -0.061  10.863  1.00  0.00     0.054 A 
BRANCH  45  46
ATOM     46  S   UNL     1       7.340  -1.516  11.930  1.00  0.00     0.124 S 
ATOM     47  O   UNL     1       6.360  -2.305  11.187  1.00  0.00    -0.237 OA
ATOM     48  O   UNL     1       8.691  -2.072  11.971  1.00  0.00    -0.237 OA
ATOM     49  O   UNL     1       6.864  -0.957  13.192  1.00  0.00    -0.744 OA
ENDBRANCH  45  46
ENDBRANCH  26  40
BRANCH  27  50
ATOM     50  C   UNL     1       7.264   9.322   2.162  1.00  0.00    -0.014 A 
ATOM     51  C   UNL     1       8.346   9.514   1.285  1.00  0.00     0.010 A 
ATOM     52  C   UNL     1       6.123  10.133   2.018  1.00  0.00     0.010 A 
ATOM     53  C   UNL     1       8.290  10.494   0.286  1.00  0.00     0.020 A 
ATOM     54  C   UNL     1       6.052  11.095   1.006  1.00  0.00     0.020 A 
ATOM     55  C   UNL     1       7.141  11.279   0.152  1.00  0.00     0.054 A 
BRANCH  55  56
ATOM     56  S   UNL     1       7.038  12.502  -1.186  1.00  0.00     0.124 S 
ATOM     57  O   UNL     1       7.665  13.671  -0.577  1.00  0.00    -0.237 OA
ATOM     58  O   UNL     1       7.793  11.875  -2.268  1.00  0.00    -0.237 OA
ATOM     59  O   UNL     1       5.601  12.615  -1.426  1.00  0.00    -0.744 OA
ENDBRANCH  55  56
ENDBRANCH  27  50
BRANCH  39  60
ATOM     60  C   UNL     1      10.655   8.698   8.220  1.00  0.00    -0.014 A 
ATOM     61  C   UNL     1      10.183   9.803   8.947  1.00  0.00     0.010 A 
ATOM     62  C   UNL     1      12.031   8.413   8.202  1.00  0.00     0.010 A 
ATOM     63  C   UNL     1      11.078  10.627   9.632  1.00  0.00     0.020 A 
ATOM     64  C   UNL     1      12.928   9.227   8.896  1.00  0.00     0.020 A 
ATOM     65  C   UNL     1      12.446  10.337   9.597  1.00  0.00     0.054 A 
BRANCH  65  66
ATOM     66  S   UNL     1      13.594  11.389  10.526  1.00  0.00     0.124 S 
ATOM     67  O   UNL     1      13.802  12.500   9.601  1.00  0.00    -0.237 OA
ATOM     68  O   UNL     1      12.839  11.711  11.735  1.00  0.00    -0.237 OA
ATOM     69  O   UNL     1      14.754  10.525  10.737  1.00  0.00    -0.744 OA
ENDBRANCH  65  66
ENDBRANCH  39  60
ENDBRANCH  13  14
ENDBRANCH   6   8
ENDBRANCH   5   6
ENDBRANCH   4   5
ENDBRANCH   3   4
ENDBRANCH   2   3
ENDBRANCH   1   2
BRANCH   1  70
ATOM     70  C   UNL     1       0.336   0.071  -3.220  1.00  0.00     0.188 C 
BRANCH  70  71
ATOM     71  O   UNL     1       1.376  -0.173  -4.212  1.00  0.00    -0.376 OA
BRANCH  71  72
ATOM     72  C   UNL     1       2.016   0.876  -5.039  1.00  0.00     0.202 C 
BRANCH  72  73
ATOM     73  C   UNL     1       3.754   1.359  -4.768  1.00  0.00     0.261 C 
BRANCH  73  74
ATOM     74  O   UNL     1       4.497   2.005  -2.974  1.00  0.00    -0.460 OA
BRANCH  74  75
ATOM     75  C   UNL     1       4.622   2.829  -1.784  1.00  0.00     0.339 C 
ATOM     76  O   UNL     1       5.184   2.358  -0.791  1.00  0.00    -0.246 OA
BRANCH  75  77
ATOM     77  C   UNL     1       3.953   4.208  -1.588  1.00  0.00     0.072 A 
ATOM     78  C   UNL     1       2.842   4.307  -0.717  1.00  0.00     0.016 A 
ATOM     79  C   UNL     1       4.378   5.399  -2.205  1.00  0.00     0.054 A 
ATOM     80  C   UNL     1       2.251   5.541  -0.387  1.00  0.00     0.001 A 
ATOM     81  C   UNL     1       3.802   6.642  -1.837  1.00  0.00     0.015 A 
ATOM     82  C   UNL     1       2.757   6.716  -0.921  1.00  0.00     0.001 A 
BRANCH  79  83
ATOM     83  C   UNL     1       5.384   5.498  -3.281  1.00  0.00     0.256 C 
ATOM     84  O   UNL     1       6.154   6.456  -3.294  1.00  0.00    -0.269 OA
ATOM     85  N   UNL     1       5.487   4.562  -4.279  1.00  0.00    -0.322 N 
ATOM     86  H   UNL     1       6.090   4.780  -5.026  1.00  0.00     0.170 HD
BRANCH  85  87
ATOM     87  C   UNL     1       4.829   3.337  -4.345  1.00  0.00     0.041 A 
ATOM     88  C   UNL     1       5.974   1.973  -4.273  1.00  0.00     0.028 A 
ATOM     89  C   UNL     1       3.133   3.136  -3.766  1.00  0.00     0.028 A 
ATOM     90  C   UNL     1       5.526   0.419  -3.557  1.00  0.00     0.029 A 
ATOM     91  C   UNL     1       2.697   1.556  -2.943  1.00  0.00     0.029 A 
ATOM     92  C   UNL     1       3.892   0.141  -2.937  1.00  0.00     0.052 A 
BRANCH  92  93
ATOM     93  N   UNL     1       3.509  -1.273  -3.025  1.00  0.00    -0.250 N 
ATOM     94  C   UNL     1       3.055  -1.948  -4.189  1.00  0.00     0.237 C 
ATOM     95  C   UNL     1       3.951  -2.287  -2.184  1.00  0.00     0.237 C 
ATOM     96  O   UNL     1       3.326  -1.804  -5.367  1.00  0.00    -0.274 OA
ATOM     97  C   UNL     1       2.223  -3.041  -3.582  1.00  0.00     0.095 C 
ATOM     98  C   UNL     1       3.306  -3.582  -2.675  1.00  0.00     0.095 C 
ATOM     99  O   UNL     1       4.784  -2.239  -1.294  1.00  0.00    -0.274 OA
ATOM    100  C   UNL     1       1.290  -4.239  -3.797  1.00  0.00     0.002 C 
ATOM    101  C   UNL     1       2.541  -4.709  -1.968  1.00  0.00     0.002 C 
ATOM    102  C   UNL     1       0.251  -4.149  -2.629  1.00  0.00     0.005 C 
ATOM    103  C   UNL     1       2.067  -5.449  -3.247  1.00  0.00     0.009 C 
ATOM    104  C   UNL     1       1.163  -4.306  -1.377  1.00  0.00     0.005 C 
ENDBRANCH  92  93
ENDBRANCH  85  87
ENDBRANCH  79  83
ENDBRANCH  75  77
ENDBRANCH  74  75
ENDBRANCH  73  74
ENDBRANCH  72  73
ENDBRANCH  71  72
ENDBRANCH  70  71
ENDBRANCH   1  70
TORSDOF 23
