REMARK SMILES Cc1ccc(NC(=O)C[C@H]2C(=O)NCCN2C(=O)CCC(=O)OCCOCCOCCOC(=O)c2ccc(-c3c4nc(c(-c5ccc(S(=O)(=O)[O-])cc5)c5ccc([nH]5)c(-c5ccc(S(=O)(=O)[O-])cc5)c5nc(c(-c6ccc(S(=O)(=O)[O-])cc6)c6ccc3[nH]6)C=C5)C=C4)cc2)c(C)c1
REMARK SMILES IDX 26 1 25 2 24 3 23 4 21 5 22 6 20 7 19 8 17 9 18 10 16 11
REMARK SMILES IDX 10 12 11 13 12 14 13 15 15 16 14 17 9 19 7 20 6 21 8 23 5 24
REMARK SMILES IDX 1 25 2 26 3 27 97 28 4 29 95 30 96 31 27 32 28 33 29 34
REMARK SMILES IDX 30 35 31 36 32 37 33 38 34 39 35 40 36 41 94 42 37 43 93 44
REMARK SMILES IDX 38 45 39 46 40 47 87 48 41 49 92 50 86 51 88 52 42 53 91 54
REMARK SMILES IDX 85 55 84 56 43 58 73 59 54 60 72 61 55 62 58 63 71 64 89 65
REMARK SMILES IDX 56 66 57 67 70 69 90 70 59 71 44 72 45 73 53 74 46 75 52 76
REMARK SMILES IDX 47 77 48 78 49 79 50 80 51 81 74 82 75 83 83 84 76 85 82 86
REMARK SMILES IDX 77 87 78 88 79 89 80 90 81 91 60 92 61 93 69 94 62 95 68 96
REMARK SMILES IDX 63 97 64 98 65 99 66 100 67 101
REMARK H PARENT 13 18 6 22 88 57 58 68
REMARK Flexibility Score: inf
ROOT
ATOM      1  O   UNL     1      -2.479  -3.309   0.318  1.00  0.00    -0.376 OA
ENDROOT
BRANCH   1   2
ATOM      2  C   UNL     1      -1.743  -2.478   1.223  1.00  0.00     0.202 C 
BRANCH   2   3
ATOM      3  C   UNL     1      -0.913  -1.384   0.541  1.00  0.00     0.261 C 
BRANCH   3   4
ATOM      4  O   UNL     1      -1.803  -0.327   0.107  1.00  0.00    -0.463 OA
BRANCH   4   5
ATOM      5  C   UNL     1      -1.564   0.290  -1.060  1.00  0.00     0.306 C 
ATOM      6  O   UNL     1      -0.603   0.050  -1.781  1.00  0.00    -0.252 OA
BRANCH   5   7
ATOM      7  C   UNL     1      -2.631   1.292  -1.451  1.00  0.00     0.132 C 
BRANCH   7   8
ATOM      8  C   UNL     1      -3.780   1.744  -0.551  1.00  0.00     0.112 C 
BRANCH   8   9
ATOM      9  C   UNL     1      -3.858   2.805   0.574  1.00  0.00     0.223 C 
ATOM     10  O   UNL     1      -4.690   3.713   0.411  1.00  0.00    -0.275 OA
BRANCH   9  11
ATOM     11  N   UNL     1      -3.227   2.714   1.805  1.00  0.00    -0.328 N 
ATOM     12  C   UNL     1      -2.338   1.655   2.269  1.00  0.00     0.183 C 
ATOM     13  C   UNL     1      -2.735   1.000   3.620  1.00  0.00     0.243 C 
ATOM     14  O   UNL     1      -2.169   0.002   4.066  1.00  0.00    -0.273 OA
ATOM     15  N   UNL     1      -3.742   1.582   4.345  1.00  0.00    -0.353 N 
ATOM     16  C   UNL     1      -3.703   3.576   2.897  1.00  0.00     0.141 C 
ATOM     17  C   UNL     1      -4.506   2.724   3.881  1.00  0.00     0.137 C 
ATOM     18  H   UNL     1      -3.958   1.206   5.229  1.00  0.00     0.163 HD
BRANCH  12  19
ATOM     19  C   UNL     1      -0.833   1.964   2.247  1.00  0.00     0.135 C 
BRANCH  19  20
ATOM     20  C   UNL     1      -0.356   3.318   2.738  1.00  0.00     0.227 C 
ATOM     21  N   UNL     1      -0.514   4.506   2.090  1.00  0.00    -0.326 N 
ATOM     22  H   UNL     1      -0.106   5.262   2.571  1.00  0.00     0.169 HD
ATOM     23  O   UNL     1       0.179   3.387   3.855  1.00  0.00    -0.275 OA
BRANCH  21  24
ATOM     24  C   UNL     1      -1.130   4.894   0.887  1.00  0.00     0.044 A 
ATOM     25  C   UNL     1      -3.784   5.962  -2.337  1.00  0.00     0.044 C 
ATOM     26  C   UNL     1      -2.751   5.713  -1.277  1.00  0.00    -0.051 A 
ATOM     27  C   UNL     1      -2.802   6.399  -0.068  1.00  0.00     0.005 A 
ATOM     28  C   UNL     1      -1.788   4.712  -1.432  1.00  0.00     0.009 A 
ATOM     29  C   UNL     1      -1.978   6.010   0.991  1.00  0.00     0.026 A 
ATOM     30  C   UNL     1      -0.951   4.304  -0.367  1.00  0.00    -0.027 A 
ATOM     31  C   UNL     1       0.115   3.298  -0.673  1.00  0.00     0.046 C 
ENDBRANCH  21  24
ENDBRANCH  19  20
ENDBRANCH  12  19
ENDBRANCH   9  11
ENDBRANCH   8   9
ENDBRANCH   7   8
ENDBRANCH   5   7
ENDBRANCH   4   5
ENDBRANCH   3   4
ENDBRANCH   2   3
ENDBRANCH   1   2
BRANCH   1  32
ATOM     32  C   UNL     1      -3.279  -2.621  -0.631  1.00  0.00     0.188 C 
BRANCH  32  33
ATOM     33  C   UNL     1      -4.506  -1.911  -0.057  1.00  0.00     0.188 C 
BRANCH  33  34
ATOM     34  O   UNL     1      -4.378  -1.250   1.197  1.00  0.00    -0.376 OA
BRANCH  34  35
ATOM     35  C   UNL     1      -5.583  -0.660   1.717  1.00  0.00     0.202 C 
BRANCH  35  36
ATOM     36  C   UNL     1      -6.842  -1.548   1.727  1.00  0.00     0.261 C 
BRANCH  36  37
ATOM     37  O   UNL     1      -7.328  -1.948   0.427  1.00  0.00    -0.460 OA
BRANCH  37  38
ATOM     38  C   UNL     1      -7.459  -1.006  -0.544  1.00  0.00     0.338 C 
ATOM     39  O   UNL     1      -7.573   0.186  -0.374  1.00  0.00    -0.246 OA
BRANCH  38  40
ATOM     40  C   UNL     1      -7.120  -1.654  -1.855  1.00  0.00     0.060 A 
ATOM     41  C   UNL     1      -6.573  -0.854  -2.872  1.00  0.00     0.016 A 
ATOM     42  C   UNL     1      -7.157  -3.046  -2.022  1.00  0.00     0.016 A 
ATOM     43  C   UNL     1      -6.112  -1.433  -4.061  1.00  0.00     0.010 A 
ATOM     44  C   UNL     1      -6.684  -3.625  -3.201  1.00  0.00     0.010 A 
ATOM     45  C   UNL     1      -6.202  -2.819  -4.247  1.00  0.00    -0.014 A 
BRANCH  45  46
ATOM     46  C   UNL     1      -6.102  -3.411  -5.606  1.00  0.00     0.031 A 
ATOM     47  C   UNL     1      -7.400  -3.656  -6.332  1.00  0.00     0.074 A 
ATOM     48  C   UNL     1      -4.932  -3.749  -6.178  1.00  0.00     0.049 A 
ATOM     49  N   UNL     1      -7.620  -4.259  -7.469  1.00  0.00    -0.248 NA
ATOM     50  C   UNL     1      -8.620  -3.161  -5.668  1.00  0.00     0.031 C 
ATOM     51  C   UNL     1      -3.605  -3.527  -5.608  1.00  0.00     0.029 A 
ATOM     52  N   UNL     1      -4.680  -4.373  -7.378  1.00  0.00    -0.354 N 
ATOM     53  C   UNL     1      -8.999  -4.233  -7.644  1.00  0.00     0.074 A 
ATOM     54  C   UNL     1      -9.568  -3.587  -6.485  1.00  0.00     0.031 C 
ATOM     55  C   UNL     1      -2.679  -4.019  -6.454  1.00  0.00     0.029 A 
ATOM     56  C   UNL     1      -3.347  -4.627  -7.604  1.00  0.00     0.049 A 
ATOM     57  H   UNL     1      -5.390  -4.617  -8.016  1.00  0.00     0.167 HD
ATOM     58  C   UNL     1      -9.733  -4.701  -8.680  1.00  0.00     0.031 A 
ATOM     59  C   UNL     1      -2.743  -5.295  -8.611  1.00  0.00     0.031 A 
ATOM     60  C   UNL     1      -9.168  -5.359  -9.825  1.00  0.00     0.049 A 
ATOM     61  C   UNL     1      -3.586  -5.879  -9.721  1.00  0.00     0.074 A 
ATOM     62  C   UNL     1      -9.822  -5.863 -10.934  1.00  0.00     0.029 A 
ATOM     63  N   UNL     1      -7.817  -5.612 -10.002  1.00  0.00    -0.354 N 
ATOM     64  N   UNL     1      -4.888  -5.828  -9.885  1.00  0.00    -0.248 NA
ATOM     65  C   UNL     1      -2.878  -6.607 -10.786  1.00  0.00     0.031 C 
ATOM     66  C   UNL     1      -8.872  -6.477 -11.754  1.00  0.00     0.029 A 
ATOM     67  C   UNL     1      -7.618  -6.287 -11.192  1.00  0.00     0.049 A 
ATOM     68  H   UNL     1      -7.105  -5.349  -9.375  1.00  0.00     0.167 HD
ATOM     69  C   UNL     1      -5.148  -6.481 -11.088  1.00  0.00     0.074 A 
ATOM     70  C   UNL     1      -3.870  -6.915 -11.612  1.00  0.00     0.031 C 
ATOM     71  C   UNL     1      -6.336  -6.698 -11.707  1.00  0.00     0.031 A 
BRANCH  58  72
ATOM     72  C   UNL     1     -11.228  -4.551  -8.594  1.00  0.00    -0.014 A 
ATOM     73  C   UNL     1     -11.843  -3.288  -8.677  1.00  0.00     0.010 A 
ATOM     74  C   UNL     1     -12.032  -5.695  -8.443  1.00  0.00     0.010 A 
ATOM     75  C   UNL     1     -13.231  -3.169  -8.571  1.00  0.00     0.020 A 
ATOM     76  C   UNL     1     -13.422  -5.583  -8.370  1.00  0.00     0.020 A 
ATOM     77  C   UNL     1     -14.011  -4.319  -8.418  1.00  0.00     0.054 A 
BRANCH  77  78
ATOM     78  S   UNL     1     -15.812  -4.136  -8.309  1.00  0.00     0.124 S 
ATOM     79  O   UNL     1     -15.973  -3.530  -6.989  1.00  0.00    -0.237 OA
ATOM     80  O   UNL     1     -16.113  -3.264  -9.441  1.00  0.00    -0.237 OA
ATOM     81  O   UNL     1     -16.309  -5.504  -8.429  1.00  0.00    -0.744 OA
ENDBRANCH  77  78
ENDBRANCH  58  72
BRANCH  59  82
ATOM     82  C   UNL     1      -1.260  -5.472  -8.616  1.00  0.00    -0.014 A 
ATOM     83  C   UNL     1      -0.462  -4.847  -9.591  1.00  0.00     0.010 A 
ATOM     84  C   UNL     1      -0.637  -6.285  -7.651  1.00  0.00     0.010 A 
ATOM     85  C   UNL     1       0.923  -5.043  -9.611  1.00  0.00     0.020 A 
ATOM     86  C   UNL     1       0.751  -6.459  -7.648  1.00  0.00     0.020 A 
ATOM     87  C   UNL     1       1.522  -5.844  -8.636  1.00  0.00     0.054 A 
BRANCH  87  88
ATOM     88  S   UNL     1       3.328  -6.040  -8.650  1.00  0.00     0.124 S 
ATOM     89  O   UNL     1       3.534  -6.874  -9.829  1.00  0.00    -0.237 OA
ATOM     90  O   UNL     1       3.792  -4.659  -8.763  1.00  0.00    -0.237 OA
ATOM     91  O   UNL     1       3.613  -6.683  -7.370  1.00  0.00    -0.744 OA
ENDBRANCH  87  88
ENDBRANCH  59  82
BRANCH  71  92
ATOM     92  C   UNL     1      -6.322  -7.379 -13.051  1.00  0.00    -0.014 A 
ATOM     93  C   UNL     1      -6.048  -8.751 -13.181  1.00  0.00     0.010 A 
ATOM     94  C   UNL     1      -6.689  -6.643 -14.195  1.00  0.00     0.010 A 
ATOM     95  C   UNL     1      -6.120  -9.370 -14.433  1.00  0.00     0.020 A 
ATOM     96  C   UNL     1      -6.792  -7.264 -15.441  1.00  0.00     0.020 A 
ATOM     97  C   UNL     1      -6.496  -8.623 -15.554  1.00  0.00     0.054 A 
BRANCH  97  98
ATOM     98  S   UNL     1      -6.645  -9.464 -17.154  1.00  0.00     0.124 S 
ATOM     99  O   UNL     1      -5.249  -9.723 -17.494  1.00  0.00    -0.237 OA
ATOM    100  O   UNL     1      -7.441 -10.643 -16.823  1.00  0.00    -0.237 OA
ATOM    101  O   UNL     1      -7.320  -8.483 -18.002  1.00  0.00    -0.744 OA
ENDBRANCH  97  98
ENDBRANCH  71  92
ENDBRANCH  45  46
ENDBRANCH  38  40
ENDBRANCH  37  38
ENDBRANCH  36  37
ENDBRANCH  35  36
ENDBRANCH  34  35
ENDBRANCH  33  34
ENDBRANCH  32  33
ENDBRANCH   1  32
TORSDOF 26
