REMARK SMILES Cc1ccc(-c2nc(C)c(C(=O)N3CCC(C(=O)OCCOCCOCCOC(=O)c4ccc(-c5c6nc(c(-c7ccc(S(=O)(=O)[O-])cc7)c7ccc([nH]7)c(-c7ccc(S(=O)(=O)[O-])cc7)c7nc(c(-c8ccc(S(=O)(=O)[O-])cc8)c8ccc5[nH]8)C=C7)C=C6)cc4)CC3)s2)o1
REMARK SMILES IDX 24 1 23 2 22 3 21 4 20 5 19 6 17 7 18 8 16 9 11 10 12 11
REMARK SMILES IDX 13 12 14 13 92 14 15 15 91 16 10 17 6 18 7 19 93 20 8 21
REMARK SMILES IDX 9 22 5 23 1 24 2 25 3 26 94 27 4 28 25 29 26 30 27 31 28 32
REMARK SMILES IDX 29 33 30 34 31 35 32 36 90 37 33 38 89 39 34 40 35 41 36 42
REMARK SMILES IDX 83 43 37 44 88 45 82 46 84 47 38 48 87 49 81 50 80 51 39 53
REMARK SMILES IDX 69 54 50 55 68 56 51 57 54 58 67 59 85 60 52 61 53 62 66 64
REMARK SMILES IDX 86 65 55 66 40 67 41 68 49 69 42 70 48 71 43 72 44 73 45 74
REMARK SMILES IDX 46 75 47 76 70 77 71 78 79 79 72 80 78 81 73 82 74 83 75 84
REMARK SMILES IDX 76 85 77 86 56 87 57 88 65 89 58 90 64 91 59 92 60 93 61 94
REMARK SMILES IDX 62 95 63 96
REMARK H PARENT 84 52 54 63
REMARK Flexibility Score: inf
ROOT
ATOM      1  C   UNL     1     -10.789   8.948   0.849  1.00  0.00     0.188 C 
ENDROOT
BRANCH   1   2
ATOM      2  C   UNL     1     -11.095   8.572  -0.599  1.00  0.00     0.188 C 
BRANCH   2   3
ATOM      3  O   UNL     1     -12.433   8.170  -0.868  1.00  0.00    -0.376 OA
BRANCH   3   4
ATOM      4  C   UNL     1     -12.953   7.088  -0.099  1.00  0.00     0.202 C 
BRANCH   4   5
ATOM      5  C   UNL     1     -12.286   5.721  -0.300  1.00  0.00     0.261 C 
BRANCH   5   6
ATOM      6  O   UNL     1     -10.862   5.710  -0.074  1.00  0.00    -0.463 OA
BRANCH   6   7
ATOM      7  C   UNL     1     -10.100   5.489  -1.176  1.00  0.00     0.309 C 
ATOM      8  O   UNL     1     -10.541   5.256  -2.296  1.00  0.00    -0.252 OA
BRANCH   7   9
ATOM      9  C   UNL     1      -8.606   5.595  -0.925  1.00  0.00     0.103 C 
ATOM     10  C   UNL     1      -5.268   3.875   0.895  1.00  0.00     0.265 C 
ATOM     11  O   UNL     1      -5.452   3.867   2.113  1.00  0.00    -0.268 OA
ATOM     12  N   UNL     1      -6.061   4.683   0.079  1.00  0.00    -0.338 N 
ATOM     13  C   UNL     1      -6.635   5.911   0.621  1.00  0.00     0.120 C 
ATOM     14  C   UNL     1      -6.465   4.325  -1.274  1.00  0.00     0.120 C 
ATOM     15  C   UNL     1      -8.158   5.947   0.499  1.00  0.00     0.037 C 
ATOM     16  C   UNL     1      -7.980   4.269  -1.370  1.00  0.00     0.037 C 
BRANCH  10  17
ATOM     17  C   UNL     1      -4.189   3.119   0.273  1.00  0.00     0.115 A 
ATOM     18  C   UNL     1      -2.371   1.552  -0.099  1.00  0.00     0.159 A 
ATOM     19  N   UNL     1      -2.316   2.515  -0.990  1.00  0.00    -0.237 NA
ATOM     20  S   UNL     1      -3.699   1.621   0.977  1.00  0.00    -0.105 S 
ATOM     21  C   UNL     1      -3.335   3.429  -0.779  1.00  0.00     0.062 A 
ATOM     22  C   UNL     1      -3.326   4.628  -1.659  1.00  0.00     0.068 C 
BRANCH  18  23
ATOM     23  C   UNL     1      -1.346   0.552  -0.015  1.00  0.00     0.162 A 
ATOM     24  C   UNL     1       2.175  -0.113  -0.017  1.00  0.00     0.087 C 
ATOM     25  C   UNL     1       0.709  -0.272   0.017  1.00  0.00     0.101 A 
ATOM     26  C   UNL     1      -0.137  -1.351   0.132  1.00  0.00     0.046 A 
ATOM     27  O   UNL     1      -0.013   0.875  -0.087  1.00  0.00    -0.459 OA
ATOM     28  C   UNL     1      -1.453  -0.823   0.126  1.00  0.00     0.054 A 
ENDBRANCH  18  23
ENDBRANCH  10  17
ENDBRANCH   7   9
ENDBRANCH   6   7
ENDBRANCH   5   6
ENDBRANCH   4   5
ENDBRANCH   3   4
ENDBRANCH   2   3
ENDBRANCH   1   2
BRANCH   1  29
ATOM     29  O   UNL     1     -11.169   7.994   1.829  1.00  0.00    -0.376 OA
BRANCH  29  30
ATOM     30  C   UNL     1     -11.012   8.383   3.197  1.00  0.00     0.202 C 
BRANCH  30  31
ATOM     31  C   UNL     1     -11.541   9.771   3.624  1.00  0.00     0.261 C 
BRANCH  31  32
ATOM     32  O   UNL     1     -11.007  10.919   2.929  1.00  0.00    -0.460 OA
BRANCH  32  33
ATOM     33  C   UNL     1      -9.665  11.027   2.779  1.00  0.00     0.338 C 
ATOM     34  O   UNL     1      -8.819  10.376   3.369  1.00  0.00    -0.246 OA
BRANCH  33  35
ATOM     35  C   UNL     1      -9.398  11.852   1.564  1.00  0.00     0.060 A 
ATOM     36  C   UNL     1      -8.354  11.463   0.707  1.00  0.00     0.016 A 
ATOM     37  C   UNL     1     -10.210  12.933   1.212  1.00  0.00     0.016 A 
ATOM     38  C   UNL     1      -8.102  12.167  -0.477  1.00  0.00     0.010 A 
ATOM     39  C   UNL     1      -9.945  13.649   0.039  1.00  0.00     0.010 A 
ATOM     40  C   UNL     1      -8.870  13.292  -0.796  1.00  0.00    -0.014 A 
BRANCH  40  41
ATOM     41  C   UNL     1      -8.429  14.249  -1.844  1.00  0.00     0.031 A 
ATOM     42  C   UNL     1      -7.662  15.464  -1.395  1.00  0.00     0.074 A 
ATOM     43  C   UNL     1      -8.731  14.098  -3.147  1.00  0.00     0.049 A 
ATOM     44  N   UNL     1      -7.326  16.534  -2.066  1.00  0.00    -0.248 NA
ATOM     45  C   UNL     1      -7.232  15.472   0.013  1.00  0.00     0.031 C 
ATOM     46  C   UNL     1      -9.409  12.946  -3.736  1.00  0.00     0.029 A 
ATOM     47  N   UNL     1      -8.524  14.948  -4.208  1.00  0.00    -0.354 N 
ATOM     48  C   UNL     1      -6.680  17.360  -1.152  1.00  0.00     0.074 A 
ATOM     49  C   UNL     1      -6.679  16.669   0.119  1.00  0.00     0.031 C 
ATOM     50  C   UNL     1      -9.592  13.176  -5.049  1.00  0.00     0.029 A 
ATOM     51  C   UNL     1      -9.092  14.512  -5.382  1.00  0.00     0.049 A 
ATOM     52  H   UNL     1      -8.018  15.790  -4.135  1.00  0.00     0.167 HD
ATOM     53  C   UNL     1      -6.146  18.589  -1.348  1.00  0.00     0.031 A 
ATOM     54  C   UNL     1      -9.236  15.132  -6.573  1.00  0.00     0.031 A 
ATOM     55  C   UNL     1      -6.165  19.283  -2.606  1.00  0.00     0.049 A 
ATOM     56  C   UNL     1      -8.702  16.532  -6.759  1.00  0.00     0.074 A 
ATOM     57  C   UNL     1      -5.635  20.525  -2.908  1.00  0.00     0.029 A 
ATOM     58  N   UNL     1      -6.758  18.806  -3.765  1.00  0.00    -0.354 N 
ATOM     59  N   UNL     1      -8.085  17.300  -5.893  1.00  0.00    -0.248 NA
ATOM     60  C   UNL     1      -8.884  17.149  -8.082  1.00  0.00     0.031 C 
ATOM     61  C   UNL     1      -5.966  20.828  -4.232  1.00  0.00     0.029 A 
ATOM     62  C   UNL     1      -6.633  19.741  -4.777  1.00  0.00     0.049 A 
ATOM     63  H   UNL     1      -7.201  17.932  -3.854  1.00  0.00     0.167 HD
ATOM     64  C   UNL     1      -7.774  18.474  -6.576  1.00  0.00     0.074 A 
ATOM     65  C   UNL     1      -8.273  18.317  -7.926  1.00  0.00     0.031 C 
ATOM     66  C   UNL     1      -7.122  19.575  -6.124  1.00  0.00     0.031 A 
BRANCH  53  67
ATOM     67  C   UNL     1      -5.565  19.284  -0.145  1.00  0.00    -0.014 A 
ATOM     68  C   UNL     1      -4.390  18.826   0.478  1.00  0.00     0.010 A 
ATOM     69  C   UNL     1      -6.218  20.416   0.375  1.00  0.00     0.010 A 
ATOM     70  C   UNL     1      -3.917  19.448   1.636  1.00  0.00     0.020 A 
ATOM     71  C   UNL     1      -5.729  21.062   1.513  1.00  0.00     0.020 A 
ATOM     72  C   UNL     1      -4.595  20.557   2.151  1.00  0.00     0.054 A 
BRANCH  72  73
ATOM     73  S   UNL     1      -3.972  21.333   3.667  1.00  0.00     0.124 S 
ATOM     74  O   UNL     1      -4.338  20.346   4.680  1.00  0.00    -0.237 OA
ATOM     75  O   UNL     1      -2.542  21.456   3.398  1.00  0.00    -0.237 OA
ATOM     76  O   UNL     1      -4.703  22.596   3.736  1.00  0.00    -0.744 OA
ENDBRANCH  72  73
ENDBRANCH  53  67
BRANCH  54  77
ATOM     77  C   UNL     1      -9.954  14.438  -7.679  1.00  0.00    -0.014 A 
ATOM     78  C   UNL     1      -9.260  13.967  -8.807  1.00  0.00     0.010 A 
ATOM     79  C   UNL     1     -11.341  14.210  -7.590  1.00  0.00     0.010 A 
ATOM     80  C   UNL     1      -9.934  13.274  -9.818  1.00  0.00     0.020 A 
ATOM     81  C   UNL     1     -12.014  13.494  -8.584  1.00  0.00     0.020 A 
ATOM     82  C   UNL     1     -11.306  13.030  -9.693  1.00  0.00     0.054 A 
BRANCH  82  83
ATOM     83  S   UNL     1     -12.137  12.039 -10.967  1.00  0.00     0.124 S 
ATOM     84  O   UNL     1     -12.155  12.955 -12.103  1.00  0.00    -0.237 OA
ATOM     85  O   UNL     1     -11.247  10.887 -11.097  1.00  0.00    -0.237 OA
ATOM     86  O   UNL     1     -13.441  11.746 -10.377  1.00  0.00    -0.744 OA
ENDBRANCH  82  83
ENDBRANCH  54  77
BRANCH  66  87
ATOM     87  C   UNL     1      -6.842  20.692  -7.097  1.00  0.00    -0.014 A 
ATOM     88  C   UNL     1      -7.854  21.565  -7.533  1.00  0.00     0.010 A 
ATOM     89  C   UNL     1      -5.511  20.942  -7.485  1.00  0.00     0.010 A 
ATOM     90  C   UNL     1      -7.540  22.663  -8.342  1.00  0.00     0.020 A 
ATOM     91  C   UNL     1      -5.190  22.052  -8.270  1.00  0.00     0.020 A 
ATOM     92  C   UNL     1      -6.209  22.904  -8.698  1.00  0.00     0.054 A 
BRANCH  92  93
ATOM     93  S   UNL     1      -5.817  24.384  -9.673  1.00  0.00     0.124 S 
ATOM     94  O   UNL     1      -6.348  24.033 -10.987  1.00  0.00    -0.237 OA
ATOM     95  O   UNL     1      -6.540  25.436  -8.963  1.00  0.00    -0.237 OA
ATOM     96  O   UNL     1      -4.361  24.476  -9.595  1.00  0.00    -0.744 OA
ENDBRANCH  92  93
ENDBRANCH  66  87
ENDBRANCH  40  41
ENDBRANCH  33  35
ENDBRANCH  32  33
ENDBRANCH  31  32
ENDBRANCH  30  31
ENDBRANCH  29  30
ENDBRANCH   1  29
TORSDOF 22
