REMARK SMILES CC(=O)Oc1ccccc1C(=O)OCCOCCOCCOC(=O)c1ccc(-c2c3nc(c(-c4ccc(S(=O)(=O)[O-])cc4)c4ccc([nH]4)c(-c4ccc(S(=O)(=O)[O-])cc4)c4nc(c(-c5ccc(S(=O)(=O)[O-])cc5)c5ccc2[nH]5)C=C4)C=C3)cc1
REMARK SMILES IDX 18 1 17 2 16 3 15 4 14 5 13 6 11 7 12 8 10 9 5 10 6 11 7 12
REMARK SMILES IDX 9 13 8 14 4 15 2 16 1 17 3 18 19 19 20 20 21 21 22 22 23 23
REMARK SMILES IDX 24 24 25 25 26 26 84 27 27 28 83 29 28 30 29 31 30 32 77 33
REMARK SMILES IDX 31 34 82 35 76 36 78 37 32 38 81 39 75 40 74 41 33 43 63 44
REMARK SMILES IDX 44 45 62 46 45 47 48 48 61 49 79 50 46 51 47 52 60 54 80 55
REMARK SMILES IDX 49 56 34 57 35 58 43 59 36 60 42 61 37 62 38 63 39 64 40 65
REMARK SMILES IDX 41 66 64 67 65 68 73 69 66 70 72 71 67 72 68 73 69 74 70 75
REMARK SMILES IDX 71 76 50 77 51 78 59 79 52 80 58 81 53 82 54 83 55 84 56 85
REMARK SMILES IDX 57 86
REMARK H PARENT 78 42 48 53
REMARK Flexibility Score: inf
ROOT
ATOM      1  C   UNL     1      -2.409  -1.198  -2.523  1.00  0.00     0.188 C 
ENDROOT
BRANCH   1   2
ATOM      2  C   UNL     1      -3.565  -1.711  -1.638  1.00  0.00     0.188 C 
BRANCH   2   3
ATOM      3  O   UNL     1      -4.123  -0.822  -0.673  1.00  0.00    -0.376 OA
BRANCH   3   4
ATOM      4  C   UNL     1      -3.256  -0.215   0.283  1.00  0.00     0.202 C 
BRANCH   4   5
ATOM      5  C   UNL     1      -2.321  -1.127   1.083  1.00  0.00     0.261 C 
BRANCH   5   6
ATOM      6  O   UNL     1      -1.375  -1.804   0.238  1.00  0.00    -0.460 OA
BRANCH   6   7
ATOM      7  C   UNL     1      -1.234  -3.138   0.475  1.00  0.00     0.342 C 
ATOM      8  O   UNL     1      -1.760  -3.766   1.363  1.00  0.00    -0.246 OA
BRANCH   7   9
ATOM      9  C   UNL     1      -0.487  -3.786  -0.637  1.00  0.00     0.102 A 
ATOM     10  C   UNL     1       0.611  -3.233  -1.310  1.00  0.00     0.145 A 
ATOM     11  C   UNL     1       1.206  -3.914  -2.380  1.00  0.00     0.048 A 
ATOM     12  C   UNL     1       0.699  -5.147  -2.792  1.00  0.00     0.004 A 
ATOM     13  C   UNL     1      -0.989  -5.025  -1.068  1.00  0.00     0.019 A 
ATOM     14  C   UNL     1      -0.407  -5.695  -2.147  1.00  0.00     0.001 A 
BRANCH  10  15
ATOM     15  O   UNL     1       1.065  -1.917  -1.118  1.00  0.00    -0.426 OA
BRANCH  15  16
ATOM     16  C   UNL     1       1.487  -1.547   0.151  1.00  0.00     0.308 C 
ATOM     17  C   UNL     1       1.656  -0.057   0.192  1.00  0.00     0.139 C 
ATOM     18  O   UNL     1       1.716  -2.300   1.087  1.00  0.00    -0.252 OA
ENDBRANCH  15  16
ENDBRANCH  10  15
ENDBRANCH   7   9
ENDBRANCH   6   7
ENDBRANCH   5   6
ENDBRANCH   4   5
ENDBRANCH   3   4
ENDBRANCH   2   3
ENDBRANCH   1   2
BRANCH   1  19
ATOM     19  O   UNL     1      -1.991   0.113  -2.219  1.00  0.00    -0.376 OA
BRANCH  19  20
ATOM     20  C   UNL     1      -2.457   1.199  -2.999  1.00  0.00     0.202 C 
BRANCH  20  21
ATOM     21  C   UNL     1      -3.852   1.277  -3.651  1.00  0.00     0.261 C 
BRANCH  21  22
ATOM     22  O   UNL     1      -4.576   0.063  -3.856  1.00  0.00    -0.460 OA
BRANCH  22  23
ATOM     23  C   UNL     1      -4.393  -0.563  -5.041  1.00  0.00     0.338 C 
ATOM     24  O   UNL     1      -3.622  -0.245  -5.928  1.00  0.00    -0.246 OA
BRANCH  23  25
ATOM     25  C   UNL     1      -5.163  -1.825  -5.007  1.00  0.00     0.060 A 
ATOM     26  C   UNL     1      -4.478  -3.037  -5.157  1.00  0.00     0.016 A 
ATOM     27  C   UNL     1      -6.548  -1.809  -4.826  1.00  0.00     0.016 A 
ATOM     28  C   UNL     1      -5.185  -4.240  -5.159  1.00  0.00     0.010 A 
ATOM     29  C   UNL     1      -7.257  -3.014  -4.848  1.00  0.00     0.010 A 
ATOM     30  C   UNL     1      -6.582  -4.231  -5.045  1.00  0.00    -0.014 A 
BRANCH  30  31
ATOM     31  C   UNL     1      -7.359  -5.463  -5.326  1.00  0.00     0.031 A 
ATOM     32  C   UNL     1      -7.886  -5.667  -6.721  1.00  0.00     0.074 A 
ATOM     33  C   UNL     1      -7.596  -6.380  -4.371  1.00  0.00     0.049 A 
ATOM     34  N   UNL     1      -8.640  -6.626  -7.190  1.00  0.00    -0.248 NA
ATOM     35  C   UNL     1      -7.510  -4.651  -7.719  1.00  0.00     0.031 C 
ATOM     36  C   UNL     1      -7.108  -6.318  -2.994  1.00  0.00     0.029 A 
ATOM     37  N   UNL     1      -8.324  -7.543  -4.419  1.00  0.00    -0.354 N 
ATOM     38  C   UNL     1      -8.832  -6.330  -8.534  1.00  0.00     0.074 A 
ATOM     39  C   UNL     1      -8.136  -5.090  -8.801  1.00  0.00     0.031 C 
ATOM     40  C   UNL     1      -7.569  -7.388  -2.321  1.00  0.00     0.029 A 
ATOM     41  C   UNL     1      -8.406  -8.193  -3.210  1.00  0.00     0.049 A 
ATOM     42  H   UNL     1      -8.747  -7.880  -5.242  1.00  0.00     0.167 HD
ATOM     43  C   UNL     1      -9.522  -7.027  -9.466  1.00  0.00     0.031 A 
ATOM     44  C   UNL     1      -9.100  -9.294  -2.858  1.00  0.00     0.031 A 
ATOM     45  C   UNL     1     -10.237  -8.244  -9.197  1.00  0.00     0.049 A 
ATOM     46  C   UNL     1      -9.927 -10.013  -3.895  1.00  0.00     0.074 A 
ATOM     47  C   UNL     1     -10.976  -9.020 -10.073  1.00  0.00     0.029 A 
ATOM     48  N   UNL     1     -10.310  -8.859  -7.957  1.00  0.00    -0.354 N 
ATOM     49  N   UNL     1     -10.084  -9.730  -5.167  1.00  0.00    -0.248 NA
ATOM     50  C   UNL     1     -10.664 -11.205  -3.450  1.00  0.00     0.031 C 
ATOM     51  C   UNL     1     -11.532 -10.081  -9.352  1.00  0.00     0.029 A 
ATOM     52  C   UNL     1     -11.093  -9.996  -8.040  1.00  0.00     0.049 A 
ATOM     53  H   UNL     1      -9.869  -8.535  -7.138  1.00  0.00     0.167 HD
ATOM     54  C   UNL     1     -10.910 -10.726  -5.678  1.00  0.00     0.074 A 
ATOM     55  C   UNL     1     -11.213 -11.623  -4.583  1.00  0.00     0.031 C 
ATOM     56  C   UNL     1     -11.374 -10.886  -6.942  1.00  0.00     0.031 A 
BRANCH  43  57
ATOM     57  C   UNL     1      -9.556  -6.468 -10.862  1.00  0.00    -0.014 A 
ATOM     58  C   UNL     1      -8.420  -6.520 -11.689  1.00  0.00     0.010 A 
ATOM     59  C   UNL     1     -10.746  -5.911 -11.362  1.00  0.00     0.010 A 
ATOM     60  C   UNL     1      -8.465  -5.993 -12.982  1.00  0.00     0.020 A 
ATOM     61  C   UNL     1     -10.801  -5.405 -12.663  1.00  0.00     0.020 A 
ATOM     62  C   UNL     1      -9.655  -5.436 -13.460  1.00  0.00     0.054 A 
BRANCH  62  63
ATOM     63  S   UNL     1      -9.691  -4.781 -15.151  1.00  0.00     0.124 S 
ATOM     64  O   UNL     1      -8.926  -3.545 -15.011  1.00  0.00    -0.237 OA
ATOM     65  O   UNL     1      -9.039  -5.839 -15.919  1.00  0.00    -0.237 OA
ATOM     66  O   UNL     1     -11.116  -4.605 -15.424  1.00  0.00    -0.744 OA
ENDBRANCH  62  63
ENDBRANCH  43  57
BRANCH  44  67
ATOM     67  C   UNL     1      -9.074  -9.776  -1.449  1.00  0.00    -0.014 A 
ATOM     68  C   UNL     1      -8.436 -10.983  -1.112  1.00  0.00     0.010 A 
ATOM     69  C   UNL     1      -9.713  -9.036  -0.437  1.00  0.00     0.010 A 
ATOM     70  C   UNL     1      -8.461 -11.454   0.205  1.00  0.00     0.020 A 
ATOM     71  C   UNL     1      -9.718  -9.490   0.885  1.00  0.00     0.020 A 
ATOM     72  C   UNL     1      -9.104 -10.705   1.194  1.00  0.00     0.054 A 
BRANCH  72  73
ATOM     73  S   UNL     1      -9.101 -11.320   2.902  1.00  0.00     0.124 S 
ATOM     74  O   UNL     1     -10.085 -12.396   2.838  1.00  0.00    -0.237 OA
ATOM     75  O   UNL     1      -7.714 -11.741   3.084  1.00  0.00    -0.237 OA
ATOM     76  O   UNL     1      -9.498 -10.152   3.686  1.00  0.00    -0.744 OA
ENDBRANCH  72  73
ENDBRANCH  44  67
BRANCH  56  77
ATOM     77  C   UNL     1     -12.217 -12.101  -7.232  1.00  0.00    -0.014 A 
ATOM     78  C   UNL     1     -13.548 -12.190  -6.792  1.00  0.00     0.010 A 
ATOM     79  C   UNL     1     -11.685 -13.135  -8.025  1.00  0.00     0.010 A 
ATOM     80  C   UNL     1     -14.326 -13.305  -7.120  1.00  0.00     0.020 A 
ATOM     81  C   UNL     1     -12.467 -14.238  -8.377  1.00  0.00     0.020 A 
ATOM     82  C   UNL     1     -13.781 -14.321  -7.912  1.00  0.00     0.054 A 
BRANCH  82  83
ATOM     83  S   UNL     1     -14.827 -15.730  -8.372  1.00  0.00     0.124 S 
ATOM     84  O   UNL     1     -14.875 -16.492  -7.128  1.00  0.00    -0.237 OA
ATOM     85  O   UNL     1     -16.078 -15.087  -8.765  1.00  0.00    -0.237 OA
ATOM     86  O   UNL     1     -14.091 -16.365  -9.464  1.00  0.00    -0.744 OA
ENDBRANCH  82  83
ENDBRANCH  56  77
ENDBRANCH  30  31
ENDBRANCH  23  25
ENDBRANCH  22  23
ENDBRANCH  21  22
ENDBRANCH  20  21
ENDBRANCH  19  20
ENDBRANCH   1  19
TORSDOF 22
