REMARK SMILES CCNC(=O)c1cccc(-c2ccc(Cl)c(C(=O)OCCOCCOCCOC(=O)c3ccc(-c4c5nc(c(-c6ccc(S(=O)(=O)[O-])cc6)c6ccc([nH]6)c(-c6ccc(S(=O)(=O)[O-])cc6)c6nc(c(-c7ccc(S(=O)(=O)[O-])cc7)c7ccc4[nH]7)C=C6)C=C5)cc3)c2)c1
REMARK SMILES IDX 23 1 22 2 21 3 20 4 19 5 17 6 18 7 16 8 11 9 12 10 91 11
REMARK SMILES IDX 13 12 14 13 15 14 10 15 6 16 7 17 92 18 8 19 9 20 4 21 3 22
REMARK SMILES IDX 5 24 2 25 1 26 24 27 25 28 26 29 27 30 28 31 29 32 30 33
REMARK SMILES IDX 31 34 32 35 90 36 33 37 89 38 34 39 35 40 36 41 83 42 37 43
REMARK SMILES IDX 88 44 82 45 84 46 38 47 87 48 81 49 80 50 39 52 69 53 50 54
REMARK SMILES IDX 68 55 51 56 54 57 67 58 85 59 52 60 53 61 66 63 86 64 55 65
REMARK SMILES IDX 40 66 41 67 49 68 42 69 48 70 43 71 44 72 45 73 46 74 47 75
REMARK SMILES IDX 70 76 71 77 79 78 72 79 78 80 73 81 74 82 75 83 76 84 77 85
REMARK SMILES IDX 56 86 57 87 65 88 58 89 64 90 59 91 60 92 61 93 62 94 63 95
REMARK H PARENT 3 23 84 51 54 62
REMARK Flexibility Score: inf
ROOT
ATOM      1  C   UNL     1      -5.451   8.348  -0.493  1.00  0.00     0.188 C 
ENDROOT
BRANCH   1   2
ATOM      2  O   UNL     1      -4.679   9.489  -0.813  1.00  0.00    -0.376 OA
BRANCH   2   3
ATOM      3  C   UNL     1      -3.454   9.707  -0.138  1.00  0.00     0.202 C 
BRANCH   3   4
ATOM      4  C   UNL     1      -2.404   8.589  -0.035  1.00  0.00     0.261 C 
BRANCH   4   5
ATOM      5  O   UNL     1      -2.935   7.262  -0.013  1.00  0.00    -0.460 OA
BRANCH   5   6
ATOM      6  C   UNL     1      -2.913   6.577   1.152  1.00  0.00     0.339 C 
ATOM      7  O   UNL     1      -2.440   6.943   2.212  1.00  0.00    -0.246 OA
BRANCH   6   8
ATOM      8  C   UNL     1      -3.600   5.290   0.908  1.00  0.00     0.079 A 
ATOM      9  C   UNL     1      -3.797   3.280  -0.496  1.00  0.00    -0.017 A 
ATOM     10  C   UNL     1      -4.880   2.884   0.307  1.00  0.00     0.010 A 
ATOM     11  C   UNL     1      -3.172   4.499  -0.175  1.00  0.00     0.026 A 
ATOM     12  C   UNL     1      -5.321   3.672   1.378  1.00  0.00     0.022 A 
ATOM     13  C   UNL     1      -4.683   4.877   1.683  1.00  0.00     0.055 A 
ATOM     14  Cl  UNL     1      -5.337   5.830   2.961  1.00  0.00    -0.083 Cl
BRANCH   9  15
ATOM     15  C   UNL     1      -3.299   2.432  -1.601  1.00  0.00    -0.018 A 
ATOM     16  C   UNL     1      -1.410   1.440  -2.802  1.00  0.00     0.040 A 
ATOM     17  C   UNL     1      -2.283   0.718  -3.616  1.00  0.00     0.014 A 
ATOM     18  C   UNL     1      -1.918   2.320  -1.841  1.00  0.00     0.022 A 
ATOM     19  C   UNL     1      -3.658   0.841  -3.427  1.00  0.00     0.001 A 
ATOM     20  C   UNL     1      -4.158   1.682  -2.423  1.00  0.00     0.009 A 
BRANCH  16  21
ATOM     21  C   UNL     1       0.050   1.293  -2.999  1.00  0.00     0.251 C 
ATOM     22  N   UNL     1       0.891   1.173  -1.920  1.00  0.00    -0.352 N 
ATOM     23  H   UNL     1       1.851   1.235  -2.133  1.00  0.00     0.163 HD
ATOM     24  O   UNL     1       0.510   1.272  -4.137  1.00  0.00    -0.269 OA
BRANCH  22  25
ATOM     25  C   UNL     1       0.588   0.970  -0.512  1.00  0.00     0.112 C 
ATOM     26  C   UNL     1       1.265  -0.279   0.017  1.00  0.00     0.027 C 
ENDBRANCH  22  25
ENDBRANCH  16  21
ENDBRANCH   9  15
ENDBRANCH   6   8
ENDBRANCH   5   6
ENDBRANCH   4   5
ENDBRANCH   3   4
ENDBRANCH   2   3
ENDBRANCH   1   2
BRANCH   1  27
ATOM     27  C   UNL     1      -5.426   7.284  -1.613  1.00  0.00     0.188 C 
BRANCH  27  28
ATOM     28  O   UNL     1      -4.819   7.585  -2.866  1.00  0.00    -0.376 OA
BRANCH  28  29
ATOM     29  C   UNL     1      -5.087   8.837  -3.485  1.00  0.00     0.202 C 
BRANCH  29  30
ATOM     30  C   UNL     1      -6.540   9.205  -3.812  1.00  0.00     0.261 C 
BRANCH  30  31
ATOM     31  O   UNL     1      -7.451   9.095  -2.708  1.00  0.00    -0.460 OA
BRANCH  31  32
ATOM     32  C   UNL     1      -8.381   8.114  -2.827  1.00  0.00     0.338 C 
ATOM     33  O   UNL     1      -8.535   7.353  -3.767  1.00  0.00    -0.246 OA
BRANCH  32  34
ATOM     34  C   UNL     1      -9.110   7.956  -1.553  1.00  0.00     0.060 A 
ATOM     35  C   UNL     1      -9.097   6.694  -0.942  1.00  0.00     0.016 A 
ATOM     36  C   UNL     1      -9.852   9.002  -1.003  1.00  0.00     0.016 A 
ATOM     37  C   UNL     1      -9.853   6.465   0.206  1.00  0.00     0.010 A 
ATOM     38  C   UNL     1     -10.629   8.764   0.136  1.00  0.00     0.010 A 
ATOM     39  C   UNL     1     -10.656   7.487   0.726  1.00  0.00    -0.014 A 
BRANCH  39  40
ATOM     40  C   UNL     1     -11.653   7.171   1.776  1.00  0.00     0.031 A 
ATOM     41  C   UNL     1     -13.061   6.840   1.358  1.00  0.00     0.074 A 
ATOM     42  C   UNL     1     -11.313   7.155   3.077  1.00  0.00     0.049 A 
ATOM     43  N   UNL     1     -14.100   6.557   2.099  1.00  0.00    -0.248 NA
ATOM     44  C   UNL     1     -13.330   6.824  -0.090  1.00  0.00     0.031 C 
ATOM     45  C   UNL     1      -9.975   7.410   3.607  1.00  0.00     0.029 A 
ATOM     46  N   UNL     1     -12.079   6.918   4.192  1.00  0.00    -0.354 N 
ATOM     47  C   UNL     1     -15.146   6.333   1.212  1.00  0.00     0.074 A 
ATOM     48  C   UNL     1     -14.622   6.535  -0.122  1.00  0.00     0.031 C 
ATOM     49  C   UNL     1     -10.016   7.331   4.949  1.00  0.00     0.029 A 
ATOM     50  C   UNL     1     -11.387   7.048   5.372  1.00  0.00     0.049 A 
ATOM     51  H   UNL     1     -13.033   6.679   4.150  1.00  0.00     0.167 HD
ATOM     52  C   UNL     1     -16.428   5.988   1.480  1.00  0.00     0.031 A 
ATOM     53  C   UNL     1     -11.817   6.967   6.648  1.00  0.00     0.031 A 
ATOM     54  C   UNL     1     -16.957   5.811   2.806  1.00  0.00     0.049 A 
ATOM     55  C   UNL     1     -13.267   6.661   6.924  1.00  0.00     0.074 A 
ATOM     56  C   UNL     1     -18.242   5.457   3.179  1.00  0.00     0.029 A 
ATOM     57  N   UNL     1     -16.233   5.986   3.975  1.00  0.00    -0.354 N 
ATOM     58  N   UNL     1     -14.238   6.427   6.073  1.00  0.00    -0.248 NA
ATOM     59  C   UNL     1     -13.676   6.602   8.335  1.00  0.00     0.031 C 
ATOM     60  C   UNL     1     -18.307   5.466   4.577  1.00  0.00     0.029 A 
ATOM     61  C   UNL     1     -17.050   5.771   5.072  1.00  0.00     0.049 A 
ATOM     62  H   UNL     1     -15.280   6.228   4.019  1.00  0.00     0.167 HD
ATOM     63  C   UNL     1     -15.365   6.165   6.847  1.00  0.00     0.074 A 
ATOM     64  C   UNL     1     -14.953   6.259   8.232  1.00  0.00     0.031 C 
ATOM     65  C   UNL     1     -16.626   5.867   6.446  1.00  0.00     0.031 A 
BRANCH  52  66
ATOM     66  C   UNL     1     -17.355   5.814   0.309  1.00  0.00    -0.014 A 
ATOM     67  C   UNL     1     -17.258   4.693  -0.534  1.00  0.00     0.010 A 
ATOM     68  C   UNL     1     -18.356   6.773   0.065  1.00  0.00     0.010 A 
ATOM     69  C   UNL     1     -18.122   4.551  -1.623  1.00  0.00     0.020 A 
ATOM     70  C   UNL     1     -19.236   6.623  -1.010  1.00  0.00     0.020 A 
ATOM     71  C   UNL     1     -19.103   5.520  -1.857  1.00  0.00     0.054 A 
BRANCH  71  72
ATOM     72  S   UNL     1     -20.222   5.304  -3.268  1.00  0.00     0.124 S 
ATOM     73  O   UNL     1     -19.353   5.636  -4.394  1.00  0.00    -0.237 OA
ATOM     74  O   UNL     1     -20.605   3.898  -3.162  1.00  0.00    -0.237 OA
ATOM     75  O   UNL     1     -21.296   6.260  -3.007  1.00  0.00    -0.744 OA
ENDBRANCH  71  72
ENDBRANCH  52  66
BRANCH  53  76
ATOM     76  C   UNL     1     -10.867   7.200   7.769  1.00  0.00    -0.014 A 
ATOM     77  C   UNL     1     -10.464   6.140   8.601  1.00  0.00     0.010 A 
ATOM     78  C   UNL     1     -10.369   8.492   8.018  1.00  0.00     0.010 A 
ATOM     79  C   UNL     1      -9.596   6.372   9.672  1.00  0.00     0.020 A 
ATOM     80  C   UNL     1      -9.482   8.723   9.073  1.00  0.00     0.020 A 
ATOM     81  C   UNL     1      -9.111   7.662   9.902  1.00  0.00     0.054 A 
BRANCH  81  82
ATOM     82  S   UNL     1      -7.952   7.933  11.272  1.00  0.00     0.124 S 
ATOM     83  O   UNL     1      -8.838   7.883  12.431  1.00  0.00    -0.237 OA
ATOM     84  O   UNL     1      -7.028   6.811  11.133  1.00  0.00    -0.237 OA
ATOM     85  O   UNL     1      -7.377   9.244  10.979  1.00  0.00    -0.744 OA
ENDBRANCH  81  82
ENDBRANCH  53  76
BRANCH  65  86
ATOM     86  C   UNL     1     -17.648   5.582   7.514  1.00  0.00    -0.014 A 
ATOM     87  C   UNL     1     -18.190   6.613   8.301  1.00  0.00     0.010 A 
ATOM     88  C   UNL     1     -18.116   4.266   7.691  1.00  0.00     0.010 A 
ATOM     89  C   UNL     1     -19.161   6.329   9.265  1.00  0.00     0.020 A 
ATOM     90  C   UNL     1     -19.104   3.983   8.636  1.00  0.00     0.020 A 
ATOM     91  C   UNL     1     -19.611   5.015   9.428  1.00  0.00     0.054 A 
BRANCH  91  92
ATOM     92  S   UNL     1     -20.904   4.676  10.656  1.00  0.00     0.124 S 
ATOM     93  O   UNL     1     -20.156   4.737  11.909  1.00  0.00    -0.237 OA
ATOM     94  O   UNL     1     -21.851   5.766  10.435  1.00  0.00    -0.237 OA
ATOM     95  O   UNL     1     -21.393   3.350  10.286  1.00  0.00    -0.744 OA
ENDBRANCH  91  92
ENDBRANCH  65  86
ENDBRANCH  39  40
ENDBRANCH  32  34
ENDBRANCH  31  32
ENDBRANCH  30  31
ENDBRANCH  29  30
ENDBRANCH  28  29
ENDBRANCH  27  28
ENDBRANCH   1  27
TORSDOF 23
