REMARK SMILES Cc1ccccc1[C@@H](Cc1ncnn1C(C)C)C(=O)OCCOCCOCCOC(=O)c1ccc(-c2c3nc(c(-c4ccc(S(=O)(=O)[O-])cc4)c4ccc([nH]4)c(-c4ccc(S(=O)(=O)[O-])cc4)c4nc(c(-c5ccc(S(=O)(=O)[O-])cc5)c5ccc2[nH]5)C=C4)C=C3)cc1
REMARK SMILES IDX 24 1 23 2 22 3 21 4 20 5 18 6 19 7 8 8 7 9 1 10 2 11 3 12
REMARK SMILES IDX 4 13 6 14 5 15 9 16 10 17 11 18 14 19 12 20 13 21 15 22
REMARK SMILES IDX 16 23 17 24 25 25 26 26 27 27 28 28 29 29 30 30 31 31 32 32
REMARK SMILES IDX 33 33 91 34 34 35 90 36 35 37 36 38 37 39 84 40 38 41 89 42
REMARK SMILES IDX 83 43 85 44 39 45 88 46 82 47 81 48 40 50 70 51 51 52 69 53
REMARK SMILES IDX 52 54 55 55 68 56 86 57 53 58 54 59 67 61 87 62 56 63 41 64
REMARK SMILES IDX 42 65 50 66 43 67 49 68 44 69 45 70 46 71 47 72 48 73 71 74
REMARK SMILES IDX 72 75 80 76 73 77 79 78 74 79 75 80 76 81 77 82 78 83 57 84
REMARK SMILES IDX 58 85 66 86 59 87 65 88 60 89 61 90 62 91 63 92 64 93
REMARK H PARENT 85 49 55 60
REMARK Flexibility Score: inf
ROOT
ATOM      1  C   UNL     1      -0.043   2.995   5.389  1.00  0.00     0.188 C 
ENDROOT
BRANCH   1   2
ATOM      2  O   UNL     1      -0.893   3.825   4.552  1.00  0.00    -0.376 OA
BRANCH   2   3
ATOM      3  C   UNL     1      -2.092   3.475   3.793  1.00  0.00     0.202 C 
BRANCH   3   4
ATOM      4  C   UNL     1      -2.432   3.169   2.039  1.00  0.00     0.261 C 
BRANCH   4   5
ATOM      5  O   UNL     1      -1.532   2.316   0.635  1.00  0.00    -0.463 OA
BRANCH   5   6
ATOM      6  C   UNL     1      -0.049   2.212  -0.029  1.00  0.00     0.313 C 
ATOM      7  O   UNL     1       0.974   2.916   0.186  1.00  0.00    -0.252 OA
BRANCH   6   8
ATOM      8  C   UNL     1       0.225   1.519  -1.310  1.00  0.00     0.137 C 
BRANCH   8   9
ATOM      9  C   UNL     1      -0.144   0.093  -1.237  1.00  0.00    -0.030 A 
ATOM     10  C   UNL     1       2.300  -0.675  -0.687  1.00  0.00     0.044 C 
ATOM     11  C   UNL     1       0.799  -0.888  -0.810  1.00  0.00    -0.047 A 
ATOM     12  C   UNL     1       0.312  -2.148  -0.466  1.00  0.00     0.004 A 
ATOM     13  C   UNL     1      -1.058  -2.407  -0.494  1.00  0.00     0.000 A 
ATOM     14  C   UNL     1      -1.506  -0.189  -1.302  1.00  0.00     0.005 A 
ATOM     15  C   UNL     1      -1.962  -1.432  -0.910  1.00  0.00     0.000 A 
ENDBRANCH   8   9
BRANCH   8  16
ATOM     16  C   UNL     1       0.050   2.593  -2.391  1.00  0.00     0.097 C 
BRANCH  16  17
ATOM     17  C   UNL     1      -0.838   3.636  -1.825  1.00  0.00     0.128 A 
ATOM     18  N   UNL     1      -2.493   3.293  -1.122  1.00  0.00    -0.220 NA
ATOM     19  N   UNL     1      -0.245   5.300  -1.019  1.00  0.00    -0.248 N 
ATOM     20  C   UNL     1      -3.065   4.820   0.050  1.00  0.00     0.246 A 
ATOM     21  N   UNL     1      -1.582   5.905   0.298  1.00  0.00    -0.159 NA
BRANCH  19  22
ATOM     22  C   UNL     1       0.843   6.070  -1.624  1.00  0.00     0.103 C 
ATOM     23  C   UNL     1       0.458   6.958  -2.818  1.00  0.00     0.033 C 
ATOM     24  C   UNL     1       1.591   6.798  -0.543  1.00  0.00     0.033 C 
ENDBRANCH  19  22
ENDBRANCH  16  17
ENDBRANCH   8  16
ENDBRANCH   6   8
ENDBRANCH   5   6
ENDBRANCH   4   5
ENDBRANCH   3   4
ENDBRANCH   2   3
ENDBRANCH   1   2
BRANCH   1  25
ATOM     25  C   UNL     1      -0.545   1.681   5.906  1.00  0.00     0.188 C 
BRANCH  25  26
ATOM     26  O   UNL     1      -1.625   1.356   5.082  1.00  0.00    -0.376 OA
BRANCH  26  27
ATOM     27  C   UNL     1      -2.523   0.381   5.483  1.00  0.00     0.202 C 
BRANCH  27  28
ATOM     28  C   UNL     1      -1.819  -0.911   5.866  1.00  0.00     0.261 C 
BRANCH  28  29
ATOM     29  O   UNL     1      -1.177  -1.686   4.792  1.00  0.00    -0.460 OA
BRANCH  29  30
ATOM     30  C   UNL     1       0.108  -1.530   4.262  1.00  0.00     0.338 C 
ATOM     31  O   UNL     1       0.860  -2.490   4.171  1.00  0.00    -0.246 OA
BRANCH  30  32
ATOM     32  C   UNL     1       0.288  -0.297   3.429  1.00  0.00     0.060 A 
ATOM     33  C   UNL     1       1.363   0.565   3.117  1.00  0.00     0.016 A 
ATOM     34  C   UNL     1      -0.852   0.040   2.835  1.00  0.00     0.016 A 
ATOM     35  C   UNL     1       1.220   1.960   2.550  1.00  0.00     0.010 A 
ATOM     36  C   UNL     1      -0.968   1.367   2.470  1.00  0.00     0.010 A 
ATOM     37  C   UNL     1      -0.028   2.563   2.258  1.00  0.00    -0.014 A 
BRANCH  37  38
ATOM     38  C   UNL     1      -0.432   4.233   1.335  1.00  0.00     0.031 A 
ATOM     39  C   UNL     1      -1.465   4.345  -0.359  1.00  0.00     0.074 A 
ATOM     40  C   UNL     1      -0.024   5.158   2.249  1.00  0.00     0.049 A 
ATOM     41  N   UNL     1      -2.085   5.631  -1.403  1.00  0.00    -0.248 NA
ATOM     42  C   UNL     1      -2.394   4.903  -2.183  1.00  0.00     0.031 C 
ATOM     43  C   UNL     1      -0.614   6.411   2.708  1.00  0.00     0.029 A 
ATOM     44  N   UNL     1       0.968   4.929   3.196  1.00  0.00    -0.354 N 
ATOM     45  C   UNL     1      -2.505   6.892  -1.748  1.00  0.00     0.074 A 
ATOM     46  C   UNL     1      -2.829   6.066  -2.808  1.00  0.00     0.031 C 
ATOM     47  C   UNL     1       0.093   6.887   3.749  1.00  0.00     0.029 A 
ATOM     48  C   UNL     1       1.297   6.089   3.870  1.00  0.00     0.049 A 
ATOM     49  H   UNL     1       1.382   4.052   3.365  1.00  0.00     0.167 HD
ATOM     50  C   UNL     1      -3.246   7.821  -1.091  1.00  0.00     0.031 A 
ATOM     51  C   UNL     1       2.593   6.483   3.819  1.00  0.00     0.031 A 
ATOM     52  C   UNL     1      -2.478   8.603  -0.116  1.00  0.00     0.049 A 
ATOM     53  C   UNL     1       2.651   7.719   2.925  1.00  0.00     0.074 A 
ATOM     54  C   UNL     1      -2.674   9.012   1.189  1.00  0.00     0.029 A 
ATOM     55  N   UNL     1      -1.143   8.925  -0.382  1.00  0.00    -0.354 N 
ATOM     56  N   UNL     1       1.585   8.293   2.402  1.00  0.00    -0.248 NA
ATOM     57  C   UNL     1       3.852   8.467   2.592  1.00  0.00     0.031 C 
ATOM     58  C   UNL     1      -1.416   9.508   1.701  1.00  0.00     0.029 A 
ATOM     59  C   UNL     1      -0.443   9.448   0.708  1.00  0.00     0.049 A 
ATOM     60  H   UNL     1      -0.731   8.794  -1.266  1.00  0.00     0.167 HD
ATOM     61  C   UNL     1       1.909   9.299   1.550  1.00  0.00     0.074 A 
ATOM     62  C   UNL     1       3.333   9.462   1.844  1.00  0.00     0.031 C 
ATOM     63  C   UNL     1       1.026   9.786   0.597  1.00  0.00     0.031 A 
BRANCH  50  64
ATOM     64  C   UNL     1      -4.729   7.967  -1.496  1.00  0.00    -0.014 A 
ATOM     65  C   UNL     1      -5.336   9.226  -1.626  1.00  0.00     0.010 A 
ATOM     66  C   UNL     1      -5.550   6.854  -1.852  1.00  0.00     0.010 A 
ATOM     67  C   UNL     1      -6.642   9.372  -2.159  1.00  0.00     0.020 A 
ATOM     68  C   UNL     1      -6.837   6.987  -2.415  1.00  0.00     0.020 A 
ATOM     69  C   UNL     1      -7.378   8.255  -2.572  1.00  0.00     0.054 A 
BRANCH  69  70
ATOM     70  S   UNL     1      -9.016   8.478  -3.346  1.00  0.00     0.124 S 
ATOM     71  O   UNL     1      -9.841   8.896  -2.216  1.00  0.00    -0.237 OA
ATOM     72  O   UNL     1      -8.764   9.506  -4.353  1.00  0.00    -0.237 OA
ATOM     73  O   UNL     1      -9.335   7.157  -3.886  1.00  0.00    -0.744 OA
ENDBRANCH  69  70
ENDBRANCH  50  64
BRANCH  51  74
ATOM     74  C   UNL     1       3.523   5.304   4.129  1.00  0.00    -0.014 A 
ATOM     75  C   UNL     1       3.493   4.847   5.479  1.00  0.00     0.010 A 
ATOM     76  C   UNL     1       3.981   4.354   3.185  1.00  0.00     0.010 A 
ATOM     77  C   UNL     1       3.766   3.511   5.851  1.00  0.00     0.020 A 
ATOM     78  C   UNL     1       4.293   3.007   3.560  1.00  0.00     0.020 A 
ATOM     79  C   UNL     1       4.131   2.582   4.883  1.00  0.00     0.054 A 
BRANCH  79  80
ATOM     80  S   UNL     1       4.171   0.810   5.370  1.00  0.00     0.124 S 
ATOM     81  O   UNL     1       5.262   0.762   6.337  1.00  0.00    -0.237 OA
ATOM     82  O   UNL     1       2.834   0.617   5.936  1.00  0.00    -0.237 OA
ATOM     83  O   UNL     1       4.428   0.108   4.117  1.00  0.00    -0.744 OA
ENDBRANCH  79  80
ENDBRANCH  51  74
BRANCH  63  84
ATOM     84  C   UNL     1       1.548  10.532  -0.642  1.00  0.00    -0.014 A 
ATOM     85  C   UNL     1       2.916  10.679  -0.939  1.00  0.00     0.010 A 
ATOM     86  C   UNL     1       0.667  11.028  -1.631  1.00  0.00     0.010 A 
ATOM     87  C   UNL     1       3.386  11.366  -2.059  1.00  0.00     0.020 A 
ATOM     88  C   UNL     1       1.123  11.636  -2.815  1.00  0.00     0.020 A 
ATOM     89  C   UNL     1       2.484  11.847  -2.992  1.00  0.00     0.054 A 
BRANCH  89  90
ATOM     90  S   UNL     1       3.139  12.745  -4.413  1.00  0.00     0.124 S 
ATOM     91  O   UNL     1       3.575  13.996  -3.796  1.00  0.00    -0.237 OA
ATOM     92  O   UNL     1       4.213  11.868  -4.875  1.00  0.00    -0.237 OA
ATOM     93  O   UNL     1       1.995  12.853  -5.313  1.00  0.00    -0.744 OA
ENDBRANCH  89  90
ENDBRANCH  63  84
ENDBRANCH  37  38
ENDBRANCH  30  32
ENDBRANCH  29  30
ENDBRANCH  28  29
ENDBRANCH  27  28
ENDBRANCH  26  27
ENDBRANCH  25  26
ENDBRANCH   1  25
TORSDOF 24
