REMARK SMILES O=C(OCCOCCOCCOC(=O)c1ccc(-c2c3nc(c(-c4ccc(S(=O)(=O)[O-])cc4)c4ccc([nH]4)c(-c4ccc(S(=O)(=O)[O-])cc4)c4nc(c(-c5ccc(S(=O)(=O)[O-])cc5)c5ccc2[nH]5)C=C4)C=C3)cc1)C1=Cc2cc(Cl)cc(-c3ccccc3)c2O[C@@H]1C(F)(F)F
REMARK SMILES IDX 8 1 7 2 6 3 5 4 4 5 3 6 2 7 1 8 75 9 76 10 91 11 77 12 90 13
REMARK SMILES IDX 78 14 89 15 79 16 82 17 80 18 81 19 92 20 93 21 94 22 95 23
REMARK SMILES IDX 83 24 84 25 88 26 85 27 87 28 86 29 9 30 10 31 11 32 12 33
REMARK SMILES IDX 13 34 14 35 15 36 16 37 74 38 17 39 73 40 18 41 19 42 20 43
REMARK SMILES IDX 67 44 21 45 72 46 66 47 68 48 22 49 71 50 65 51 64 52 23 54
REMARK SMILES IDX 53 55 34 56 52 57 35 58 38 59 51 60 69 61 36 62 37 63 50 65
REMARK SMILES IDX 70 66 39 67 24 68 25 69 33 70 26 71 32 72 27 73 28 74 29 75
REMARK SMILES IDX 30 76 31 77 54 78 55 79 63 80 56 81 62 82 57 83 58 84 59 85
REMARK SMILES IDX 60 86 61 87 40 88 41 89 49 90 42 91 48 92 43 93 44 94 45 95
REMARK SMILES IDX 46 96 47 97
REMARK H PARENT 68 53 38 64
REMARK Flexibility Score: inf
ROOT
ATOM      1  C   UNL     1       1.650   3.368  -0.208  1.00  0.00     0.188 C 
ENDROOT
BRANCH   1   2
ATOM      2  C   UNL     1       2.158   2.069   0.434  1.00  0.00     0.188 C 
BRANCH   2   3
ATOM      3  O   UNL     1       3.614   1.831   0.796  1.00  0.00    -0.376 OA
BRANCH   3   4
ATOM      4  C   UNL     1       4.497   0.299   0.701  1.00  0.00     0.202 C 
BRANCH   4   5
ATOM      5  C   UNL     1       3.873  -1.315  -0.620  1.00  0.00     0.261 C 
BRANCH   5   6
ATOM      6  O   UNL     1       2.919  -2.452  -0.265  1.00  0.00    -0.460 OA
BRANCH   6   7
ATOM      7  C   UNL     1       3.071  -2.860   1.004  1.00  0.00     0.338 C 
ATOM      8  O   UNL     1       2.370  -3.612   1.632  1.00  0.00    -0.246 OA
BRANCH   7   9
ATOM      9  C   UNL     1       3.929  -1.764   1.423  1.00  0.00     0.087 C 
ATOM     10  C   UNL     1       5.324  -1.856   1.045  1.00  0.00     0.027 C 
ATOM     11  C   UNL     1       2.713  -0.420   0.817  1.00  0.00     0.316 C 
ATOM     12  C   UNL     1       6.056  -0.932  -0.298  1.00  0.00     0.019 A 
ATOM     13  O   UNL     1       3.432   0.489  -0.777  1.00  0.00    -0.475 OA
ATOM     14  C   UNL     1       7.332  -1.277  -0.663  1.00  0.00     0.032 A 
ATOM     15  C   UNL     1       5.169   0.188  -1.278  1.00  0.00     0.135 A 
ATOM     16  C   UNL     1       7.824  -0.627  -1.796  1.00  0.00     0.042 A 
ATOM     17  C   UNL     1       5.758   0.817  -2.362  1.00  0.00     0.026 A 
ATOM     18  Cl  UNL     1       9.417  -1.054  -2.331  1.00  0.00    -0.084 Cl
ATOM     19  C   UNL     1       7.100   0.357  -2.569  1.00  0.00     0.033 A 
BRANCH  11  20
ATOM     20  C   UNL     1       2.456   0.102   2.448  1.00  0.00     0.430 C 
ATOM     21  F   UNL     1       2.602   1.385   2.810  1.00  0.00    -0.167 F 
ATOM     22  F   UNL     1       1.208  -0.275   2.825  1.00  0.00    -0.167 F 
ATOM     23  F   UNL     1       3.294  -0.547   3.316  1.00  0.00    -0.167 F 
ENDBRANCH  11  20
BRANCH  17  24
ATOM     24  C   UNL     1       5.285   1.844  -3.282  1.00  0.00    -0.015 A 
ATOM     25  C   UNL     1       4.515   1.520  -4.404  1.00  0.00     0.009 A 
ATOM     26  C   UNL     1       5.787   3.158  -3.191  1.00  0.00     0.009 A 
ATOM     27  C   UNL     1       4.175   2.499  -5.345  1.00  0.00     0.001 A 
ATOM     28  C   UNL     1       5.421   4.146  -4.112  1.00  0.00     0.001 A 
ATOM     29  C   UNL     1       4.596   3.818  -5.180  1.00  0.00     0.000 A 
ENDBRANCH  17  24
ENDBRANCH   7   9
ENDBRANCH   6   7
ENDBRANCH   5   6
ENDBRANCH   4   5
ENDBRANCH   3   4
ENDBRANCH   2   3
ENDBRANCH   1   2
BRANCH   1  30
ATOM     30  O   UNL     1       2.346   3.914  -1.293  1.00  0.00    -0.376 OA
BRANCH  30  31
ATOM     31  C   UNL     1       3.729   4.095  -1.077  1.00  0.00     0.202 C 
BRANCH  31  32
ATOM     32  C   UNL     1       4.220   5.028   0.032  1.00  0.00     0.261 C 
BRANCH  32  33
ATOM     33  O   UNL     1       3.841   4.633   1.355  1.00  0.00    -0.460 OA
BRANCH  33  34
ATOM     34  C   UNL     1       2.848   5.357   1.922  1.00  0.00     0.338 C 
ATOM     35  O   UNL     1       2.263   6.317   1.452  1.00  0.00    -0.246 OA
BRANCH  34  36
ATOM     36  C   UNL     1       2.435   4.675   3.158  1.00  0.00     0.060 A 
ATOM     37  C   UNL     1       1.152   4.114   3.246  1.00  0.00     0.016 A 
ATOM     38  C   UNL     1       3.308   4.645   4.244  1.00  0.00     0.016 A 
ATOM     39  C   UNL     1       0.736   3.514   4.429  1.00  0.00     0.010 A 
ATOM     40  C   UNL     1       2.873   4.090   5.444  1.00  0.00     0.010 A 
ATOM     41  C   UNL     1       1.577   3.553   5.545  1.00  0.00    -0.014 A 
BRANCH  41  42
ATOM     42  C   UNL     1       1.002   3.295   6.879  1.00  0.00     0.031 A 
ATOM     43  C   UNL     1       0.454   4.474   7.632  1.00  0.00     0.074 A 
ATOM     44  C   UNL     1       0.962   2.057   7.396  1.00  0.00     0.049 A 
ATOM     45  N   UNL     1      -0.058   4.525   8.832  1.00  0.00    -0.248 NA
ATOM     46  C   UNL     1       0.493   5.774   6.936  1.00  0.00     0.031 C 
ATOM     47  C   UNL     1       1.420   0.843   6.724  1.00  0.00     0.029 A 
ATOM     48  N   UNL     1       0.520   1.624   8.619  1.00  0.00    -0.354 N 
ATOM     49  C   UNL     1      -0.388   5.859   9.039  1.00  0.00     0.074 A 
ATOM     50  C   UNL     1       0.003   6.589   7.856  1.00  0.00     0.031 C 
ATOM     51  C   UNL     1       1.248  -0.202   7.554  1.00  0.00     0.029 A 
ATOM     52  C   UNL     1       0.705   0.278   8.824  1.00  0.00     0.049 A 
ATOM     53  H   UNL     1       0.109   2.220   9.287  1.00  0.00     0.167 HD
ATOM     54  C   UNL     1      -0.963   6.422  10.125  1.00  0.00     0.031 A 
ATOM     55  C   UNL     1       0.484  -0.469   9.925  1.00  0.00     0.031 A 
ATOM     56  C   UNL     1      -1.314   5.686  11.308  1.00  0.00     0.049 A 
ATOM     57  C   UNL     1      -0.085   0.198  11.153  1.00  0.00     0.074 A 
ATOM     58  C   UNL     1      -1.912   6.153  12.464  1.00  0.00     0.029 A 
ATOM     59  N   UNL     1      -1.082   4.330  11.493  1.00  0.00    -0.354 N 
ATOM     60  N   UNL     1      -0.425   1.455  11.329  1.00  0.00    -0.248 NA
ATOM     61  C   UNL     1      -0.310  -0.655  12.327  1.00  0.00     0.031 C 
ATOM     62  C   UNL     1      -1.967   5.098  13.378  1.00  0.00     0.029 A 
ATOM     63  C   UNL     1      -1.490   3.951  12.760  1.00  0.00     0.049 A 
ATOM     64  H   UNL     1      -0.685   3.728  10.823  1.00  0.00     0.167 HD
ATOM     65  C   UNL     1      -0.935   1.534  12.622  1.00  0.00     0.074 A 
ATOM     66  C   UNL     1      -0.873   0.196  13.175  1.00  0.00     0.031 C 
ATOM     67  C   UNL     1      -1.416   2.612  13.291  1.00  0.00     0.031 A 
BRANCH  54  68
ATOM     68  C   UNL     1      -1.194   7.910  10.099  1.00  0.00    -0.014 A 
ATOM     69  C   UNL     1      -2.141   8.494   9.239  1.00  0.00     0.010 A 
ATOM     70  C   UNL     1      -0.470   8.735  10.979  1.00  0.00     0.010 A 
ATOM     71  C   UNL     1      -2.340   9.877   9.239  1.00  0.00     0.020 A 
ATOM     72  C   UNL     1      -0.690  10.114  11.008  1.00  0.00     0.020 A 
ATOM     73  C   UNL     1      -1.616  10.677  10.129  1.00  0.00     0.054 A 
BRANCH  73  74
ATOM     74  S   UNL     1      -1.930  12.463  10.141  1.00  0.00     0.124 S 
ATOM     75  O   UNL     1      -1.389  12.875   8.848  1.00  0.00    -0.237 OA
ATOM     76  O   UNL     1      -3.384  12.528  10.263  1.00  0.00    -0.237 OA
ATOM     77  O   UNL     1      -1.187  12.940  11.305  1.00  0.00    -0.744 OA
ENDBRANCH  73  74
ENDBRANCH  54  68
BRANCH  55  78
ATOM     78  C   UNL     1       0.824  -1.919   9.924  1.00  0.00    -0.014 A 
ATOM     79  C   UNL     1      -0.179  -2.899  10.028  1.00  0.00     0.010 A 
ATOM     80  C   UNL     1       2.167  -2.329   9.820  1.00  0.00     0.010 A 
ATOM     81  C   UNL     1       0.155  -4.258  10.044  1.00  0.00     0.020 A 
ATOM     82  C   UNL     1       2.502  -3.686   9.800  1.00  0.00     0.020 A 
ATOM     83  C   UNL     1       1.493  -4.643   9.923  1.00  0.00     0.054 A 
BRANCH  83  84
ATOM     84  S   UNL     1       1.896  -6.412   9.890  1.00  0.00     0.124 S 
ATOM     85  O   UNL     1       1.596  -6.819  11.259  1.00  0.00    -0.237 OA
ATOM     86  O   UNL     1       0.989  -6.920   8.865  1.00  0.00    -0.237 OA
ATOM     87  O   UNL     1       3.312  -6.435   9.527  1.00  0.00    -0.744 OA
ENDBRANCH  83  84
ENDBRANCH  55  78
BRANCH  67  88
ATOM     88  C   UNL     1      -1.958   2.388  14.681  1.00  0.00    -0.014 A 
ATOM     89  C   UNL     1      -1.117   2.059  15.758  1.00  0.00     0.010 A 
ATOM     90  C   UNL     1      -3.333   2.578  14.920  1.00  0.00     0.010 A 
ATOM     91  C   UNL     1      -1.646   1.885  17.040  1.00  0.00     0.020 A 
ATOM     92  C   UNL     1      -3.859   2.445  16.206  1.00  0.00     0.020 A 
ATOM     93  C   UNL     1      -3.014   2.083  17.256  1.00  0.00     0.054 A 
BRANCH  93  94
ATOM     94  S   UNL     1      -3.667   1.893  18.937  1.00  0.00     0.124 S 
ATOM     95  O   UNL     1      -3.548   0.453  19.149  1.00  0.00    -0.237 OA
ATOM     96  O   UNL     1      -2.759   2.722  19.726  1.00  0.00    -0.237 OA
ATOM     97  O   UNL     1      -5.035   2.396  18.838  1.00  0.00    -0.744 OA
ENDBRANCH  93  94
ENDBRANCH  67  88
ENDBRANCH  41  42
ENDBRANCH  34  36
ENDBRANCH  33  34
ENDBRANCH  32  33
ENDBRANCH  31  32
ENDBRANCH  30  31
ENDBRANCH   1  30
TORSDOF 22
