REMARK SMILES CN1CC[N@H+](CC(=O)OCCOCCOCCOC(=O)c2ccc(-c3c4nc(c(-c5ccc(S(=O)(=O)[O-])cc5)c5ccc([nH]5)c(-c5ccc(S(=O)(=O)[O-])cc5)c5nc(c(-c6ccc(S(=O)(=O)[O-])cc6)c6ccc3[nH]6)C=C5)C=C4)cc2)C(C)(C)C1=O
REMARK SMILES IDX 14 1 13 2 12 3 11 4 10 5 9 6 7 7 8 8 6 9 5 10 1 11 2 12 3 13
REMARK SMILES IDX 84 14 4 15 81 16 85 17 82 18 83 19 15 21 16 22 17 23 18 24
REMARK SMILES IDX 19 25 20 26 21 27 22 28 80 29 23 30 79 31 24 32 25 33 26 34
REMARK SMILES IDX 73 35 27 36 78 37 72 38 74 39 28 40 77 41 71 42 70 43 29 45
REMARK SMILES IDX 59 46 40 47 58 48 41 49 44 50 57 51 75 52 42 53 43 54 56 56
REMARK SMILES IDX 76 57 45 58 30 59 31 60 39 61 32 62 38 63 33 64 34 65 35 66
REMARK SMILES IDX 36 67 37 68 60 69 61 70 69 71 62 72 68 73 63 74 64 75 65 76
REMARK SMILES IDX 66 77 67 78 46 79 47 80 55 81 48 82 54 83 49 84 50 85 51 86
REMARK SMILES IDX 52 87 53 88
REMARK H PARENT 5 20 74 44 44 55
REMARK Flexibility Score: inf
ROOT
ATOM      1  C   UNL     1       1.735   2.172   2.839  1.00  0.00     0.188 C 
ENDROOT
BRANCH   1   2
ATOM      2  C   UNL     1       2.659   1.851   4.019  1.00  0.00     0.188 C 
BRANCH   2   3
ATOM      3  O   UNL     1       3.902   1.242   3.704  1.00  0.00    -0.376 OA
BRANCH   3   4
ATOM      4  C   UNL     1       3.860  -0.118   3.260  1.00  0.00     0.202 C 
BRANCH   4   5
ATOM      5  C   UNL     1       2.986  -1.103   4.047  1.00  0.00     0.261 C 
BRANCH   5   6
ATOM      6  O   UNL     1       1.563  -0.975   3.789  1.00  0.00    -0.459 OA
BRANCH   6   7
ATOM      7  C   UNL     1       0.779  -1.058   4.895  1.00  0.00     0.361 C 
ATOM      8  O   UNL     1       1.229  -1.041   6.041  1.00  0.00    -0.245 OA
BRANCH   7   9
ATOM      9  C   UNL     1      -0.727  -1.155   4.685  1.00  0.00     0.387 C 
BRANCH   9  10
ATOM     10  N   UNL     1      -1.307  -1.492   3.386  1.00  0.00    -0.312 N 
ATOM     11  C   UNL     1       0.242  -0.881  -0.559  1.00  0.00     0.147 C 
ATOM     12  N   UNL     1      -0.387  -1.152   0.714  1.00  0.00    -0.335 N 
ATOM     13  C   UNL     1      -1.134  -0.067   1.341  1.00  0.00     0.180 C 
ATOM     14  C   UNL     1       0.016  -2.276   1.435  1.00  0.00     0.283 C 
ATOM     15  C   UNL     1      -1.902  -0.412   2.619  1.00  0.00     0.285 C 
ATOM     16  C   UNL     1      -0.932  -2.677   2.600  1.00  0.00     0.172 C 
ATOM     17  O   UNL     1       0.953  -2.990   1.073  1.00  0.00    -0.268 OA
ATOM     18  C   UNL     1      -2.187  -3.267   1.893  1.00  0.00     0.090 C 
ATOM     19  C   UNL     1      -0.343  -3.815   3.447  1.00  0.00     0.090 C 
ATOM     20  H   UNL     1      -2.028  -1.994   3.905  1.00  0.00     0.349 HD
ENDBRANCH   9  10
ENDBRANCH   7   9
ENDBRANCH   6   7
ENDBRANCH   5   6
ENDBRANCH   4   5
ENDBRANCH   3   4
ENDBRANCH   2   3
ENDBRANCH   1   2
BRANCH   1  21
ATOM     21  O   UNL     1       1.855   1.310   1.709  1.00  0.00    -0.376 OA
BRANCH  21  22
ATOM     22  C   UNL     1       2.740   1.802   0.698  1.00  0.00     0.202 C 
BRANCH  22  23
ATOM     23  C   UNL     1       1.988   2.562  -0.398  1.00  0.00     0.261 C 
BRANCH  23  24
ATOM     24  O   UNL     1       1.232   3.637   0.178  1.00  0.00    -0.460 OA
BRANCH  24  25
ATOM     25  C   UNL     1      -0.106   3.415   0.258  1.00  0.00     0.338 C 
ATOM     26  O   UNL     1      -0.748   2.561  -0.317  1.00  0.00    -0.246 OA
BRANCH  25  27
ATOM     27  C   UNL     1      -0.673   4.273   1.321  1.00  0.00     0.060 A 
ATOM     28  C   UNL     1      -1.636   3.710   2.168  1.00  0.00     0.016 A 
ATOM     29  C   UNL     1      -0.269   5.598   1.495  1.00  0.00     0.016 A 
ATOM     30  C   UNL     1      -2.224   4.478   3.169  1.00  0.00     0.010 A 
ATOM     31  C   UNL     1      -0.862   6.370   2.496  1.00  0.00     0.010 A 
ATOM     32  C   UNL     1      -1.865   5.823   3.317  1.00  0.00    -0.014 A 
BRANCH  32  33
ATOM     33  C   UNL     1      -2.644   6.695   4.226  1.00  0.00     0.031 A 
ATOM     34  C   UNL     1      -3.655   7.638   3.632  1.00  0.00     0.074 A 
ATOM     35  C   UNL     1      -2.478   6.621   5.559  1.00  0.00     0.049 A 
ATOM     36  N   UNL     1      -4.421   8.512   4.229  1.00  0.00    -0.248 NA
ATOM     37  C   UNL     1      -3.824   7.589   2.169  1.00  0.00     0.031 C 
ATOM     38  C   UNL     1      -1.562   5.714   6.253  1.00  0.00     0.029 A 
ATOM     39  N   UNL     1      -3.080   7.327   6.570  1.00  0.00    -0.354 N 
ATOM     40  C   UNL     1      -5.157   9.121   3.218  1.00  0.00     0.074 A 
ATOM     41  C   UNL     1      -4.720   8.543   1.967  1.00  0.00     0.031 C 
ATOM     42  C   UNL     1      -1.664   5.920   7.577  1.00  0.00     0.029 A 
ATOM     43  C   UNL     1      -2.621   6.996   7.823  1.00  0.00     0.049 A 
ATOM     44  H   UNL     1      -3.775   8.006   6.413  1.00  0.00     0.167 HD
ATOM     45  C   UNL     1      -6.119  10.068   3.324  1.00  0.00     0.031 A 
ATOM     46  C   UNL     1      -2.925   7.518   9.028  1.00  0.00     0.031 A 
ATOM     47  C   UNL     1      -6.542  10.648   4.571  1.00  0.00     0.049 A 
ATOM     48  C   UNL     1      -3.941   8.630   9.107  1.00  0.00     0.074 A 
ATOM     49  C   UNL     1      -7.509  11.615   4.785  1.00  0.00     0.029 A 
ATOM     50  N   UNL     1      -6.025  10.317   5.814  1.00  0.00    -0.354 N 
ATOM     51  N   UNL     1      -4.638   9.185   8.143  1.00  0.00    -0.248 NA
ATOM     52  C   UNL     1      -4.218   9.178  10.442  1.00  0.00     0.031 C 
ATOM     53  C   UNL     1      -7.535  11.910   6.152  1.00  0.00     0.029 A 
ATOM     54  C   UNL     1      -6.635  11.078   6.798  1.00  0.00     0.049 A 
ATOM     55  H   UNL     1      -5.327   9.642   5.974  1.00  0.00     0.167 HD
ATOM     56  C   UNL     1      -5.457  10.126   8.761  1.00  0.00     0.074 A 
ATOM     57  C   UNL     1      -5.188  10.042  10.182  1.00  0.00     0.031 C 
ATOM     58  C   UNL     1      -6.350  10.985   8.207  1.00  0.00     0.031 A 
BRANCH  45  59
ATOM     59  C   UNL     1      -6.765  10.554   2.053  1.00  0.00    -0.014 A 
ATOM     60  C   UNL     1      -7.646   9.734   1.325  1.00  0.00     0.010 A 
ATOM     61  C   UNL     1      -6.536  11.871   1.613  1.00  0.00     0.010 A 
ATOM     62  C   UNL     1      -8.267  10.214   0.169  1.00  0.00     0.020 A 
ATOM     63  C   UNL     1      -7.178  12.364   0.474  1.00  0.00     0.020 A 
ATOM     64  C   UNL     1      -8.033  11.528  -0.246  1.00  0.00     0.054 A 
BRANCH  64  65
ATOM     65  S   UNL     1      -8.896  12.139  -1.720  1.00  0.00     0.124 S 
ATOM     66  O   UNL     1      -8.239  11.389  -2.787  1.00  0.00    -0.237 OA
ATOM     67  O   UNL     1     -10.283  11.766  -1.453  1.00  0.00    -0.237 OA
ATOM     68  O   UNL     1      -8.627  13.574  -1.712  1.00  0.00    -0.744 OA
ENDBRANCH  64  65
ENDBRANCH  45  59
BRANCH  46  69
ATOM     69  C   UNL     1      -2.248   7.024  10.261  1.00  0.00    -0.014 A 
ATOM     70  C   UNL     1      -2.977   6.370  11.270  1.00  0.00     0.010 A 
ATOM     71  C   UNL     1      -0.872   7.247  10.451  1.00  0.00     0.010 A 
ATOM     72  C   UNL     1      -2.353   5.987  12.462  1.00  0.00     0.020 A 
ATOM     73  C   UNL     1      -0.236   6.834  11.625  1.00  0.00     0.020 A 
ATOM     74  C   UNL     1      -0.986   6.224  12.632  1.00  0.00     0.054 A 
BRANCH  74  75
ATOM     75  S   UNL     1      -0.194   5.708  14.180  1.00  0.00     0.124 S 
ATOM     76  O   UNL     1      -0.718   6.686  15.129  1.00  0.00    -0.237 OA
ATOM     77  O   UNL     1      -0.683   4.341  14.343  1.00  0.00    -0.237 OA
ATOM     78  O   UNL     1       1.233   5.821  13.888  1.00  0.00    -0.744 OA
ENDBRANCH  74  75
ENDBRANCH  46  69
BRANCH  58  79
ATOM     79  C   UNL     1      -7.125  11.872   9.147  1.00  0.00    -0.014 A 
ATOM     80  C   UNL     1      -6.497  12.907   9.864  1.00  0.00     0.010 A 
ATOM     81  C   UNL     1      -8.509  11.673   9.307  1.00  0.00     0.010 A 
ATOM     82  C   UNL     1      -7.226  13.684  10.769  1.00  0.00     0.020 A 
ATOM     83  C   UNL     1      -9.248  12.472  10.183  1.00  0.00     0.020 A 
ATOM     84  C   UNL     1      -8.596  13.456  10.928  1.00  0.00     0.054 A 
BRANCH  84  85
ATOM     85  S   UNL     1      -9.519  14.476  12.109  1.00  0.00     0.124 S 
ATOM     86  O   UNL     1      -9.059  13.948  13.390  1.00  0.00    -0.237 OA
ATOM     87  O   UNL     1      -9.067  15.828  11.787  1.00  0.00    -0.237 OA
ATOM     88  O   UNL     1     -10.917  14.200  11.787  1.00  0.00    -0.744 OA
ENDBRANCH  84  85
ENDBRANCH  58  79
ENDBRANCH  32  33
ENDBRANCH  25  27
ENDBRANCH  24  25
ENDBRANCH  23  24
ENDBRANCH  22  23
ENDBRANCH  21  22
ENDBRANCH   1  21
TORSDOF 21
