REMARK SMILES C[C@]1(C(=O)OCCOCCOCCOC(=O)c2ccc(-c3c4nc(c(-c5ccc(S(=O)(=O)[O-])cc5)c5ccc([nH]5)c(-c5ccc(S(=O)(=O)[O-])cc5)c5nc(c(-c6ccc(S(=O)(=O)[O-])cc6)c6ccc3[nH]6)C=C5)C=C4)cc2)[NH2+]C2(C(=O)c3ccccc3C2=O)[C@@H]2C(=O)N(c3ccccc3)C(=O)[C@H]21
REMARK SMILES IDX 10 1 9 2 8 3 7 4 6 5 5 6 3 7 4 8 2 9 1 10 77 11 101 12 78 13
REMARK SMILES IDX 89 16 99 17 79 18 87 19 90 20 92 21 100 22 80 23 81 24 86 25
REMARK SMILES IDX 88 26 91 27 82 28 85 29 83 30 84 31 93 32 94 33 98 34 95 35
REMARK SMILES IDX 97 36 96 37 11 38 12 39 13 40 14 41 15 42 16 43 17 44 18 45
REMARK SMILES IDX 76 46 19 47 75 48 20 49 21 50 22 51 69 52 23 53 74 54 68 55
REMARK SMILES IDX 70 56 24 57 73 58 67 59 66 60 25 62 55 63 36 64 54 65 37 66
REMARK SMILES IDX 40 67 53 68 71 69 38 70 39 71 52 73 72 74 41 75 26 76 27 77
REMARK SMILES IDX 35 78 28 79 34 80 29 81 30 82 31 83 32 84 33 85 56 86 57 87
REMARK SMILES IDX 65 88 58 89 64 90 59 91 60 92 61 93 62 94 63 95 42 96 43 97
REMARK SMILES IDX 51 98 44 99 50 100 45 101 46 102 47 103 48 104 49 105
REMARK H PARENT 77 14 77 15 70 61 40 72
REMARK Flexibility Score: inf
ROOT
ATOM      1  C   UNL     1      -0.505  -0.938   3.178  1.00  0.00     0.188 C 
ENDROOT
BRANCH   1   2
ATOM      2  C   UNL     1       0.897  -1.462   3.531  1.00  0.00     0.188 C 
BRANCH   2   3
ATOM      3  O   UNL     1       1.305  -1.270   4.861  1.00  0.00    -0.376 OA
BRANCH   3   4
ATOM      4  C   UNL     1       1.845  -0.024   5.263  1.00  0.00     0.202 C 
BRANCH   4   5
ATOM      5  C   UNL     1       1.954   1.244   4.391  1.00  0.00     0.261 C 
BRANCH   5   6
ATOM      6  O   UNL     1       1.140   1.353   3.216  1.00  0.00    -0.459 OA
BRANCH   6   7
ATOM      7  C   UNL     1       1.791   1.226   2.026  1.00  0.00     0.368 C 
ATOM      8  O   UNL     1       2.982   0.950   1.943  1.00  0.00    -0.245 OA
BRANCH   7   9
ATOM      9  C   UNL     1       0.899   1.502   0.774  1.00  0.00     0.205 C 
ATOM     10  C   UNL     1       1.262   0.454  -0.280  1.00  0.00     0.093 C 
ATOM     11  N   UNL     1      -0.611   1.478   1.008  1.00  0.00    -0.313 N 
ATOM     12  C   UNL     1       1.069   2.922   0.324  1.00  0.00     0.172 C 
ATOM     13  C   UNL     1      -1.109   2.905   1.140  1.00  0.00     0.237 C 
ATOM     14  H   UNL     1      -0.817   0.962   1.863  1.00  0.00     0.348 HD
ATOM     15  H   UNL     1      -1.075   1.020   0.223  1.00  0.00     0.348 HD
ATOM     16  C   UNL     1       0.173   3.633   1.326  1.00  0.00     0.177 C 
ATOM     17  C   UNL     1       2.322   3.712   0.444  1.00  0.00     0.244 C 
ATOM     18  C   UNL     1      -1.970   3.272  -0.070  1.00  0.00     0.232 C 
ATOM     19  C   UNL     1      -2.093   3.033   2.307  1.00  0.00     0.232 C 
ATOM     20  C   UNL     1       0.545   5.045   1.089  1.00  0.00     0.245 C 
ATOM     21  N   UNL     1       1.915   4.985   0.841  1.00  0.00    -0.250 N 
ATOM     22  O   UNL     1       3.425   3.291   0.170  1.00  0.00    -0.273 OA
ATOM     23  O   UNL     1      -1.621   3.331  -1.235  1.00  0.00    -0.286 OA
ATOM     24  C   UNL     1      -3.352   3.442   0.377  1.00  0.00     0.036 A 
ATOM     25  C   UNL     1      -3.430   3.279   1.753  1.00  0.00     0.036 A 
ATOM     26  O   UNL     1      -1.858   3.022   3.502  1.00  0.00    -0.286 OA
ATOM     27  O   UNL     1      -0.198   5.999   1.244  1.00  0.00    -0.273 OA
ATOM     28  C   UNL     1      -4.471   3.707  -0.394  1.00  0.00     0.013 A 
ATOM     29  C   UNL     1      -4.638   3.378   2.421  1.00  0.00     0.013 A 
ATOM     30  C   UNL     1      -5.699   3.814   0.266  1.00  0.00     0.001 A 
ATOM     31  C   UNL     1      -5.782   3.649   1.662  1.00  0.00     0.001 A 
BRANCH  21  32
ATOM     32  C   UNL     1       2.847   5.994   1.147  1.00  0.00     0.052 A 
ATOM     33  C   UNL     1       4.022   6.125   0.396  1.00  0.00     0.027 A 
ATOM     34  C   UNL     1       2.693   6.757   2.311  1.00  0.00     0.027 A 
ATOM     35  C   UNL     1       5.037   6.985   0.808  1.00  0.00     0.002 A 
ATOM     36  C   UNL     1       3.729   7.588   2.744  1.00  0.00     0.002 A 
ATOM     37  C   UNL     1       4.898   7.701   1.993  1.00  0.00     0.000 A 
ENDBRANCH  21  32
ENDBRANCH   7   9
ENDBRANCH   6   7
ENDBRANCH   5   6
ENDBRANCH   4   5
ENDBRANCH   3   4
ENDBRANCH   2   3
ENDBRANCH   1   2
BRANCH   1  38
ATOM     38  O   UNL     1      -1.260  -0.180   4.099  1.00  0.00    -0.376 OA
BRANCH  38  39
ATOM     39  C   UNL     1      -1.544  -0.750   5.365  1.00  0.00     0.202 C 
BRANCH  39  40
ATOM     40  C   UNL     1      -2.017  -2.212   5.495  1.00  0.00     0.261 C 
BRANCH  40  41
ATOM     41  O   UNL     1      -1.344  -3.180   4.672  1.00  0.00    -0.460 OA
BRANCH  41  42
ATOM     42  C   UNL     1      -2.047  -3.665   3.610  1.00  0.00     0.338 C 
ATOM     43  O   UNL     1      -3.200  -3.407   3.311  1.00  0.00    -0.246 OA
BRANCH  42  44
ATOM     44  C   UNL     1      -1.092  -4.359   2.710  1.00  0.00     0.060 A 
ATOM     45  C   UNL     1      -0.365  -5.454   3.167  1.00  0.00     0.016 A 
ATOM     46  C   UNL     1      -0.873  -3.855   1.415  1.00  0.00     0.016 A 
ATOM     47  C   UNL     1       0.580  -6.049   2.325  1.00  0.00     0.010 A 
ATOM     48  C   UNL     1       0.101  -4.425   0.590  1.00  0.00     0.010 A 
ATOM     49  C   UNL     1       0.820  -5.542   1.033  1.00  0.00    -0.014 A 
BRANCH  49  50
ATOM     50  C   UNL     1       1.648  -6.326   0.084  1.00  0.00     0.031 A 
ATOM     51  C   UNL     1       3.084  -6.005  -0.197  1.00  0.00     0.074 A 
ATOM     52  C   UNL     1       1.059  -7.378  -0.517  1.00  0.00     0.049 A 
ATOM     53  N   UNL     1       3.949  -6.699  -0.893  1.00  0.00    -0.248 NA
ATOM     54  C   UNL     1       3.623  -4.757   0.362  1.00  0.00     0.031 C 
ATOM     55  C   UNL     1      -0.342  -7.762  -0.327  1.00  0.00     0.029 A 
ATOM     56  N   UNL     1       1.553  -8.324  -1.378  1.00  0.00    -0.354 N 
ATOM     57  C   UNL     1       5.145  -5.993  -0.834  1.00  0.00     0.074 A 
ATOM     58  C   UNL     1       4.879  -4.788  -0.075  1.00  0.00     0.031 C 
ATOM     59  C   UNL     1      -0.583  -8.887  -1.014  1.00  0.00     0.029 A 
ATOM     60  C   UNL     1       0.631  -9.286  -1.722  1.00  0.00     0.049 A 
ATOM     61  H   UNL     1       2.477  -8.316  -1.718  1.00  0.00     0.167 HD
ATOM     62  C   UNL     1       6.349  -6.339  -1.351  1.00  0.00     0.031 A 
ATOM     63  C   UNL     1       0.743 -10.376  -2.506  1.00  0.00     0.031 A 
ATOM     64  C   UNL     1       6.583  -7.540  -2.121  1.00  0.00     0.049 A 
ATOM     65  C   UNL     1       2.077 -10.709  -3.109  1.00  0.00     0.074 A 
ATOM     66  C   UNL     1       7.783  -8.002  -2.635  1.00  0.00     0.029 A 
ATOM     67  N   UNL     1       5.612  -8.456  -2.501  1.00  0.00    -0.354 N 
ATOM     68  N   UNL     1       3.222 -10.091  -2.951  1.00  0.00    -0.248 NA
ATOM     69  C   UNL     1       2.143 -11.889  -3.981  1.00  0.00     0.031 C 
ATOM     70  C   UNL     1       7.524  -9.139  -3.401  1.00  0.00     0.029 A 
ATOM     71  C   UNL     1       6.178  -9.447  -3.290  1.00  0.00     0.049 A 
ATOM     72  H   UNL     1       4.662  -8.410  -2.248  1.00  0.00     0.167 HD
ATOM     73  C   UNL     1       4.148 -10.811  -3.697  1.00  0.00     0.074 A 
ATOM     74  C   UNL     1       3.436 -11.928  -4.282  1.00  0.00     0.031 C 
ATOM     75  C   UNL     1       5.467 -10.557  -3.881  1.00  0.00     0.031 A 
BRANCH  62  76
ATOM     76  C   UNL     1       7.540  -5.443  -1.099  1.00  0.00    -0.014 A 
ATOM     77  C   UNL     1       8.209  -4.839  -2.182  1.00  0.00     0.010 A 
ATOM     78  C   UNL     1       8.107  -5.348   0.185  1.00  0.00     0.010 A 
ATOM     79  C   UNL     1       9.440  -4.201  -1.995  1.00  0.00     0.020 A 
ATOM     80  C   UNL     1       9.322  -4.683   0.381  1.00  0.00     0.020 A 
ATOM     81  C   UNL     1       9.995  -4.139  -0.715  1.00  0.00     0.054 A 
BRANCH  81  82
ATOM     82  S   UNL     1      11.623  -3.364  -0.503  1.00  0.00     0.124 S 
ATOM     83  O   UNL     1      12.514  -4.337  -1.127  1.00  0.00    -0.237 OA
ATOM     84  O   UNL     1      11.469  -2.099  -1.220  1.00  0.00    -0.237 OA
ATOM     85  O   UNL     1      11.757  -3.236   0.947  1.00  0.00    -0.744 OA
ENDBRANCH  81  82
ENDBRANCH  62  76
BRANCH  63  86
ATOM     86  C   UNL     1      -0.454 -11.241  -2.704  1.00  0.00    -0.014 A 
ATOM     87  C   UNL     1      -1.592 -10.736  -3.363  1.00  0.00     0.010 A 
ATOM     88  C   UNL     1      -0.508 -12.526  -2.138  1.00  0.00     0.010 A 
ATOM     89  C   UNL     1      -2.782 -11.465  -3.385  1.00  0.00     0.020 A 
ATOM     90  C   UNL     1      -1.688 -13.276  -2.191  1.00  0.00     0.020 A 
ATOM     91  C   UNL     1      -2.826 -12.724  -2.783  1.00  0.00     0.054 A 
BRANCH  91  92
ATOM     92  S   UNL     1      -4.406 -13.614  -2.754  1.00  0.00     0.124 S 
ATOM     93  O   UNL     1      -5.167 -12.842  -1.775  1.00  0.00    -0.237 OA
ATOM     94  O   UNL     1      -4.861 -13.498  -4.137  1.00  0.00    -0.237 OA
ATOM     95  O   UNL     1      -4.034 -14.962  -2.333  1.00  0.00    -0.744 OA
ENDBRANCH  91  92
ENDBRANCH  63  86
BRANCH  75  96
ATOM     96  C   UNL     1       6.256 -11.476  -4.782  1.00  0.00    -0.014 A 
ATOM     97  C   UNL     1       7.319 -12.237  -4.257  1.00  0.00     0.010 A 
ATOM     98  C   UNL     1       6.057 -11.455  -6.174  1.00  0.00     0.010 A 
ATOM     99  C   UNL     1       8.205 -12.903  -5.108  1.00  0.00     0.020 A 
ATOM    100  C   UNL     1       6.921 -12.149  -7.027  1.00  0.00     0.020 A 
ATOM    101  C   UNL     1       8.010 -12.839  -6.490  1.00  0.00     0.054 A 
BRANCH 101 102
ATOM    102  S   UNL     1       9.225 -13.630  -7.581  1.00  0.00     0.124 S 
ATOM    103  O   UNL     1      10.390 -12.764  -7.424  1.00  0.00    -0.237 OA
ATOM    104  O   UNL     1       9.351 -14.965  -7.003  1.00  0.00    -0.237 OA
ATOM    105  O   UNL     1       8.589 -13.585  -8.896  1.00  0.00    -0.744 OA
ENDBRANCH 101 102
ENDBRANCH  75  96
ENDBRANCH  49  50
ENDBRANCH  42  44
ENDBRANCH  41  42
ENDBRANCH  40  41
ENDBRANCH  39  40
ENDBRANCH  38  39
ENDBRANCH   1  38
TORSDOF 21
