REMARK SMILES O=C(Cn1c2ccccc2c(=O)c2cc(F)ccc21)OCCOCCOCCOC(=O)c1ccc(-c2c3nc(c(-c4ccc(S(=O)(=O)[O-])cc4)c4ccc([nH]4)c(-c4ccc(S(=O)(=O)[O-])cc4)c4nc(c(-c5ccc(S(=O)(=O)[O-])cc5)c5ccc2[nH]5)C=C4)C=C3)cc1
REMARK SMILES IDX 25 1 24 2 23 3 22 4 21 5 20 6 2 7 1 8 3 9 4 10 5 11 19 12
REMARK SMILES IDX 6 13 10 14 13 15 18 16 7 17 9 18 11 19 14 20 17 21 8 22
REMARK SMILES IDX 12 23 15 24 16 25 26 26 27 27 28 28 29 29 30 30 31 31 32 32
REMARK SMILES IDX 33 33 91 34 34 35 90 36 35 37 36 38 37 39 84 40 38 41 89 42
REMARK SMILES IDX 83 43 85 44 39 45 88 46 82 47 81 48 40 50 70 51 51 52 69 53
REMARK SMILES IDX 52 54 55 55 68 56 86 57 53 58 54 59 67 61 87 62 56 63 41 64
REMARK SMILES IDX 42 65 50 66 43 67 49 68 44 69 45 70 46 71 47 72 48 73 71 74
REMARK SMILES IDX 72 75 80 76 73 77 79 78 74 79 75 80 76 81 77 82 78 83 57 84
REMARK SMILES IDX 58 85 66 86 59 87 65 88 60 89 61 90 62 91 63 92 64 93
REMARK H PARENT 85 49 55 60
REMARK Flexibility Score: inf
ROOT
ATOM      1  C   UNL     1       2.231   3.180  -1.264  1.00  0.00     0.188 C 
ENDROOT
BRANCH   1   2
ATOM      2  C   UNL     1       2.593   1.812  -0.697  1.00  0.00     0.188 C 
BRANCH   2   3
ATOM      3  O   UNL     1       3.849   1.690  -0.024  1.00  0.00    -0.376 OA
BRANCH   3   4
ATOM      4  C   UNL     1       4.781   0.808  -0.656  1.00  0.00     0.202 C 
BRANCH   4   5
ATOM      5  C   UNL     1       4.435  -0.689  -0.723  1.00  0.00     0.261 C 
BRANCH   5   6
ATOM      6  O   UNL     1       3.047  -1.034  -0.626  1.00  0.00    -0.462 OA
BRANCH   6   7
ATOM      7  C   UNL     1       2.288  -0.894   0.486  1.00  0.00     0.326 C 
ATOM      8  O   UNL     1       1.060  -0.861   0.368  1.00  0.00    -0.250 OA
BRANCH   7   9
ATOM      9  C   UNL     1       2.947  -0.735   1.856  1.00  0.00     0.245 C 
BRANCH   9  10
ATOM     10  N   UNL     1       3.870  -1.839   2.202  1.00  0.00    -0.329 N 
ATOM     11  C   UNL     1       5.232  -1.548   2.442  1.00  0.00     0.053 A 
ATOM     12  C   UNL     1       3.388  -3.158   2.012  1.00  0.00     0.053 A 
ATOM     13  C   UNL     1       5.711  -0.271   2.788  1.00  0.00     0.027 A 
ATOM     14  C   UNL     1       6.192  -2.566   2.284  1.00  0.00     0.046 A 
ATOM     15  C   UNL     1       4.301  -4.210   1.819  1.00  0.00     0.049 A 
ATOM     16  C   UNL     1       2.018  -3.479   1.960  1.00  0.00     0.030 A 
ATOM     17  C   UNL     1       7.083  -0.007   2.896  1.00  0.00     0.002 A 
ATOM     18  C   UNL     1       7.566  -2.308   2.404  1.00  0.00     0.014 A 
ATOM     19  C   UNL     1       5.750  -3.926   1.902  1.00  0.00     0.197 A 
ATOM     20  C   UNL     1       3.873  -5.502   1.491  1.00  0.00     0.053 A 
ATOM     21  C   UNL     1       1.583  -4.761   1.613  1.00  0.00     0.041 A 
ATOM     22  C   UNL     1       8.011  -1.023   2.696  1.00  0.00     0.001 A 
ATOM     23  O   UNL     1       6.571  -4.795   1.624  1.00  0.00    -0.288 OA
ATOM     24  C   UNL     1       2.516  -5.756   1.368  1.00  0.00     0.124 A 
ATOM     25  F   UNL     1       2.098  -6.974   1.001  1.00  0.00    -0.207 F 
ENDBRANCH   9  10
ENDBRANCH   7   9
ENDBRANCH   6   7
ENDBRANCH   5   6
ENDBRANCH   4   5
ENDBRANCH   3   4
ENDBRANCH   2   3
ENDBRANCH   1   2
BRANCH   1  26
ATOM     26  O   UNL     1       3.074   3.671  -2.294  1.00  0.00    -0.376 OA
BRANCH  26  27
ATOM     27  C   UNL     1       4.386   4.085  -1.920  1.00  0.00     0.202 C 
BRANCH  27  28
ATOM     28  C   UNL     1       4.506   5.204  -0.880  1.00  0.00     0.261 C 
BRANCH  28  29
ATOM     29  O   UNL     1       4.201   4.769   0.462  1.00  0.00    -0.460 OA
BRANCH  29  30
ATOM     30  C   UNL     1       3.159   5.399   1.056  1.00  0.00     0.338 C 
ATOM     31  O   UNL     1       2.441   6.260   0.563  1.00  0.00    -0.246 OA
BRANCH  30  32
ATOM     32  C   UNL     1       2.900   4.833   2.391  1.00  0.00     0.060 A 
ATOM     33  C   UNL     1       3.798   5.076   3.430  1.00  0.00     0.016 A 
ATOM     34  C   UNL     1       1.672   4.208   2.646  1.00  0.00     0.016 A 
ATOM     35  C   UNL     1       3.445   4.726   4.738  1.00  0.00     0.010 A 
ATOM     36  C   UNL     1       1.322   3.861   3.956  1.00  0.00     0.010 A 
ATOM     37  C   UNL     1       2.194   4.144   5.018  1.00  0.00    -0.014 A 
BRANCH  37  38
ATOM     38  C   UNL     1       1.755   3.994   6.431  1.00  0.00     0.031 A 
ATOM     39  C   UNL     1       1.765   2.666   7.129  1.00  0.00     0.074 A 
ATOM     40  C   UNL     1       1.353   5.092   7.103  1.00  0.00     0.049 A 
ATOM     41  N   UNL     1       1.566   2.410   8.397  1.00  0.00    -0.248 NA
ATOM     42  C   UNL     1       2.028   1.476   6.307  1.00  0.00     0.031 C 
ATOM     43  C   UNL     1       1.260   6.435   6.527  1.00  0.00     0.029 A 
ATOM     44  N   UNL     1       0.970   5.262   8.411  1.00  0.00    -0.354 N 
ATOM     45  C   UNL     1       1.707   1.036   8.536  1.00  0.00     0.074 A 
ATOM     46  C   UNL     1       1.957   0.506   7.211  1.00  0.00     0.031 C 
ATOM     47  C   UNL     1       0.882   7.295   7.485  1.00  0.00     0.029 A 
ATOM     48  C   UNL     1       0.684   6.568   8.737  1.00  0.00     0.049 A 
ATOM     49  H   UNL     1       0.905   4.520   9.055  1.00  0.00     0.167 HD
ATOM     50  C   UNL     1       1.652   0.294   9.668  1.00  0.00     0.031 A 
ATOM     51  C   UNL     1       0.321   7.130   9.909  1.00  0.00     0.031 A 
ATOM     52  C   UNL     1       1.378   0.827  10.981  1.00  0.00     0.049 A 
ATOM     53  C   UNL     1       0.235   6.281  11.147  1.00  0.00     0.074 A 
ATOM     54  C   UNL     1       1.365   0.151  12.190  1.00  0.00     0.029 A 
ATOM     55  N   UNL     1       1.052   2.145  11.263  1.00  0.00    -0.354 N 
ATOM     56  N   UNL     1       0.485   5.000  11.280  1.00  0.00    -0.248 NA
ATOM     57  C   UNL     1      -0.159   6.950  12.395  1.00  0.00     0.031 C 
ATOM     58  C   UNL     1       0.953   1.038  13.187  1.00  0.00     0.029 A 
ATOM     59  C   UNL     1       0.793   2.290  12.618  1.00  0.00     0.049 A 
ATOM     60  H   UNL     1       1.011   2.871  10.599  1.00  0.00     0.167 HD
ATOM     61  C   UNL     1       0.297   4.715  12.629  1.00  0.00     0.074 A 
ATOM     62  C   UNL     1      -0.068   5.959  13.274  1.00  0.00     0.031 C 
ATOM     63  C   UNL     1       0.419   3.525  13.267  1.00  0.00     0.031 A 
BRANCH  50  64
ATOM     64  C   UNL     1       1.917  -1.188   9.569  1.00  0.00    -0.014 A 
ATOM     65  C   UNL     1       0.901  -2.107   9.892  1.00  0.00     0.010 A 
ATOM     66  C   UNL     1       3.214  -1.667   9.311  1.00  0.00     0.010 A 
ATOM     67  C   UNL     1       1.183  -3.472   9.994  1.00  0.00     0.020 A 
ATOM     68  C   UNL     1       3.494  -3.035   9.384  1.00  0.00     0.020 A 
ATOM     69  C   UNL     1       2.482  -3.925   9.750  1.00  0.00     0.054 A 
BRANCH  69  70
ATOM     70  S   UNL     1       2.839  -5.695   9.929  1.00  0.00     0.124 S 
ATOM     71  O   UNL     1       2.829  -5.867  11.378  1.00  0.00    -0.237 OA
ATOM     72  O   UNL     1       1.729  -6.316   9.210  1.00  0.00    -0.237 OA
ATOM     73  O   UNL     1       4.145  -5.845   9.290  1.00  0.00    -0.744 OA
ENDBRANCH  69  70
ENDBRANCH  50  64
BRANCH  51  74
ATOM     74  C   UNL     1       0.072   8.598   9.955  1.00  0.00    -0.014 A 
ATOM     75  C   UNL     1      -1.026   9.154   9.271  1.00  0.00     0.010 A 
ATOM     76  C   UNL     1       0.979   9.457  10.601  1.00  0.00     0.010 A 
ATOM     77  C   UNL     1      -1.177  10.539   9.176  1.00  0.00     0.020 A 
ATOM     78  C   UNL     1       0.813  10.844  10.536  1.00  0.00     0.020 A 
ATOM     79  C   UNL     1      -0.246  11.376   9.796  1.00  0.00     0.054 A 
BRANCH  79  80
ATOM     80  S   UNL     1      -0.422  13.171   9.599  1.00  0.00     0.124 S 
ATOM     81  O   UNL     1       0.028  13.365   8.223  1.00  0.00    -0.237 OA
ATOM     82  O   UNL     1      -1.850  13.378   9.829  1.00  0.00    -0.237 OA
ATOM     83  O   UNL     1       0.458  13.716  10.628  1.00  0.00    -0.744 OA
ENDBRANCH  79  80
ENDBRANCH  51  74
BRANCH  63  84
ATOM     84  C   UNL     1       0.149   3.471  14.752  1.00  0.00    -0.014 A 
ATOM     85  C   UNL     1       1.192   3.148  15.642  1.00  0.00     0.010 A 
ATOM     86  C   UNL     1      -1.158   3.601  15.255  1.00  0.00     0.010 A 
ATOM     87  C   UNL     1       0.928   2.913  16.994  1.00  0.00     0.020 A 
ATOM     88  C   UNL     1      -1.421   3.398  16.614  1.00  0.00     0.020 A 
ATOM     89  C   UNL     1      -0.380   3.027  17.470  1.00  0.00     0.054 A 
BRANCH  89  90
ATOM     90  S   UNL     1      -0.711   2.671  19.218  1.00  0.00     0.124 S 
ATOM     91  O   UNL     1      -0.625   1.214  19.257  1.00  0.00    -0.237 OA
ATOM     92  O   UNL     1       0.368   3.383  19.900  1.00  0.00    -0.237 OA
ATOM     93  O   UNL     1      -2.046   3.224  19.435  1.00  0.00    -0.744 OA
ENDBRANCH  89  90
ENDBRANCH  63  84
ENDBRANCH  37  38
ENDBRANCH  30  32
ENDBRANCH  29  30
ENDBRANCH  28  29
ENDBRANCH  27  28
ENDBRANCH  26  27
ENDBRANCH   1  26
TORSDOF 21
