REMARK SMILES O=C(CCCN1C(=O)/C(=C\c2ccc(O)c(O)c2)SC1=S)OCCOCCOCCOC(=O)c1ccc(-c2c3nc(c(-c4ccc(S(=O)(=O)[O-])cc4)c4ccc([nH]4)c(-c4ccc(S(=O)(=O)[O-])cc4)c4nc(c(-c5ccc(S(=O)(=O)[O-])cc5)c5ccc2[nH]5)C=C4)C=C3)cc1
REMARK SMILES IDX 26 1 25 2 24 3 23 4 22 5 2 6 1 7 3 8 4 9 5 10 6 11 7 12
REMARK SMILES IDX 20 13 8 14 9 15 19 16 21 17 10 18 11 19 12 20 18 21 13 22
REMARK SMILES IDX 16 23 14 24 17 25 15 27 27 29 28 30 29 31 30 32 31 33 32 34
REMARK SMILES IDX 33 35 34 36 35 37 93 38 36 39 92 40 37 41 38 42 39 43 86 44
REMARK SMILES IDX 40 45 91 46 85 47 87 48 41 49 90 50 84 51 83 52 42 54 72 55
REMARK SMILES IDX 53 56 71 57 54 58 57 59 70 60 88 61 55 62 56 63 69 65 89 66
REMARK SMILES IDX 58 67 43 68 44 69 52 70 45 71 51 72 46 73 47 74 48 75 49 76
REMARK SMILES IDX 50 77 73 78 74 79 82 80 75 81 81 82 76 83 77 84 78 85 79 86
REMARK SMILES IDX 80 87 59 88 60 89 68 90 61 91 67 92 62 93 63 94 64 95 65 96
REMARK SMILES IDX 66 97
REMARK H PARENT 17 26 15 28 87 53 57 64
REMARK Flexibility Score: inf
ROOT
ATOM      1  C   UNL     1       2.157   0.468   1.483  1.00  0.00     0.188 C 
ENDROOT
BRANCH   1   2
ATOM      2  O   UNL     1       3.298   0.483   0.612  1.00  0.00    -0.376 OA
BRANCH   2   3
ATOM      3  C   UNL     1       3.216   1.441  -0.429  1.00  0.00     0.202 C 
BRANCH   3   4
ATOM      4  C   UNL     1       3.354   0.864  -1.836  1.00  0.00     0.261 C 
BRANCH   4   5
ATOM      5  O   UNL     1       2.807  -0.422  -2.168  1.00  0.00    -0.463 OA
BRANCH   5   6
ATOM      6  C   UNL     1       2.440  -1.308  -1.228  1.00  0.00     0.305 C 
ATOM      7  O   UNL     1       1.249  -1.538  -1.029  1.00  0.00    -0.252 OA
BRANCH   6   8
ATOM      8  C   UNL     1       3.531  -2.078  -0.501  1.00  0.00     0.124 C 
BRANCH   8   9
ATOM      9  C   UNL     1       4.900  -2.331  -1.125  1.00  0.00     0.034 C 
BRANCH   9  10
ATOM     10  C   UNL     1       5.981  -1.238  -1.308  1.00  0.00     0.128 C 
BRANCH  10  11
ATOM     11  N   UNL     1       6.450  -0.384  -0.193  1.00  0.00    -0.293 N 
ATOM     12  C   UNL     1       6.604   0.992  -0.412  1.00  0.00     0.266 C 
ATOM     13  C   UNL     1       7.092  -0.857   0.936  1.00  0.00     0.148 C 
ATOM     14  O   UNL     1       6.420   1.577  -1.472  1.00  0.00    -0.268 OA
ATOM     15  C   UNL     1       7.182   1.683   0.780  1.00  0.00     0.081 C 
ATOM     16  S   UNL     1       7.791   0.478   1.857  1.00  0.00    -0.054 SA
ATOM     17  S   UNL     1       7.311  -2.431   1.438  1.00  0.00    -0.052 S 
ATOM     18  C   UNL     1       7.206   2.991   1.103  1.00  0.00     0.029 C 
BRANCH  18  19
ATOM     19  C   UNL     1       6.515   4.119   0.452  1.00  0.00    -0.020 A 
ATOM     20  C   UNL     1       5.265   4.518   0.957  1.00  0.00     0.012 A 
ATOM     21  C   UNL     1       7.078   4.878  -0.573  1.00  0.00     0.058 A 
ATOM     22  C   UNL     1       4.517   5.551   0.392  1.00  0.00     0.051 A 
ATOM     23  C   UNL     1       6.356   5.954  -1.098  1.00  0.00     0.157 A 
ATOM     24  C   UNL     1       5.068   6.257  -0.656  1.00  0.00     0.157 A 
BRANCH  23  25
ATOM     25  O   UNL     1       6.926   6.744  -2.057  1.00  0.00    -0.504 OA
ATOM     26  H   UNL     1       6.448   7.467  -2.414  1.00  0.00     0.293 HD
ENDBRANCH  23  25
BRANCH  24  27
ATOM     27  O   UNL     1       4.385   7.267  -1.272  1.00  0.00    -0.504 OA
ATOM     28  H   UNL     1       3.519   7.487  -0.990  1.00  0.00     0.293 HD
ENDBRANCH  24  27
ENDBRANCH  18  19
ENDBRANCH  10  11
ENDBRANCH   9  10
ENDBRANCH   8   9
ENDBRANCH   6   8
ENDBRANCH   5   6
ENDBRANCH   4   5
ENDBRANCH   3   4
ENDBRANCH   2   3
ENDBRANCH   1   2
BRANCH   1  29
ATOM     29  C   UNL     1       1.864   1.829   2.117  1.00  0.00     0.188 C 
BRANCH  29  30
ATOM     30  O   UNL     1       3.011   2.618   2.420  1.00  0.00    -0.376 OA
BRANCH  30  31
ATOM     31  C   UNL     1       4.130   1.928   2.977  1.00  0.00     0.202 C 
BRANCH  31  32
ATOM     32  C   UNL     1       4.638   2.682   4.209  1.00  0.00     0.261 C 
BRANCH  32  33
ATOM     33  O   UNL     1       4.234   1.950   5.369  1.00  0.00    -0.460 OA
BRANCH  33  34
ATOM     34  C   UNL     1       2.888   1.903   5.506  1.00  0.00     0.338 C 
ATOM     35  O   UNL     1       2.097   2.796   5.242  1.00  0.00    -0.246 OA
BRANCH  34  36
ATOM     36  C   UNL     1       2.500   0.500   5.753  1.00  0.00     0.060 A 
ATOM     37  C   UNL     1       1.230   0.090   5.326  1.00  0.00     0.016 A 
ATOM     38  C   UNL     1       3.363  -0.396   6.396  1.00  0.00     0.016 A 
ATOM     39  C   UNL     1       0.767  -1.173   5.652  1.00  0.00     0.010 A 
ATOM     40  C   UNL     1       2.894  -1.657   6.745  1.00  0.00     0.010 A 
ATOM     41  C   UNL     1       1.565  -1.996   6.452  1.00  0.00    -0.014 A 
BRANCH  41  42
ATOM     42  C   UNL     1       0.880  -2.998   7.284  1.00  0.00     0.031 A 
ATOM     43  C   UNL     1       0.448  -2.561   8.660  1.00  0.00     0.074 A 
ATOM     44  C   UNL     1       0.594  -4.211   6.795  1.00  0.00     0.049 A 
ATOM     45  N   UNL     1      -0.198  -3.228   9.576  1.00  0.00    -0.248 NA
ATOM     46  C   UNL     1       0.788  -1.180   9.055  1.00  0.00     0.031 C 
ATOM     47  C   UNL     1       0.922  -4.681   5.449  1.00  0.00     0.029 A 
ATOM     48  N   UNL     1      -0.051  -5.264   7.379  1.00  0.00    -0.354 N 
ATOM     49  C   UNL     1      -0.325  -2.356  10.653  1.00  0.00     0.074 A 
ATOM     50  C   UNL     1       0.333  -1.124  10.295  1.00  0.00     0.031 C 
ATOM     51  C   UNL     1       0.470  -5.939   5.310  1.00  0.00     0.029 A 
ATOM     52  C   UNL     1      -0.146  -6.363   6.564  1.00  0.00     0.049 A 
ATOM     53  H   UNL     1      -0.411  -5.237   8.295  1.00  0.00     0.167 HD
ATOM     54  C   UNL     1      -0.942  -2.569  11.837  1.00  0.00     0.031 A 
ATOM     55  C   UNL     1      -0.670  -7.575   6.822  1.00  0.00     0.031 A 
ATOM     56  C   UNL     1      -1.575  -3.813  12.173  1.00  0.00     0.049 A 
ATOM     57  C   UNL     1      -1.296  -7.809   8.171  1.00  0.00     0.074 A 
ATOM     58  C   UNL     1      -2.237  -4.159  13.335  1.00  0.00     0.029 A 
ATOM     59  N   UNL     1      -1.614  -4.923  11.339  1.00  0.00    -0.354 N 
ATOM     60  N   UNL     1      -1.421  -6.977   9.181  1.00  0.00    -0.248 NA
ATOM     61  C   UNL     1      -1.870  -9.138   8.408  1.00  0.00     0.031 C 
ATOM     62  C   UNL     1      -2.619  -5.500  13.229  1.00  0.00     0.029 A 
ATOM     63  C   UNL     1      -2.267  -5.964  11.970  1.00  0.00     0.049 A 
ATOM     64  H   UNL     1      -1.232  -4.962  10.432  1.00  0.00     0.167 HD
ATOM     65  C   UNL     1      -2.128  -7.669  10.158  1.00  0.00     0.074 A 
ATOM     66  C   UNL     1      -2.408  -8.983   9.610  1.00  0.00     0.031 C 
ATOM     67  C   UNL     1      -2.523  -7.260  11.391  1.00  0.00     0.031 A 
BRANCH  54  68
ATOM     68  C   UNL     1      -0.902  -1.460  12.857  1.00  0.00    -0.014 A 
ATOM     69  C   UNL     1      -1.601  -0.253  12.668  1.00  0.00     0.010 A 
ATOM     70  C   UNL     1      -0.155  -1.637  14.036  1.00  0.00     0.010 A 
ATOM     71  C   UNL     1      -1.522   0.768  13.620  1.00  0.00     0.020 A 
ATOM     72  C   UNL     1      -0.099  -0.631  15.005  1.00  0.00     0.020 A 
ATOM     73  C   UNL     1      -0.771   0.572  14.783  1.00  0.00     0.054 A 
BRANCH  73  74
ATOM     74  S   UNL     1      -0.708   1.902  16.015  1.00  0.00     0.124 S 
ATOM     75  O   UNL     1       0.113   2.903  15.338  1.00  0.00    -0.237 OA
ATOM     76  O   UNL     1      -2.117   2.252  16.179  1.00  0.00    -0.237 OA
ATOM     77  O   UNL     1      -0.086   1.271  17.177  1.00  0.00    -0.744 OA
ENDBRANCH  73  74
ENDBRANCH  54  68
BRANCH  55  78
ATOM     78  C   UNL     1      -0.628  -8.638   5.783  1.00  0.00    -0.014 A 
ATOM     79  C   UNL     1      -1.808  -9.094   5.173  1.00  0.00     0.010 A 
ATOM     80  C   UNL     1       0.604  -9.190   5.385  1.00  0.00     0.010 A 
ATOM     81  C   UNL     1      -1.761 -10.098   4.200  1.00  0.00     0.020 A 
ATOM     82  C   UNL     1       0.659 -10.171   4.391  1.00  0.00     0.020 A 
ATOM     83  C   UNL     1      -0.526 -10.628   3.814  1.00  0.00     0.054 A 
BRANCH  83  84
ATOM     84  S   UNL     1      -0.487 -11.900   2.522  1.00  0.00     0.124 S 
ATOM     85  O   UNL     1      -1.061 -13.051   3.212  1.00  0.00    -0.237 OA
ATOM     86  O   UNL     1      -1.317 -11.309   1.475  1.00  0.00    -0.237 OA
ATOM     87  O   UNL     1       0.932 -12.011   2.193  1.00  0.00    -0.744 OA
ENDBRANCH  83  84
ENDBRANCH  55  78
BRANCH  67  88
ATOM     88  C   UNL     1      -3.350  -8.223  12.199  1.00  0.00    -0.014 A 
ATOM     89  C   UNL     1      -2.802  -9.402  12.732  1.00  0.00     0.010 A 
ATOM     90  C   UNL     1      -4.700  -7.916  12.452  1.00  0.00     0.010 A 
ATOM     91  C   UNL     1      -3.606 -10.286  13.456  1.00  0.00     0.020 A 
ATOM     92  C   UNL     1      -5.496  -8.777  13.207  1.00  0.00     0.020 A 
ATOM     93  C   UNL     1      -4.949  -9.969  13.684  1.00  0.00     0.054 A 
BRANCH  93  94
ATOM     94  S   UNL     1      -5.969 -11.127  14.634  1.00  0.00     0.124 S 
ATOM     95  O   UNL     1      -6.156 -12.217  13.681  1.00  0.00    -0.237 OA
ATOM     96  O   UNL     1      -5.119 -11.434  15.782  1.00  0.00    -0.237 OA
ATOM     97  O   UNL     1      -7.171 -10.357  14.944  1.00  0.00    -0.744 OA
ENDBRANCH  93  94
ENDBRANCH  67  88
ENDBRANCH  41  42
ENDBRANCH  34  36
ENDBRANCH  33  34
ENDBRANCH  32  33
ENDBRANCH  31  32
ENDBRANCH  30  31
ENDBRANCH  29  30
ENDBRANCH   1  29
TORSDOF 26
