REMARK SMILES Cc1ccc(C(C)C)c(OCC(=O)Nc2nc(CC(=O)OCCOCCOCCOC(=O)c3ccc(-c4c5nc(c(-c6ccc(S(=O)(=O)[O-])cc6)c6ccc([nH]6)c(-c6ccc(S(=O)(=O)[O-])cc6)c6nc(c(-c7ccc(S(=O)(=O)[O-])cc7)c7ccc4[nH]7)C=C6)C=C5)cc3)cs2)c1
REMARK SMILES IDX 24 1 23 2 22 3 21 4 19 5 20 6 18 7 17 8 15 9 16 10 94 11
REMARK SMILES IDX 93 12 14 13 12 14 13 15 11 17 10 18 9 19 1 20 2 21 3 22
REMARK SMILES IDX 95 23 4 24 5 25 6 26 7 27 8 28 25 29 26 30 27 31 28 32 29 33
REMARK SMILES IDX 30 34 31 35 32 36 33 37 34 38 92 39 35 40 91 41 36 42 37 43
REMARK SMILES IDX 38 44 85 45 39 46 90 47 84 48 86 49 40 50 89 51 83 52 82 53
REMARK SMILES IDX 41 55 71 56 52 57 70 58 53 59 56 60 69 61 87 62 54 63 55 64
REMARK SMILES IDX 68 66 88 67 57 68 42 69 43 70 51 71 44 72 50 73 45 74 46 75
REMARK SMILES IDX 47 76 48 77 49 78 72 79 73 80 81 81 74 82 80 83 75 84 76 85
REMARK SMILES IDX 77 86 78 87 79 88 58 89 59 90 67 91 60 92 66 93 61 94 62 95
REMARK SMILES IDX 63 96 64 97 65 98
REMARK H PARENT 14 16 86 54 56 65
REMARK Flexibility Score: inf
ROOT
ATOM      1  O   UNL     1      -8.327   1.401   7.175  1.00  0.00    -0.376 OA
ENDROOT
BRANCH   1   2
ATOM      2  C   UNL     1      -7.934   0.843   5.916  1.00  0.00     0.202 C 
BRANCH   2   3
ATOM      3  C   UNL     1      -6.993   1.690   5.013  1.00  0.00     0.261 C 
BRANCH   3   4
ATOM      4  O   UNL     1      -7.357   2.586   3.919  1.00  0.00    -0.463 OA
BRANCH   4   5
ATOM      5  C   UNL     1      -6.882   2.284   2.660  1.00  0.00     0.311 C 
ATOM      6  O   UNL     1      -6.656   1.132   2.287  1.00  0.00    -0.252 OA
BRANCH   5   7
ATOM      7  C   UNL     1      -6.633   3.409   1.677  1.00  0.00     0.179 C 
BRANCH   7   8
ATOM      8  C   UNL     1      -5.321   4.147   1.801  1.00  0.00     0.065 A 
ATOM      9  C   UNL     1      -3.111   4.444   1.739  1.00  0.00     0.189 A 
ATOM     10  N   UNL     1      -4.074   3.641   1.336  1.00  0.00    -0.224 NA
ATOM     11  S   UNL     1      -3.609   5.913   2.461  1.00  0.00    -0.105 S 
ATOM     12  C   UNL     1      -5.236   5.429   2.313  1.00  0.00     0.093 A 
BRANCH   9  13
ATOM     13  N   UNL     1      -1.757   4.280   1.848  1.00  0.00    -0.299 N 
ATOM     14  C   UNL     1      -0.836   3.860   0.947  1.00  0.00     0.264 C 
ATOM     15  O   UNL     1       0.348   3.830   1.315  1.00  0.00    -0.271 OA
ATOM     16  H   UNL     1      -1.389   4.507   2.733  1.00  0.00     0.172 HD
BRANCH  14  17
ATOM     17  C   UNL     1      -1.183   3.626  -0.513  1.00  0.00     0.329 C 
BRANCH  17  18
ATOM     18  O   UNL     1      -1.801   2.401  -0.798  1.00  0.00    -0.483 OA
BRANCH  18  19
ATOM     19  C   UNL     1      -1.068   1.248  -0.803  1.00  0.00     0.123 A 
ATOM     20  C   UNL     1       2.423  -0.223  -0.272  1.00  0.00     0.044 C 
ATOM     21  C   UNL     1       0.961  -0.093  -0.589  1.00  0.00    -0.047 A 
ATOM     22  C   UNL     1       0.219  -1.235  -0.886  1.00  0.00     0.004 A 
ATOM     23  C   UNL     1       0.311   1.150  -0.564  1.00  0.00     0.050 A 
ATOM     24  C   UNL     1      -1.155  -1.147  -1.117  1.00  0.00     0.008 A 
ATOM     25  C   UNL     1      -1.817   0.092  -1.081  1.00  0.00    -0.003 A 
BRANCH  25  26
ATOM     26  C   UNL     1      -3.311   0.186  -1.382  1.00  0.00     0.017 C 
ATOM     27  C   UNL     1      -3.602  -0.293  -2.804  1.00  0.00     0.012 C 
ATOM     28  C   UNL     1      -4.160  -0.543  -0.343  1.00  0.00     0.012 C 
ENDBRANCH  25  26
ENDBRANCH  18  19
ENDBRANCH  17  18
ENDBRANCH  14  17
ENDBRANCH   9  13
ENDBRANCH   7   8
ENDBRANCH   5   7
ENDBRANCH   4   5
ENDBRANCH   3   4
ENDBRANCH   2   3
ENDBRANCH   1   2
BRANCH   1  29
ATOM     29  C   UNL     1      -8.842   2.706   6.993  1.00  0.00     0.188 C 
BRANCH  29  30
ATOM     30  C   UNL     1      -7.814   3.784   7.331  1.00  0.00     0.188 C 
BRANCH  30  31
ATOM     31  O   UNL     1      -6.458   3.359   7.314  1.00  0.00    -0.376 OA
BRANCH  31  32
ATOM     32  C   UNL     1      -5.998   2.622   8.438  1.00  0.00     0.202 C 
BRANCH  32  33
ATOM     33  C   UNL     1      -4.883   3.473   9.044  1.00  0.00     0.261 C 
BRANCH  33  34
ATOM     34  O   UNL     1      -3.651   3.399   8.283  1.00  0.00    -0.460 OA
BRANCH  34  35
ATOM     35  C   UNL     1      -3.698   3.825   6.998  1.00  0.00     0.338 C 
ATOM     36  O   UNL     1      -3.881   4.998   6.644  1.00  0.00    -0.246 OA
BRANCH  35  37
ATOM     37  C   UNL     1      -3.553   2.659   6.082  1.00  0.00     0.060 A 
ATOM     38  C   UNL     1      -3.933   2.757   4.747  1.00  0.00     0.016 A 
ATOM     39  C   UNL     1      -3.237   1.399   6.588  1.00  0.00     0.016 A 
ATOM     40  C   UNL     1      -4.152   1.594   3.987  1.00  0.00     0.010 A 
ATOM     41  C   UNL     1      -3.597   0.255   5.877  1.00  0.00     0.010 A 
ATOM     42  C   UNL     1      -4.190   0.346   4.614  1.00  0.00    -0.014 A 
BRANCH  42  43
ATOM     43  C   UNL     1      -4.706  -0.930   4.026  1.00  0.00     0.031 A 
ATOM     44  C   UNL     1      -3.637  -1.700   3.379  1.00  0.00     0.074 A 
ATOM     45  C   UNL     1      -5.976  -1.452   3.952  1.00  0.00     0.049 A 
ATOM     46  N   UNL     1      -3.617  -2.969   3.196  1.00  0.00    -0.248 NA
ATOM     47  C   UNL     1      -2.480  -0.984   2.832  1.00  0.00     0.031 C 
ATOM     48  C   UNL     1      -6.370  -2.862   3.899  1.00  0.00     0.029 A 
ATOM     49  N   UNL     1      -7.215  -0.816   3.813  1.00  0.00    -0.354 N 
ATOM     50  C   UNL     1      -2.564  -3.201   2.358  1.00  0.00     0.074 A 
ATOM     51  C   UNL     1      -1.777  -1.988   2.322  1.00  0.00     0.031 C 
ATOM     52  C   UNL     1      -7.701  -2.979   3.719  1.00  0.00     0.029 A 
ATOM     53  C   UNL     1      -8.286  -1.656   3.533  1.00  0.00     0.049 A 
ATOM     54  H   UNL     1      -7.321   0.159   3.908  1.00  0.00     0.167 HD
ATOM     55  C   UNL     1      -2.624  -4.155   1.395  1.00  0.00     0.031 A 
ATOM     56  C   UNL     1      -9.350  -1.320   2.740  1.00  0.00     0.031 A 
ATOM     57  C   UNL     1      -3.981  -4.642   1.171  1.00  0.00     0.049 A 
ATOM     58  C   UNL     1      -9.189  -2.107   1.473  1.00  0.00     0.074 A 
ATOM     59  C   UNL     1      -4.812  -5.462   1.915  1.00  0.00     0.029 A 
ATOM     60  N   UNL     1      -4.797  -4.026   0.219  1.00  0.00    -0.354 N 
ATOM     61  N   UNL     1      -8.034  -2.572   1.088  1.00  0.00    -0.248 NA
ATOM     62  C   UNL     1     -10.278  -2.438   0.565  1.00  0.00     0.031 C 
ATOM     63  C   UNL     1      -6.135  -5.312   1.428  1.00  0.00     0.029 A 
ATOM     64  C   UNL     1      -6.117  -4.429   0.360  1.00  0.00     0.049 A 
ATOM     65  H   UNL     1      -4.478  -3.390  -0.462  1.00  0.00     0.167 HD
ATOM     66  C   UNL     1      -8.212  -3.326  -0.028  1.00  0.00     0.074 A 
ATOM     67  C   UNL     1      -9.627  -3.182  -0.344  1.00  0.00     0.031 C 
ATOM     68  C   UNL     1      -7.185  -4.040  -0.569  1.00  0.00     0.031 A 
BRANCH  55  69
ATOM     69  C   UNL     1      -1.337  -4.901   1.181  1.00  0.00    -0.014 A 
ATOM     70  C   UNL     1      -1.347  -6.302   1.241  1.00  0.00     0.010 A 
ATOM     71  C   UNL     1      -0.074  -4.279   1.126  1.00  0.00     0.010 A 
ATOM     72  C   UNL     1      -0.152  -7.031   1.338  1.00  0.00     0.020 A 
ATOM     73  C   UNL     1       1.121  -4.984   1.253  1.00  0.00     0.020 A 
ATOM     74  C   UNL     1       1.073  -6.362   1.378  1.00  0.00     0.054 A 
BRANCH  74  75
ATOM     75  S   UNL     1       2.600  -7.294   1.634  1.00  0.00     0.124 S 
ATOM     76  O   UNL     1       2.363  -7.936   2.924  1.00  0.00    -0.237 OA
ATOM     77  O   UNL     1       2.621  -8.182   0.477  1.00  0.00    -0.237 OA
ATOM     78  O   UNL     1       3.639  -6.264   1.643  1.00  0.00    -0.744 OA
ENDBRANCH  74  75
ENDBRANCH  55  69
BRANCH  56  79
ATOM     79  C   UNL     1      -9.973   0.052   2.777  1.00  0.00    -0.014 A 
ATOM     80  C   UNL     1     -10.720   0.447   3.910  1.00  0.00     0.010 A 
ATOM     81  C   UNL     1      -9.711   1.042   1.817  1.00  0.00     0.010 A 
ATOM     82  C   UNL     1     -10.986   1.806   4.190  1.00  0.00     0.020 A 
ATOM     83  C   UNL     1      -9.990   2.404   2.082  1.00  0.00     0.020 A 
ATOM     84  C   UNL     1     -10.544   2.787   3.306  1.00  0.00     0.054 A 
BRANCH  84  85
ATOM     85  S   UNL     1     -10.415   4.545   3.834  1.00  0.00     0.124 S 
ATOM     86  O   UNL     1     -11.481   5.183   3.077  1.00  0.00    -0.237 OA
ATOM     87  O   UNL     1     -10.623   4.499   5.281  1.00  0.00    -0.237 OA
ATOM     88  O   UNL     1      -9.057   4.907   3.428  1.00  0.00    -0.744 OA
ENDBRANCH  84  85
ENDBRANCH  56  79
BRANCH  68  89
ATOM     89  C   UNL     1      -7.227  -4.629  -1.949  1.00  0.00    -0.014 A 
ATOM     90  C   UNL     1      -8.144  -4.236  -2.939  1.00  0.00     0.010 A 
ATOM     91  C   UNL     1      -6.239  -5.564  -2.321  1.00  0.00     0.010 A 
ATOM     92  C   UNL     1      -8.150  -4.832  -4.201  1.00  0.00     0.020 A 
ATOM     93  C   UNL     1      -6.197  -6.121  -3.599  1.00  0.00     0.020 A 
ATOM     94  C   UNL     1      -7.179  -5.777  -4.520  1.00  0.00     0.054 A 
BRANCH  94  95
ATOM     95  S   UNL     1      -7.176  -6.505  -6.172  1.00  0.00     0.124 S 
ATOM     96  O   UNL     1      -8.200  -7.539  -6.044  1.00  0.00    -0.237 OA
ATOM     97  O   UNL     1      -7.533  -5.373  -7.024  1.00  0.00    -0.237 OA
ATOM     98  O   UNL     1      -5.808  -6.990  -6.331  1.00  0.00    -0.744 OA
ENDBRANCH  94  95
ENDBRANCH  68  89
ENDBRANCH  42  43
ENDBRANCH  35  37
ENDBRANCH  34  35
ENDBRANCH  33  34
ENDBRANCH  32  33
ENDBRANCH  31  32
ENDBRANCH  30  31
ENDBRANCH  29  30
ENDBRANCH   1  29
TORSDOF 26
