REMARK SMILES O=C(OCCOCCOCCOC(=O)[C@H]1Cc2ccc(Cl)cc2C[N@@H+]1Cc1ccc(Cl)cc1)c1ccc(-c2c3nc(c(-c4ccc(S(=O)(=O)[O-])cc4)c4ccc([nH]4)c(-c4ccc(S(=O)(=O)[O-])cc4)c4nc(c(-c5ccc(S(=O)(=O)[O-])cc5)c5ccc2[nH]5)C=C4)C=C3)cc1
REMARK SMILES IDX 7 1 6 2 5 3 4 4 3 5 2 6 1 7 34 8 35 9 93 10 36 11 92 12
REMARK SMILES IDX 37 13 38 14 39 15 86 16 40 17 91 18 85 19 87 20 41 21 90 22
REMARK SMILES IDX 84 23 83 24 42 26 72 27 53 28 71 29 54 30 57 31 70 32 88 33
REMARK SMILES IDX 55 34 56 35 69 37 89 38 58 39 43 40 44 41 52 42 45 43 51 44
REMARK SMILES IDX 46 45 47 46 48 47 49 48 50 49 73 50 74 51 82 52 75 53 81 54
REMARK SMILES IDX 76 55 77 56 78 57 79 58 80 59 59 60 60 61 68 62 61 63 67 64
REMARK SMILES IDX 62 65 63 66 64 67 65 68 66 69 8 70 9 71 10 72 11 73 12 74
REMARK SMILES IDX 13 75 14 76 15 77 16 78 25 79 17 80 24 81 18 83 23 84 19 85
REMARK SMILES IDX 22 86 20 87 21 88 26 89 27 90 28 91 33 92 29 93 32 94 30 95
REMARK SMILES IDX 31 96
REMARK H PARENT 87 25 57 36 25 82
REMARK Flexibility Score: inf
ROOT
ATOM      1  C   UNL     1       2.613  -0.478  -1.291  1.00  0.00     0.188 C 
ENDROOT
BRANCH   1   2
ATOM      2  O   UNL     1       3.958  -0.017  -1.139  1.00  0.00    -0.376 OA
BRANCH   2   3
ATOM      3  C   UNL     1       4.876  -1.056  -0.806  1.00  0.00     0.202 C 
BRANCH   3   4
ATOM      4  C   UNL     1       4.895  -1.436   0.683  1.00  0.00     0.261 C 
BRANCH   4   5
ATOM      5  O   UNL     1       3.680  -1.189   1.412  1.00  0.00    -0.460 OA
BRANCH   5   6
ATOM      6  C   UNL     1       3.081  -0.030   1.774  1.00  0.00     0.338 C 
ATOM      7  O   UNL     1       1.959  -0.115   2.278  1.00  0.00    -0.246 OA
BRANCH   6   8
ATOM      8  C   UNL     1       3.647   1.347   1.565  1.00  0.00     0.060 A 
ATOM      9  C   UNL     1       2.820   2.419   1.943  1.00  0.00     0.016 A 
ATOM     10  C   UNL     1       4.898   1.666   1.030  1.00  0.00     0.016 A 
ATOM     11  C   UNL     1       3.228   3.745   1.768  1.00  0.00     0.010 A 
ATOM     12  C   UNL     1       5.295   2.993   0.817  1.00  0.00     0.010 A 
ATOM     13  C   UNL     1       4.464   4.049   1.183  1.00  0.00    -0.014 A 
BRANCH  13  14
ATOM     14  C   UNL     1       4.993   5.431   1.220  1.00  0.00     0.031 A 
ATOM     15  C   UNL     1       5.220   6.275  -0.001  1.00  0.00     0.074 A 
ATOM     16  C   UNL     1       5.374   5.886   2.428  1.00  0.00     0.049 A 
ATOM     17  N   UNL     1       5.445   7.565  -0.068  1.00  0.00    -0.248 NA
ATOM     18  C   UNL     1       5.213   5.610  -1.310  1.00  0.00     0.031 C 
ATOM     19  C   UNL     1       5.315   5.110   3.672  1.00  0.00     0.029 A 
ATOM     20  N   UNL     1       5.914   7.083   2.806  1.00  0.00    -0.354 N 
ATOM     21  C   UNL     1       5.473   7.881  -1.423  1.00  0.00     0.074 A 
ATOM     22  C   UNL     1       5.392   6.635  -2.139  1.00  0.00     0.031 C 
ATOM     23  C   UNL     1       5.812   5.847   4.671  1.00  0.00     0.029 A 
ATOM     24  C   UNL     1       6.237   7.136   4.138  1.00  0.00     0.049 A 
ATOM     25  H   UNL     1       6.057   7.832   2.184  1.00  0.00     0.167 HD
ATOM     26  C   UNL     1       5.519   9.109  -1.992  1.00  0.00     0.031 A 
ATOM     27  C   UNL     1       6.818   8.114   4.855  1.00  0.00     0.031 A 
ATOM     28  C   UNL     1       5.828  10.297  -1.244  1.00  0.00     0.049 A 
ATOM     29  C   UNL     1       7.090   9.421   4.176  1.00  0.00     0.074 A 
ATOM     30  C   UNL     1       5.934  11.597  -1.701  1.00  0.00     0.029 A 
ATOM     31  N   UNL     1       6.180  10.306   0.097  1.00  0.00    -0.354 N 
ATOM     32  N   UNL     1       6.816   9.774   2.941  1.00  0.00    -0.248 NA
ATOM     33  C   UNL     1       7.718  10.472   4.982  1.00  0.00     0.031 C 
ATOM     34  C   UNL     1       6.480  12.365  -0.669  1.00  0.00     0.029 A 
ATOM     35  C   UNL     1       6.620  11.565   0.456  1.00  0.00     0.049 A 
ATOM     36  H   UNL     1       6.124   9.532   0.702  1.00  0.00     0.167 HD
ATOM     37  C   UNL     1       7.216  11.098   2.827  1.00  0.00     0.074 A 
ATOM     38  C   UNL     1       7.738  11.485   4.124  1.00  0.00     0.031 C 
ATOM     39  C   UNL     1       7.153  11.919   1.750  1.00  0.00     0.031 A 
BRANCH  26  40
ATOM     40  C   UNL     1       5.209   9.285  -3.461  1.00  0.00    -0.014 A 
ATOM     41  C   UNL     1       6.210   9.563  -4.405  1.00  0.00     0.010 A 
ATOM     42  C   UNL     1       3.865   9.412  -3.858  1.00  0.00     0.010 A 
ATOM     43  C   UNL     1       5.870   9.962  -5.709  1.00  0.00     0.020 A 
ATOM     44  C   UNL     1       3.517   9.778  -5.162  1.00  0.00     0.020 A 
ATOM     45  C   UNL     1       4.525  10.073  -6.075  1.00  0.00     0.054 A 
BRANCH  45  46
ATOM     46  S   UNL     1       4.090  10.639  -7.746  1.00  0.00     0.124 S 
ATOM     47  O   UNL     1       4.356  12.071  -7.667  1.00  0.00    -0.237 OA
ATOM     48  O   UNL     1       5.001   9.869  -8.588  1.00  0.00    -0.237 OA
ATOM     49  O   UNL     1       2.681  10.267  -7.870  1.00  0.00    -0.744 OA
ENDBRANCH  45  46
ENDBRANCH  26  40
BRANCH  27  50
ATOM     50  C   UNL     1       7.106   7.864   6.292  1.00  0.00    -0.014 A 
ATOM     51  C   UNL     1       8.037   6.872   6.663  1.00  0.00     0.010 A 
ATOM     52  C   UNL     1       6.351   8.499   7.290  1.00  0.00     0.010 A 
ATOM     53  C   UNL     1       8.159   6.475   7.996  1.00  0.00     0.020 A 
ATOM     54  C   UNL     1       6.495   8.128   8.631  1.00  0.00     0.020 A 
ATOM     55  C   UNL     1       7.375   7.095   8.970  1.00  0.00     0.054 A 
BRANCH  55  56
ATOM     56  S   UNL     1       7.496   6.518  10.685  1.00  0.00     0.124 S 
ATOM     57  O   UNL     1       6.787   5.240  10.621  1.00  0.00    -0.237 OA
ATOM     58  O   UNL     1       8.943   6.420  10.883  1.00  0.00    -0.237 OA
ATOM     59  O   UNL     1       6.835   7.565  11.449  1.00  0.00    -0.744 OA
ENDBRANCH  55  56
ENDBRANCH  27  50
BRANCH  39  60
ATOM     60  C   UNL     1       7.695  13.313   1.897  1.00  0.00    -0.014 A 
ATOM     61  C   UNL     1       6.829  14.415   1.776  1.00  0.00     0.010 A 
ATOM     62  C   UNL     1       9.079  13.531   2.004  1.00  0.00     0.010 A 
ATOM     63  C   UNL     1       7.342  15.710   1.704  1.00  0.00     0.020 A 
ATOM     64  C   UNL     1       9.593  14.828   1.974  1.00  0.00     0.020 A 
ATOM     65  C   UNL     1       8.723  15.906   1.792  1.00  0.00     0.054 A 
BRANCH  65  66
ATOM     66  S   UNL     1       9.373  17.591   1.648  1.00  0.00     0.124 S 
ATOM     67  O   UNL     1       9.248  17.846   0.216  1.00  0.00    -0.237 OA
ATOM     68  O   UNL     1       8.473  18.357   2.507  1.00  0.00    -0.237 OA
ATOM     69  O   UNL     1      10.743  17.472   2.144  1.00  0.00    -0.744 OA
ENDBRANCH  65  66
ENDBRANCH  39  60
ENDBRANCH  13  14
ENDBRANCH   6   8
ENDBRANCH   5   6
ENDBRANCH   4   5
ENDBRANCH   3   4
ENDBRANCH   2   3
ENDBRANCH   1   2
BRANCH   1  70
ATOM     70  C   UNL     1       2.257  -0.821  -2.731  1.00  0.00     0.188 C 
BRANCH  70  71
ATOM     71  O   UNL     1       3.360  -1.411  -3.409  1.00  0.00    -0.376 OA
BRANCH  71  72
ATOM     72  C   UNL     1       3.840  -0.643  -4.515  1.00  0.00     0.202 C 
BRANCH  72  73
ATOM     73  C   UNL     1       4.601   0.655  -4.165  1.00  0.00     0.261 C 
BRANCH  73  74
ATOM     74  O   UNL     1       3.894   1.757  -3.550  1.00  0.00    -0.459 OA
BRANCH  74  75
ATOM     75  C   UNL     1       2.759   2.204  -4.140  1.00  0.00     0.365 C 
ATOM     76  O   UNL     1       2.180   1.601  -5.038  1.00  0.00    -0.245 OA
BRANCH  75  77
ATOM     77  C   UNL     1       2.254   3.540  -3.593  1.00  0.00     0.300 C 
ATOM     78  C   UNL     1       1.938   3.409  -2.086  1.00  0.00     0.113 C 
ATOM     79  N   UNL     1       3.178   4.683  -3.834  1.00  0.00    -0.315 N 
ATOM     80  C   UNL     1       1.556   4.725  -1.443  1.00  0.00    -0.033 A 
ATOM     81  C   UNL     1       2.455   5.923  -3.476  1.00  0.00     0.300 C 
ATOM     82  H   UNL     1       3.996   4.522  -3.246  1.00  0.00     0.349 HD
ATOM     83  C   UNL     1       0.932   4.767  -0.190  1.00  0.00     0.006 A 
ATOM     84  C   UNL     1       1.919   5.928  -2.065  1.00  0.00     0.011 A 
ATOM     85  C   UNL     1       0.727   5.986   0.466  1.00  0.00     0.021 A 
ATOM     86  C   UNL     1       1.685   7.146  -1.409  1.00  0.00     0.030 A 
ATOM     87  C   UNL     1       1.120   7.172  -0.140  1.00  0.00     0.041 A 
ATOM     88  Cl  UNL     1       0.890   8.673   0.666  1.00  0.00    -0.084 Cl
BRANCH  79  89
ATOM     89  C   UNL     1       3.769   4.784  -5.192  1.00  0.00     0.300 C 
BRANCH  89  90
ATOM     90  C   UNL     1       2.776   4.813  -6.334  1.00  0.00     0.006 A 
ATOM     91  C   UNL     1       2.036   5.969  -6.610  1.00  0.00     0.011 A 
ATOM     92  C   UNL     1       2.485   3.645  -7.047  1.00  0.00     0.011 A 
ATOM     93  C   UNL     1       0.894   5.901  -7.407  1.00  0.00     0.021 A 
ATOM     94  C   UNL     1       1.342   3.569  -7.841  1.00  0.00     0.021 A 
ATOM     95  C   UNL     1       0.526   4.687  -7.979  1.00  0.00     0.041 A 
ATOM     96  Cl  UNL     1      -0.960   4.553  -8.835  1.00  0.00    -0.084 Cl
ENDBRANCH  89  90
ENDBRANCH  79  89
ENDBRANCH  75  77
ENDBRANCH  74  75
ENDBRANCH  73  74
ENDBRANCH  72  73
ENDBRANCH  71  72
ENDBRANCH  70  71
ENDBRANCH   1  70
TORSDOF 22
