REMARK SMILES CCCc1cc(OC(F)(F)F)cc2c1O[C@H](C(F)(F)F)C(C(=O)OCCOCCOCCOC(=O)c1ccc(-c3c4nc(c(-c5ccc(S(=O)(=O)[O-])cc5)c5ccc([nH]5)c(-c5ccc(S(=O)(=O)[O-])cc5)c5nc(c(-c6ccc(S(=O)(=O)[O-])cc6)c6ccc3[nH]6)C=C5)C=C4)cc1)=C2
REMARK SMILES IDX 29 1 28 2 27 3 26 4 25 5 24 6 22 7 23 8 21 9 4 10 5 11 14 12
REMARK SMILES IDX 6 13 13 14 15 15 12 16 96 17 16 18 3 19 2 20 1 21 7 22 8 23
REMARK SMILES IDX 9 24 10 25 11 26 17 27 18 28 19 29 20 30 30 31 31 32 32 33
REMARK SMILES IDX 33 34 34 35 35 36 36 37 37 38 95 39 38 40 94 41 39 42 40 43
REMARK SMILES IDX 41 44 88 45 42 46 93 47 87 48 89 49 43 50 92 51 86 52 85 53
REMARK SMILES IDX 44 55 74 56 55 57 73 58 56 59 59 60 72 61 90 62 57 63 58 64
REMARK SMILES IDX 71 66 91 67 60 68 45 69 46 70 54 71 47 72 53 73 48 74 49 75
REMARK SMILES IDX 50 76 51 77 52 78 75 79 76 80 84 81 77 82 83 83 78 84 79 85
REMARK SMILES IDX 80 86 81 87 82 88 61 89 62 90 70 91 63 92 69 93 64 94 65 95
REMARK SMILES IDX 66 96 67 97 68 98
REMARK H PARENT 89 54 59 65
REMARK Flexibility Score: inf
ROOT
ATOM      1  C   UNL     1      -3.558  -4.535   6.809  1.00  0.00     0.188 C 
ENDROOT
BRANCH   1   2
ATOM      2  C   UNL     1      -3.126  -6.008   6.644  1.00  0.00     0.188 C 
BRANCH   2   3
ATOM      3  O   UNL     1      -2.982  -6.836   7.790  1.00  0.00    -0.376 OA
BRANCH   3   4
ATOM      4  C   UNL     1      -2.260  -6.362   8.915  1.00  0.00     0.202 C 
BRANCH   4   5
ATOM      5  C   UNL     1      -0.867  -5.731   8.747  1.00  0.00     0.261 C 
BRANCH   5   6
ATOM      6  O   UNL     1      -0.761  -4.693   7.755  1.00  0.00    -0.460 OA
BRANCH   6   7
ATOM      7  C   UNL     1      -0.051  -5.021   6.647  1.00  0.00     0.338 C 
ATOM      8  O   UNL     1       0.494  -6.093   6.436  1.00  0.00    -0.246 OA
BRANCH   7   9
ATOM      9  C   UNL     1      -0.088  -3.958   5.622  1.00  0.00     0.087 C 
ATOM     10  C   UNL     1       0.892  -1.374   2.497  1.00  0.00    -0.002 A 
ATOM     11  C   UNL     1       0.876   0.006   2.736  1.00  0.00     0.054 A 
ATOM     12  C   UNL     1       0.574  -2.220   3.567  1.00  0.00     0.131 A 
ATOM     13  C   UNL     1       0.460   0.533   3.963  1.00  0.00     0.130 A 
ATOM     14  C   UNL     1       0.172  -1.717   4.818  1.00  0.00     0.021 A 
ATOM     15  O   UNL     1       0.768  -3.563   3.374  1.00  0.00    -0.475 OA
ATOM     16  C   UNL     1       0.090  -0.335   4.997  1.00  0.00     0.058 A 
ATOM     17  C   UNL     1      -0.027  -2.652   5.931  1.00  0.00     0.027 C 
ATOM     18  C   UNL     1      -0.068  -4.420   4.181  1.00  0.00     0.316 C 
BRANCH  10  19
ATOM     19  C   UNL     1       1.321  -1.936   1.155  1.00  0.00     0.039 C 
BRANCH  19  20
ATOM     20  C   UNL     1       0.565  -1.428  -0.083  1.00  0.00     0.001 C 
ATOM     21  C   UNL     1       0.962  -0.036  -0.554  1.00  0.00     0.004 C 
ENDBRANCH  19  20
ENDBRANCH  10  19
BRANCH  13  22
ATOM     22  O   UNL     1       0.399   1.864   4.277  1.00  0.00    -0.406 OA
BRANCH  22  23
ATOM     23  C   UNL     1       0.830   2.790   3.290  1.00  0.00     0.573 C 
ATOM     24  F   UNL     1       2.128   2.592   2.968  1.00  0.00    -0.132 F 
ATOM     25  F   UNL     1       0.071   2.711   2.176  1.00  0.00    -0.132 F 
ATOM     26  F   UNL     1       0.713   4.041   3.787  1.00  0.00    -0.132 F 
ENDBRANCH  22  23
ENDBRANCH  13  22
BRANCH  18  27
ATOM     27  C   UNL     1      -1.468  -4.544   3.545  1.00  0.00     0.430 C 
ATOM     28  F   UNL     1      -2.300  -3.537   3.910  1.00  0.00    -0.167 F 
ATOM     29  F   UNL     1      -1.415  -4.539   2.193  1.00  0.00    -0.167 F 
ATOM     30  F   UNL     1      -2.079  -5.696   3.904  1.00  0.00    -0.167 F 
ENDBRANCH  18  27
ENDBRANCH   7   9
ENDBRANCH   6   7
ENDBRANCH   5   6
ENDBRANCH   4   5
ENDBRANCH   3   4
ENDBRANCH   2   3
ENDBRANCH   1   2
BRANCH   1  31
ATOM     31  O   UNL     1      -3.758  -4.144   8.146  1.00  0.00    -0.376 OA
BRANCH  31  32
ATOM     32  C   UNL     1      -5.069  -4.150   8.679  1.00  0.00     0.202 C 
BRANCH  32  33
ATOM     33  C   UNL     1      -6.196  -5.107   8.234  1.00  0.00     0.261 C 
BRANCH  33  34
ATOM     34  O   UNL     1      -6.058  -5.800   6.989  1.00  0.00    -0.460 OA
BRANCH  34  35
ATOM     35  C   UNL     1      -6.635  -5.239   5.904  1.00  0.00     0.338 C 
ATOM     36  O   UNL     1      -7.214  -4.161   5.856  1.00  0.00    -0.246 OA
BRANCH  35  37
ATOM     37  C   UNL     1      -6.313  -6.064   4.723  1.00  0.00     0.060 A 
ATOM     38  C   UNL     1      -5.439  -5.556   3.754  1.00  0.00     0.016 A 
ATOM     39  C   UNL     1      -6.880  -7.331   4.566  1.00  0.00     0.016 A 
ATOM     40  C   UNL     1      -5.138  -6.309   2.616  1.00  0.00     0.010 A 
ATOM     41  C   UNL     1      -6.597  -8.073   3.413  1.00  0.00     0.010 A 
ATOM     42  C   UNL     1      -5.741  -7.558   2.422  1.00  0.00    -0.014 A 
BRANCH  42  43
ATOM     43  C   UNL     1      -5.623  -8.253   1.114  1.00  0.00     0.031 A 
ATOM     44  C   UNL     1      -6.739  -8.096   0.116  1.00  0.00     0.074 A 
ATOM     45  C   UNL     1      -4.551  -9.007   0.807  1.00  0.00     0.049 A 
ATOM     46  N   UNL     1      -6.906  -8.680  -1.042  1.00  0.00    -0.248 NA
ATOM     47  C   UNL     1      -7.809  -7.152   0.476  1.00  0.00     0.031 C 
ATOM     48  C   UNL     1      -3.369  -9.184   1.649  1.00  0.00     0.029 A 
ATOM     49  N   UNL     1      -4.292  -9.776  -0.302  1.00  0.00    -0.354 N 
ATOM     50  C   UNL     1      -8.104  -8.185  -1.544  1.00  0.00     0.074 A 
ATOM     51  C   UNL     1      -8.632  -7.269  -0.555  1.00  0.00     0.031 C 
ATOM     52  C   UNL     1      -2.517 -10.022   1.032  1.00  0.00     0.029 A 
ATOM     53  C   UNL     1      -3.111 -10.476  -0.226  1.00  0.00     0.049 A 
ATOM     54  H   UNL     1      -4.895  -9.821  -1.079  1.00  0.00     0.167 HD
ATOM     55  C   UNL     1      -8.713  -8.467  -2.720  1.00  0.00     0.031 A 
ATOM     56  C   UNL     1      -2.585 -11.399  -1.058  1.00  0.00     0.031 A 
ATOM     57  C   UNL     1      -8.200  -9.395  -3.693  1.00  0.00     0.049 A 
ATOM     58  C   UNL     1      -3.333 -11.779  -2.313  1.00  0.00     0.074 A 
ATOM     59  C   UNL     1      -8.749  -9.754  -4.911  1.00  0.00     0.029 A 
ATOM     60  N   UNL     1      -7.024 -10.117  -3.555  1.00  0.00    -0.354 N 
ATOM     61  N   UNL     1      -4.466 -11.305  -2.776  1.00  0.00    -0.248 NA
ATOM     62  C   UNL     1      -2.729 -12.818  -3.161  1.00  0.00     0.031 C 
ATOM     63  C   UNL     1      -7.938 -10.739  -5.482  1.00  0.00     0.029 A 
ATOM     64  C   UNL     1      -6.845 -10.940  -4.655  1.00  0.00     0.049 A 
ATOM     65  H   UNL     1      -6.408 -10.055  -2.790  1.00  0.00     0.167 HD
ATOM     66  C   UNL     1      -4.688 -11.960  -3.985  1.00  0.00     0.074 A 
ATOM     67  C   UNL     1      -3.571 -12.858  -4.185  1.00  0.00     0.031 C 
ATOM     68  C   UNL     1      -5.722 -11.822  -4.853  1.00  0.00     0.031 A 
BRANCH  55  69
ATOM     69  C   UNL     1     -10.033  -7.798  -2.997  1.00  0.00    -0.014 A 
ATOM     70  C   UNL     1     -10.113  -6.421  -3.276  1.00  0.00     0.010 A 
ATOM     71  C   UNL     1     -11.211  -8.568  -3.010  1.00  0.00     0.010 A 
ATOM     72  C   UNL     1     -11.351  -5.821  -3.523  1.00  0.00     0.020 A 
ATOM     73  C   UNL     1     -12.446  -7.977  -3.287  1.00  0.00     0.020 A 
ATOM     74  C   UNL     1     -12.510  -6.603  -3.525  1.00  0.00     0.054 A 
BRANCH  74  75
ATOM     75  S   UNL     1     -14.100  -5.801  -3.868  1.00  0.00     0.124 S 
ATOM     76  O   UNL     1     -14.314  -5.024  -2.650  1.00  0.00    -0.237 OA
ATOM     77  O   UNL     1     -13.811  -5.020  -5.068  1.00  0.00    -0.237 OA
ATOM     78  O   UNL     1     -15.019  -6.920  -4.062  1.00  0.00    -0.744 OA
ENDBRANCH  74  75
ENDBRANCH  55  69
BRANCH  56  79
ATOM     79  C   UNL     1      -1.293 -12.064  -0.721  1.00  0.00    -0.014 A 
ATOM     80  C   UNL     1      -0.146 -11.849  -1.506  1.00  0.00     0.010 A 
ATOM     81  C   UNL     1      -1.210 -12.937   0.380  1.00  0.00     0.010 A 
ATOM     82  C   UNL     1       1.051 -12.509  -1.209  1.00  0.00     0.020 A 
ATOM     83  C   UNL     1      -0.007 -13.574   0.699  1.00  0.00     0.020 A 
ATOM     84  C   UNL     1       1.113 -13.366  -0.106  1.00  0.00     0.054 A 
BRANCH  84  85
ATOM     85  S   UNL     1       2.689 -14.177   0.284  1.00  0.00     0.124 S 
ATOM     86  O   UNL     1       2.803 -15.155  -0.793  1.00  0.00    -0.237 OA
ATOM     87  O   UNL     1       3.636 -13.066   0.233  1.00  0.00    -0.237 OA
ATOM     88  O   UNL     1       2.467 -14.736   1.616  1.00  0.00    -0.744 OA
ENDBRANCH  84  85
ENDBRANCH  56  79
BRANCH  68  89
ATOM     89  C   UNL     1      -5.677 -12.613  -6.136  1.00  0.00    -0.014 A 
ATOM     90  C   UNL     1      -5.881 -14.004  -6.155  1.00  0.00     0.010 A 
ATOM     91  C   UNL     1      -5.508 -11.932  -7.357  1.00  0.00     0.010 A 
ATOM     92  C   UNL     1      -5.894 -14.701  -7.368  1.00  0.00     0.020 A 
ATOM     93  C   UNL     1      -5.551 -12.620  -8.573  1.00  0.00     0.020 A 
ATOM     94  C   UNL     1      -5.733 -14.003  -8.569  1.00  0.00     0.054 A 
BRANCH  94  95
ATOM     95  S   UNL     1      -5.814 -14.922 -10.132  1.00  0.00     0.124 S 
ATOM     96  O   UNL     1      -4.556 -15.662 -10.117  1.00  0.00    -0.237 OA
ATOM     97  O   UNL     1      -7.020 -15.730  -9.966  1.00  0.00    -0.237 OA
ATOM     98  O   UNL     1      -5.908 -13.875 -11.147  1.00  0.00    -0.744 OA
ENDBRANCH  94  95
ENDBRANCH  68  89
ENDBRANCH  42  43
ENDBRANCH  35  37
ENDBRANCH  34  35
ENDBRANCH  33  34
ENDBRANCH  32  33
ENDBRANCH  31  32
ENDBRANCH   1  31
TORSDOF 25
