REMARK SMILES Cc1c(Br)c(C)c2c(c1Br)O[C@H](C(F)(F)F)C(C(=O)OCCOCCOCCOC(=O)c1ccc(-c3c4nc(c(-c5ccc(S(=O)(=O)[O-])cc5)c5ccc([nH]5)c(-c5ccc(S(=O)(=O)[O-])cc5)c5nc(c(-c6ccc(S(=O)(=O)[O-])cc6)c6ccc3[nH]6)C=C5)C=C4)cc1)=C2
REMARK SMILES IDX 25 1 24 2 23 3 22 4 21 5 20 6 18 7 19 8 17 9 1 10 2 11 3 12
REMARK SMILES IDX 9 13 4 14 5 15 8 16 10 17 6 18 7 19 11 20 92 21 12 22 13 23
REMARK SMILES IDX 14 24 15 25 16 26 26 27 27 28 28 29 29 30 30 31 31 32 32 33
REMARK SMILES IDX 33 34 91 35 34 36 90 37 35 38 36 39 37 40 84 41 38 42 89 43
REMARK SMILES IDX 83 44 85 45 39 46 88 47 82 48 81 49 40 51 70 52 51 53 69 54
REMARK SMILES IDX 52 55 55 56 68 57 86 58 53 59 54 60 67 62 87 63 56 64 41 65
REMARK SMILES IDX 42 66 50 67 43 68 49 69 44 70 45 71 46 72 47 73 48 74 71 75
REMARK SMILES IDX 72 76 80 77 73 78 79 79 74 80 75 81 76 82 77 83 78 84 57 85
REMARK SMILES IDX 58 86 66 87 59 88 65 89 60 90 61 91 62 92 63 93 64 94
REMARK H PARENT 85 50 55 61
REMARK Flexibility Score: inf
ROOT
ATOM      1  C   UNL     1      -3.689   0.629  -7.148  1.00  0.00     0.188 C 
ENDROOT
BRANCH   1   2
ATOM      2  C   UNL     1      -3.053   1.721  -8.034  1.00  0.00     0.188 C 
BRANCH   2   3
ATOM      3  O   UNL     1      -3.259   1.617  -9.421  1.00  0.00    -0.376 OA
BRANCH   3   4
ATOM      4  C   UNL     1      -2.485   0.767 -10.245  1.00  0.00     0.202 C 
BRANCH   4   5
ATOM      5  C   UNL     1      -1.365  -0.181  -9.783  1.00  0.00     0.261 C 
BRANCH   5   6
ATOM      6  O   UNL     1      -1.217  -0.396  -8.381  1.00  0.00    -0.460 OA
BRANCH   6   7
ATOM      7  C   UNL     1      -0.134   0.187  -7.816  1.00  0.00     0.338 C 
ATOM      8  O   UNL     1       0.692   0.890  -8.372  1.00  0.00    -0.246 OA
BRANCH   7   9
ATOM      9  C   UNL     1      -0.153  -0.070  -6.364  1.00  0.00     0.087 C 
ATOM     10  C   UNL     1       0.882  -0.144   0.079  1.00  0.00     0.047 C 
ATOM     11  C   UNL     1       0.550   0.169  -1.362  1.00  0.00    -0.019 A 
ATOM     12  C   UNL     1       0.681   1.494  -1.853  1.00  0.00     0.025 A 
ATOM     13  C   UNL     1       0.170  -0.839  -2.270  1.00  0.00     0.064 A 
ATOM     14  Br  UNL     1       1.251   2.873  -0.642  1.00  0.00    -0.050 Br
ATOM     15  C   UNL     1       0.446   1.810  -3.215  1.00  0.00    -0.026 A 
ATOM     16  C   UNL     1      -0.032  -0.548  -3.633  1.00  0.00     0.142 A 
ATOM     17  Br  UNL     1      -0.034  -2.662  -1.708  1.00  0.00    -0.046 Br
ATOM     18  C   UNL     1       0.527   3.228  -3.742  1.00  0.00     0.046 C 
ATOM     19  C   UNL     1       0.144   0.757  -4.114  1.00  0.00     0.022 A 
ATOM     20  O   UNL     1      -0.415  -1.593  -4.434  1.00  0.00    -0.474 OA
ATOM     21  C   UNL     1       0.073   0.976  -5.560  1.00  0.00     0.027 C 
ATOM     22  C   UNL     1      -0.420  -1.458  -5.872  1.00  0.00     0.316 C 
BRANCH  22  23
ATOM     23  C   UNL     1       0.545  -2.496  -6.464  1.00  0.00     0.430 C 
ATOM     24  F   UNL     1       0.282  -3.738  -5.987  1.00  0.00    -0.167 F 
ATOM     25  F   UNL     1       0.436  -2.573  -7.812  1.00  0.00    -0.167 F 
ATOM     26  F   UNL     1       1.835  -2.216  -6.177  1.00  0.00    -0.167 F 
ENDBRANCH  22  23
ENDBRANCH   7   9
ENDBRANCH   6   7
ENDBRANCH   5   6
ENDBRANCH   4   5
ENDBRANCH   3   4
ENDBRANCH   2   3
ENDBRANCH   1   2
BRANCH   1  27
ATOM     27  O   UNL     1      -4.497  -0.378  -7.739  1.00  0.00    -0.376 OA
BRANCH  27  28
ATOM     28  C   UNL     1      -5.573   0.023  -8.581  1.00  0.00     0.202 C 
BRANCH  28  29
ATOM     29  C   UNL     1      -6.620   1.001  -8.033  1.00  0.00     0.261 C 
BRANCH  29  30
ATOM     30  O   UNL     1      -6.065   2.266  -7.633  1.00  0.00    -0.460 OA
BRANCH  30  31
ATOM     31  C   UNL     1      -6.283   2.614  -6.340  1.00  0.00     0.338 C 
ATOM     32  O   UNL     1      -6.946   2.010  -5.514  1.00  0.00    -0.246 OA
BRANCH  31  33
ATOM     33  C   UNL     1      -5.411   3.751  -5.989  1.00  0.00     0.060 A 
ATOM     34  C   UNL     1      -4.433   3.548  -5.006  1.00  0.00     0.016 A 
ATOM     35  C   UNL     1      -5.570   5.003  -6.585  1.00  0.00     0.016 A 
ATOM     36  C   UNL     1      -3.617   4.603  -4.606  1.00  0.00     0.010 A 
ATOM     37  C   UNL     1      -4.771   6.071  -6.158  1.00  0.00     0.010 A 
ATOM     38  C   UNL     1      -3.809   5.880  -5.151  1.00  0.00    -0.014 A 
BRANCH  38  39
ATOM     39  C   UNL     1      -3.142   7.036  -4.507  1.00  0.00     0.031 A 
ATOM     40  C   UNL     1      -3.845   7.713  -3.362  1.00  0.00     0.074 A 
ATOM     41  C   UNL     1      -1.912   7.436  -4.878  1.00  0.00     0.049 A 
ATOM     42  N   UNL     1      -3.435   8.699  -2.608  1.00  0.00    -0.248 NA
ATOM     43  C   UNL     1      -5.179   7.198  -3.012  1.00  0.00     0.031 C 
ATOM     44  C   UNL     1      -1.102   6.824  -5.930  1.00  0.00     0.029 A 
ATOM     45  N   UNL     1      -1.126   8.452  -4.395  1.00  0.00    -0.354 N 
ATOM     46  C   UNL     1      -4.449   8.908  -1.681  1.00  0.00     0.074 A 
ATOM     47  C   UNL     1      -5.509   7.972  -1.989  1.00  0.00     0.031 C 
ATOM     48  C   UNL     1       0.072   7.478  -6.010  1.00  0.00     0.029 A 
ATOM     49  C   UNL     1       0.086   8.568  -5.034  1.00  0.00     0.049 A 
ATOM     50  H   UNL     1      -1.403   9.044  -3.658  1.00  0.00     0.167 HD
ATOM     51  C   UNL     1      -4.493   9.790  -0.656  1.00  0.00     0.031 A 
ATOM     52  C   UNL     1       1.083   9.459  -4.859  1.00  0.00     0.031 A 
ATOM     53  C   UNL     1      -3.462  10.748  -0.372  1.00  0.00     0.049 A 
ATOM     54  C   UNL     1       0.947  10.528  -3.804  1.00  0.00     0.074 A 
ATOM     55  C   UNL     1      -3.423  11.691   0.640  1.00  0.00     0.029 A 
ATOM     56  N   UNL     1      -2.300  10.900  -1.110  1.00  0.00    -0.354 N 
ATOM     57  N   UNL     1      -0.004  10.693  -2.916  1.00  0.00    -0.248 NA
ATOM     58  C   UNL     1       2.017  11.535  -3.732  1.00  0.00     0.031 C 
ATOM     59  C   UNL     1      -2.262  12.453   0.476  1.00  0.00     0.029 A 
ATOM     60  C   UNL     1      -1.554  11.949  -0.604  1.00  0.00     0.049 A 
ATOM     61  H   UNL     1      -2.043  10.343  -1.881  1.00  0.00     0.167 HD
ATOM     62  C   UNL     1       0.358  11.814  -2.175  1.00  0.00     0.074 A 
ATOM     63  C   UNL     1       1.623  12.278  -2.705  1.00  0.00     0.031 C 
ATOM     64  C   UNL     1      -0.301  12.406  -1.148  1.00  0.00     0.031 A 
BRANCH  51  65
ATOM     65  C   UNL     1      -5.716   9.771   0.216  1.00  0.00    -0.014 A 
ATOM     66  C   UNL     1      -5.920   8.734   1.144  1.00  0.00     0.010 A 
ATOM     67  C   UNL     1      -6.656  10.812   0.128  1.00  0.00     0.010 A 
ATOM     68  C   UNL     1      -7.061   8.723   1.948  1.00  0.00     0.020 A 
ATOM     69  C   UNL     1      -7.788  10.816   0.947  1.00  0.00     0.020 A 
ATOM     70  C   UNL     1      -7.990   9.763   1.842  1.00  0.00     0.054 A 
BRANCH  70  71
ATOM     71  S   UNL     1      -9.455   9.729   2.911  1.00  0.00     0.124 S 
ATOM     72  O   UNL     1     -10.222   8.628   2.335  1.00  0.00    -0.237 OA
ATOM     73  O   UNL     1      -8.881   9.473   4.229  1.00  0.00    -0.237 OA
ATOM     74  O   UNL     1     -10.043  11.055   2.736  1.00  0.00    -0.744 OA
ENDBRANCH  70  71
ENDBRANCH  51  65
BRANCH  52  75
ATOM     75  C   UNL     1       2.298   9.398  -5.718  1.00  0.00    -0.014 A 
ATOM     76  C   UNL     1       3.538   9.015  -5.178  1.00  0.00     0.010 A 
ATOM     77  C   UNL     1       2.221   9.736  -7.082  1.00  0.00     0.010 A 
ATOM     78  C   UNL     1       4.680   8.978  -5.984  1.00  0.00     0.020 A 
ATOM     79  C   UNL     1       3.357   9.679  -7.896  1.00  0.00     0.020 A 
ATOM     80  C   UNL     1       4.581   9.307  -7.339  1.00  0.00     0.054 A 
BRANCH  80  81
ATOM     81  S   UNL     1       6.069   9.204  -8.374  1.00  0.00     0.124 S 
ATOM     82  O   UNL     1       6.853  10.336  -7.893  1.00  0.00    -0.237 OA
ATOM     83  O   UNL     1       6.592   7.882  -8.038  1.00  0.00    -0.237 OA
ATOM     84  O   UNL     1       5.549   9.333  -9.733  1.00  0.00    -0.744 OA
ENDBRANCH  80  81
ENDBRANCH  52  75
BRANCH  64  85
ATOM     85  C   UNL     1       0.313  13.631  -0.523  1.00  0.00    -0.014 A 
ATOM     86  C   UNL     1       0.250  14.874  -1.176  1.00  0.00     0.010 A 
ATOM     87  C   UNL     1       0.843  13.564   0.779  1.00  0.00     0.010 A 
ATOM     88  C   UNL     1       0.703  16.031  -0.535  1.00  0.00     0.020 A 
ATOM     89  C   UNL     1       1.275  14.722   1.431  1.00  0.00     0.020 A 
ATOM     90  C   UNL     1       1.202  15.949   0.768  1.00  0.00     0.054 A 
BRANCH  90  91
ATOM     91  S   UNL     1       1.689  17.482   1.610  1.00  0.00     0.124 S 
ATOM     92  O   UNL     1       2.909  17.847   0.896  1.00  0.00    -0.237 OA
ATOM     93  O   UNL     1       0.539  18.352   1.377  1.00  0.00    -0.237 OA
ATOM     94  O   UNL     1       1.880  17.070   2.999  1.00  0.00    -0.744 OA
ENDBRANCH  90  91
ENDBRANCH  64  85
ENDBRANCH  38  39
ENDBRANCH  31  33
ENDBRANCH  30  31
ENDBRANCH  29  30
ENDBRANCH  28  29
ENDBRANCH  27  28
ENDBRANCH   1  27
TORSDOF 21
