REMARK SMILES CC(C)(Cn1ccnc1C(N)=S)C(=O)OCCOCCOCCOC(=O)c1ccc(-c2c3nc(c(-c4ccc(S(=O)(=O)[O-])cc4)c4ccc([nH]4)c(-c4ccc(S(=O)(=O)[O-])cc4)c4nc(c(-c5ccc(S(=O)(=O)[O-])cc5)c5ccc2[nH]5)C=C4)C=C3)cc1
REMARK SMILES IDX 19 1 18 2 17 3 16 4 15 5 13 6 14 7 2 8 1 9 3 10 4 11 5 12
REMARK SMILES IDX 6 13 9 14 7 15 8 16 10 17 12 18 11 19 20 22 21 23 22 24
REMARK SMILES IDX 23 25 24 26 25 27 26 28 27 29 28 30 86 31 29 32 85 33 30 34
REMARK SMILES IDX 31 35 32 36 79 37 33 38 84 39 78 40 80 41 34 42 83 43 77 44
REMARK SMILES IDX 76 45 35 47 65 48 46 49 64 50 47 51 50 52 63 53 81 54 48 55
REMARK SMILES IDX 49 56 62 58 82 59 51 60 36 61 37 62 45 63 38 64 44 65 39 66
REMARK SMILES IDX 40 67 41 68 42 69 43 70 66 71 67 72 75 73 68 74 74 75 69 76
REMARK SMILES IDX 70 77 71 78 72 79 73 80 52 81 53 82 61 83 54 84 60 85 55 86
REMARK SMILES IDX 56 87 57 88 58 89 59 90
REMARK H PARENT 11 20 11 21 80 46 50 57
REMARK Flexibility Score: inf
ROOT
ATOM      1  C   UNL     1       1.405   3.980  -0.929  1.00  0.00     0.188 C 
ENDROOT
BRANCH   1   2
ATOM      2  O   UNL     1       2.379   4.284  -1.928  1.00  0.00    -0.376 OA
BRANCH   2   3
ATOM      3  C   UNL     1       2.035   3.955  -3.269  1.00  0.00     0.202 C 
BRANCH   3   4
ATOM      4  C   UNL     1       2.160   2.473  -3.633  1.00  0.00     0.261 C 
BRANCH   4   5
ATOM      5  O   UNL     1       1.261   1.583  -2.930  1.00  0.00    -0.463 OA
BRANCH   5   6
ATOM      6  C   UNL     1       1.863   0.738  -2.052  1.00  0.00     0.313 C 
ATOM      7  O   UNL     1       3.050   0.810  -1.746  1.00  0.00    -0.252 OA
BRANCH   6   8
ATOM      8  C   UNL     1       0.973  -0.389  -1.524  1.00  0.00     0.080 C 
ATOM      9  C   UNL     1       1.171  -0.459  -0.002  1.00  0.00     0.025 C 
ATOM     10  C   UNL     1       1.564  -1.679  -2.148  1.00  0.00     0.025 C 
BRANCH   8  11
ATOM     11  C   UNL     1      -0.517  -0.378  -1.937  1.00  0.00     0.142 C 
BRANCH  11  12
ATOM     12  N   UNL     1      -1.460   0.554  -1.348  1.00  0.00    -0.328 N 
ATOM     13  C   UNL     1      -1.863   0.577  -0.037  1.00  0.00     0.108 A 
ATOM     14  C   UNL     1      -2.395   1.275  -2.070  1.00  0.00     0.167 A 
ATOM     15  C   UNL     1      -2.974   1.382  -0.004  1.00  0.00     0.131 A 
ATOM     16  N   UNL     1      -3.299   1.794  -1.263  1.00  0.00    -0.235 NA
BRANCH  14  17
ATOM     17  C   UNL     1      -2.418   1.472  -3.497  1.00  0.00     0.140 C 
ATOM     18  S   UNL     1      -3.569   0.764  -4.463  1.00  0.00    -0.057 S 
BRANCH  17  19
ATOM     19  N   UNL     1      -1.422   2.238  -4.027  1.00  0.00    -0.387 N 
ATOM     20  H   UNL     1      -0.750   2.649  -3.437  1.00  0.00     0.157 HD
ATOM     21  H   UNL     1      -1.376   2.381  -5.000  1.00  0.00     0.157 HD
ENDBRANCH  17  19
ENDBRANCH  14  17
ENDBRANCH  11  12
ENDBRANCH   8  11
ENDBRANCH   6   8
ENDBRANCH   5   6
ENDBRANCH   4   5
ENDBRANCH   3   4
ENDBRANCH   2   3
ENDBRANCH   1   2
BRANCH   1  22
ATOM     22  C   UNL     1       0.085   4.738  -1.091  1.00  0.00     0.188 C 
BRANCH  22  23
ATOM     23  O   UNL     1      -0.631   4.263  -2.228  1.00  0.00    -0.376 OA
BRANCH  23  24
ATOM     24  C   UNL     1      -1.730   5.022  -2.754  1.00  0.00     0.202 C 
BRANCH  24  25
ATOM     25  C   UNL     1      -2.108   6.381  -2.184  1.00  0.00     0.261 C 
BRANCH  25  26
ATOM     26  O   UNL     1      -2.180   6.377  -0.773  1.00  0.00    -0.460 OA
BRANCH  26  27
ATOM     27  C   UNL     1      -2.937   5.433  -0.169  1.00  0.00     0.338 C 
ATOM     28  O   UNL     1      -3.796   4.743  -0.669  1.00  0.00    -0.246 OA
BRANCH  27  29
ATOM     29  C   UNL     1      -2.556   5.481   1.254  1.00  0.00     0.060 A 
ATOM     30  C   UNL     1      -3.417   4.894   2.177  1.00  0.00     0.016 A 
ATOM     31  C   UNL     1      -1.516   6.344   1.644  1.00  0.00     0.016 A 
ATOM     32  C   UNL     1      -3.438   5.420   3.450  1.00  0.00     0.010 A 
ATOM     33  C   UNL     1      -1.567   6.901   2.886  1.00  0.00     0.010 A 
ATOM     34  C   UNL     1      -2.607   6.511   3.721  1.00  0.00    -0.014 A 
BRANCH  34  35
ATOM     35  C   UNL     1      -2.989   7.424   4.771  1.00  0.00     0.031 A 
ATOM     36  C   UNL     1      -2.252   7.289   6.030  1.00  0.00     0.074 A 
ATOM     37  C   UNL     1      -3.821   8.447   4.498  1.00  0.00     0.049 A 
ATOM     38  N   UNL     1      -2.683   6.788   7.137  1.00  0.00    -0.248 NA
ATOM     39  C   UNL     1      -0.813   7.597   6.016  1.00  0.00     0.031 C 
ATOM     40  C   UNL     1      -4.295   8.880   3.177  1.00  0.00     0.029 A 
ATOM     41  N   UNL     1      -4.312   9.397   5.334  1.00  0.00    -0.354 N 
ATOM     42  C   UNL     1      -1.629   6.939   8.025  1.00  0.00     0.074 A 
ATOM     43  C   UNL     1      -0.455   7.171   7.225  1.00  0.00     0.031 C 
ATOM     44  C   UNL     1      -4.826  10.117   3.284  1.00  0.00     0.029 A 
ATOM     45  C   UNL     1      -4.822  10.511   4.684  1.00  0.00     0.049 A 
ATOM     46  H   UNL     1      -4.307   9.304   6.314  1.00  0.00     0.167 HD
ATOM     47  C   UNL     1      -1.841   7.198   9.343  1.00  0.00     0.031 A 
ATOM     48  C   UNL     1      -5.126  11.703   5.253  1.00  0.00     0.031 A 
ATOM     49  C   UNL     1      -3.216   6.986   9.720  1.00  0.00     0.049 A 
ATOM     50  C   UNL     1      -5.268  11.474   6.715  1.00  0.00     0.074 A 
ATOM     51  C   UNL     1      -4.083   5.913   9.668  1.00  0.00     0.029 A 
ATOM     52  N   UNL     1      -3.997   8.110   9.883  1.00  0.00    -0.354 N 
ATOM     53  N   UNL     1      -6.224  10.765   7.247  1.00  0.00    -0.248 NA
ATOM     54  C   UNL     1      -4.115  11.691   7.580  1.00  0.00     0.031 C 
ATOM     55  C   UNL     1      -5.367   6.474   9.406  1.00  0.00     0.029 A 
ATOM     56  C   UNL     1      -5.234   7.863   9.342  1.00  0.00     0.049 A 
ATOM     57  H   UNL     1      -3.714   8.948  10.314  1.00  0.00     0.167 HD
ATOM     58  C   UNL     1      -5.635  10.103   8.317  1.00  0.00     0.074 A 
ATOM     59  C   UNL     1      -4.388  10.820   8.556  1.00  0.00     0.031 C 
ATOM     60  C   UNL     1      -6.071   8.868   8.709  1.00  0.00     0.031 A 
BRANCH  47  61
ATOM     61  C   UNL     1      -0.901   8.043  10.167  1.00  0.00    -0.014 A 
ATOM     62  C   UNL     1      -1.122   8.149  11.552  1.00  0.00     0.010 A 
ATOM     63  C   UNL     1       0.031   8.939   9.598  1.00  0.00     0.010 A 
ATOM     64  C   UNL     1      -0.495   9.147  12.309  1.00  0.00     0.020 A 
ATOM     65  C   UNL     1       0.704   9.897  10.350  1.00  0.00     0.020 A 
ATOM     66  C   UNL     1       0.401  10.025  11.695  1.00  0.00     0.054 A 
BRANCH  66  67
ATOM     67  S   UNL     1       1.096  11.400  12.638  1.00  0.00     0.124 S 
ATOM     68  O   UNL     1      -0.073  12.255  12.816  1.00  0.00    -0.237 OA
ATOM     69  O   UNL     1       1.589  10.736  13.841  1.00  0.00    -0.237 OA
ATOM     70  O   UNL     1       2.133  11.929  11.755  1.00  0.00    -0.744 OA
ENDBRANCH  66  67
ENDBRANCH  47  61
BRANCH  48  71
ATOM     71  C   UNL     1      -5.022  13.049   4.635  1.00  0.00    -0.014 A 
ATOM     72  C   UNL     1      -5.549  14.184   5.276  1.00  0.00     0.010 A 
ATOM     73  C   UNL     1      -4.192  13.262   3.514  1.00  0.00     0.010 A 
ATOM     74  C   UNL     1      -5.212  15.479   4.845  1.00  0.00     0.020 A 
ATOM     75  C   UNL     1      -3.869  14.546   3.065  1.00  0.00     0.020 A 
ATOM     76  C   UNL     1      -4.361  15.651   3.750  1.00  0.00     0.054 A 
BRANCH  76  77
ATOM     77  S   UNL     1      -3.793  17.317   3.303  1.00  0.00     0.124 S 
ATOM     78  O   UNL     1      -4.998  17.914   2.735  1.00  0.00    -0.237 OA
ATOM     79  O   UNL     1      -3.361  17.860   4.587  1.00  0.00    -0.237 OA
ATOM     80  O   UNL     1      -2.715  17.067   2.346  1.00  0.00    -0.744 OA
ENDBRANCH  76  77
ENDBRANCH  48  71
BRANCH  60  81
ATOM     81  C   UNL     1      -7.421   8.399   8.208  1.00  0.00    -0.014 A 
ATOM     82  C   UNL     1      -7.720   8.232   6.841  1.00  0.00     0.010 A 
ATOM     83  C   UNL     1      -8.371   7.975   9.155  1.00  0.00     0.010 A 
ATOM     84  C   UNL     1      -8.944   7.683   6.434  1.00  0.00     0.020 A 
ATOM     85  C   UNL     1      -9.586   7.408   8.756  1.00  0.00     0.020 A 
ATOM     86  C   UNL     1      -9.870   7.273   7.396  1.00  0.00     0.054 A 
BRANCH  86  87
ATOM     87  S   UNL     1     -11.422   6.498   6.860  1.00  0.00     0.124 S 
ATOM     88  O   UNL     1     -12.177   7.632   6.335  1.00  0.00    -0.237 OA
ATOM     89  O   UNL     1     -10.975   5.524   5.867  1.00  0.00    -0.237 OA
ATOM     90  O   UNL     1     -11.960   5.913   8.088  1.00  0.00    -0.744 OA
ENDBRANCH  86  87
ENDBRANCH  60  81
ENDBRANCH  34  35
ENDBRANCH  27  29
ENDBRANCH  26  27
ENDBRANCH  25  26
ENDBRANCH  24  25
ENDBRANCH  23  24
ENDBRANCH  22  23
ENDBRANCH   1  22
TORSDOF 24
