REMARK SMILES COc1ccccc1-n1nnc(C(=O)OCCOCCOCCOC(=O)c2ccc(-c3c4nc(c(-c5ccc(S(=O)(=O)[O-])cc5)c5ccc([nH]5)c(-c5ccc(S(=O)(=O)[O-])cc5)c5nc(c(-c6ccc(S(=O)(=O)[O-])cc6)c6ccc3[nH]6)C=C5)C=C4)cc2)c1-c1ccc(Cl)cc1
REMARK SMILES IDX 20 1 19 2 18 3 17 4 16 5 15 6 13 7 14 8 12 9 9 10 10 11
REMARK SMILES IDX 87 12 11 13 8 14 3 15 4 16 5 17 7 18 6 19 2 20 1 21 88 22
REMARK SMILES IDX 89 23 94 24 90 25 93 26 91 27 92 28 21 29 22 30 23 31 24 32
REMARK SMILES IDX 25 33 26 34 27 35 28 36 86 37 29 38 85 39 30 40 31 41 32 42
REMARK SMILES IDX 79 43 33 44 84 45 78 46 80 47 34 48 83 49 77 50 76 51 35 53
REMARK SMILES IDX 65 54 46 55 64 56 47 57 50 58 63 59 81 60 48 61 49 62 62 64
REMARK SMILES IDX 82 65 51 66 36 67 37 68 45 69 38 70 44 71 39 72 40 73 41 74
REMARK SMILES IDX 42 75 43 76 66 77 67 78 75 79 68 80 74 81 69 82 70 83 71 84
REMARK SMILES IDX 72 85 73 86 52 87 53 88 61 89 54 90 60 91 55 92 56 93 57 94
REMARK SMILES IDX 58 95 59 96
REMARK H PARENT 80 52 50 63
REMARK Flexibility Score: inf
ROOT
ATOM      1  C   UNL     1       6.332  -1.882  -1.867  1.00  0.00     0.188 C 
ENDROOT
BRANCH   1   2
ATOM      2  C   UNL     1       6.695  -2.687  -0.596  1.00  0.00     0.188 C 
BRANCH   2   3
ATOM      3  O   UNL     1       6.820  -4.104  -0.652  1.00  0.00    -0.376 OA
BRANCH   3   4
ATOM      4  C   UNL     1       5.795  -4.887  -1.254  1.00  0.00     0.202 C 
BRANCH   4   5
ATOM      5  C   UNL     1       4.319  -4.666  -0.870  1.00  0.00     0.261 C 
BRANCH   5   6
ATOM      6  O   UNL     1       3.858  -3.322  -1.048  1.00  0.00    -0.458 OA
BRANCH   6   7
ATOM      7  C   UNL     1       3.579  -2.588   0.063  1.00  0.00     0.361 C 
ATOM      8  O   UNL     1       3.508  -3.050   1.198  1.00  0.00    -0.244 OA
BRANCH   7   9
ATOM      9  C   UNL     1       3.473  -1.165  -0.225  1.00  0.00     0.198 A 
ATOM     10  N   UNL     1       3.074   0.806  -1.041  1.00  0.00    -0.208 N 
ATOM     11  N   UNL     1       3.811   0.985   0.076  1.00  0.00    -0.061 NA
ATOM     12  C   UNL     1       3.033  -0.537  -1.384  1.00  0.00     0.109 A 
ATOM     13  N   UNL     1       3.957  -0.207   0.642  1.00  0.00    -0.122 NA
BRANCH  10  14
ATOM     14  C   UNL     1       2.235   1.828  -1.518  1.00  0.00     0.109 A 
ATOM     15  C   UNL     1       0.857   1.595  -1.634  1.00  0.00     0.144 A 
ATOM     16  C   UNL     1       0.063   2.519  -2.307  1.00  0.00     0.049 A 
ATOM     17  C   UNL     1       0.630   3.693  -2.803  1.00  0.00     0.004 A 
ATOM     18  C   UNL     1       2.800   3.033  -1.948  1.00  0.00     0.032 A 
ATOM     19  C   UNL     1       1.989   3.959  -2.608  1.00  0.00     0.003 A 
BRANCH  15  20
ATOM     20  O   UNL     1       0.227   0.472  -1.161  1.00  0.00    -0.494 OA
ATOM     21  C   UNL     1       0.201   0.411   0.269  1.00  0.00     0.278 C 
ENDBRANCH  15  20
ENDBRANCH  10  14
BRANCH  12  22
ATOM     22  C   UNL     1       2.573  -1.043  -2.676  1.00  0.00     0.003 A 
ATOM     23  C   UNL     1       1.641  -2.084  -2.737  1.00  0.00     0.012 A 
ATOM     24  C   UNL     1       3.083  -0.515  -3.874  1.00  0.00     0.012 A 
ATOM     25  C   UNL     1       1.241  -2.607  -3.967  1.00  0.00     0.021 A 
ATOM     26  C   UNL     1       2.676  -1.031  -5.108  1.00  0.00     0.021 A 
ATOM     27  C   UNL     1       1.762  -2.081  -5.147  1.00  0.00     0.041 A 
ATOM     28  Cl  UNL     1       1.273  -2.738  -6.659  1.00  0.00    -0.084 Cl
ENDBRANCH  12  22
ENDBRANCH   7   9
ENDBRANCH   6   7
ENDBRANCH   5   6
ENDBRANCH   4   5
ENDBRANCH   3   4
ENDBRANCH   2   3
ENDBRANCH   1   2
BRANCH   1  29
ATOM     29  O   UNL     1       5.666  -2.625  -2.867  1.00  0.00    -0.376 OA
BRANCH  29  30
ATOM     30  C   UNL     1       6.288  -2.965  -4.099  1.00  0.00     0.202 C 
BRANCH  30  31
ATOM     31  C   UNL     1       7.750  -3.408  -4.213  1.00  0.00     0.261 C 
BRANCH  31  32
ATOM     32  O   UNL     1       8.525  -3.167  -3.063  1.00  0.00    -0.460 OA
BRANCH  32  33
ATOM     33  C   UNL     1       9.056  -1.930  -3.014  1.00  0.00     0.338 C 
ATOM     34  O   UNL     1       8.884  -1.025  -3.812  1.00  0.00    -0.246 OA
BRANCH  33  35
ATOM     35  C   UNL     1       9.875  -1.833  -1.800  1.00  0.00     0.060 A 
ATOM     36  C   UNL     1      10.440  -0.580  -1.573  1.00  0.00     0.016 A 
ATOM     37  C   UNL     1      10.415  -3.022  -1.291  1.00  0.00     0.016 A 
ATOM     38  C   UNL     1      11.765  -0.564  -1.237  1.00  0.00     0.010 A 
ATOM     39  C   UNL     1      11.742  -3.009  -0.979  1.00  0.00     0.010 A 
ATOM     40  C   UNL     1      12.410  -1.796  -1.111  1.00  0.00    -0.014 A 
BRANCH  40  41
ATOM     41  C   UNL     1      13.843  -1.801  -1.222  1.00  0.00     0.031 A 
ATOM     42  C   UNL     1      14.505  -1.476   0.046  1.00  0.00     0.074 A 
ATOM     43  C   UNL     1      14.451  -2.155  -2.368  1.00  0.00     0.049 A 
ATOM     44  N   UNL     1      15.109  -0.382   0.360  1.00  0.00    -0.248 NA
ATOM     45  C   UNL     1      14.264  -2.393   1.171  1.00  0.00     0.031 C 
ATOM     46  C   UNL     1      13.875  -2.783  -3.563  1.00  0.00     0.029 A 
ATOM     47  N   UNL     1      15.775  -2.146  -2.642  1.00  0.00    -0.354 N 
ATOM     48  C   UNL     1      15.512  -0.563   1.674  1.00  0.00     0.074 A 
ATOM     49  C   UNL     1      14.761  -1.683   2.181  1.00  0.00     0.031 C 
ATOM     50  C   UNL     1      14.876  -3.336  -4.289  1.00  0.00     0.029 A 
ATOM     51  C   UNL     1      16.149  -2.989  -3.675  1.00  0.00     0.049 A 
ATOM     52  H   UNL     1      16.418  -1.587  -2.149  1.00  0.00     0.167 HD
ATOM     53  C   UNL     1      16.634   0.025   2.164  1.00  0.00     0.031 A 
ATOM     54  C   UNL     1      17.405  -3.458  -3.891  1.00  0.00     0.031 A 
ATOM     55  C   UNL     1      17.110   1.077   1.303  1.00  0.00     0.049 A 
ATOM     56  C   UNL     1      18.336  -2.563  -3.143  1.00  0.00     0.074 A 
ATOM     57  C   UNL     1      16.576   2.269   0.855  1.00  0.00     0.029 A 
ATOM     58  N   UNL     1      18.134   0.767   0.436  1.00  0.00    -0.354 N 
ATOM     59  N   UNL     1      18.501  -1.299  -3.432  1.00  0.00    -0.248 NA
ATOM     60  C   UNL     1      18.683  -2.930  -1.775  1.00  0.00     0.031 C 
ATOM     61  C   UNL     1      16.986   2.367  -0.507  1.00  0.00     0.029 A 
ATOM     62  C   UNL     1      17.796   1.267  -0.798  1.00  0.00     0.049 A 
ATOM     63  H   UNL     1      18.959   0.278   0.660  1.00  0.00     0.167 HD
ATOM     64  C   UNL     1      18.565  -0.647  -2.204  1.00  0.00     0.074 A 
ATOM     65  C   UNL     1      18.753  -1.714  -1.221  1.00  0.00     0.031 C 
ATOM     66  C   UNL     1      18.169   0.655  -2.060  1.00  0.00     0.031 A 
BRANCH  53  67
ATOM     67  C   UNL     1      17.501  -0.635   3.201  1.00  0.00    -0.014 A 
ATOM     68  C   UNL     1      18.580   0.084   3.741  1.00  0.00     0.010 A 
ATOM     69  C   UNL     1      17.448  -2.019   3.476  1.00  0.00     0.010 A 
ATOM     70  C   UNL     1      19.586  -0.566   4.467  1.00  0.00     0.020 A 
ATOM     71  C   UNL     1      18.414  -2.667   4.239  1.00  0.00     0.020 A 
ATOM     72  C   UNL     1      19.500  -1.940   4.698  1.00  0.00     0.054 A 
BRANCH  72  73
ATOM     73  S   UNL     1      20.860  -2.792   5.528  1.00  0.00     0.124 S 
ATOM     74  O   UNL     1      21.938  -2.651   4.553  1.00  0.00    -0.237 OA
ATOM     75  O   UNL     1      21.007  -2.015   6.755  1.00  0.00    -0.237 OA
ATOM     76  O   UNL     1      20.354  -4.150   5.711  1.00  0.00    -0.744 OA
ENDBRANCH  72  73
ENDBRANCH  53  67
BRANCH  54  77
ATOM     77  C   UNL     1      17.751  -4.846  -4.306  1.00  0.00    -0.014 A 
ATOM     78  C   UNL     1      19.047  -5.194  -4.729  1.00  0.00     0.010 A 
ATOM     79  C   UNL     1      16.849  -5.902  -4.051  1.00  0.00     0.010 A 
ATOM     80  C   UNL     1      19.430  -6.545  -4.858  1.00  0.00     0.020 A 
ATOM     81  C   UNL     1      17.218  -7.245  -4.184  1.00  0.00     0.020 A 
ATOM     82  C   UNL     1      18.515  -7.562  -4.571  1.00  0.00     0.054 A 
BRANCH  82  83
ATOM     83  S   UNL     1      19.051  -9.300  -4.598  1.00  0.00     0.124 S 
ATOM     84  O   UNL     1      19.270  -9.536  -6.022  1.00  0.00    -0.237 OA
ATOM     85  O   UNL     1      20.252  -9.275  -3.768  1.00  0.00    -0.237 OA
ATOM     86  O   UNL     1      17.917 -10.019  -4.019  1.00  0.00    -0.744 OA
ENDBRANCH  82  83
ENDBRANCH  54  77
BRANCH  66  87
ATOM     87  C   UNL     1      17.855   1.459  -3.306  1.00  0.00    -0.014 A 
ATOM     88  C   UNL     1      16.818   1.132  -4.204  1.00  0.00     0.010 A 
ATOM     89  C   UNL     1      18.513   2.690  -3.472  1.00  0.00     0.010 A 
ATOM     90  C   UNL     1      16.468   2.002  -5.250  1.00  0.00     0.020 A 
ATOM     91  C   UNL     1      18.159   3.569  -4.500  1.00  0.00     0.020 A 
ATOM     92  C   UNL     1      17.143   3.218  -5.390  1.00  0.00     0.054 A 
BRANCH  92  93
ATOM     93  S   UNL     1      16.657   4.364  -6.712  1.00  0.00     0.124 S 
ATOM     94  O   UNL     1      17.082   3.658  -7.917  1.00  0.00    -0.237 OA
ATOM     95  O   UNL     1      15.212   4.481  -6.528  1.00  0.00    -0.237 OA
ATOM     96  O   UNL     1      17.410   5.582  -6.412  1.00  0.00    -0.744 OA
ENDBRANCH  92  93
ENDBRANCH  66  87
ENDBRANCH  40  41
ENDBRANCH  33  35
ENDBRANCH  32  33
ENDBRANCH  31  32
ENDBRANCH  30  31
ENDBRANCH  29  30
ENDBRANCH   1  29
TORSDOF 23
