REMARK SMILES COc1cc(S(=O)(=O)Nc2cccc(C(=O)OCCOCCOCCOC(=O)c3ccc(-c4c5nc(c(-c6ccc(S(=O)(=O)[O-])cc6)c6ccc([nH]6)c(-c6ccc(S(=O)(=O)[O-])cc6)c6nc(c(-c7ccc(S(=O)(=O)[O-])cc7)c7ccc4[nH]7)C=C6)C=C5)cc3)c2)c(OC)cc1C
REMARK SMILES IDX 21 1 20 2 19 3 18 4 17 5 15 6 16 7 14 8 10 9 11 10 89 11
REMARK SMILES IDX 12 12 13 13 9 14 6 16 7 17 8 18 5 19 3 20 4 21 94 22 93 23
REMARK SMILES IDX 95 24 90 25 2 26 1 27 91 28 92 29 22 30 23 31 24 32 25 33
REMARK SMILES IDX 26 34 27 35 28 36 29 37 30 38 88 39 31 40 87 41 32 42 33 43
REMARK SMILES IDX 34 44 81 45 35 46 86 47 80 48 82 49 36 50 85 51 79 52 78 53
REMARK SMILES IDX 37 55 67 56 48 57 66 58 49 59 52 60 65 61 83 62 50 63 51 64
REMARK SMILES IDX 64 66 84 67 53 68 38 69 39 70 47 71 40 72 46 73 41 74 42 75
REMARK SMILES IDX 43 76 44 77 45 78 68 79 69 80 77 81 70 82 76 83 71 84 72 85
REMARK SMILES IDX 73 86 74 87 75 88 54 89 55 90 63 91 56 92 62 93 57 94 58 95
REMARK SMILES IDX 59 96 60 97 61 98
REMARK H PARENT 9 15 82 54 52 65
REMARK Flexibility Score: inf
ROOT
ATOM      1  C   UNL     1       5.449 -11.198  -7.387  1.00  0.00     0.188 C 
ENDROOT
BRANCH   1   2
ATOM      2  O   UNL     1       6.312 -10.036  -7.287  1.00  0.00    -0.376 OA
BRANCH   2   3
ATOM      3  C   UNL     1       7.478  -9.933  -6.426  1.00  0.00     0.202 C 
BRANCH   3   4
ATOM      4  C   UNL     1       7.591  -8.788  -5.183  1.00  0.00     0.261 C 
BRANCH   4   5
ATOM      5  O   UNL     1       6.662  -8.697  -3.763  1.00  0.00    -0.460 OA
BRANCH   5   6
ATOM      6  C   UNL     1       5.899  -7.744  -3.018  1.00  0.00     0.338 C 
ATOM      7  O   UNL     1       6.171  -6.548  -2.897  1.00  0.00    -0.246 OA
BRANCH   6   8
ATOM      8  C   UNL     1       4.700  -8.031  -2.103  1.00  0.00     0.062 A 
ATOM      9  C   UNL     1       2.346  -7.398  -1.411  1.00  0.00     0.050 A 
ATOM     10  C   UNL     1       2.716  -7.499  -0.082  1.00  0.00     0.027 A 
ATOM     11  C   UNL     1       3.346  -7.650  -2.403  1.00  0.00     0.042 A 
ATOM     12  C   UNL     1       4.045  -7.804   0.244  1.00  0.00     0.003 A 
ATOM     13  C   UNL     1       5.015  -8.069  -0.745  1.00  0.00     0.016 A 
BRANCH   9  14
ATOM     14  N   UNL     1       0.997  -7.066  -1.814  1.00  0.00    -0.279 N 
ATOM     15  H   UNL     1       0.648  -7.520  -2.614  1.00  0.00     0.180 HD
BRANCH  14  16
ATOM     16  S   UNL     1      -0.045  -5.968  -1.039  1.00  0.00     0.265 S 
ATOM     17  O   UNL     1      -0.258  -6.420   0.325  1.00  0.00    -0.201 OA
ATOM     18  O   UNL     1      -1.182  -5.786  -1.920  1.00  0.00    -0.201 OA
BRANCH  16  19
ATOM     19  C   UNL     1       0.742  -4.380  -0.916  1.00  0.00     0.133 A 
ATOM     20  C   UNL     1       0.922  -2.264   0.262  1.00  0.00     0.123 A 
ATOM     21  C   UNL     1       0.221  -3.445  -0.002  1.00  0.00     0.073 A 
ATOM     22  C   UNL     1       2.219  -2.107  -0.235  1.00  0.00    -0.005 A 
ATOM     23  C   UNL     1       2.659  -2.984  -1.236  1.00  0.00     0.055 A 
ATOM     24  C   UNL     1       3.152  -1.027   0.228  1.00  0.00     0.048 C 
ATOM     25  C   UNL     1       1.876  -4.063  -1.651  1.00  0.00     0.139 A 
BRANCH  20  26
ATOM     26  O   UNL     1       0.306  -1.330   1.054  1.00  0.00    -0.496 OA
ATOM     27  C   UNL     1       0.211  -0.055   0.399  1.00  0.00     0.278 C 
ENDBRANCH  20  26
BRANCH  25  28
ATOM     28  O   UNL     1       2.154  -4.809  -2.755  1.00  0.00    -0.495 OA
ATOM     29  C   UNL     1       2.977  -4.203  -3.744  1.00  0.00     0.278 C 
ENDBRANCH  25  28
ENDBRANCH  16  19
ENDBRANCH  14  16
ENDBRANCH   9  14
ENDBRANCH   6   8
ENDBRANCH   5   6
ENDBRANCH   4   5
ENDBRANCH   3   4
ENDBRANCH   2   3
ENDBRANCH   1   2
BRANCH   1  30
ATOM     30  C   UNL     1       5.819 -12.578  -6.836  1.00  0.00     0.188 C 
BRANCH  30  31
ATOM     31  O   UNL     1       6.514 -12.445  -5.611  1.00  0.00    -0.376 OA
BRANCH  31  32
ATOM     32  C   UNL     1       6.824 -13.647  -4.933  1.00  0.00     0.202 C 
BRANCH  32  33
ATOM     33  C   UNL     1       5.617 -14.277  -4.208  1.00  0.00     0.261 C 
BRANCH  33  34
ATOM     34  O   UNL     1       5.113 -13.428  -3.143  1.00  0.00    -0.460 OA
BRANCH  34  35
ATOM     35  C   UNL     1       3.794 -13.010  -3.203  1.00  0.00     0.338 C 
ATOM     36  O   UNL     1       2.888 -13.674  -2.720  1.00  0.00    -0.246 OA
BRANCH  35  37
ATOM     37  C   UNL     1       3.685 -11.595  -3.724  1.00  0.00     0.060 A 
ATOM     38  C   UNL     1       2.590 -10.861  -4.213  1.00  0.00     0.016 A 
ATOM     39  C   UNL     1       4.861 -10.958  -3.876  1.00  0.00     0.016 A 
ATOM     40  C   UNL     1       2.741  -9.554  -4.919  1.00  0.00     0.010 A 
ATOM     41  C   UNL     1       4.904  -9.861  -4.741  1.00  0.00     0.010 A 
ATOM     42  C   UNL     1       3.976  -8.962  -5.206  1.00  0.00    -0.014 A 
BRANCH  42  43
ATOM     43  C   UNL     1       4.447  -7.741  -6.120  1.00  0.00     0.031 A 
ATOM     44  C   UNL     1       5.252  -6.335  -5.867  1.00  0.00     0.074 A 
ATOM     45  C   UNL     1       4.142  -7.872  -7.432  1.00  0.00     0.049 A 
ATOM     46  N   UNL     1       4.867  -5.154  -6.340  1.00  0.00    -0.248 NA
ATOM     47  C   UNL     1       6.561  -6.100  -5.223  1.00  0.00     0.031 C 
ATOM     48  C   UNL     1       4.584  -7.043  -8.551  1.00  0.00     0.029 A 
ATOM     49  N   UNL     1       3.202  -8.729  -7.996  1.00  0.00    -0.354 N 
ATOM     50  C   UNL     1       5.888  -4.201  -6.106  1.00  0.00     0.074 A 
ATOM     51  C   UNL     1       6.834  -4.810  -5.268  1.00  0.00     0.031 C 
ATOM     52  C   UNL     1       3.746  -7.234  -9.581  1.00  0.00     0.029 A 
ATOM     53  C   UNL     1       2.677  -8.107  -9.130  1.00  0.00     0.049 A 
ATOM     54  H   UNL     1       2.952  -9.618  -7.655  1.00  0.00     0.167 HD
ATOM     55  C   UNL     1       6.132  -3.029  -6.758  1.00  0.00     0.031 A 
ATOM     56  C   UNL     1       1.338  -7.886  -9.233  1.00  0.00     0.031 A 
ATOM     57  C   UNL     1       5.328  -2.943  -7.934  1.00  0.00     0.049 A 
ATOM     58  C   UNL     1       0.997  -6.420  -9.338  1.00  0.00     0.074 A 
ATOM     59  C   UNL     1       5.575  -3.277  -9.252  1.00  0.00     0.029 A 
ATOM     60  N   UNL     1       3.966  -2.832  -7.782  1.00  0.00    -0.354 N 
ATOM     61  N   UNL     1       1.865  -5.457  -9.190  1.00  0.00    -0.248 NA
ATOM     62  C   UNL     1      -0.347  -5.910  -9.595  1.00  0.00     0.031 C 
ATOM     63  C   UNL     1       4.319  -3.453  -9.883  1.00  0.00     0.029 A 
ATOM     64  C   UNL     1       3.333  -3.163  -8.957  1.00  0.00     0.049 A 
ATOM     65  H   UNL     1       3.511  -2.557  -6.953  1.00  0.00     0.167 HD
ATOM     66  C   UNL     1       1.230  -4.246  -9.246  1.00  0.00     0.074 A 
ATOM     67  C   UNL     1      -0.148  -4.580  -9.542  1.00  0.00     0.031 C 
ATOM     68  C   UNL     1       1.889  -3.077  -9.009  1.00  0.00     0.031 A 
BRANCH  55  69
ATOM     69  C   UNL     1       7.387  -2.198  -6.468  1.00  0.00    -0.014 A 
ATOM     70  C   UNL     1       8.222  -1.744  -7.506  1.00  0.00     0.010 A 
ATOM     71  C   UNL     1       7.819  -1.911  -5.148  1.00  0.00     0.010 A 
ATOM     72  C   UNL     1       9.470  -1.141  -7.247  1.00  0.00     0.020 A 
ATOM     73  C   UNL     1       9.082  -1.345  -4.877  1.00  0.00     0.020 A 
ATOM     74  C   UNL     1       9.909  -0.972  -5.933  1.00  0.00     0.054 A 
BRANCH  74  75
ATOM     75  S   UNL     1      11.587  -0.334  -5.629  1.00  0.00     0.124 S 
ATOM     76  O   UNL     1      12.399  -1.096  -6.577  1.00  0.00    -0.237 OA
ATOM     77  O   UNL     1      11.443   1.087  -5.929  1.00  0.00    -0.237 OA
ATOM     78  O   UNL     1      11.831  -0.654  -4.224  1.00  0.00    -0.744 OA
ENDBRANCH  74  75
ENDBRANCH  55  69
BRANCH  56  79
ATOM     79  C   UNL     1       0.511  -8.976  -8.624  1.00  0.00    -0.014 A 
ATOM     80  C   UNL     1       0.596 -10.249  -9.237  1.00  0.00     0.010 A 
ATOM     81  C   UNL     1       0.018  -8.905  -7.310  1.00  0.00     0.010 A 
ATOM     82  C   UNL     1       0.358 -11.420  -8.513  1.00  0.00     0.020 A 
ATOM     83  C   UNL     1      -0.249 -10.086  -6.584  1.00  0.00     0.020 A 
ATOM     84  C   UNL     1      -0.009 -11.332  -7.173  1.00  0.00     0.054 A 
BRANCH  84  85
ATOM     85  S   UNL     1       0.033 -12.865  -6.191  1.00  0.00     0.124 S 
ATOM     86  O   UNL     1      -0.900 -13.726  -6.912  1.00  0.00    -0.237 OA
ATOM     87  O   UNL     1       1.443 -13.243  -6.294  1.00  0.00    -0.237 OA
ATOM     88  O   UNL     1      -0.407 -12.432  -4.869  1.00  0.00    -0.744 OA
ENDBRANCH  84  85
ENDBRANCH  56  79
BRANCH  68  89
ATOM     89  C   UNL     1       1.275  -1.714  -8.798  1.00  0.00    -0.014 A 
ATOM     90  C   UNL     1      -0.052  -1.505  -8.405  1.00  0.00     0.010 A 
ATOM     91  C   UNL     1       2.119  -0.572  -8.850  1.00  0.00     0.010 A 
ATOM     92  C   UNL     1      -0.533  -0.214  -8.143  1.00  0.00     0.020 A 
ATOM     93  C   UNL     1       1.666   0.708  -8.533  1.00  0.00     0.020 A 
ATOM     94  C   UNL     1       0.328   0.883  -8.213  1.00  0.00     0.054 A 
BRANCH  94  95
ATOM     95  S   UNL     1      -0.287   2.540  -7.837  1.00  0.00     0.124 S 
ATOM     96  O   UNL     1      -0.711   3.006  -9.155  1.00  0.00    -0.237 OA
ATOM     97  O   UNL     1      -1.366   2.285  -6.885  1.00  0.00    -0.237 OA
ATOM     98  O   UNL     1       0.880   3.216  -7.276  1.00  0.00    -0.744 OA
ENDBRANCH  94  95
ENDBRANCH  68  89
ENDBRANCH  42  43
ENDBRANCH  35  37
ENDBRANCH  34  35
ENDBRANCH  33  34
ENDBRANCH  32  33
ENDBRANCH  31  32
ENDBRANCH  30  31
ENDBRANCH   1  30
TORSDOF 25
