REMARK SMILES O=C(OCCOCCOCCOC(=O)c1nccnc1C(=O)Nc1n[nH]c2ncccc12)c1ccc(-c2c3nc(c(-c4ccc(S(=O)(=O)[O-])cc4)c4ccc([nH]4)c(-c4ccc(S(=O)(=O)[O-])cc4)c4nc(c(-c5ccc(S(=O)(=O)[O-])cc5)c5ccc2[nH]5)C=C4)C=C3)cc1
REMARK SMILES IDX 7 1 6 2 5 3 4 4 3 5 2 6 1 7 33 8 34 9 92 10 35 11 91 12
REMARK SMILES IDX 36 13 37 14 38 15 85 16 39 17 90 18 84 19 86 20 40 21 89 22
REMARK SMILES IDX 83 23 82 24 41 26 71 27 52 28 70 29 53 30 56 31 69 32 87 33
REMARK SMILES IDX 54 34 55 35 68 37 88 38 57 39 42 40 43 41 51 42 44 43 50 44
REMARK SMILES IDX 45 45 46 46 47 47 48 48 49 49 72 50 73 51 81 52 74 53 80 54
REMARK SMILES IDX 75 55 76 56 77 57 78 58 79 59 58 60 59 61 67 62 60 63 66 64
REMARK SMILES IDX 61 65 62 66 63 67 64 68 65 69 8 70 9 71 10 72 11 73 12 74
REMARK SMILES IDX 13 75 14 76 15 77 16 78 20 79 17 80 19 81 18 82 21 83 22 84
REMARK SMILES IDX 23 85 24 87 25 88 32 89 26 90 27 91 31 92 28 94 30 95 29 96
REMARK H PARENT 86 25 56 36 23 86 26 93
REMARK Flexibility Score: inf
ROOT
ATOM      1  C   UNL     1       3.420  -2.247   1.549  1.00  0.00     0.188 C 
ENDROOT
BRANCH   1   2
ATOM      2  O   UNL     1       4.363  -1.458   0.830  1.00  0.00    -0.376 OA
BRANCH   2   3
ATOM      3  C   UNL     1       5.320  -0.777   1.635  1.00  0.00     0.202 C 
BRANCH   3   4
ATOM      4  C   UNL     1       4.741   0.476   2.309  1.00  0.00     0.261 C 
BRANCH   4   5
ATOM      5  O   UNL     1       4.513   1.476   1.304  1.00  0.00    -0.460 OA
BRANCH   5   6
ATOM      6  C   UNL     1       3.311   1.459   0.681  1.00  0.00     0.338 C 
ATOM      7  O   UNL     1       2.233   1.147   1.186  1.00  0.00    -0.246 OA
BRANCH   6   8
ATOM      8  C   UNL     1       3.522   1.852  -0.734  1.00  0.00     0.060 A 
ATOM      9  C   UNL     1       4.785   1.661  -1.304  1.00  0.00     0.016 A 
ATOM     10  C   UNL     1       2.486   2.381  -1.519  1.00  0.00     0.016 A 
ATOM     11  C   UNL     1       5.029   2.036  -2.617  1.00  0.00     0.010 A 
ATOM     12  C   UNL     1       2.733   2.771  -2.849  1.00  0.00     0.010 A 
ATOM     13  C   UNL     1       4.015   2.616  -3.397  1.00  0.00    -0.014 A 
BRANCH  13  14
ATOM     14  C   UNL     1       4.477   3.261  -4.654  1.00  0.00     0.031 A 
ATOM     15  C   UNL     1       5.262   4.520  -4.483  1.00  0.00     0.074 A 
ATOM     16  C   UNL     1       4.427   2.659  -5.858  1.00  0.00     0.049 A 
ATOM     17  N   UNL     1       5.983   5.158  -5.358  1.00  0.00    -0.248 NA
ATOM     18  C   UNL     1       5.231   5.132  -3.143  1.00  0.00     0.031 C 
ATOM     19  C   UNL     1       3.657   1.475  -6.157  1.00  0.00     0.029 A 
ATOM     20  N   UNL     1       5.065   2.913  -7.045  1.00  0.00    -0.354 N 
ATOM     21  C   UNL     1       6.487   6.254  -4.678  1.00  0.00     0.074 A 
ATOM     22  C   UNL     1       6.022   6.177  -3.312  1.00  0.00     0.031 C 
ATOM     23  C   UNL     1       4.008   0.967  -7.342  1.00  0.00     0.029 A 
ATOM     24  C   UNL     1       4.851   1.944  -8.004  1.00  0.00     0.049 A 
ATOM     25  H   UNL     1       5.622   3.711  -7.199  1.00  0.00     0.167 HD
ATOM     26  C   UNL     1       7.225   7.269  -5.175  1.00  0.00     0.031 A 
ATOM     27  C   UNL     1       5.187   1.889  -9.307  1.00  0.00     0.031 A 
ATOM     28  C   UNL     1       7.549   7.390  -6.566  1.00  0.00     0.049 A 
ATOM     29  C   UNL     1       5.899   3.077  -9.865  1.00  0.00     0.074 A 
ATOM     30  C   UNL     1       8.184   8.430  -7.213  1.00  0.00     0.029 A 
ATOM     31  N   UNL     1       7.215   6.450  -7.534  1.00  0.00    -0.354 N 
ATOM     32  N   UNL     1       6.343   4.128  -9.218  1.00  0.00    -0.248 NA
ATOM     33  C   UNL     1       6.109   3.114 -11.315  1.00  0.00     0.031 C 
ATOM     34  C   UNL     1       8.175   8.149  -8.583  1.00  0.00     0.029 A 
ATOM     35  C   UNL     1       7.603   6.899  -8.781  1.00  0.00     0.049 A 
ATOM     36  H   UNL     1       6.767   5.591  -7.357  1.00  0.00     0.167 HD
ATOM     37  C   UNL     1       6.875   4.964 -10.181  1.00  0.00     0.074 A 
ATOM     38  C   UNL     1       6.723   4.282 -11.455  1.00  0.00     0.031 C 
ATOM     39  C   UNL     1       7.431   6.188 -10.025  1.00  0.00     0.031 A 
BRANCH  26  40
ATOM     40  C   UNL     1       7.555   8.369  -4.212  1.00  0.00    -0.014 A 
ATOM     41  C   UNL     1       8.492   8.183  -3.178  1.00  0.00     0.010 A 
ATOM     42  C   UNL     1       6.825   9.569  -4.275  1.00  0.00     0.010 A 
ATOM     43  C   UNL     1       8.649   9.159  -2.191  1.00  0.00     0.020 A 
ATOM     44  C   UNL     1       6.998  10.555  -3.305  1.00  0.00     0.020 A 
ATOM     45  C   UNL     1       7.890  10.332  -2.254  1.00  0.00     0.054 A 
BRANCH  45  46
ATOM     46  S   UNL     1       8.076  11.563  -0.936  1.00  0.00     0.124 S 
ATOM     47  O   UNL     1       7.374  10.923   0.173  1.00  0.00    -0.237 OA
ATOM     48  O   UNL     1       9.526  11.659  -0.789  1.00  0.00    -0.237 OA
ATOM     49  O   UNL     1       7.427  12.753  -1.481  1.00  0.00    -0.744 OA
ENDBRANCH  45  46
ENDBRANCH  26  40
BRANCH  27  50
ATOM     50  C   UNL     1       4.707   0.762 -10.160  1.00  0.00    -0.014 A 
ATOM     51  C   UNL     1       5.599  -0.173 -10.712  1.00  0.00     0.010 A 
ATOM     52  C   UNL     1       3.323   0.575 -10.358  1.00  0.00     0.010 A 
ATOM     53  C   UNL     1       5.114  -1.287 -11.411  1.00  0.00     0.020 A 
ATOM     54  C   UNL     1       2.834  -0.553 -11.021  1.00  0.00     0.020 A 
ATOM     55  C   UNL     1       3.735  -1.478 -11.544  1.00  0.00     0.054 A 
BRANCH  55  56
ATOM     56  S   UNL     1       3.124  -3.002 -12.320  1.00  0.00     0.124 S 
ATOM     57  O   UNL     1       3.354  -2.736 -13.735  1.00  0.00    -0.237 OA
ATOM     58  O   UNL     1       3.978  -4.019 -11.711  1.00  0.00    -0.237 OA
ATOM     59  O   UNL     1       1.725  -3.050 -11.902  1.00  0.00    -0.744 OA
ENDBRANCH  55  56
ENDBRANCH  27  50
BRANCH  39  60
ATOM     60  C   UNL     1       7.960   6.851 -11.258  1.00  0.00    -0.014 A 
ATOM     61  C   UNL     1       7.097   7.468 -12.179  1.00  0.00     0.010 A 
ATOM     62  C   UNL     1       9.351   6.943 -11.429  1.00  0.00     0.010 A 
ATOM     63  C   UNL     1       7.626   8.176 -13.258  1.00  0.00     0.020 A 
ATOM     64  C   UNL     1       9.881   7.671 -12.491  1.00  0.00     0.020 A 
ATOM     65  C   UNL     1       9.014   8.281 -13.400  1.00  0.00     0.054 A 
BRANCH  65  66
ATOM     66  S   UNL     1       9.677   9.294 -14.747  1.00  0.00     0.124 S 
ATOM     67  O   UNL     1       9.434   8.446 -15.910  1.00  0.00    -0.237 OA
ATOM     68  O   UNL     1       8.861  10.504 -14.668  1.00  0.00    -0.237 OA
ATOM     69  O   UNL     1      11.082   9.472 -14.386  1.00  0.00    -0.744 OA
ENDBRANCH  65  66
ENDBRANCH  39  60
ENDBRANCH  13  14
ENDBRANCH   6   8
ENDBRANCH   5   6
ENDBRANCH   4   5
ENDBRANCH   3   4
ENDBRANCH   2   3
ENDBRANCH   1   2
BRANCH   1  70
ATOM     70  C   UNL     1       3.773  -3.762   1.507  1.00  0.00     0.188 C 
BRANCH  70  71
ATOM     71  O   UNL     1       3.444  -4.460   0.277  1.00  0.00    -0.376 OA
BRANCH  71  72
ATOM     72  C   UNL     1       4.554  -4.898  -0.542  1.00  0.00     0.202 C 
BRANCH  72  73
ATOM     73  C   UNL     1       4.101  -5.557  -1.910  1.00  0.00     0.261 C 
BRANCH  73  74
ATOM     74  O   UNL     1       3.712  -4.690  -3.033  1.00  0.00    -0.458 OA
BRANCH  74  75
ATOM     75  C   UNL     1       2.429  -4.687  -3.537  1.00  0.00     0.359 C 
ATOM     76  O   UNL     1       1.491  -5.282  -3.031  1.00  0.00    -0.244 OA
BRANCH  75  77
ATOM     77  C   UNL     1       2.298  -3.835  -4.784  1.00  0.00     0.179 A 
ATOM     78  N   UNL     1       3.325  -3.963  -5.687  1.00  0.00    -0.245 NA
ATOM     79  C   UNL     1       1.221  -2.976  -5.061  1.00  0.00     0.161 A 
ATOM     80  C   UNL     1       3.206  -3.257  -6.847  1.00  0.00     0.132 A 
ATOM     81  N   UNL     1       1.160  -2.218  -6.208  1.00  0.00    -0.247 NA
ATOM     82  C   UNL     1       2.149  -2.404  -7.101  1.00  0.00     0.132 A 
BRANCH  79  83
ATOM     83  C   UNL     1       0.015  -2.722  -4.223  1.00  0.00     0.278 C 
ATOM     84  O   UNL     1      -1.053  -3.259  -4.519  1.00  0.00    -0.267 OA
ATOM     85  N   UNL     1       0.042  -1.757  -3.225  1.00  0.00    -0.303 N 
ATOM     86  H   UNL     1      -0.709  -1.130  -3.110  1.00  0.00     0.172 HD
BRANCH  85  87
ATOM     87  C   UNL     1       1.134  -1.697  -2.407  1.00  0.00     0.164 A 
ATOM     88  N   UNL     1       1.056  -2.390  -1.280  1.00  0.00    -0.155 NA
ATOM     89  C   UNL     1       2.465  -1.346  -2.723  1.00  0.00     0.063 A 
ATOM     90  N   UNL     1       2.327  -2.772  -1.129  1.00  0.00    -0.259 N 
ATOM     91  C   UNL     1       3.240  -2.091  -1.875  1.00  0.00     0.157 A 
ATOM     92  C   UNL     1       3.135  -0.668  -3.724  1.00  0.00     0.017 A 
ATOM     93  H   UNL     1       2.587  -3.498  -0.518  1.00  0.00     0.192 HD
ATOM     94  N   UNL     1       4.577  -2.267  -1.925  1.00  0.00    -0.237 NA
ATOM     95  C   UNL     1       4.517  -0.824  -3.852  1.00  0.00     0.021 A 
ATOM     96  C   UNL     1       5.175  -1.628  -2.945  1.00  0.00     0.113 A 
ENDBRANCH  85  87
ENDBRANCH  79  83
ENDBRANCH  75  77
ENDBRANCH  74  75
ENDBRANCH  73  74
ENDBRANCH  72  73
ENDBRANCH  71  72
ENDBRANCH  70  71
ENDBRANCH   1  70
TORSDOF 22
