REMARK SMILES CC[C@@H]1CCC[C@@H](Oc2cncc(C(=O)OCCOCCOCCOC(=O)c3ccc(-c4c5nc(c(-c6ccc(S(=O)(=O)[O-])cc6)c6ccc([nH]6)c(-c6ccc(S(=O)(=O)[O-])cc6)c6nc(c(-c7ccc(S(=O)(=O)[O-])cc7)c7ccc4[nH]7)C=C6)C=C5)cc3)n2)C1
REMARK SMILES IDX 20 1 19 2 18 3 17 4 16 5 14 6 15 7 13 8 9 9 10 10 88 11
REMARK SMILES IDX 11 12 12 13 8 14 7 15 3 16 4 17 89 18 5 19 6 20 2 21 1 22
REMARK SMILES IDX 21 23 22 24 23 25 24 26 25 27 26 28 27 29 28 30 29 31 87 32
REMARK SMILES IDX 30 33 86 34 31 35 32 36 33 37 80 38 34 39 85 40 79 41 81 42
REMARK SMILES IDX 35 43 84 44 78 45 77 46 36 48 66 49 47 50 65 51 48 52 51 53
REMARK SMILES IDX 64 54 82 55 49 56 50 57 63 59 83 60 52 61 37 62 38 63 46 64
REMARK SMILES IDX 39 65 45 66 40 67 41 68 42 69 43 70 44 71 67 72 68 73 76 74
REMARK SMILES IDX 69 75 75 76 70 77 71 78 72 79 73 80 74 81 53 82 54 83 62 84
REMARK SMILES IDX 55 85 61 86 56 87 57 88 58 89 59 90 60 91
REMARK H PARENT 81 47 51 58
REMARK Flexibility Score: inf
ROOT
ATOM      1  C   UNL     1       7.066   1.875   6.550  1.00  0.00     0.188 C 
ENDROOT
BRANCH   1   2
ATOM      2  O   UNL     1       8.467   2.026   6.331  1.00  0.00    -0.376 OA
BRANCH   2   3
ATOM      3  C   UNL     1       8.951   1.512   5.091  1.00  0.00     0.202 C 
BRANCH   3   4
ATOM      4  C   UNL     1       8.616   2.382   3.870  1.00  0.00     0.261 C 
BRANCH   4   5
ATOM      5  O   UNL     1       7.226   2.343   3.499  1.00  0.00    -0.458 OA
BRANCH   5   6
ATOM      6  C   UNL     1       6.740   1.174   3.014  1.00  0.00     0.358 C 
ATOM      7  O   UNL     1       7.390   0.185   2.722  1.00  0.00    -0.244 OA
BRANCH   6   8
ATOM      8  C   UNL     1       5.272   1.193   3.219  1.00  0.00     0.170 A 
ATOM      9  C   UNL     1       3.312   2.378   3.362  1.00  0.00     0.233 A 
ATOM     10  C   UNL     1       2.885   1.486   4.334  1.00  0.00     0.179 A 
ATOM     11  N   UNL     1       4.548   2.281   2.822  1.00  0.00    -0.203 NA
ATOM     12  N   UNL     1       3.575   0.374   4.690  1.00  0.00    -0.257 NA
ATOM     13  C   UNL     1       4.777   0.234   4.090  1.00  0.00     0.147 A 
BRANCH   9  14
ATOM     14  O   UNL     1       2.626   3.513   3.056  1.00  0.00    -0.473 OA
BRANCH  14  15
ATOM     15  C   UNL     1       1.317   3.448   2.459  1.00  0.00     0.175 C 
ATOM     16  C   UNL     1       0.396   1.046   2.164  1.00  0.00    -0.008 C 
ATOM     17  C   UNL     1      -0.750   1.393   3.130  1.00  0.00     0.004 C 
ATOM     18  C   UNL     1       0.981   2.299   1.498  1.00  0.00     0.048 C 
ATOM     19  C   UNL     1      -0.473   2.540   4.096  1.00  0.00     0.004 C 
ATOM     20  C   UNL     1       0.201   3.752   3.465  1.00  0.00     0.045 C 
BRANCH  16  21
ATOM     21  C   UNL     1      -0.110  -0.008   1.151  1.00  0.00     0.000 C 
ATOM     22  C   UNL     1       0.807  -0.252  -0.039  1.00  0.00     0.004 C 
ENDBRANCH  16  21
ENDBRANCH  14  15
ENDBRANCH   9  14
ENDBRANCH   6   8
ENDBRANCH   5   6
ENDBRANCH   4   5
ENDBRANCH   3   4
ENDBRANCH   2   3
ENDBRANCH   1   2
BRANCH   1  23
ATOM     23  C   UNL     1       6.276   3.165   6.280  1.00  0.00     0.188 C 
BRANCH  23  24
ATOM     24  O   UNL     1       7.102   4.326   6.314  1.00  0.00    -0.376 OA
BRANCH  24  25
ATOM     25  C   UNL     1       6.981   5.117   7.491  1.00  0.00     0.202 C 
BRANCH  25  26
ATOM     26  C   UNL     1       7.610   4.490   8.742  1.00  0.00     0.261 C 
BRANCH  26  27
ATOM     27  O   UNL     1       6.936   3.326   9.257  1.00  0.00    -0.460 OA
BRANCH  27  28
ATOM     28  C   UNL     1       5.643   3.458   9.627  1.00  0.00     0.338 C 
ATOM     29  O   UNL     1       4.969   4.471   9.606  1.00  0.00    -0.246 OA
BRANCH  28  30
ATOM     30  C   UNL     1       5.116   2.111   9.924  1.00  0.00     0.060 A 
ATOM     31  C   UNL     1       3.977   1.662   9.245  1.00  0.00     0.016 A 
ATOM     32  C   UNL     1       5.734   1.304  10.883  1.00  0.00     0.016 A 
ATOM     33  C   UNL     1       3.433   0.412   9.553  1.00  0.00     0.010 A 
ATOM     34  C   UNL     1       5.181   0.060  11.196  1.00  0.00     0.010 A 
ATOM     35  C   UNL     1       4.011  -0.381  10.555  1.00  0.00    -0.014 A 
BRANCH  35  36
ATOM     36  C   UNL     1       3.320  -1.600  11.043  1.00  0.00     0.031 A 
ATOM     37  C   UNL     1       2.466  -1.504  12.279  1.00  0.00     0.074 A 
ATOM     38  C   UNL     1       3.453  -2.781  10.411  1.00  0.00     0.049 A 
ATOM     39  N   UNL     1       1.798  -2.443  12.899  1.00  0.00    -0.248 NA
ATOM     40  C   UNL     1       2.353  -0.173  12.897  1.00  0.00     0.031 C 
ATOM     41  C   UNL     1       4.231  -3.010   9.196  1.00  0.00     0.029 A 
ATOM     42  N   UNL     1       2.938  -4.016  10.721  1.00  0.00    -0.354 N 
ATOM     43  C   UNL     1       1.184  -1.818  13.978  1.00  0.00     0.074 A 
ATOM     44  C   UNL     1       1.584  -0.427  13.945  1.00  0.00     0.031 C 
ATOM     45  C   UNL     1       4.153  -4.313   8.869  1.00  0.00     0.029 A 
ATOM     46  C   UNL     1       3.340  -5.012   9.864  1.00  0.00     0.049 A 
ATOM     47  H   UNL     1       2.338  -4.173  11.485  1.00  0.00     0.167 HD
ATOM     48  C   UNL     1       0.356  -2.348  14.909  1.00  0.00     0.031 A 
ATOM     49  C   UNL     1       3.094  -6.337   9.886  1.00  0.00     0.031 A 
ATOM     50  C   UNL     1      -0.025  -3.733  14.966  1.00  0.00     0.049 A 
ATOM     51  C   UNL     1       2.225  -6.919  10.971  1.00  0.00     0.074 A 
ATOM     52  C   UNL     1      -0.867  -4.358  15.869  1.00  0.00     0.029 A 
ATOM     53  N   UNL     1       0.421  -4.712  14.092  1.00  0.00    -0.354 N 
ATOM     54  N   UNL     1       1.621  -6.306  11.961  1.00  0.00    -0.248 NA
ATOM     55  C   UNL     1       1.998  -8.372  10.935  1.00  0.00     0.031 C 
ATOM     56  C   UNL     1      -0.895  -5.724  15.568  1.00  0.00     0.029 A 
ATOM     57  C   UNL     1      -0.110  -5.940  14.447  1.00  0.00     0.049 A 
ATOM     58  H   UNL     1       1.026  -4.557  13.331  1.00  0.00     0.167 HD
ATOM     59  C   UNL     1       0.923  -7.295  12.650  1.00  0.00     0.074 A 
ATOM     60  C   UNL     1       1.171  -8.543  11.958  1.00  0.00     0.031 C 
ATOM     61  C   UNL     1       0.143  -7.177  13.753  1.00  0.00     0.031 A 
BRANCH  48  62
ATOM     62  C   UNL     1      -0.174  -1.416  15.964  1.00  0.00    -0.014 A 
ATOM     63  C   UNL     1      -1.162  -0.464  15.655  1.00  0.00     0.010 A 
ATOM     64  C   UNL     1       0.308  -1.504  17.282  1.00  0.00     0.010 A 
ATOM     65  C   UNL     1      -1.629   0.413  16.637  1.00  0.00     0.020 A 
ATOM     66  C   UNL     1      -0.173  -0.643  18.272  1.00  0.00     0.020 A 
ATOM     67  C   UNL     1      -1.125   0.323  17.938  1.00  0.00     0.054 A 
BRANCH  67  68
ATOM     68  S   UNL     1      -1.751   1.469  19.196  1.00  0.00     0.124 S 
ATOM     69  O   UNL     1      -1.069   2.710  18.837  1.00  0.00    -0.237 OA
ATOM     70  O   UNL     1      -3.192   1.454  18.958  1.00  0.00    -0.237 OA
ATOM     71  O   UNL     1      -1.325   0.866  20.457  1.00  0.00    -0.744 OA
ENDBRANCH  67  68
ENDBRANCH  48  62
BRANCH  49  72
ATOM     72  C   UNL     1       3.692  -7.219   8.848  1.00  0.00    -0.014 A 
ATOM     73  C   UNL     1       2.891  -7.791   7.844  1.00  0.00     0.010 A 
ATOM     74  C   UNL     1       5.072  -7.496   8.864  1.00  0.00     0.010 A 
ATOM     75  C   UNL     1       3.456  -8.635   6.883  1.00  0.00     0.020 A 
ATOM     76  C   UNL     1       5.644  -8.320   7.891  1.00  0.00     0.020 A 
ATOM     77  C   UNL     1       4.830  -8.893   6.912  1.00  0.00     0.054 A 
BRANCH  77  78
ATOM     78  S   UNL     1       5.553  -9.946   5.623  1.00  0.00     0.124 S 
ATOM     79  O   UNL     1       5.151 -11.279   6.060  1.00  0.00    -0.237 OA
ATOM     80  O   UNL     1       4.902  -9.454   4.410  1.00  0.00    -0.237 OA
ATOM     81  O   UNL     1       6.983  -9.659   5.713  1.00  0.00    -0.744 OA
ENDBRANCH  77  78
ENDBRANCH  49  72
BRANCH  61  82
ATOM     82  C   UNL     1      -0.529  -8.421  14.270  1.00  0.00    -0.014 A 
ATOM     83  C   UNL     1       0.197  -9.411  14.956  1.00  0.00     0.010 A 
ATOM     84  C   UNL     1      -1.920  -8.572  14.120  1.00  0.00     0.010 A 
ATOM     85  C   UNL     1      -0.453 -10.542  15.460  1.00  0.00     0.020 A 
ATOM     86  C   UNL     1      -2.576  -9.691  14.641  1.00  0.00     0.020 A 
ATOM     87  C   UNL     1      -1.835 -10.676  15.297  1.00  0.00     0.054 A 
BRANCH  87  88
ATOM     88  S   UNL     1      -2.665 -12.129  15.999  1.00  0.00     0.124 S 
ATOM     89  O   UNL     1      -2.312 -13.173  15.041  1.00  0.00    -0.237 OA
ATOM     90  O   UNL     1      -2.045 -12.250  17.317  1.00  0.00    -0.237 OA
ATOM     91  O   UNL     1      -4.076 -11.748  16.015  1.00  0.00    -0.744 OA
ENDBRANCH  87  88
ENDBRANCH  61  82
ENDBRANCH  35  36
ENDBRANCH  28  30
ENDBRANCH  27  28
ENDBRANCH  26  27
ENDBRANCH  25  26
ENDBRANCH  24  25
ENDBRANCH  23  24
ENDBRANCH   1  23
TORSDOF 23
