REMARK SMILES Cc1ccc(C#N)cc1S(=O)(=O)Nc1cccc(C(=O)OCCOCCOCCOC(=O)c2ccc(-c3c4nc(c(-c5ccc(S(=O)(=O)[O-])cc5)c5ccc([nH]5)c(-c5ccc(S(=O)(=O)[O-])cc5)c5nc(c(-c6ccc(S(=O)(=O)[O-])cc6)c6ccc3[nH]6)C=C5)C=C4)cc2)c1
REMARK SMILES IDX 25 1 24 2 23 3 22 4 21 5 19 6 20 7 18 8 14 9 15 10 93 11
REMARK SMILES IDX 16 12 17 13 13 14 10 16 11 17 12 18 9 19 1 20 2 21 3 22 4 23
REMARK SMILES IDX 8 24 5 25 6 26 7 27 26 28 27 29 28 30 29 31 30 32 31 33
REMARK SMILES IDX 32 34 33 35 34 36 92 37 35 38 91 39 36 40 37 41 38 42 85 43
REMARK SMILES IDX 39 44 90 45 84 46 86 47 40 48 89 49 83 50 82 51 41 53 71 54
REMARK SMILES IDX 52 55 70 56 53 57 56 58 69 59 87 60 54 61 55 62 68 64 88 65
REMARK SMILES IDX 57 66 42 67 43 68 51 69 44 70 50 71 45 72 46 73 47 74 48 75
REMARK SMILES IDX 49 76 72 77 73 78 81 79 74 80 80 81 75 82 76 83 77 84 78 85
REMARK SMILES IDX 79 86 58 87 59 88 67 89 60 90 66 91 61 92 62 93 63 94 64 95
REMARK SMILES IDX 65 96
REMARK H PARENT 13 15 86 52 56 63
REMARK Flexibility Score: inf
ROOT
ATOM      1  C   UNL     1       5.415  -1.830  -0.905  1.00  0.00     0.188 C 
ENDROOT
BRANCH   1   2
ATOM      2  O   UNL     1       6.696  -1.919  -1.487  1.00  0.00    -0.376 OA
BRANCH   2   3
ATOM      3  C   UNL     1       7.155  -0.870  -2.321  1.00  0.00     0.202 C 
BRANCH   3   4
ATOM      4  C   UNL     1       6.228  -0.024  -3.225  1.00  0.00     0.261 C 
BRANCH   4   5
ATOM      5  O   UNL     1       4.911   0.312  -2.734  1.00  0.00    -0.460 OA
BRANCH   5   6
ATOM      6  C   UNL     1       3.876  -0.265  -3.401  1.00  0.00     0.338 C 
ATOM      7  O   UNL     1       3.981  -1.004  -4.367  1.00  0.00    -0.246 OA
BRANCH   6   8
ATOM      8  C   UNL     1       2.559  -0.044  -2.731  1.00  0.00     0.062 A 
ATOM      9  C   UNL     1       0.950   1.207  -1.387  1.00  0.00     0.050 A 
ATOM     10  C   UNL     1       0.012   0.190  -1.536  1.00  0.00     0.027 A 
ATOM     11  C   UNL     1       2.207   1.121  -2.036  1.00  0.00     0.042 A 
ATOM     12  C   UNL     1       0.368  -0.974  -2.218  1.00  0.00     0.003 A 
ATOM     13  C   UNL     1       1.637  -1.098  -2.792  1.00  0.00     0.016 A 
BRANCH   9  14
ATOM     14  N   UNL     1       0.674   2.352  -0.591  1.00  0.00    -0.280 N 
ATOM     15  H   UNL     1       0.765   3.224  -1.040  1.00  0.00     0.180 HD
BRANCH  14  16
ATOM     16  S   UNL     1       0.207   2.397   1.034  1.00  0.00     0.262 S 
ATOM     17  O   UNL     1      -1.108   3.013   1.014  1.00  0.00    -0.201 OA
ATOM     18  O   UNL     1       1.301   3.089   1.687  1.00  0.00    -0.201 OA
BRANCH  16  19
ATOM     19  C   UNL     1      -0.000   0.876   1.961  1.00  0.00     0.092 A 
ATOM     20  C   UNL     1       1.952  -0.493   1.051  1.00  0.00     0.046 C 
ATOM     21  C   UNL     1       0.680  -0.334   1.800  1.00  0.00    -0.030 A 
ATOM     22  C   UNL     1       0.320  -1.450   2.592  1.00  0.00     0.006 A 
ATOM     23  C   UNL     1      -0.569  -1.329   3.653  1.00  0.00     0.020 A 
ATOM     24  C   UNL     1      -0.873   0.991   3.072  1.00  0.00     0.042 A 
ATOM     25  C   UNL     1      -1.120  -0.086   3.937  1.00  0.00     0.053 A 
BRANCH  25  26
ATOM     26  C   UNL     1      -1.877   0.092   5.140  1.00  0.00     0.099 C 
ATOM     27  N   UNL     1      -2.462   0.234   6.136  1.00  0.00    -0.192 NA
ENDBRANCH  25  26
ENDBRANCH  16  19
ENDBRANCH  14  16
ENDBRANCH   9  14
ENDBRANCH   6   8
ENDBRANCH   5   6
ENDBRANCH   4   5
ENDBRANCH   3   4
ENDBRANCH   2   3
ENDBRANCH   1   2
BRANCH   1  28
ATOM     28  C   UNL     1       5.085  -0.615  -0.024  1.00  0.00     0.188 C 
BRANCH  28  29
ATOM     29  O   UNL     1       5.969   0.477  -0.057  1.00  0.00    -0.376 OA
BRANCH  29  30
ATOM     30  C   UNL     1       7.093   0.520   0.803  1.00  0.00     0.202 C 
BRANCH  30  31
ATOM     31  C   UNL     1       7.560  -0.594   1.764  1.00  0.00     0.261 C 
BRANCH  31  32
ATOM     32  O   UNL     1       6.906  -1.864   1.732  1.00  0.00    -0.460 OA
BRANCH  32  33
ATOM     33  C   UNL     1       5.984  -2.086   2.704  1.00  0.00     0.338 C 
ATOM     34  O   UNL     1       5.583  -1.288   3.532  1.00  0.00    -0.246 OA
BRANCH  33  35
ATOM     35  C   UNL     1       5.372  -3.406   2.456  1.00  0.00     0.060 A 
ATOM     36  C   UNL     1       6.122  -4.572   2.582  1.00  0.00     0.016 A 
ATOM     37  C   UNL     1       4.028  -3.470   2.071  1.00  0.00     0.016 A 
ATOM     38  C   UNL     1       5.516  -5.803   2.313  1.00  0.00     0.010 A 
ATOM     39  C   UNL     1       3.429  -4.696   1.782  1.00  0.00     0.010 A 
ATOM     40  C   UNL     1       4.166  -5.877   1.915  1.00  0.00    -0.014 A 
BRANCH  40  41
ATOM     41  C   UNL     1       3.499  -7.197   1.788  1.00  0.00     0.031 A 
ATOM     42  C   UNL     1       3.145  -7.785   0.454  1.00  0.00     0.074 A 
ATOM     43  C   UNL     1       3.215  -7.871   2.920  1.00  0.00     0.049 A 
ATOM     44  N   UNL     1       2.660  -8.971   0.190  1.00  0.00    -0.248 NA
ATOM     45  C   UNL     1       3.352  -6.943  -0.734  1.00  0.00     0.031 C 
ATOM     46  C   UNL     1       3.485  -7.376   4.271  1.00  0.00     0.029 A 
ATOM     47  N   UNL     1       2.665  -9.112   3.122  1.00  0.00    -0.354 N 
ATOM     48  C   UNL     1       2.526  -9.034  -1.191  1.00  0.00     0.074 A 
ATOM     49  C   UNL     1       2.926  -7.741  -1.708  1.00  0.00     0.031 C 
ATOM     50  C   UNL     1       3.155  -8.325   5.157  1.00  0.00     0.029 A 
ATOM     51  C   UNL     1       2.604  -9.477   4.447  1.00  0.00     0.049 A 
ATOM     52  H   UNL     1       2.345  -9.686   2.389  1.00  0.00     0.167 HD
ATOM     53  C   UNL     1       2.132 -10.084  -1.952  1.00  0.00     0.031 A 
ATOM     54  C   UNL     1       2.170 -10.612   5.033  1.00  0.00     0.031 A 
ATOM     55  C   UNL     1       1.732 -11.364  -1.415  1.00  0.00     0.049 A 
ATOM     56  C   UNL     1       1.698 -11.747   4.166  1.00  0.00     0.074 A 
ATOM     57  C   UNL     1       1.363 -12.503  -2.113  1.00  0.00     0.029 A 
ATOM     58  N   UNL     1       1.640 -11.681  -0.067  1.00  0.00    -0.354 N 
ATOM     59  N   UNL     1       1.671 -11.823   2.857  1.00  0.00    -0.248 NA
ATOM     60  C   UNL     1       1.217 -12.956   4.849  1.00  0.00     0.031 C 
ATOM     61  C   UNL     1       0.957 -13.469  -1.193  1.00  0.00     0.029 A 
ATOM     62  C   UNL     1       1.174 -12.979   0.085  1.00  0.00     0.049 A 
ATOM     63  H   UNL     1       1.871 -11.074   0.673  1.00  0.00     0.167 HD
ATOM     64  C   UNL     1       1.193 -13.095   2.559  1.00  0.00     0.074 A 
ATOM     65  C   UNL     1       0.970 -13.763   3.825  1.00  0.00     0.031 C 
ATOM     66  C   UNL     1       0.956 -13.650   1.345  1.00  0.00     0.031 A 
BRANCH  53  67
ATOM     67  C   UNL     1       2.129  -9.935  -3.456  1.00  0.00    -0.014 A 
ATOM     68  C   UNL     1       0.927 -10.086  -4.176  1.00  0.00     0.010 A 
ATOM     69  C   UNL     1       3.336  -9.822  -4.170  1.00  0.00     0.010 A 
ATOM     70  C   UNL     1       0.937 -10.182  -5.571  1.00  0.00     0.020 A 
ATOM     71  C   UNL     1       3.347  -9.879  -5.568  1.00  0.00     0.020 A 
ATOM     72  C   UNL     1       2.150 -10.090  -6.257  1.00  0.00     0.054 A 
BRANCH  72  73
ATOM     73  S   UNL     1       2.149 -10.285  -8.062  1.00  0.00     0.124 S 
ATOM     74  O   UNL     1       1.829 -11.700  -8.220  1.00  0.00    -0.237 OA
ATOM     75  O   UNL     1       1.108  -9.349  -8.479  1.00  0.00    -0.237 OA
ATOM     76  O   UNL     1       3.507  -9.905  -8.449  1.00  0.00    -0.744 OA
ENDBRANCH  72  73
ENDBRANCH  53  67
BRANCH  54  77
ATOM     77  C   UNL     1       2.225 -10.730   6.519  1.00  0.00    -0.014 A 
ATOM     78  C   UNL     1       1.468  -9.863   7.330  1.00  0.00     0.010 A 
ATOM     79  C   UNL     1       3.101 -11.642   7.133  1.00  0.00     0.010 A 
ATOM     80  C   UNL     1       1.639  -9.854   8.716  1.00  0.00     0.020 A 
ATOM     81  C   UNL     1       3.243 -11.667   8.524  1.00  0.00     0.020 A 
ATOM     82  C   UNL     1       2.538 -10.748   9.303  1.00  0.00     0.054 A 
BRANCH  82  83
ATOM     83  S   UNL     1       2.798 -10.661  11.096  1.00  0.00     0.124 S 
ATOM     84  O   UNL     1       3.520  -9.398  11.231  1.00  0.00    -0.237 OA
ATOM     85  O   UNL     1       1.432 -10.664  11.613  1.00  0.00    -0.237 OA
ATOM     86  O   UNL     1       3.577 -11.860  11.389  1.00  0.00    -0.744 OA
ENDBRANCH  82  83
ENDBRANCH  54  77
BRANCH  66  87
ATOM     87  C   UNL     1       0.418 -15.062   1.290  1.00  0.00    -0.014 A 
ATOM     88  C   UNL     1       1.167 -16.073   0.655  1.00  0.00     0.010 A 
ATOM     89  C   UNL     1      -0.886 -15.358   1.725  1.00  0.00     0.010 A 
ATOM     90  C   UNL     1       0.604 -17.327   0.403  1.00  0.00     0.020 A 
ATOM     91  C   UNL     1      -1.439 -16.626   1.513  1.00  0.00     0.020 A 
ATOM     92  C   UNL     1      -0.702 -17.591   0.823  1.00  0.00     0.054 A 
BRANCH  92  93
ATOM     93  S   UNL     1      -1.439 -19.199   0.421  1.00  0.00     0.124 S 
ATOM     94  O   UNL     1      -1.625 -19.100  -1.024  1.00  0.00    -0.237 OA
ATOM     95  O   UNL     1      -0.412 -20.139   0.861  1.00  0.00    -0.237 OA
ATOM     96  O   UNL     1      -2.671 -19.219   1.207  1.00  0.00    -0.744 OA
ENDBRANCH  92  93
ENDBRANCH  66  87
ENDBRANCH  40  41
ENDBRANCH  33  35
ENDBRANCH  32  33
ENDBRANCH  31  32
ENDBRANCH  30  31
ENDBRANCH  29  30
ENDBRANCH  28  29
ENDBRANCH   1  28
TORSDOF 24
