REMARK SMILES COc1ccc(NC(=O)N[C@@H]2C=C[C@H](C(=O)OCCOCCOCCOC(=O)c3ccc(-c4c5nc(c(-c6ccc(S(=O)(=O)[O-])cc6)c6ccc([nH]6)c(-c6ccc(S(=O)(=O)[O-])cc6)c6nc(c(-c7ccc(S(=O)(=O)[O-])cc7)c7ccc4[nH]7)C=C6)C=C5)cc3)C2)c(C)c1
REMARK SMILES IDX 21 1 20 2 19 3 18 4 17 5 15 6 16 7 14 8 11 9 12 10 89 11
REMARK SMILES IDX 13 12 10 13 7 14 8 15 9 17 6 19 3 20 4 21 92 22 5 23 90 24
REMARK SMILES IDX 91 25 2 26 1 27 22 28 23 29 24 30 25 31 26 32 27 33 28 34
REMARK SMILES IDX 29 35 30 36 88 37 31 38 87 39 32 40 33 41 34 42 81 43 35 44
REMARK SMILES IDX 86 45 80 46 82 47 36 48 85 49 79 50 78 51 37 53 67 54 48 55
REMARK SMILES IDX 66 56 49 57 52 58 65 59 83 60 50 61 51 62 64 64 84 65 53 66
REMARK SMILES IDX 38 67 39 68 47 69 40 70 46 71 41 72 42 73 43 74 44 75 45 76
REMARK SMILES IDX 68 77 69 78 77 79 70 80 76 81 71 82 72 83 73 84 74 85 75 86
REMARK SMILES IDX 54 87 55 88 63 89 56 90 62 91 57 92 58 93 59 94 60 95 61 96
REMARK H PARENT 7 16 10 18 82 52 52 63
REMARK Flexibility Score: inf
ROOT
ATOM      1  C   UNL     1       1.891   0.414  -2.568  1.00  0.00     0.188 C 
ENDROOT
BRANCH   1   2
ATOM      2  O   UNL     1       2.920   1.343  -2.185  1.00  0.00    -0.376 OA
BRANCH   2   3
ATOM      3  C   UNL     1       4.222   1.004  -1.686  1.00  0.00     0.202 C 
BRANCH   3   4
ATOM      4  C   UNL     1       4.935   1.155  -0.135  1.00  0.00     0.261 C 
BRANCH   4   5
ATOM      5  O   UNL     1       4.343   0.831   1.546  1.00  0.00    -0.463 OA
BRANCH   5   6
ATOM      6  C   UNL     1       3.462   1.345   2.578  1.00  0.00     0.312 C 
ATOM      7  O   UNL     1       3.034   2.499   2.748  1.00  0.00    -0.252 OA
BRANCH   6   8
ATOM      8  C   UNL     1       2.844   0.494   3.644  1.00  0.00     0.124 C 
ATOM      9  C   UNL     1       4.322  -0.269   5.402  1.00  0.00     0.107 C 
ATOM     10  C   UNL     1       3.641  -1.398   4.692  1.00  0.00    -0.006 C 
ATOM     11  C   UNL     1       3.555   0.941   4.908  1.00  0.00     0.048 C 
ATOM     12  C   UNL     1       2.816  -0.965   3.739  1.00  0.00    -0.014 C 
BRANCH   9  13
ATOM     13  N   UNL     1       5.693  -0.177   4.970  1.00  0.00    -0.332 N 
ATOM     14  N   UNL     1       6.806   1.033   6.715  1.00  0.00    -0.308 N 
ATOM     15  C   UNL     1       6.774   0.419   5.504  1.00  0.00     0.319 C 
ATOM     16  H   UNL     1       7.712   1.278   7.012  1.00  0.00     0.171 HD
ATOM     17  O   UNL     1       7.836   0.289   4.886  1.00  0.00    -0.248 OA
ATOM     18  H   UNL     1       5.873  -0.640   4.120  1.00  0.00     0.165 HD
BRANCH  14  19
ATOM     19  C   UNL     1       5.796   1.387   7.625  1.00  0.00     0.046 A 
ATOM     20  C   UNL     1       3.453   1.348   9.113  1.00  0.00     0.119 A 
ATOM     21  C   UNL     1       3.532   2.149   7.986  1.00  0.00     0.048 A 
ATOM     22  C   UNL     1       4.633   0.861   9.666  1.00  0.00     0.052 A 
ATOM     23  C   UNL     1       4.718   2.176   7.251  1.00  0.00     0.030 A 
ATOM     24  C   UNL     1       5.843   0.949   8.950  1.00  0.00    -0.024 A 
ATOM     25  C   UNL     1       7.141   0.742   9.672  1.00  0.00     0.047 C 
BRANCH  20  26
ATOM     26  O   UNL     1       2.270   1.113   9.757  1.00  0.00    -0.497 OA
ATOM     27  C   UNL     1       1.318   0.468   8.898  1.00  0.00     0.278 C 
ENDBRANCH  20  26
ENDBRANCH  14  19
ENDBRANCH   9  13
ENDBRANCH   6   8
ENDBRANCH   5   6
ENDBRANCH   4   5
ENDBRANCH   3   4
ENDBRANCH   2   3
ENDBRANCH   1   2
BRANCH   1  28
ATOM     28  C   UNL     1       2.198  -1.052  -2.856  1.00  0.00     0.188 C 
BRANCH  28  29
ATOM     29  O   UNL     1       3.232  -1.486  -2.005  1.00  0.00    -0.376 OA
BRANCH  29  30
ATOM     30  C   UNL     1       3.744  -2.782  -2.178  1.00  0.00     0.202 C 
BRANCH  30  31
ATOM     31  C   UNL     1       2.744  -3.895  -1.837  1.00  0.00     0.261 C 
BRANCH  31  32
ATOM     32  O   UNL     1       2.462  -4.066  -0.420  1.00  0.00    -0.460 OA
BRANCH  32  33
ATOM     33  C   UNL     1       1.270  -3.589   0.122  1.00  0.00     0.338 C 
ATOM     34  O   UNL     1       0.383  -4.326   0.464  1.00  0.00    -0.246 OA
BRANCH  33  35
ATOM     35  C   UNL     1       1.382  -2.134   0.481  1.00  0.00     0.060 A 
ATOM     36  C   UNL     1       0.435  -1.101   0.567  1.00  0.00     0.016 A 
ATOM     37  C   UNL     1       2.643  -1.740   0.671  1.00  0.00     0.016 A 
ATOM     38  C   UNL     1       0.788   0.347   0.610  1.00  0.00     0.010 A 
ATOM     39  C   UNL     1       2.902  -0.401   0.434  1.00  0.00     0.010 A 
ATOM     40  C   UNL     1       2.102   0.807   0.461  1.00  0.00    -0.014 A 
BRANCH  40  41
ATOM     41  C   UNL     1       2.689   2.486   0.288  1.00  0.00     0.031 A 
ATOM     42  C   UNL     1       4.075   3.424   1.017  1.00  0.00     0.074 A 
ATOM     43  C   UNL     1       1.969   3.304  -0.509  1.00  0.00     0.049 A 
ATOM     44  N   UNL     1       4.058   4.712   1.328  1.00  0.00    -0.248 NA
ATOM     45  C   UNL     1       5.394   2.914   1.658  1.00  0.00     0.031 C 
ATOM     46  C   UNL     1       2.381   4.599  -1.047  1.00  0.00     0.029 A 
ATOM     47  N   UNL     1       0.674   3.133  -0.988  1.00  0.00    -0.354 N 
ATOM     48  C   UNL     1       5.258   5.043   2.018  1.00  0.00     0.074 A 
ATOM     49  C   UNL     1       5.887   3.861   2.412  1.00  0.00     0.031 C 
ATOM     50  C   UNL     1       1.308   5.213  -1.570  1.00  0.00     0.029 A 
ATOM     51  C   UNL     1       0.152   4.411  -1.217  1.00  0.00     0.049 A 
ATOM     52  H   UNL     1       0.212   2.276  -1.138  1.00  0.00     0.167 HD
ATOM     53  C   UNL     1       5.850   6.266   2.053  1.00  0.00     0.031 A 
ATOM     54  C   UNL     1      -0.929   4.853  -0.515  1.00  0.00     0.031 A 
ATOM     55  C   UNL     1       4.968   7.200   1.428  1.00  0.00     0.049 A 
ATOM     56  C   UNL     1      -0.637   6.120   0.257  1.00  0.00     0.074 A 
ATOM     57  C   UNL     1       4.811   7.581   0.110  1.00  0.00     0.029 A 
ATOM     58  N   UNL     1       3.787   7.466   2.086  1.00  0.00    -0.354 N 
ATOM     59  N   UNL     1       0.560   6.528   0.585  1.00  0.00    -0.248 NA
ATOM     60  C   UNL     1      -1.675   7.053   0.682  1.00  0.00     0.031 C 
ATOM     61  C   UNL     1       3.469   8.022  -0.036  1.00  0.00     0.029 A 
ATOM     62  C   UNL     1       2.857   7.965   1.205  1.00  0.00     0.049 A 
ATOM     63  H   UNL     1       3.632   7.321   3.047  1.00  0.00     0.167 HD
ATOM     64  C   UNL     1       0.476   7.725   1.248  1.00  0.00     0.074 A 
ATOM     65  C   UNL     1      -0.944   8.017   1.270  1.00  0.00     0.031 C 
ATOM     66  C   UNL     1       1.571   8.382   1.730  1.00  0.00     0.031 A 
BRANCH  53  67
ATOM     67  C   UNL     1       7.351   6.455   2.313  1.00  0.00    -0.014 A 
ATOM     68  C   UNL     1       8.051   7.408   1.552  1.00  0.00     0.010 A 
ATOM     69  C   UNL     1       8.153   5.679   3.190  1.00  0.00     0.010 A 
ATOM     70  C   UNL     1       9.457   7.503   1.573  1.00  0.00     0.020 A 
ATOM     71  C   UNL     1       9.563   5.710   3.169  1.00  0.00     0.020 A 
ATOM     72  C   UNL     1      10.210   6.628   2.353  1.00  0.00     0.054 A 
BRANCH  72  73
ATOM     73  S   UNL     1      12.023   6.716   2.292  1.00  0.00     0.124 S 
ATOM     74  O   UNL     1      12.300   6.645   0.859  1.00  0.00    -0.237 OA
ATOM     75  O   UNL     1      12.293   8.006   2.920  1.00  0.00    -0.237 OA
ATOM     76  O   UNL     1      12.459   5.550   3.059  1.00  0.00    -0.744 OA
ENDBRANCH  72  73
ENDBRANCH  53  67
BRANCH  54  77
ATOM     77  C   UNL     1      -1.894   3.765  -0.157  1.00  0.00    -0.014 A 
ATOM     78  C   UNL     1      -2.503   3.071  -1.232  1.00  0.00     0.010 A 
ATOM     79  C   UNL     1      -1.912   3.163   1.113  1.00  0.00     0.010 A 
ATOM     80  C   UNL     1      -2.984   1.767  -1.077  1.00  0.00     0.020 A 
ATOM     81  C   UNL     1      -2.429   1.859   1.281  1.00  0.00     0.020 A 
ATOM     82  C   UNL     1      -2.918   1.155   0.172  1.00  0.00     0.054 A 
BRANCH  82  83
ATOM     83  S   UNL     1      -3.262  -0.633   0.243  1.00  0.00     0.124 S 
ATOM     84  O   UNL     1      -4.702  -0.691   0.022  1.00  0.00    -0.237 OA
ATOM     85  O   UNL     1      -2.444  -1.145  -0.859  1.00  0.00    -0.237 OA
ATOM     86  O   UNL     1      -2.811  -1.015   1.578  1.00  0.00    -0.744 OA
ENDBRANCH  82  83
ENDBRANCH  54  77
BRANCH  66  87
ATOM     87  C   UNL     1       1.581   9.511   2.743  1.00  0.00    -0.014 A 
ATOM     88  C   UNL     1       0.485   9.863   3.537  1.00  0.00     0.010 A 
ATOM     89  C   UNL     1       2.808  10.172   3.027  1.00  0.00     0.010 A 
ATOM     90  C   UNL     1       0.584  10.872   4.504  1.00  0.00     0.020 A 
ATOM     91  C   UNL     1       2.938  11.123   4.037  1.00  0.00     0.020 A 
ATOM     92  C   UNL     1       1.807  11.499   4.744  1.00  0.00     0.054 A 
BRANCH  92  93
ATOM     93  S   UNL     1       1.922  12.789   6.003  1.00  0.00     0.124 S 
ATOM     94  O   UNL     1       1.523  13.974   5.249  1.00  0.00    -0.237 OA
ATOM     95  O   UNL     1       0.970  12.342   7.017  1.00  0.00    -0.237 OA
ATOM     96  O   UNL     1       3.323  12.747   6.413  1.00  0.00    -0.744 OA
ENDBRANCH  92  93
ENDBRANCH  66  87
ENDBRANCH  40  41
ENDBRANCH  33  35
ENDBRANCH  32  33
ENDBRANCH  31  32
ENDBRANCH  30  31
ENDBRANCH  29  30
ENDBRANCH  28  29
ENDBRANCH   1  28
TORSDOF 23
