REMARK SMILES Cc1ccc(-c2c[nH]c(=O)cc2C(=O)OCCOCCOCCOC(=O)c2ccc(-c3c4nc(c(-c5ccc(S(=O)(=O)[O-])cc5)c5ccc([nH]5)c(-c5ccc(S(=O)(=O)[O-])cc5)c5nc(c(-c6ccc(S(=O)(=O)[O-])cc6)c6ccc3[nH]6)C=C5)C=C4)cc2)cc1Cl
REMARK SMILES IDX 20 1 19 2 18 3 17 4 16 5 15 6 13 7 14 8 12 9 6 10 7 11 8 12
REMARK SMILES IDX 11 13 9 14 10 16 5 17 1 18 2 19 3 20 88 21 4 22 87 23 89 24
REMARK SMILES IDX 21 25 22 26 23 27 24 28 25 29 26 30 27 31 28 32 86 33 29 34
REMARK SMILES IDX 85 35 30 36 31 37 32 38 79 39 33 40 84 41 78 42 80 43 34 44
REMARK SMILES IDX 83 45 77 46 76 47 35 49 65 50 46 51 64 52 47 53 50 54 63 55
REMARK SMILES IDX 81 56 48 57 49 58 62 60 82 61 51 62 36 63 37 64 45 65 38 66
REMARK SMILES IDX 44 67 39 68 40 69 41 70 42 71 43 72 66 73 67 74 75 75 68 76
REMARK SMILES IDX 74 77 69 78 70 79 71 80 72 81 73 82 52 83 53 84 61 85 54 86
REMARK SMILES IDX 60 87 55 88 56 89 57 90 58 91 59 92
REMARK H PARENT 8 15 80 48 50 59
REMARK Flexibility Score: inf
ROOT
ATOM      1  C   UNL     1      -5.527  -0.630  -1.447  1.00  0.00     0.188 C 
ENDROOT
BRANCH   1   2
ATOM      2  C   UNL     1      -4.606   0.222  -2.344  1.00  0.00     0.188 C 
BRANCH   2   3
ATOM      3  O   UNL     1      -5.079   0.335  -3.675  1.00  0.00    -0.376 OA
BRANCH   3   4
ATOM      4  C   UNL     1      -4.248  -0.244  -4.665  1.00  0.00     0.202 C 
BRANCH   4   5
ATOM      5  C   UNL     1      -4.171  -1.779  -4.668  1.00  0.00     0.261 C 
BRANCH   5   6
ATOM      6  O   UNL     1      -4.091  -2.404  -3.374  1.00  0.00    -0.460 OA
BRANCH   6   7
ATOM      7  C   UNL     1      -2.868  -2.703  -2.865  1.00  0.00     0.339 C 
ATOM      8  O   UNL     1      -1.802  -2.452  -3.399  1.00  0.00    -0.246 OA
BRANCH   7   9
ATOM      9  C   UNL     1      -3.026  -3.337  -1.517  1.00  0.00     0.074 A 
ATOM     10  C   UNL     1      -2.248  -2.888  -0.353  1.00  0.00     0.013 A 
ATOM     11  C   UNL     1      -2.426  -3.524   0.820  1.00  0.00     0.095 A 
ATOM     12  N   UNL     1      -3.334  -4.547   0.935  1.00  0.00    -0.328 N 
ATOM     13  C   UNL     1      -3.940  -4.317  -1.395  1.00  0.00     0.087 A 
ATOM     14  C   UNL     1      -4.138  -4.982  -0.087  1.00  0.00     0.248 A 
ATOM     15  H   UNL     1      -3.414  -4.997   1.807  1.00  0.00     0.169 HD
ATOM     16  O   UNL     1      -4.972  -5.868   0.051  1.00  0.00    -0.270 OA
BRANCH  10  17
ATOM     17  C   UNL     1      -1.406  -1.680  -0.355  1.00  0.00    -0.015 A 
ATOM     18  C   UNL     1       0.792   2.002  -0.897  1.00  0.00     0.046 C 
ATOM     19  C   UNL     1       0.056   0.707  -0.688  1.00  0.00    -0.032 A 
ATOM     20  C   UNL     1      -1.330   0.740  -0.493  1.00  0.00     0.005 A 
ATOM     21  C   UNL     1       0.705  -0.538  -0.664  1.00  0.00     0.044 A 
ATOM     22  C   UNL     1      -2.036  -0.438  -0.265  1.00  0.00     0.009 A 
ATOM     23  C   UNL     1      -0.022  -1.727  -0.518  1.00  0.00     0.029 A 
ATOM     24  Cl  UNL     1       2.418  -0.657  -0.819  1.00  0.00    -0.084 Cl
ENDBRANCH  10  17
ENDBRANCH   7   9
ENDBRANCH   6   7
ENDBRANCH   5   6
ENDBRANCH   4   5
ENDBRANCH   3   4
ENDBRANCH   2   3
ENDBRANCH   1   2
BRANCH   1  25
ATOM     25  O   UNL     1      -6.904  -0.790  -1.759  1.00  0.00    -0.376 OA
BRANCH  25  26
ATOM     26  C   UNL     1      -7.583   0.245  -2.446  1.00  0.00     0.202 C 
BRANCH  26  27
ATOM     27  C   UNL     1      -7.685   1.628  -1.783  1.00  0.00     0.261 C 
BRANCH  27  28
ATOM     28  O   UNL     1      -6.569   2.036  -0.973  1.00  0.00    -0.460 OA
BRANCH  28  29
ATOM     29  C   UNL     1      -6.693   1.778   0.352  1.00  0.00     0.338 C 
ATOM     30  O   UNL     1      -7.647   1.247   0.905  1.00  0.00    -0.246 OA
BRANCH  29  31
ATOM     31  C   UNL     1      -5.428   2.090   1.061  1.00  0.00     0.060 A 
ATOM     32  C   UNL     1      -4.900   1.125   1.931  1.00  0.00     0.016 A 
ATOM     33  C   UNL     1      -4.798   3.330   0.937  1.00  0.00     0.016 A 
ATOM     34  C   UNL     1      -3.771   1.407   2.707  1.00  0.00     0.010 A 
ATOM     35  C   UNL     1      -3.676   3.619   1.731  1.00  0.00     0.010 A 
ATOM     36  C   UNL     1      -3.174   2.672   2.647  1.00  0.00    -0.014 A 
BRANCH  36  37
ATOM     37  C   UNL     1      -2.164   3.076   3.667  1.00  0.00     0.031 A 
ATOM     38  C   UNL     1      -2.621   3.854   4.866  1.00  0.00     0.074 A 
ATOM     39  C   UNL     1      -0.863   2.744   3.575  1.00  0.00     0.049 A 
ATOM     40  N   UNL     1      -1.915   4.300   5.872  1.00  0.00    -0.248 NA
ATOM     41  C   UNL     1      -4.063   4.128   4.965  1.00  0.00     0.031 C 
ATOM     42  C   UNL     1      -0.302   1.866   2.564  1.00  0.00     0.029 A 
ATOM     43  N   UNL     1       0.228   3.109   4.327  1.00  0.00    -0.354 N 
ATOM     44  C   UNL     1      -2.829   4.865   6.747  1.00  0.00     0.074 A 
ATOM     45  C   UNL     1      -4.131   4.771   6.121  1.00  0.00     0.031 C 
ATOM     46  C   UNL     1       1.034   1.829   2.686  1.00  0.00     0.029 A 
ATOM     47  C   UNL     1       1.425   2.675   3.804  1.00  0.00     0.049 A 
ATOM     48  H   UNL     1       0.159   3.629   5.160  1.00  0.00     0.167 HD
ATOM     49  C   UNL     1      -2.608   5.386   7.977  1.00  0.00     0.031 A 
ATOM     50  C   UNL     1       2.697   2.925   4.172  1.00  0.00     0.031 A 
ATOM     51  C   UNL     1      -1.307   5.525   8.576  1.00  0.00     0.049 A 
ATOM     52  C   UNL     1       2.941   3.690   5.441  1.00  0.00     0.074 A 
ATOM     53  C   UNL     1      -0.984   6.045   9.817  1.00  0.00     0.029 A 
ATOM     54  N   UNL     1      -0.110   5.167   7.972  1.00  0.00    -0.354 N 
ATOM     55  N   UNL     1       2.062   4.188   6.277  1.00  0.00    -0.248 NA
ATOM     56  C   UNL     1       4.339   3.876   5.851  1.00  0.00     0.031 C 
ATOM     57  C   UNL     1       0.410   6.068   9.933  1.00  0.00     0.029 A 
ATOM     58  C   UNL     1       0.955   5.492   8.797  1.00  0.00     0.049 A 
ATOM     59  H   UNL     1      -0.029   4.743   7.087  1.00  0.00     0.167 HD
ATOM     60  C   UNL     1       2.796   4.685   7.346  1.00  0.00     0.074 A 
ATOM     61  C   UNL     1       4.192   4.442   7.042  1.00  0.00     0.031 C 
ATOM     62  C   UNL     1       2.346   5.260   8.488  1.00  0.00     0.031 A 
BRANCH  49  63
ATOM     63  C   UNL     1      -3.813   5.874   8.732  1.00  0.00    -0.014 A 
ATOM     64  C   UNL     1      -4.770   4.971   9.233  1.00  0.00     0.010 A 
ATOM     65  C   UNL     1      -3.992   7.251   8.944  1.00  0.00     0.010 A 
ATOM     66  C   UNL     1      -5.910   5.442   9.889  1.00  0.00     0.020 A 
ATOM     67  C   UNL     1      -5.115   7.724   9.626  1.00  0.00     0.020 A 
ATOM     68  C   UNL     1      -6.077   6.817  10.076  1.00  0.00     0.054 A 
BRANCH  68  69
ATOM     69  S   UNL     1      -7.566   7.402  10.929  1.00  0.00     0.124 S 
ATOM     70  O   UNL     1      -8.603   7.147   9.932  1.00  0.00    -0.237 OA
ATOM     71  O   UNL     1      -7.611   6.549  12.114  1.00  0.00    -0.237 OA
ATOM     72  O   UNL     1      -7.286   8.812  11.189  1.00  0.00    -0.744 OA
ENDBRANCH  68  69
ENDBRANCH  49  63
BRANCH  50  73
ATOM     73  C   UNL     1       3.831   2.433   3.339  1.00  0.00    -0.014 A 
ATOM     74  C   UNL     1       4.663   1.391   3.785  1.00  0.00     0.010 A 
ATOM     75  C   UNL     1       4.088   3.019   2.085  1.00  0.00     0.010 A 
ATOM     76  C   UNL     1       5.744   0.963   3.006  1.00  0.00     0.020 A 
ATOM     77  C   UNL     1       5.154   2.578   1.292  1.00  0.00     0.020 A 
ATOM     78  C   UNL     1       5.982   1.559   1.764  1.00  0.00     0.054 A 
BRANCH  78  79
ATOM     79  S   UNL     1       7.381   0.972   0.767  1.00  0.00     0.124 S 
ATOM     80  O   UNL     1       8.526   1.419   1.556  1.00  0.00    -0.237 OA
ATOM     81  O   UNL     1       7.161  -0.472   0.737  1.00  0.00    -0.237 OA
ATOM     82  O   UNL     1       7.202   1.653  -0.513  1.00  0.00    -0.744 OA
ENDBRANCH  78  79
ENDBRANCH  50  73
BRANCH  62  83
ATOM     83  C   UNL     1       3.372   5.622   9.530  1.00  0.00    -0.014 A 
ATOM     84  C   UNL     1       4.286   6.671   9.334  1.00  0.00     0.010 A 
ATOM     85  C   UNL     1       3.394   4.914  10.747  1.00  0.00     0.010 A 
ATOM     86  C   UNL     1       5.229   6.980  10.319  1.00  0.00     0.020 A 
ATOM     87  C   UNL     1       4.311   5.241  11.747  1.00  0.00     0.020 A 
ATOM     88  C   UNL     1       5.235   6.262  11.520  1.00  0.00     0.054 A 
BRANCH  88  89
ATOM     89  S   UNL     1       6.445   6.706  12.795  1.00  0.00     0.124 S 
ATOM     90  O   UNL     1       7.689   6.198  12.223  1.00  0.00    -0.237 OA
ATOM     91  O   UNL     1       6.328   8.161  12.855  1.00  0.00    -0.237 OA
ATOM     92  O   UNL     1       5.972   5.999  13.983  1.00  0.00    -0.744 OA
ENDBRANCH  88  89
ENDBRANCH  62  83
ENDBRANCH  36  37
ENDBRANCH  29  31
ENDBRANCH  28  29
ENDBRANCH  27  28
ENDBRANCH  26  27
ENDBRANCH  25  26
ENDBRANCH   1  25
TORSDOF 21
