REMARK SMILES CC[NH2+][C@]1(C(=O)OCCOCCOCCOC(=O)c2ccc(-c3c4nc(c(-c5ccc(S(=O)(=O)[O-])cc5)c5ccc([nH]5)c(-c5ccc(S(=O)(=O)[O-])cc5)c5nc(c(-c6ccc(S(=O)(=O)[O-])cc6)c6ccc3[nH]6)C=C5)C=C4)cc2)CCC[C@H]1CCOC1CCC1
REMARK SMILES IDX 11 1 10 2 9 3 8 4 7 5 5 6 6 7 4 8 79 9 82 10 80 11 81 12
REMARK SMILES IDX 3 13 2 16 1 17 83 18 84 19 85 20 86 21 87 22 89 23 88 24
REMARK SMILES IDX 12 25 13 26 14 27 15 28 16 29 17 30 18 31 19 32 20 33 78 34
REMARK SMILES IDX 21 35 77 36 22 37 23 38 24 39 71 40 25 41 76 42 70 43 72 44
REMARK SMILES IDX 26 45 75 46 69 47 68 48 27 50 57 51 38 52 56 53 39 54 42 55
REMARK SMILES IDX 55 56 73 57 40 58 41 59 54 61 74 62 43 63 28 64 29 65 37 66
REMARK SMILES IDX 30 67 36 68 31 69 32 70 33 71 34 72 35 73 58 74 59 75 67 76
REMARK SMILES IDX 60 77 66 78 61 79 62 80 63 81 64 82 65 83 44 84 45 85 53 86
REMARK SMILES IDX 46 87 52 88 47 89 48 90 49 91 50 92 51 93
REMARK H PARENT 3 14 3 15 72 49 42 60
REMARK Flexibility Score: inf
ROOT
ATOM      1  C   UNL     1       3.189   1.244   1.064  1.00  0.00     0.188 C 
ENDROOT
BRANCH   1   2
ATOM      2  O   UNL     1       3.962   0.739  -0.002  1.00  0.00    -0.376 OA
BRANCH   2   3
ATOM      3  C   UNL     1       3.309   0.472  -1.224  1.00  0.00     0.202 C 
BRANCH   3   4
ATOM      4  C   UNL     1       2.365   1.488  -1.903  1.00  0.00     0.261 C 
BRANCH   4   5
ATOM      5  O   UNL     1       1.912   2.633  -1.166  1.00  0.00    -0.459 OA
BRANCH   5   6
ATOM      6  C   UNL     1       0.706   2.522  -0.539  1.00  0.00     0.368 C 
ATOM      7  O   UNL     1       0.098   1.460  -0.464  1.00  0.00    -0.245 OA
BRANCH   6   8
ATOM      8  C   UNL     1       0.222   3.856   0.114  1.00  0.00     0.197 C 
ATOM      9  C   UNL     1       1.080   5.076  -0.310  1.00  0.00     0.081 C 
ATOM     10  C   UNL     1      -1.190   4.326  -0.345  1.00  0.00     0.065 C 
ATOM     11  C   UNL     1       0.253   6.295   0.060  1.00  0.00     0.008 C 
ATOM     12  C   UNL     1      -1.180   5.873  -0.217  1.00  0.00     0.011 C 
BRANCH   8  13
ATOM     13  N   UNL     1       0.263   3.811   1.624  1.00  0.00    -0.332 N 
ATOM     14  H   UNL     1       1.221   4.013   1.912  1.00  0.00     0.347 HD
ATOM     15  H   UNL     1      -0.430   4.494   1.929  1.00  0.00     0.347 HD
BRANCH  13  16
ATOM     16  C   UNL     1      -0.133   2.557   2.261  1.00  0.00     0.257 C 
ATOM     17  C   UNL     1      -0.466   2.773   3.728  1.00  0.00     0.071 C 
ENDBRANCH  13  16
ENDBRANCH   8  13
BRANCH  10  18
ATOM     18  C   UNL     1      -1.705   3.877  -1.729  1.00  0.00     0.039 C 
BRANCH  18  19
ATOM     19  C   UNL     1      -2.470   2.538  -1.774  1.00  0.00     0.161 C 
BRANCH  19  20
ATOM     20  O   UNL     1      -3.609   2.503  -0.905  1.00  0.00    -0.378 OA
BRANCH  20  21
ATOM     21  C   UNL     1      -3.391   2.059   0.459  1.00  0.00     0.118 C 
ATOM     22  C   UNL     1      -3.797   3.103   1.545  1.00  0.00     0.032 C 
ATOM     23  C   UNL     1      -4.425   1.116   1.109  1.00  0.00     0.032 C 
ATOM     24  C   UNL     1      -4.312   1.951   2.401  1.00  0.00     0.005 C 
ENDBRANCH  20  21
ENDBRANCH  19  20
ENDBRANCH  18  19
ENDBRANCH  10  18
ENDBRANCH   6   8
ENDBRANCH   5   6
ENDBRANCH   4   5
ENDBRANCH   3   4
ENDBRANCH   2   3
ENDBRANCH   1   2
BRANCH   1  25
ATOM     25  C   UNL     1       3.462   2.737   1.328  1.00  0.00     0.188 C 
BRANCH  25  26
ATOM     26  O   UNL     1       4.476   3.418   0.602  1.00  0.00    -0.376 OA
BRANCH  26  27
ATOM     27  C   UNL     1       5.740   2.788   0.483  1.00  0.00     0.202 C 
BRANCH  27  28
ATOM     28  C   UNL     1       6.454   2.305   1.759  1.00  0.00     0.261 C 
BRANCH  28  29
ATOM     29  O   UNL     1       5.639   1.608   2.726  1.00  0.00    -0.460 OA
BRANCH  29  30
ATOM     30  C   UNL     1       5.387   2.284   3.885  1.00  0.00     0.338 C 
ATOM     31  O   UNL     1       5.828   3.370   4.198  1.00  0.00    -0.246 OA
BRANCH  30  32
ATOM     32  C   UNL     1       4.311   1.605   4.662  1.00  0.00     0.060 A 
ATOM     33  C   UNL     1       3.170   2.347   4.995  1.00  0.00     0.016 A 
ATOM     34  C   UNL     1       4.421   0.284   5.098  1.00  0.00     0.016 A 
ATOM     35  C   UNL     1       2.141   1.770   5.750  1.00  0.00     0.010 A 
ATOM     36  C   UNL     1       3.392  -0.285   5.873  1.00  0.00     0.010 A 
ATOM     37  C   UNL     1       2.240   0.451   6.204  1.00  0.00    -0.014 A 
BRANCH  37  38
ATOM     38  C   UNL     1       1.188  -0.114   7.097  1.00  0.00     0.031 A 
ATOM     39  C   UNL     1       1.222   0.194   8.571  1.00  0.00     0.074 A 
ATOM     40  C   UNL     1       0.182  -0.872   6.614  1.00  0.00     0.049 A 
ATOM     41  N   UNL     1       0.474  -0.284   9.534  1.00  0.00    -0.248 NA
ATOM     42  C   UNL     1       2.220   1.178   9.014  1.00  0.00     0.031 C 
ATOM     43  C   UNL     1      -0.061  -1.156   5.202  1.00  0.00     0.029 A 
ATOM     44  N   UNL     1      -0.828  -1.542   7.268  1.00  0.00    -0.354 N 
ATOM     45  C   UNL     1       0.925   0.322  10.701  1.00  0.00     0.074 A 
ATOM     46  C   UNL     1       1.999   1.216  10.321  1.00  0.00     0.031 C 
ATOM     47  C   UNL     1      -1.142  -1.952   5.096  1.00  0.00     0.029 A 
ATOM     48  C   UNL     1      -1.633  -2.286   6.434  1.00  0.00     0.049 A 
ATOM     49  H   UNL     1      -0.963  -1.493   8.242  1.00  0.00     0.167 HD
ATOM     50  C   UNL     1       0.507   0.134  11.976  1.00  0.00     0.031 A 
ATOM     51  C   UNL     1      -2.617  -3.169   6.713  1.00  0.00     0.031 A 
ATOM     52  C   UNL     1      -0.529  -0.785  12.371  1.00  0.00     0.049 A 
ATOM     53  C   UNL     1      -2.970  -3.468   8.153  1.00  0.00     0.074 A 
ATOM     54  C   UNL     1      -0.987  -1.064  13.648  1.00  0.00     0.029 A 
ATOM     55  N   UNL     1      -1.255  -1.587  11.505  1.00  0.00    -0.354 N 
ATOM     56  N   UNL     1      -2.515  -2.910   9.250  1.00  0.00    -0.248 NA
ATOM     57  C   UNL     1      -3.955  -4.536   8.393  1.00  0.00     0.031 C 
ATOM     58  C   UNL     1      -1.936  -2.087  13.560  1.00  0.00     0.029 A 
ATOM     59  C   UNL     1      -2.125  -2.393  12.223  1.00  0.00     0.049 A 
ATOM     60  H   UNL     1      -1.166  -1.585  10.524  1.00  0.00     0.167 HD
ATOM     61  C   UNL     1      -3.166  -3.551  10.303  1.00  0.00     0.074 A 
ATOM     62  C   UNL     1      -4.067  -4.517   9.714  1.00  0.00     0.031 C 
ATOM     63  C   UNL     1      -3.020  -3.360  11.638  1.00  0.00     0.031 A 
BRANCH  50  64
ATOM     64  C   UNL     1       1.241   0.877  13.060  1.00  0.00    -0.014 A 
ATOM     65  C   UNL     1       1.073   2.259  13.251  1.00  0.00     0.010 A 
ATOM     66  C   UNL     1       2.092   0.162  13.924  1.00  0.00     0.010 A 
ATOM     67  C   UNL     1       1.772   2.919  14.266  1.00  0.00     0.020 A 
ATOM     68  C   UNL     1       2.770   0.813  14.956  1.00  0.00     0.020 A 
ATOM     69  C   UNL     1       2.618   2.192  15.110  1.00  0.00     0.054 A 
BRANCH  69  70
ATOM     70  S   UNL     1       3.500   3.072  16.427  1.00  0.00     0.124 S 
ATOM     71  O   UNL     1       4.479   3.848  15.668  1.00  0.00    -0.237 OA
ATOM     72  O   UNL     1       2.437   3.849  17.060  1.00  0.00    -0.237 OA
ATOM     73  O   UNL     1       4.059   2.001  17.249  1.00  0.00    -0.744 OA
ENDBRANCH  69  70
ENDBRANCH  50  64
BRANCH  51  74
ATOM     74  C   UNL     1      -3.296  -3.919   5.614  1.00  0.00    -0.014 A 
ATOM     75  C   UNL     1      -4.674  -3.767   5.374  1.00  0.00     0.010 A 
ATOM     76  C   UNL     1      -2.571  -4.836   4.830  1.00  0.00     0.010 A 
ATOM     77  C   UNL     1      -5.314  -4.528   4.388  1.00  0.00     0.020 A 
ATOM     78  C   UNL     1      -3.197  -5.572   3.820  1.00  0.00     0.020 A 
ATOM     79  C   UNL     1      -4.569  -5.423   3.614  1.00  0.00     0.054 A 
BRANCH  79  80
ATOM     80  S   UNL     1      -5.407  -6.368   2.311  1.00  0.00     0.124 S 
ATOM     81  O   UNL     1      -6.188  -7.328   3.085  1.00  0.00    -0.237 OA
ATOM     82  O   UNL     1      -6.176  -5.336   1.620  1.00  0.00    -0.237 OA
ATOM     83  O   UNL     1      -4.305  -6.936   1.538  1.00  0.00    -0.744 OA
ENDBRANCH  79  80
ENDBRANCH  51  74
BRANCH  63  84
ATOM     84  C   UNL     1      -3.859  -4.199  12.572  1.00  0.00    -0.014 A 
ATOM     85  C   UNL     1      -3.607  -5.572  12.746  1.00  0.00     0.010 A 
ATOM     86  C   UNL     1      -4.865  -3.590  13.346  1.00  0.00     0.010 A 
ATOM     87  C   UNL     1      -4.356  -6.322  13.659  1.00  0.00     0.020 A 
ATOM     88  C   UNL     1      -5.597  -4.330  14.281  1.00  0.00     0.020 A 
ATOM     89  C   UNL     1      -5.344  -5.695  14.425  1.00  0.00     0.054 A 
BRANCH  89  90
ATOM     90  S   UNL     1      -6.260  -6.680  15.644  1.00  0.00     0.124 S 
ATOM     91  O   UNL     1      -7.093  -7.523  14.792  1.00  0.00    -0.237 OA
ATOM     92  O   UNL     1      -5.192  -7.372  16.363  1.00  0.00    -0.237 OA
ATOM     93  O   UNL     1      -6.982  -5.679  16.427  1.00  0.00    -0.744 OA
ENDBRANCH  89  90
ENDBRANCH  63  84
ENDBRANCH  37  38
ENDBRANCH  30  32
ENDBRANCH  29  30
ENDBRANCH  28  29
ENDBRANCH  27  28
ENDBRANCH  26  27
ENDBRANCH  25  26
ENDBRANCH   1  25
TORSDOF 26
