REMARK SMILES O=C(OCCOCCOCCOC(=O)c1ccc(-c2c3nc(c(-c4ccc(S(=O)(=O)[O-])cc4)c4ccc([nH]4)c(-c4ccc(S(=O)(=O)[O-])cc4)c4nc(c(-c5ccc(S(=O)(=O)[O-])cc5)c5ccc2[nH]5)C=C4)C=C3)cc1)C1=Cc2cc(Cl)cc(-c3ccc(O)cc3)c2O[C@@H]1C(F)(F)F
REMARK SMILES IDX 8 1 7 2 6 3 5 4 4 5 3 6 2 7 1 8 75 9 76 10 92 11 77 12 91 13
REMARK SMILES IDX 78 14 90 15 79 16 82 17 80 18 81 19 93 20 94 21 95 22 96 23
REMARK SMILES IDX 83 24 84 25 89 26 85 27 88 28 86 29 87 30 9 32 10 33 11 34
REMARK SMILES IDX 12 35 13 36 14 37 15 38 16 39 74 40 17 41 73 42 18 43 19 44
REMARK SMILES IDX 20 45 67 46 21 47 72 48 66 49 68 50 22 51 71 52 65 53 64 54
REMARK SMILES IDX 23 56 53 57 34 58 52 59 35 60 38 61 51 62 69 63 36 64 37 65
REMARK SMILES IDX 50 67 70 68 39 69 24 70 25 71 33 72 26 73 32 74 27 75 28 76
REMARK SMILES IDX 29 77 30 78 31 79 54 80 55 81 63 82 56 83 62 84 57 85 58 86
REMARK SMILES IDX 59 87 60 88 61 89 40 90 41 91 49 92 42 93 48 94 43 95 44 96
REMARK SMILES IDX 45 97 46 98 47 99
REMARK H PARENT 87 31 68 55 38 66
REMARK Flexibility Score: inf
ROOT
ATOM      1  C   UNL     1       1.685   1.863   2.941  1.00  0.00     0.188 C 
ENDROOT
BRANCH   1   2
ATOM      2  C   UNL     1       2.208   0.643   2.169  1.00  0.00     0.188 C 
BRANCH   2   3
ATOM      3  O   UNL     1       3.666   0.225   2.107  1.00  0.00    -0.376 OA
BRANCH   3   4
ATOM      4  C   UNL     1       4.549  -0.356   0.689  1.00  0.00     0.202 C 
BRANCH   4   5
ATOM      5  C   UNL     1       3.881   0.051  -1.342  1.00  0.00     0.261 C 
BRANCH   5   6
ATOM      6  O   UNL     1       2.935  -0.813  -2.171  1.00  0.00    -0.460 OA
BRANCH   6   7
ATOM      7  C   UNL     1       3.126  -2.122  -1.950  1.00  0.00     0.338 C 
ATOM      8  O   UNL     1       2.459  -3.049  -2.333  1.00  0.00    -0.246 OA
BRANCH   7   9
ATOM      9  C   UNL     1       3.993  -1.971  -0.794  1.00  0.00     0.087 C 
ATOM     10  C   UNL     1       5.375  -1.644  -1.069  1.00  0.00     0.027 C 
ATOM     11  C   UNL     1       2.767  -0.834   0.132  1.00  0.00     0.316 C 
ATOM     12  C   UNL     1       6.072  -0.010  -0.894  1.00  0.00     0.019 A 
ATOM     13  O   UNL     1       3.447   1.016   0.194  1.00  0.00    -0.475 OA
ATOM     14  C   UNL     1       7.331   0.171  -1.407  1.00  0.00     0.032 A 
ATOM     15  C   UNL     1       5.168   1.362  -0.339  1.00  0.00     0.135 A 
ATOM     16  C   UNL     1       7.799   1.484  -1.389  1.00  0.00     0.042 A 
ATOM     17  C   UNL     1       5.748   2.625  -0.303  1.00  0.00     0.026 A 
ATOM     18  Cl  UNL     1       9.364   1.785  -2.069  1.00  0.00    -0.084 Cl
ATOM     19  C   UNL     1       7.071   2.611  -0.859  1.00  0.00     0.033 A 
BRANCH  11  20
ATOM     20  C   UNL     1       2.552  -2.054   1.345  1.00  0.00     0.430 C 
ATOM     21  F   UNL     1       2.586  -1.776   2.652  1.00  0.00    -0.167 F 
ATOM     22  F   UNL     1       1.363  -2.670   1.109  1.00  0.00    -0.167 F 
ATOM     23  F   UNL     1       3.486  -3.052   1.225  1.00  0.00    -0.167 F 
ENDBRANCH  11  20
BRANCH  17  24
ATOM     24  C   UNL     1       5.329   3.917   0.238  1.00  0.00    -0.014 A 
ATOM     25  C   UNL     1       4.626   4.848  -0.534  1.00  0.00     0.012 A 
ATOM     26  C   UNL     1       5.870   4.369   1.462  1.00  0.00     0.012 A 
ATOM     27  C   UNL     1       4.362   6.135  -0.044  1.00  0.00     0.047 A 
ATOM     28  C   UNL     1       5.571   5.638   1.978  1.00  0.00     0.047 A 
ATOM     29  C   UNL     1       4.785   6.498   1.229  1.00  0.00     0.115 A 
BRANCH  29  30
ATOM     30  O   UNL     1       4.400   7.708   1.720  1.00  0.00    -0.508 OA
ATOM     31  H   UNL     1       3.868   8.278   1.200  1.00  0.00     0.293 HD
ENDBRANCH  29  30
ENDBRANCH  17  24
ENDBRANCH   7   9
ENDBRANCH   6   7
ENDBRANCH   5   6
ENDBRANCH   4   5
ENDBRANCH   3   4
ENDBRANCH   2   3
ENDBRANCH   1   2
BRANCH   1  32
ATOM     32  O   UNL     1       2.374   3.075   2.889  1.00  0.00    -0.376 OA
BRANCH  32  33
ATOM     33  C   UNL     1       3.756   2.986   3.142  1.00  0.00     0.202 C 
BRANCH  33  34
ATOM     34  C   UNL     1       4.288   2.501   4.489  1.00  0.00     0.261 C 
BRANCH  34  35
ATOM     35  O   UNL     1       3.933   1.157   4.813  1.00  0.00    -0.460 OA
BRANCH  35  36
ATOM     36  C   UNL     1       2.919   1.031   5.698  1.00  0.00     0.338 C 
ATOM     37  O   UNL     1       2.317   1.920   6.273  1.00  0.00    -0.246 OA
BRANCH  36  38
ATOM     38  C   UNL     1       2.503  -0.378   5.709  1.00  0.00     0.060 A 
ATOM     39  C   UNL     1       1.192  -0.703   5.330  1.00  0.00     0.016 A 
ATOM     40  C   UNL     1       3.391  -1.356   6.156  1.00  0.00     0.016 A 
ATOM     41  C   UNL     1       0.752  -2.014   5.420  1.00  0.00     0.010 A 
ATOM     42  C   UNL     1       2.933  -2.661   6.304  1.00  0.00     0.010 A 
ATOM     43  C   UNL     1       1.598  -2.972   5.987  1.00  0.00    -0.014 A 
BRANCH  43  44
ATOM     44  C   UNL     1       0.967  -4.164   6.579  1.00  0.00     0.031 A 
ATOM     45  C   UNL     1       0.512  -4.049   8.009  1.00  0.00     0.074 A 
ATOM     46  C   UNL     1       0.746  -5.272   5.857  1.00  0.00     0.049 A 
ATOM     47  N   UNL     1      -0.107  -4.923   8.755  1.00  0.00    -0.248 NA
ATOM     48  C   UNL     1       0.792  -2.769   8.686  1.00  0.00     0.031 C 
ATOM     49  C   UNL     1       1.086  -5.447   4.446  1.00  0.00     0.029 A 
ATOM     50  N   UNL     1       0.168  -6.458   6.221  1.00  0.00    -0.354 N 
ATOM     51  C   UNL     1      -0.277  -4.303   9.988  1.00  0.00     0.074 A 
ATOM     52  C   UNL     1       0.330  -2.996   9.903  1.00  0.00     0.031 C 
ATOM     53  C   UNL     1       0.706  -6.678   4.061  1.00  0.00     0.029 A 
ATOM     54  C   UNL     1       0.127  -7.381   5.205  1.00  0.00     0.049 A 
ATOM     55  H   UNL     1      -0.184  -6.632   7.123  1.00  0.00     0.167 HD
ATOM     56  C   UNL     1      -0.886  -4.784  11.095  1.00  0.00     0.031 A 
ATOM     57  C   UNL     1      -0.324  -8.650   5.216  1.00  0.00     0.031 A 
ATOM     58  C   UNL     1      -1.452  -6.103  11.171  1.00  0.00     0.049 A 
ATOM     59  C   UNL     1      -0.919  -9.196   6.489  1.00  0.00     0.074 A 
ATOM     60  C   UNL     1      -2.099  -6.701  12.235  1.00  0.00     0.029 A 
ATOM     61  N   UNL     1      -1.417  -7.034  10.142  1.00  0.00    -0.354 N 
ATOM     62  N   UNL     1      -1.097  -8.597   7.645  1.00  0.00    -0.248 NA
ATOM     63  C   UNL     1      -1.393 -10.585   6.452  1.00  0.00     0.031 C 
ATOM     64  C   UNL     1      -2.380  -8.024  11.879  1.00  0.00     0.029 A 
ATOM     65  C   UNL     1      -2.000  -8.217  10.559  1.00  0.00     0.049 A 
ATOM     66  H   UNL     1      -1.035  -6.876   9.249  1.00  0.00     0.167 HD
ATOM     67  C   UNL     1      -1.750  -9.522   8.456  1.00  0.00     0.074 A 
ATOM     68  C   UNL     1      -1.937 -10.714   7.654  1.00  0.00     0.031 C 
ATOM     69  C   UNL     1      -2.171  -9.394   9.741  1.00  0.00     0.031 A 
BRANCH  56  70
ATOM     70  C   UNL     1      -0.896  -3.906  12.319  1.00  0.00    -0.014 A 
ATOM     71  C   UNL     1      -1.614  -2.696  12.361  1.00  0.00     0.010 A 
ATOM     72  C   UNL     1      -0.162  -4.302  13.452  1.00  0.00     0.010 A 
ATOM     73  C   UNL     1      -1.558  -1.878  13.494  1.00  0.00     0.020 A 
ATOM     74  C   UNL     1      -0.135  -3.507  14.600  1.00  0.00     0.020 A 
ATOM     75  C   UNL     1      -0.818  -2.291  14.606  1.00  0.00     0.054 A 
BRANCH  75  76
ATOM     76  S   UNL     1      -0.778  -1.220  16.069  1.00  0.00     0.124 S 
ATOM     77  O   UNL     1       0.009  -0.086  15.593  1.00  0.00    -0.237 OA
ATOM     78  O   UNL     1      -2.193  -0.949  16.304  1.00  0.00    -0.237 OA
ATOM     79  O   UNL     1      -0.127  -2.044  17.085  1.00  0.00    -0.744 OA
ENDBRANCH  75  76
ENDBRANCH  56  70
BRANCH  57  80
ATOM     80  C   UNL     1      -0.243  -9.481   3.984  1.00  0.00    -0.014 A 
ATOM     81  C   UNL     1      -1.411  -9.893   3.317  1.00  0.00     0.010 A 
ATOM     82  C   UNL     1       1.008  -9.866   3.467  1.00  0.00     0.010 A 
ATOM     83  C   UNL     1      -1.330 -10.688   2.170  1.00  0.00     0.020 A 
ATOM     84  C   UNL     1       1.094 -10.632   2.301  1.00  0.00     0.020 A 
ATOM     85  C   UNL     1      -0.077 -11.047   1.665  1.00  0.00     0.054 A 
BRANCH  85  86
ATOM     86  S   UNL     1       0.001 -12.032   0.144  1.00  0.00     0.124 S 
ATOM     87  O   UNL     1      -0.534 -13.317   0.584  1.00  0.00    -0.237 OA
ATOM     88  O   UNL     1      -0.850 -11.270  -0.766  1.00  0.00    -0.237 OA
ATOM     89  O   UNL     1       1.423 -12.030  -0.194  1.00  0.00    -0.744 OA
ENDBRANCH  85  86
ENDBRANCH  57  80
BRANCH  69  90
ATOM     90  C   UNL     1      -2.940 -10.546  10.338  1.00  0.00    -0.014 A 
ATOM     91  C   UNL     1      -2.338 -11.788  10.605  1.00  0.00     0.010 A 
ATOM     92  C   UNL     1      -4.293 -10.356  10.677  1.00  0.00     0.010 A 
ATOM     93  C   UNL     1      -3.091 -12.835  11.146  1.00  0.00     0.020 A 
ATOM     94  C   UNL     1      -5.037 -11.384  11.258  1.00  0.00     0.020 A 
ATOM     95  C   UNL     1      -4.436 -12.625  11.467  1.00  0.00     0.054 A 
BRANCH  95  96
ATOM     96  S   UNL     1      -5.386 -13.994  12.182  1.00  0.00     0.124 S 
ATOM     97  O   UNL     1      -5.510 -14.903  11.046  1.00  0.00    -0.237 OA
ATOM     98  O   UNL     1      -4.518 -14.453  13.264  1.00  0.00    -0.237 OA
ATOM     99  O   UNL     1      -6.632 -13.364  12.614  1.00  0.00    -0.744 OA
ENDBRANCH  95  96
ENDBRANCH  69  90
ENDBRANCH  43  44
ENDBRANCH  36  38
ENDBRANCH  35  36
ENDBRANCH  34  35
ENDBRANCH  33  34
ENDBRANCH  32  33
ENDBRANCH   1  32
TORSDOF 23
