REMARK SMILES C[C@@H](C(=O)OCCOCCOCCOC(=O)c1ccc(-c2c3nc(c(-c4ccc(S(=O)(=O)[O-])cc4)c4ccc([nH]4)c(-c4ccc(S(=O)(=O)[O-])cc4)c4nc(c(-c5ccc(S(=O)(=O)[O-])cc5)c5ccc2[nH]5)C=C4)C=C3)cc1)n1ccc(C(=O)N2CC[NH+](Cc3cccc(F)c3)CC2)n1
REMARK SMILES IDX 9 1 8 2 7 3 6 4 5 5 3 6 4 7 2 8 1 9 77 10 78 11 97 12 79 13
REMARK SMILES IDX 80 14 81 15 82 16 83 17 84 18 96 19 85 20 95 21 86 22 87 24
REMARK SMILES IDX 88 25 89 26 94 27 90 28 92 29 91 30 93 31 10 32 11 33 12 34
REMARK SMILES IDX 13 35 14 36 15 37 16 38 17 39 18 40 76 41 19 42 75 43 20 44
REMARK SMILES IDX 21 45 22 46 69 47 23 48 74 49 68 50 70 51 24 52 73 53 67 54
REMARK SMILES IDX 66 55 25 57 55 58 36 59 54 60 37 61 40 62 53 63 71 64 38 65
REMARK SMILES IDX 39 66 52 68 72 69 41 70 26 71 27 72 35 73 28 74 34 75 29 76
REMARK SMILES IDX 30 77 31 78 32 79 33 80 56 81 57 82 65 83 58 84 64 85 59 86
REMARK SMILES IDX 60 87 61 88 62 89 63 90 42 91 43 92 51 93 44 94 50 95 45 96
REMARK SMILES IDX 46 97 47 98 48 99 49 100
REMARK H PARENT 86 23 70 56 40 67
REMARK Flexibility Score: inf
ROOT
ATOM      1  C   UNL     1       0.349   2.794  -2.562  1.00  0.00     0.188 C 
ENDROOT
BRANCH   1   2
ATOM      2  O   UNL     1       1.125   3.902  -3.006  1.00  0.00    -0.376 OA
BRANCH   2   3
ATOM      3  C   UNL     1       2.385   4.136  -2.372  1.00  0.00     0.202 C 
BRANCH   3   4
ATOM      4  C   UNL     1       2.476   4.029  -0.838  1.00  0.00     0.261 C 
BRANCH   4   5
ATOM      5  O   UNL     1       2.077   2.736  -0.338  1.00  0.00    -0.462 OA
BRANCH   5   6
ATOM      6  C   UNL     1       1.569   2.707   0.925  1.00  0.00     0.330 C 
ATOM      7  O   UNL     1       1.640   3.655   1.701  1.00  0.00    -0.250 OA
BRANCH   6   8
ATOM      8  C   UNL     1       0.911   1.369   1.274  1.00  0.00     0.213 C 
ATOM      9  C   UNL     1       1.734   0.147   0.853  1.00  0.00     0.046 C 
BRANCH   8  10
ATOM     10  N   UNL     1      -0.500   1.325   0.883  1.00  0.00    -0.258 N 
ATOM     11  C   UNL     1      -1.296   0.226   0.690  1.00  0.00     0.110 A 
ATOM     12  N   UNL     1      -1.203   2.467   0.878  1.00  0.00    -0.167 NA
ATOM     13  C   UNL     1      -2.594   0.688   0.684  1.00  0.00     0.056 A 
ATOM     14  C   UNL     1      -2.496   2.094   0.850  1.00  0.00     0.150 A 
BRANCH  14  15
ATOM     15  C   UNL     1      -3.598   3.042   1.117  1.00  0.00     0.274 C 
ATOM     16  O   UNL     1      -4.632   2.650   1.656  1.00  0.00    -0.267 OA
ATOM     17  N   UNL     1      -3.367   4.387   0.824  1.00  0.00    -0.326 N 
ATOM     18  C   UNL     1      -4.175   5.398   1.491  1.00  0.00     0.181 C 
ATOM     19  C   UNL     1      -2.730   4.813  -0.418  1.00  0.00     0.181 C 
ATOM     20  C   UNL     1      -3.517   6.806   1.508  1.00  0.00     0.284 C 
ATOM     21  C   UNL     1      -1.981   6.148  -0.273  1.00  0.00     0.284 C 
ATOM     22  N   UNL     1      -2.734   7.254   0.333  1.00  0.00    -0.328 N 
ATOM     23  H   UNL     1      -2.039   7.896   0.714  1.00  0.00     0.348 HD
BRANCH  22  24
ATOM     24  C   UNL     1      -3.410   8.164  -0.613  1.00  0.00     0.299 C 
BRANCH  24  25
ATOM     25  C   UNL     1      -4.428   7.511  -1.506  1.00  0.00     0.009 A 
ATOM     26  C   UNL     1      -4.169   7.142  -2.839  1.00  0.00     0.010 A 
ATOM     27  C   UNL     1      -5.596   7.087  -0.906  1.00  0.00     0.048 A 
ATOM     28  C   UNL     1      -5.012   6.246  -3.505  1.00  0.00     0.004 A 
ATOM     29  C   UNL     1      -6.286   6.066  -1.502  1.00  0.00     0.123 A 
ATOM     30  C   UNL     1      -6.053   5.656  -2.806  1.00  0.00     0.039 A 
ATOM     31  F   UNL     1      -7.040   5.342  -0.687  1.00  0.00    -0.207 F 
ENDBRANCH  24  25
ENDBRANCH  22  24
ENDBRANCH  14  15
ENDBRANCH   8  10
ENDBRANCH   6   8
ENDBRANCH   5   6
ENDBRANCH   4   5
ENDBRANCH   3   4
ENDBRANCH   2   3
ENDBRANCH   1   2
BRANCH   1  32
ATOM     32  C   UNL     1       1.016   1.410  -2.531  1.00  0.00     0.188 C 
BRANCH  32  33
ATOM     33  O   UNL     1       2.394   1.407  -2.818  1.00  0.00    -0.376 OA
BRANCH  33  34
ATOM     34  C   UNL     1       2.845   0.924  -4.071  1.00  0.00     0.202 C 
BRANCH  34  35
ATOM     35  C   UNL     1       2.050   1.085  -5.384  1.00  0.00     0.261 C 
BRANCH  35  36
ATOM     36  O   UNL     1       0.616   1.113  -5.314  1.00  0.00    -0.460 OA
BRANCH  36  37
ATOM     37  C   UNL     1      -0.022  -0.077  -5.207  1.00  0.00     0.338 C 
ATOM     38  O   UNL     1       0.504  -1.180  -5.165  1.00  0.00    -0.246 OA
BRANCH  37  39
ATOM     39  C   UNL     1      -1.448   0.190  -4.888  1.00  0.00     0.060 A 
ATOM     40  C   UNL     1      -1.973  -0.272  -3.672  1.00  0.00     0.016 A 
ATOM     41  C   UNL     1      -2.266   0.894  -5.772  1.00  0.00     0.016 A 
ATOM     42  C   UNL     1      -3.320  -0.059  -3.348  1.00  0.00     0.010 A 
ATOM     43  C   UNL     1      -3.620   1.087  -5.454  1.00  0.00     0.010 A 
ATOM     44  C   UNL     1      -4.170   0.587  -4.253  1.00  0.00    -0.014 A 
BRANCH  44  45
ATOM     45  C   UNL     1      -5.655   0.535  -4.080  1.00  0.00     0.031 A 
ATOM     46  C   UNL     1      -6.429  -0.437  -4.937  1.00  0.00     0.074 A 
ATOM     47  C   UNL     1      -6.336   1.246  -3.156  1.00  0.00     0.049 A 
ATOM     48  N   UNL     1      -7.722  -0.585  -5.060  1.00  0.00    -0.248 NA
ATOM     49  C   UNL     1      -5.636  -1.397  -5.726  1.00  0.00     0.031 C 
ATOM     50  C   UNL     1      -5.749   2.058  -2.096  1.00  0.00     0.029 A 
ATOM     51  N   UNL     1      -7.698   1.399  -2.970  1.00  0.00    -0.354 N 
ATOM     52  C   UNL     1      -7.899  -1.672  -5.905  1.00  0.00     0.074 A 
ATOM     53  C   UNL     1      -6.583  -2.106  -6.322  1.00  0.00     0.031 C 
ATOM     54  C   UNL     1      -6.742   2.654  -1.407  1.00  0.00     0.029 A 
ATOM     55  C   UNL     1      -8.025   2.367  -2.037  1.00  0.00     0.049 A 
ATOM     56  H   UNL     1      -8.371   0.870  -3.455  1.00  0.00     0.167 HD
ATOM     57  C   UNL     1      -9.050  -2.280  -6.275  1.00  0.00     0.031 A 
ATOM     58  C   UNL     1      -9.206   2.988  -1.800  1.00  0.00     0.031 A 
ATOM     59  C   UNL     1     -10.364  -1.855  -5.874  1.00  0.00     0.049 A 
ATOM     60  C   UNL     1     -10.447   2.498  -2.477  1.00  0.00     0.074 A 
ATOM     61  C   UNL     1     -11.584  -2.442  -6.164  1.00  0.00     0.029 A 
ATOM     62  N   UNL     1     -10.634  -0.729  -5.117  1.00  0.00    -0.354 N 
ATOM     63  N   UNL     1     -10.590   1.529  -3.342  1.00  0.00    -0.248 NA
ATOM     64  C   UNL     1     -11.700   3.168  -2.092  1.00  0.00     0.031 C 
ATOM     65  C   UNL     1     -12.597  -1.626  -5.653  1.00  0.00     0.029 A 
ATOM     66  C   UNL     1     -12.004  -0.573  -4.982  1.00  0.00     0.049 A 
ATOM     67  H   UNL     1      -9.955  -0.129  -4.732  1.00  0.00     0.167 HD
ATOM     68  C   UNL     1     -11.959   1.426  -3.546  1.00  0.00     0.074 A 
ATOM     69  C   UNL     1     -12.594   2.466  -2.766  1.00  0.00     0.031 C 
ATOM     70  C   UNL     1     -12.632   0.500  -4.264  1.00  0.00     0.031 A 
BRANCH  57  71
ATOM     71  C   UNL     1      -8.947  -3.466  -7.190  1.00  0.00    -0.014 A 
ATOM     72  C   UNL     1      -8.455  -4.702  -6.734  1.00  0.00     0.010 A 
ATOM     73  C   UNL     1      -9.412  -3.354  -8.512  1.00  0.00     0.010 A 
ATOM     74  C   UNL     1      -8.404  -5.800  -7.596  1.00  0.00     0.020 A 
ATOM     75  C   UNL     1      -9.389  -4.456  -9.368  1.00  0.00     0.020 A 
ATOM     76  C   UNL     1      -8.872  -5.668  -8.908  1.00  0.00     0.054 A 
BRANCH  76  77
ATOM     77  S   UNL     1      -8.826  -7.117  -9.997  1.00  0.00     0.124 S 
ATOM     78  O   UNL     1      -7.394  -7.258 -10.249  1.00  0.00    -0.237 OA
ATOM     79  O   UNL     1      -9.422  -8.160  -9.166  1.00  0.00    -0.237 OA
ATOM     80  O   UNL     1      -9.624  -6.710 -11.150  1.00  0.00    -0.744 OA
ENDBRANCH  76  77
ENDBRANCH  57  71
BRANCH  58  81
ATOM     81  C   UNL     1      -9.350   4.226  -0.979  1.00  0.00    -0.014 A 
ATOM     82  C   UNL     1      -9.440   4.198   0.420  1.00  0.00     0.010 A 
ATOM     83  C   UNL     1      -9.455   5.472  -1.646  1.00  0.00     0.010 A 
ATOM     84  C   UNL     1      -9.510   5.399   1.144  1.00  0.00     0.020 A 
ATOM     85  C   UNL     1      -9.512   6.671  -0.926  1.00  0.00     0.020 A 
ATOM     86  C   UNL     1      -9.501   6.627   0.470  1.00  0.00     0.054 A 
BRANCH  86  87
ATOM     87  S   UNL     1      -9.246   8.168   1.403  1.00  0.00     0.124 S 
ATOM     88  O   UNL     1     -10.610   8.650   1.588  1.00  0.00    -0.237 OA
ATOM     89  O   UNL     1      -8.564   7.717   2.615  1.00  0.00    -0.237 OA
ATOM     90  O   UNL     1      -8.410   8.965   0.506  1.00  0.00    -0.744 OA
ENDBRANCH  86  87
ENDBRANCH  58  81
BRANCH  70  91
ATOM     91  C   UNL     1     -14.128   0.552  -4.186  1.00  0.00    -0.014 A 
ATOM     92  C   UNL     1     -14.863   1.575  -4.811  1.00  0.00     0.010 A 
ATOM     93  C   UNL     1     -14.803  -0.426  -3.435  1.00  0.00     0.010 A 
ATOM     94  C   UNL     1     -16.249   1.634  -4.656  1.00  0.00     0.020 A 
ATOM     95  C   UNL     1     -16.190  -0.389  -3.307  1.00  0.00     0.020 A 
ATOM     96  C   UNL     1     -16.903   0.651  -3.907  1.00  0.00     0.054 A 
BRANCH  96  97
ATOM     97  S   UNL     1     -18.707   0.727  -3.758  1.00  0.00     0.124 S 
ATOM     98  O   UNL     1     -18.890   1.846  -2.838  1.00  0.00    -0.237 OA
ATOM     99  O   UNL     1     -19.131   0.968  -5.135  1.00  0.00    -0.237 OA
ATOM    100  O   UNL     1     -19.066  -0.585  -3.223  1.00  0.00    -0.744 OA
ENDBRANCH  96  97
ENDBRANCH  70  91
ENDBRANCH  44  45
ENDBRANCH  37  39
ENDBRANCH  36  37
ENDBRANCH  35  36
ENDBRANCH  34  35
ENDBRANCH  33  34
ENDBRANCH  32  33
ENDBRANCH   1  32
TORSDOF 24
