REMARK SMILES O=C(OCCOCCOCCOC(=O)c1cc(Cl)c2c(c1)[C@H]1C=CC[C@H]1[C@H](c1ccc(S(=O)(=O)N3CCOCC3)cc1)N2)c1ccc(-c2c3nc(c(-c4ccc(S(=O)(=O)[O-])cc4)c4ccc([nH]4)c(-c4ccc(S(=O)(=O)[O-])cc4)c4nc(c(-c5ccc(S(=O)(=O)[O-])cc5)c5ccc2[nH]5)C=C4)C=C3)cc1
REMARK SMILES IDX 7 1 6 2 5 3 4 4 3 5 2 6 1 7 44 8 45 9 103 10 46 11 102 12
REMARK SMILES IDX 47 13 48 14 49 15 96 16 50 17 101 18 95 19 97 20 51 21
REMARK SMILES IDX 100 22 94 23 93 24 52 26 82 27 63 28 81 29 64 30 67 31 80 32
REMARK SMILES IDX 98 33 65 34 66 35 79 37 99 38 68 39 53 40 54 41 62 42 55 43
REMARK SMILES IDX 61 44 56 45 57 46 58 47 59 48 60 49 83 50 84 51 92 52 85 53
REMARK SMILES IDX 91 54 86 55 87 56 88 57 89 58 90 59 69 60 70 61 78 62 71 63
REMARK SMILES IDX 77 64 72 65 73 66 74 67 75 68 76 69 8 70 9 71 10 72 11 73
REMARK SMILES IDX 12 74 13 75 14 76 15 77 16 78 21 79 17 80 20 81 18 82 19 83
REMARK SMILES IDX 22 84 43 85 23 86 26 87 27 88 24 90 25 91 28 92 29 93 42 94
REMARK SMILES IDX 30 95 41 96 31 97 32 98 33 99 34 100 35 101 36 102 40 103
REMARK SMILES IDX 37 104 39 105 38 106
REMARK H PARENT 97 25 67 36 43 89
REMARK Flexibility Score: inf
ROOT
ATOM      1  C   UNL     1       3.165  -0.855   1.518  1.00  0.00     0.188 C 
ENDROOT
BRANCH   1   2
ATOM      2  O   UNL     1       4.470  -0.325   1.321  1.00  0.00    -0.376 OA
BRANCH   2   3
ATOM      3  C   UNL     1       4.612   1.081   1.465  1.00  0.00     0.202 C 
BRANCH   3   4
ATOM      4  C   UNL     1       4.520   1.811   0.125  1.00  0.00     0.261 C 
BRANCH   4   5
ATOM      5  O   UNL     1       3.177   1.749  -0.389  1.00  0.00    -0.460 OA
BRANCH   5   6
ATOM      6  C   UNL     1       2.668   1.040  -1.420  1.00  0.00     0.338 C 
ATOM      7  O   UNL     1       1.574   1.396  -1.862  1.00  0.00    -0.246 OA
BRANCH   6   8
ATOM      8  C   UNL     1       3.280  -0.203  -2.008  1.00  0.00     0.060 A 
ATOM      9  C   UNL     1       4.467  -0.822  -1.610  1.00  0.00     0.016 A 
ATOM     10  C   UNL     1       2.549  -0.821  -3.044  1.00  0.00     0.016 A 
ATOM     11  C   UNL     1       4.929  -1.988  -2.224  1.00  0.00     0.010 A 
ATOM     12  C   UNL     1       3.014  -1.974  -3.684  1.00  0.00     0.010 A 
ATOM     13  C   UNL     1       4.228  -2.538  -3.293  1.00  0.00    -0.014 A 
BRANCH  13  14
ATOM     14  C   UNL     1       4.897  -3.544  -4.135  1.00  0.00     0.031 A 
ATOM     15  C   UNL     1       5.811  -3.047  -5.214  1.00  0.00     0.074 A 
ATOM     16  C   UNL     1       4.764  -4.857  -3.893  1.00  0.00     0.049 A 
ATOM     17  N   UNL     1       6.513  -3.728  -6.077  1.00  0.00    -0.248 NA
ATOM     18  C   UNL     1       5.977  -1.585  -5.313  1.00  0.00     0.031 C 
ATOM     19  C   UNL     1       4.001  -5.435  -2.791  1.00  0.00     0.029 A 
ATOM     20  N   UNL     1       5.289  -5.940  -4.550  1.00  0.00    -0.354 N 
ATOM     21  C   UNL     1       7.226  -2.783  -6.800  1.00  0.00     0.074 A 
ATOM     22  C   UNL     1       6.861  -1.480  -6.292  1.00  0.00     0.031 C 
ATOM     23  C   UNL     1       4.112  -6.772  -2.849  1.00  0.00     0.029 A 
ATOM     24  C   UNL     1       4.919  -7.143  -4.004  1.00  0.00     0.049 A 
ATOM     25  H   UNL     1       5.875  -5.861  -5.337  1.00  0.00     0.167 HD
ATOM     26  C   UNL     1       8.102  -2.985  -7.808  1.00  0.00     0.031 A 
ATOM     27  C   UNL     1       5.187  -8.403  -4.398  1.00  0.00     0.031 A 
ATOM     28  C   UNL     1       8.382  -4.277  -8.365  1.00  0.00     0.049 A 
ATOM     29  C   UNL     1       6.034  -8.605  -5.620  1.00  0.00     0.074 A 
ATOM     30  C   UNL     1       9.145  -4.592  -9.473  1.00  0.00     0.029 A 
ATOM     31  N   UNL     1       7.894  -5.471  -7.854  1.00  0.00    -0.354 N 
ATOM     32  N   UNL     1       6.615  -7.698  -6.370  1.00  0.00    -0.248 NA
ATOM     33  C   UNL     1       6.258  -9.988  -6.057  1.00  0.00     0.031 C 
ATOM     34  C   UNL     1       9.086  -5.978  -9.656  1.00  0.00     0.029 A 
ATOM     35  C   UNL     1       8.335  -6.529  -8.627  1.00  0.00     0.049 A 
ATOM     36  H   UNL     1       7.320  -5.553  -7.059  1.00  0.00     0.167 HD
ATOM     37  C   UNL     1       7.292  -8.399  -7.358  1.00  0.00     0.074 A 
ATOM     38  C   UNL     1       7.045  -9.808  -7.112  1.00  0.00     0.031 C 
ATOM     39  C   UNL     1       8.058  -7.920  -8.369  1.00  0.00     0.031 A 
BRANCH  26  40
ATOM     40  C   UNL     1       8.747  -1.766  -8.396  1.00  0.00    -0.014 A 
ATOM     41  C   UNL     1       9.779  -1.098  -7.711  1.00  0.00     0.010 A 
ATOM     42  C   UNL     1       8.297  -1.262  -9.628  1.00  0.00     0.010 A 
ATOM     43  C   UNL     1      10.331   0.072  -8.238  1.00  0.00     0.020 A 
ATOM     44  C   UNL     1       8.860  -0.102 -10.167  1.00  0.00     0.020 A 
ATOM     45  C   UNL     1       9.867   0.562  -9.463  1.00  0.00     0.054 A 
BRANCH  45  46
ATOM     46  S   UNL     1      10.595   2.091 -10.113  1.00  0.00     0.124 S 
ATOM     47  O   UNL     1      10.254   3.057  -9.072  1.00  0.00    -0.237 OA
ATOM     48  O   UNL     1      12.010   1.746 -10.213  1.00  0.00    -0.237 OA
ATOM     49  O   UNL     1       9.909   2.288 -11.388  1.00  0.00    -0.744 OA
ENDBRANCH  45  46
ENDBRANCH  26  40
BRANCH  27  50
ATOM     50  C   UNL     1       4.631  -9.545  -3.624  1.00  0.00    -0.014 A 
ATOM     51  C   UNL     1       5.446 -10.274  -2.742  1.00  0.00     0.010 A 
ATOM     52  C   UNL     1       3.258  -9.847  -3.696  1.00  0.00     0.010 A 
ATOM     53  C   UNL     1       4.893 -11.267  -1.925  1.00  0.00     0.020 A 
ATOM     54  C   UNL     1       2.701 -10.831  -2.874  1.00  0.00     0.020 A 
ATOM     55  C   UNL     1       3.521 -11.529  -1.986  1.00  0.00     0.054 A 
BRANCH  55  56
ATOM     56  S   UNL     1       2.807 -12.737  -0.833  1.00  0.00     0.124 S 
ATOM     57  O   UNL     1       3.335 -13.997  -1.346  1.00  0.00    -0.237 OA
ATOM     58  O   UNL     1       3.346 -12.305   0.454  1.00  0.00    -0.237 OA
ATOM     59  O   UNL     1       1.366 -12.546  -0.990  1.00  0.00    -0.744 OA
ENDBRANCH  55  56
ENDBRANCH  27  50
BRANCH  39  60
ATOM     60  C   UNL     1       8.712  -8.920  -9.276  1.00  0.00    -0.014 A 
ATOM     61  C   UNL     1       7.984  -9.574 -10.283  1.00  0.00     0.010 A 
ATOM     62  C   UNL     1      10.100  -9.129  -9.175  1.00  0.00     0.010 A 
ATOM     63  C   UNL     1       8.635 -10.434 -11.170  1.00  0.00     0.020 A 
ATOM     64  C   UNL     1      10.756  -9.971 -10.072  1.00  0.00     0.020 A 
ATOM     65  C   UNL     1      10.018 -10.621 -11.063  1.00  0.00     0.054 A 
BRANCH  65  66
ATOM     66  S   UNL     1      10.839 -11.707 -12.259  1.00  0.00     0.124 S 
ATOM     67  O   UNL     1      10.213 -12.997 -11.983  1.00  0.00    -0.237 OA
ATOM     68  O   UNL     1      10.482 -11.095 -13.536  1.00  0.00    -0.237 OA
ATOM     69  O   UNL     1      12.253 -11.614 -11.901  1.00  0.00    -0.744 OA
ENDBRANCH  65  66
ENDBRANCH  39  60
ENDBRANCH  13  14
ENDBRANCH   6   8
ENDBRANCH   5   6
ENDBRANCH   4   5
ENDBRANCH   3   4
ENDBRANCH   2   3
ENDBRANCH   1   2
BRANCH   1  70
ATOM     70  C   UNL     1       2.619  -0.795   2.949  1.00  0.00     0.188 C 
BRANCH  70  71
ATOM     71  O   UNL     1       3.534  -0.649   4.027  1.00  0.00    -0.376 OA
BRANCH  71  72
ATOM     72  C   UNL     1       4.731  -1.420   4.037  1.00  0.00     0.202 C 
BRANCH  72  73
ATOM     73  C   UNL     1       4.589  -2.932   4.187  1.00  0.00     0.261 C 
BRANCH  73  74
ATOM     74  O   UNL     1       4.087  -3.573   3.005  1.00  0.00    -0.460 OA
BRANCH  74  75
ATOM     75  C   UNL     1       2.880  -4.163   3.149  1.00  0.00     0.338 C 
ATOM     76  O   UNL     1       2.125  -4.098   4.104  1.00  0.00    -0.246 OA
BRANCH  75  77
ATOM     77  C   UNL     1       2.540  -4.900   1.930  1.00  0.00     0.062 A 
ATOM     78  C   UNL     1       3.110  -6.148   1.710  1.00  0.00     0.038 A 
ATOM     79  C   UNL     1       1.507  -4.429   1.119  1.00  0.00     0.022 A 
ATOM     80  C   UNL     1       2.600  -6.943   0.687  1.00  0.00     0.065 A 
ATOM     81  C   UNL     1       1.007  -5.228   0.079  1.00  0.00    -0.015 A 
ATOM     82  Cl  UNL     1       3.264  -8.529   0.504  1.00  0.00    -0.082 Cl
ATOM     83  C   UNL     1       1.548  -6.500  -0.145  1.00  0.00     0.057 A 
ATOM     84  C   UNL     1      -0.168  -4.740  -0.714  1.00  0.00     0.049 C 
ATOM     85  N   UNL     1       0.998  -7.334  -1.098  1.00  0.00    -0.376 N 
ATOM     86  C   UNL     1       0.156  -3.740  -1.790  1.00  0.00    -0.023 C 
ATOM     87  C   UNL     1      -0.939  -5.825  -1.492  1.00  0.00     0.031 C 
ATOM     88  C   UNL     1       0.020  -6.900  -2.078  1.00  0.00     0.114 C 
ATOM     89  H   UNL     1       1.286  -8.275  -1.113  1.00  0.00     0.161 HD
ATOM     90  C   UNL     1      -0.691  -3.864  -2.819  1.00  0.00    -0.030 C 
ATOM     91  C   UNL     1      -1.663  -4.973  -2.563  1.00  0.00     0.034 C 
BRANCH  88  92
ATOM     92  C   UNL     1      -0.741  -8.123  -2.593  1.00  0.00    -0.025 A 
ATOM     93  C   UNL     1      -0.852  -9.340  -1.887  1.00  0.00     0.007 A 
ATOM     94  C   UNL     1      -1.366  -8.040  -3.836  1.00  0.00     0.007 A 
ATOM     95  C   UNL     1      -1.563 -10.431  -2.414  1.00  0.00     0.022 A 
ATOM     96  C   UNL     1      -2.131  -9.092  -4.318  1.00  0.00     0.022 A 
ATOM     97  C   UNL     1      -2.222 -10.294  -3.633  1.00  0.00     0.082 A 
BRANCH  97  98
ATOM     98  S   UNL     1      -3.162 -11.650  -4.298  1.00  0.00     0.243 S 
ATOM     99  O   UNL     1      -2.216 -12.676  -4.697  1.00  0.00    -0.207 OA
ATOM    100  O   UNL     1      -4.234 -11.915  -3.369  1.00  0.00    -0.207 OA
BRANCH  98 101
ATOM    101  N   UNL     1      -3.861 -11.056  -5.711  1.00  0.00    -0.193 NA
ATOM    102  C   UNL     1      -3.138 -11.034  -7.000  1.00  0.00     0.131 C 
ATOM    103  C   UNL     1      -5.196 -10.438  -5.721  1.00  0.00     0.131 C 
ATOM    104  C   UNL     1      -3.235  -9.658  -7.682  1.00  0.00     0.177 C 
ATOM    105  C   UNL     1      -5.150  -9.066  -6.396  1.00  0.00     0.177 C 
ATOM    106  O   UNL     1      -4.574  -9.138  -7.708  1.00  0.00    -0.379 OA
ENDBRANCH  98 101
ENDBRANCH  97  98
ENDBRANCH  88  92
ENDBRANCH  75  77
ENDBRANCH  74  75
ENDBRANCH  73  74
ENDBRANCH  72  73
ENDBRANCH  71  72
ENDBRANCH  70  71
ENDBRANCH   1  70
TORSDOF 23
