REMARK SMILES O=C(OCCOCCOCCOC(=O)c1ccc(-c2c3nc(c(-c4ccc(S(=O)(=O)[O-])cc4)c4ccc([nH]4)c(-c4ccc(S(=O)(=O)[O-])cc4)c4nc(c(-c5ccc(S(=O)(=O)[O-])cc5)c5ccc2[nH]5)C=C4)C=C3)cc1)C1=Cc2cc(S(F)(F)(F)(F)F)ccc2O[C@@H]1C(F)(F)F
REMARK SMILES IDX 8 1 7 2 6 3 5 4 4 5 3 6 2 7 1 8 75 9 76 10 90 11 77 12 89 13
REMARK SMILES IDX 78 14 88 15 79 16 87 17 86 18 91 19 92 20 93 21 94 22 80 23
REMARK SMILES IDX 81 24 82 25 83 26 84 27 85 28 9 29 10 30 11 31 12 32 13 33
REMARK SMILES IDX 14 34 15 35 16 36 74 37 17 38 73 39 18 40 19 41 20 42 67 43
REMARK SMILES IDX 21 44 72 45 66 46 68 47 22 48 71 49 65 50 64 51 23 53 53 54
REMARK SMILES IDX 34 55 52 56 35 57 38 58 51 59 69 60 36 61 37 62 50 64 70 65
REMARK SMILES IDX 39 66 24 67 25 68 33 69 26 70 32 71 27 72 28 73 29 74 30 75
REMARK SMILES IDX 31 76 54 77 55 78 63 79 56 80 62 81 57 82 58 83 59 84 60 85
REMARK SMILES IDX 61 86 40 87 41 88 49 89 42 90 48 91 43 92 44 93 45 94 46 95
REMARK SMILES IDX 47 96
REMARK H PARENT 68 52 38 63
REMARK Flexibility Score: inf
ROOT
ATOM      1  C   UNL     1       2.478   1.905  -1.704  1.00  0.00     0.188 C 
ENDROOT
BRANCH   1   2
ATOM      2  C   UNL     1       2.985   1.484  -0.335  1.00  0.00     0.188 C 
BRANCH   2   3
ATOM      3  O   UNL     1       4.405   1.484  -0.335  1.00  0.00    -0.376 OA
BRANCH   3   4
ATOM      4  C   UNL     1       4.878   0.572  -1.315  1.00  0.00     0.202 C 
BRANCH   4   5
ATOM      5  C   UNL     1       4.371  -0.825  -0.996  1.00  0.00     0.261 C 
BRANCH   5   6
ATOM      6  O   UNL     1       2.951  -0.825  -0.996  1.00  0.00    -0.460 OA
BRANCH   6   7
ATOM      7  C   UNL     1       2.241   0.012  -0.095  1.00  0.00     0.338 C 
ATOM      8  O   UNL     1       0.970   0.012  -0.095  1.00  0.00    -0.246 OA
BRANCH   7   9
ATOM      9  C   UNL     1       3.001   0.908   0.870  1.00  0.00     0.087 C 
ATOM     10  C   UNL     1       4.362   0.908   0.870  1.00  0.00     0.027 C 
ATOM     11  C   UNL     1       2.241   1.804   1.834  1.00  0.00     0.316 C 
ATOM     12  C   UNL     1       5.122   0.012  -0.095  1.00  0.00     0.019 A 
ATOM     13  O   UNL     1       3.683   0.593  -1.895  1.00  0.00    -0.475 OA
ATOM     14  C   UNL     1       6.109  -0.772   0.478  1.00  0.00     0.036 A 
ATOM     15  C   UNL     1       4.805  -0.108  -1.379  1.00  0.00     0.128 A 
ATOM     16  C   UNL     1       6.912  -1.460  -0.462  1.00  0.00     0.107 A 
ATOM     17  C   UNL     1       5.553  -0.905  -2.212  1.00  0.00     0.048 A 
ATOM     18  C   UNL     1       6.581  -1.662  -1.724  1.00  0.00     0.028 A 
BRANCH  11  19
ATOM     19  C   UNL     1       2.608   3.256   1.573  1.00  0.00     0.430 C 
ATOM     20  F   UNL     1       2.287   3.577   0.323  1.00  0.00    -0.167 F 
ATOM     21  F   UNL     1       1.944   4.040   2.417  1.00  0.00    -0.167 F 
ATOM     22  F   UNL     1       3.916   3.421   1.752  1.00  0.00    -0.167 F 
ENDBRANCH  11  19
BRANCH  16  23
ATOM     23  S   UNL     1       8.505  -2.107   0.105  1.00  0.00     0.310 S 
ATOM     24  F   UNL     1       8.034  -2.069   1.620  1.00  0.00    -0.094 F 
ATOM     25  F   UNL     1       9.022  -0.632   0.300  1.00  0.00    -0.094 F 
ATOM     26  F   UNL     1       9.861  -2.679   0.606  1.00  0.00    -0.094 F 
ATOM     27  F   UNL     1       7.922  -3.574   0.037  1.00  0.00    -0.094 F 
ATOM     28  F   UNL     1       7.085  -1.540  -0.296  1.00  0.00    -0.094 F 
ENDBRANCH  16  23
ENDBRANCH   7   9
ENDBRANCH   6   7
ENDBRANCH   5   6
ENDBRANCH   4   5
ENDBRANCH   3   4
ENDBRANCH   2   3
ENDBRANCH   1   2
BRANCH   1  29
ATOM     29  O   UNL     1       2.951   0.994  -2.685  1.00  0.00    -0.376 OA
BRANCH  29  30
ATOM     30  C   UNL     1       4.371   0.994  -2.685  1.00  0.00     0.202 C 
BRANCH  30  31
ATOM     31  C   UNL     1       4.878   2.391  -3.005  1.00  0.00     0.261 C 
BRANCH  31  32
ATOM     32  O   UNL     1       4.405   3.302  -2.024  1.00  0.00    -0.460 OA
BRANCH  32  33
ATOM     33  C   UNL     1       3.009   3.479  -1.834  1.00  0.00     0.338 C 
ATOM     34  O   UNL     1       2.183   2.821  -2.542  1.00  0.00    -0.246 OA
BRANCH  33  35
ATOM     35  C   UNL     1       2.502   4.454  -0.784  1.00  0.00     0.060 A 
ATOM     36  C   UNL     1       1.358   4.111  -0.081  1.00  0.00     0.016 A 
ATOM     37  C   UNL     1       3.042   5.662  -0.673  1.00  0.00     0.016 A 
ATOM     38  C   UNL     1       0.688   5.215   0.496  1.00  0.00     0.010 A 
ATOM     39  C   UNL     1       2.396   6.656   0.021  1.00  0.00     0.010 A 
ATOM     40  C   UNL     1       1.230   6.403   0.690  1.00  0.00    -0.014 A 
BRANCH  40  41
ATOM     41  C   UNL     1       0.594   7.434   1.608  1.00  0.00     0.031 A 
ATOM     42  C   UNL     1       0.192   8.685   1.136  1.00  0.00     0.074 A 
ATOM     43  C   UNL     1       0.326   6.965   2.883  1.00  0.00     0.049 A 
ATOM     44  N   UNL     1      -0.523   9.607   1.783  1.00  0.00    -0.248 NA
ATOM     45  C   UNL     1       0.505   9.199  -0.205  1.00  0.00     0.031 C 
ATOM     46  C   UNL     1       0.721   5.701   3.363  1.00  0.00     0.029 A 
ATOM     47  N   UNL     1      -0.350   7.608   3.896  1.00  0.00    -0.354 N 
ATOM     48  C   UNL     1      -0.726  10.667   0.998  1.00  0.00     0.074 A 
ATOM     49  C   UNL     1      -0.062  10.422  -0.290  1.00  0.00     0.031 C 
ATOM     50  C   UNL     1       0.299   5.589   4.650  1.00  0.00     0.029 A 
ATOM     51  C   UNL     1      -0.366   6.780   4.996  1.00  0.00     0.049 A 
ATOM     52  H   UNL     1      -0.752   8.506   3.842  1.00  0.00     0.167 HD
ATOM     53  C   UNL     1      -1.439  11.827   1.305  1.00  0.00     0.031 A 
ATOM     54  C   UNL     1      -0.924   7.032   6.239  1.00  0.00     0.031 A 
ATOM     55  C   UNL     1      -2.034  12.060   2.534  1.00  0.00     0.049 A 
ATOM     56  C   UNL     1      -1.588   8.217   6.566  1.00  0.00     0.074 A 
ATOM     57  C   UNL     1      -2.763  13.221   2.857  1.00  0.00     0.029 A 
ATOM     58  N   UNL     1      -2.029  11.242   3.643  1.00  0.00    -0.354 N 
ATOM     59  N   UNL     1      -1.824   9.260   5.768  1.00  0.00    -0.248 NA
ATOM     60  C   UNL     1      -2.154   8.508   7.890  1.00  0.00     0.031 C 
ATOM     61  C   UNL     1      -3.185  13.109   4.146  1.00  0.00     0.029 A 
ATOM     62  C   UNL     1      -2.725  11.877   4.648  1.00  0.00     0.049 A 
ATOM     63  H   UNL     1      -1.603  10.357   3.705  1.00  0.00     0.167 HD
ATOM     64  C   UNL     1      -2.503  10.199   6.429  1.00  0.00     0.074 A 
ATOM     65  C   UNL     1      -2.719   9.732   7.806  1.00  0.00     0.031 C 
ATOM     66  C   UNL     1      -2.956  11.425   5.939  1.00  0.00     0.031 A 
BRANCH  53  67
ATOM     67  C   UNL     1      -1.572  12.893   0.230  1.00  0.00    -0.014 A 
ATOM     68  C   UNL     1      -2.252  12.527  -0.920  1.00  0.00     0.010 A 
ATOM     69  C   UNL     1      -1.115  14.129   0.396  1.00  0.00     0.010 A 
ATOM     70  C   UNL     1      -2.147  13.469  -1.972  1.00  0.00     0.020 A 
ATOM     71  C   UNL     1      -1.168  15.039  -0.632  1.00  0.00     0.020 A 
ATOM     72  C   UNL     1      -1.773  14.726  -1.817  1.00  0.00     0.054 A 
BRANCH  72  73
ATOM     73  S   UNL     1      -2.045  15.967  -3.106  1.00  0.00     0.124 S 
ATOM     74  O   UNL     1      -1.316  15.545  -4.384  1.00  0.00    -0.237 OA
ATOM     75  O   UNL     1      -3.544  16.087  -3.390  1.00  0.00    -0.237 OA
ATOM     76  O   UNL     1      -1.443  17.478  -2.578  1.00  0.00    -0.744 OA
ENDBRANCH  72  73
ENDBRANCH  53  67
BRANCH  54  77
ATOM     77  C   UNL     1      -0.805   5.959   7.309  1.00  0.00    -0.014 A 
ATOM     78  C   UNL     1      -1.924   5.426   7.929  1.00  0.00     0.010 A 
ATOM     79  C   UNL     1       0.420   5.595   7.669  1.00  0.00     0.010 A 
ATOM     80  C   UNL     1      -1.638   4.726   9.125  1.00  0.00     0.020 A 
ATOM     81  C   UNL     1       0.618   4.797   8.770  1.00  0.00     0.020 A 
ATOM     82  C   UNL     1      -0.441   4.284   9.466  1.00  0.00     0.054 A 
BRANCH  82  83
ATOM     83  S   UNL     1      -0.215   3.063  10.783  1.00  0.00     0.124 S 
ATOM     84  O   UNL     1      -0.762   3.625  12.098  1.00  0.00    -0.237 OA
ATOM     85  O   UNL     1      -0.967   1.780  10.424  1.00  0.00    -0.237 OA
ATOM     86  O   UNL     1       1.451   2.718  10.960  1.00  0.00    -0.744 OA
ENDBRANCH  82  83
ENDBRANCH  54  77
BRANCH  66  87
ATOM     87  C   UNL     1      -3.750  12.320   6.876  1.00  0.00    -0.014 A 
ATOM     88  C   UNL     1      -3.165  12.627   8.094  1.00  0.00     0.010 A 
ATOM     89  C   UNL     1      -4.994  12.690   6.597  1.00  0.00     0.010 A 
ATOM     90  C   UNL     1      -4.082  13.080   9.072  1.00  0.00     0.020 A 
ATOM     91  C   UNL     1      -5.791  13.252   7.565  1.00  0.00     0.020 A 
ATOM     92  C   UNL     1      -5.296  13.529   8.810  1.00  0.00     0.054 A 
BRANCH  92  93
ATOM     93  S   UNL     1      -6.254  14.459  10.032  1.00  0.00     0.124 S 
ATOM     94  O   UNL     1      -6.467  13.596  11.277  1.00  0.00    -0.237 OA
ATOM     95  O   UNL     1      -5.493  15.730  10.416  1.00  0.00    -0.237 OA
ATOM     96  O   UNL     1      -7.770  14.882   9.365  1.00  0.00    -0.744 OA
ENDBRANCH  92  93
ENDBRANCH  66  87
ENDBRANCH  40  41
ENDBRANCH  33  35
ENDBRANCH  32  33
ENDBRANCH  31  32
ENDBRANCH  30  31
ENDBRANCH  29  30
ENDBRANCH   1  29
TORSDOF 22
