REMARK SMILES O=C(OCCOCCOCCOC(=O)[C@@H](F)Oc1ccc(F)c(Cl)c1)c1ccc(-c2c3nc(c(-c4ccc(S(=O)(=O)[O-])cc4)c4ccc([nH]4)c(-c4ccc(S(=O)(=O)[O-])cc4)c4nc(c(-c5ccc(S(=O)(=O)[O-])cc5)c5ccc2[nH]5)C=C4)C=C3)cc1
REMARK SMILES IDX 7 1 6 2 5 3 4 4 3 5 2 6 1 7 26 8 27 9 85 10 28 11 84 12
REMARK SMILES IDX 29 13 30 14 31 15 78 16 32 17 83 18 77 19 79 20 33 21 82 22
REMARK SMILES IDX 76 23 75 24 34 26 64 27 45 28 63 29 46 30 49 31 62 32 80 33
REMARK SMILES IDX 47 34 48 35 61 37 81 38 50 39 35 40 36 41 44 42 37 43 43 44
REMARK SMILES IDX 38 45 39 46 40 47 41 48 42 49 65 50 66 51 74 52 67 53 73 54
REMARK SMILES IDX 68 55 69 56 70 57 71 58 72 59 51 60 52 61 60 62 53 63 59 64
REMARK SMILES IDX 54 65 55 66 56 67 57 68 58 69 8 70 9 71 10 72 11 73 12 74
REMARK SMILES IDX 13 75 14 76 15 77 16 78 17 79 18 80 19 81 25 82 20 83 23 84
REMARK SMILES IDX 21 85 24 86 22 87
REMARK H PARENT 79 25 49 36
REMARK Flexibility Score: inf
ROOT
ATOM      1  C   UNL     1       2.486  -1.695  -0.435  1.00  0.00     0.188 C 
ENDROOT
BRANCH   1   2
ATOM      2  O   UNL     1       3.832  -1.399  -0.813  1.00  0.00    -0.376 OA
BRANCH   2   3
ATOM      3  C   UNL     1       4.763  -1.267   0.269  1.00  0.00     0.202 C 
BRANCH   3   4
ATOM      4  C   UNL     1       4.490  -0.190   1.339  1.00  0.00     0.261 C 
BRANCH   4   5
ATOM      5  O   UNL     1       3.114   0.193   1.482  1.00  0.00    -0.460 OA
BRANCH   5   6
ATOM      6  C   UNL     1       2.433   1.192   0.870  1.00  0.00     0.338 C 
ATOM      7  O   UNL     1       1.272   1.403   1.222  1.00  0.00    -0.246 OA
BRANCH   6   8
ATOM      8  C   UNL     1       2.984   2.018  -0.248  1.00  0.00     0.060 A 
ATOM      9  C   UNL     1       4.050   1.653  -1.071  1.00  0.00     0.016 A 
ATOM     10  C   UNL     1       2.317   3.220  -0.534  1.00  0.00     0.016 A 
ATOM     11  C   UNL     1       4.509   2.478  -2.087  1.00  0.00     0.010 A 
ATOM     12  C   UNL     1       2.753   4.051  -1.568  1.00  0.00     0.010 A 
ATOM     13  C   UNL     1       3.881   3.694  -2.314  1.00  0.00    -0.014 A 
BRANCH  13  14
ATOM     14  C   UNL     1       4.553   4.672  -3.180  1.00  0.00     0.031 A 
ATOM     15  C   UNL     1       5.289   5.786  -2.504  1.00  0.00     0.074 A 
ATOM     16  C   UNL     1       4.561   4.512  -4.512  1.00  0.00     0.049 A 
ATOM     17  N   UNL     1       5.840   6.847  -3.020  1.00  0.00    -0.248 NA
ATOM     18  C   UNL     1       5.414   5.690  -1.038  1.00  0.00     0.031 C 
ATOM     19  C   UNL     1       3.975   3.376  -5.227  1.00  0.00     0.029 A 
ATOM     20  N   UNL     1       5.076   5.304  -5.500  1.00  0.00    -0.354 N 
ATOM     21  C   UNL     1       6.324   7.574  -1.940  1.00  0.00     0.074 A 
ATOM     22  C   UNL     1       6.007   6.834  -0.741  1.00  0.00     0.031 C 
ATOM     23  C   UNL     1       4.148   3.559  -6.545  1.00  0.00     0.029 A 
ATOM     24  C   UNL     1       4.802   4.844  -6.765  1.00  0.00     0.049 A 
ATOM     25  H   UNL     1       5.592   6.124  -5.323  1.00  0.00     0.167 HD
ATOM     26  C   UNL     1       6.952   8.771  -1.960  1.00  0.00     0.031 A 
ATOM     27  C   UNL     1       5.011   5.429  -7.960  1.00  0.00     0.031 A 
ATOM     28  C   UNL     1       7.216   9.479  -3.180  1.00  0.00     0.049 A 
ATOM     29  C   UNL     1       5.649   6.792  -7.963  1.00  0.00     0.074 A 
ATOM     30  C   UNL     1       7.794  10.721  -3.354  1.00  0.00     0.029 A 
ATOM     31  N   UNL     1       6.904   8.994  -4.446  1.00  0.00    -0.354 N 
ATOM     32  N   UNL     1       6.047   7.512  -6.937  1.00  0.00    -0.248 NA
ATOM     33  C   UNL     1       5.858   7.430  -9.266  1.00  0.00     0.031 C 
ATOM     34  C   UNL     1       7.773  11.012  -4.723  1.00  0.00     0.029 A 
ATOM     35  C   UNL     1       7.258   9.919  -5.408  1.00  0.00     0.049 A 
ATOM     36  H   UNL     1       6.490   8.119  -4.629  1.00  0.00     0.167 HD
ATOM     37  C   UNL     1       6.575   8.680  -7.471  1.00  0.00     0.074 A 
ATOM     38  C   UNL     1       6.449   8.565  -8.913  1.00  0.00     0.031 C 
ATOM     39  C   UNL     1       7.117   9.748  -6.835  1.00  0.00     0.031 A 
BRANCH  26  40
ATOM     40  C   UNL     1       7.266   9.399  -0.628  1.00  0.00    -0.014 A 
ATOM     41  C   UNL     1       8.213   8.845   0.254  1.00  0.00     0.010 A 
ATOM     42  C   UNL     1       6.535  10.529  -0.218  1.00  0.00     0.010 A 
ATOM     43  C   UNL     1       8.367   9.363   1.544  1.00  0.00     0.020 A 
ATOM     44  C   UNL     1       6.711  11.071   1.057  1.00  0.00     0.020 A 
ATOM     45  C   UNL     1       7.605  10.465   1.941  1.00  0.00     0.054 A 
BRANCH  45  46
ATOM     46  S   UNL     1       7.791  11.091   3.633  1.00  0.00     0.124 S 
ATOM     47  O   UNL     1       7.129  10.049   4.414  1.00  0.00    -0.237 OA
ATOM     48  O   UNL     1       9.242  11.165   3.790  1.00  0.00    -0.237 OA
ATOM     49  O   UNL     1       7.104  12.380   3.605  1.00  0.00    -0.744 OA
ENDBRANCH  45  46
ENDBRANCH  26  40
BRANCH  27  50
ATOM     50  C   UNL     1       4.569   4.746  -9.208  1.00  0.00    -0.014 A 
ATOM     51  C   UNL     1       5.501   4.260 -10.139  1.00  0.00     0.010 A 
ATOM     52  C   UNL     1       3.199   4.506  -9.436  1.00  0.00     0.010 A 
ATOM     53  C   UNL     1       5.079   3.526 -11.254  1.00  0.00     0.020 A 
ATOM     54  C   UNL     1       2.774   3.753 -10.534  1.00  0.00     0.020 A 
ATOM     55  C   UNL     1       3.718   3.265 -11.437  1.00  0.00     0.054 A 
BRANCH  55  56
ATOM     56  S   UNL     1       3.202   2.229 -12.836  1.00  0.00     0.124 S 
ATOM     57  O   UNL     1       3.483   3.094 -13.977  1.00  0.00    -0.237 OA
ATOM     58  O   UNL     1       4.067   1.060 -12.697  1.00  0.00    -0.237 OA
ATOM     59  O   UNL     1       1.786   1.980 -12.573  1.00  0.00    -0.744 OA
ENDBRANCH  55  56
ENDBRANCH  27  50
BRANCH  39  60
ATOM     60  C   UNL     1       7.668  10.853  -7.691  1.00  0.00    -0.014 A 
ATOM     61  C   UNL     1       6.821  11.768  -8.337  1.00  0.00     0.010 A 
ATOM     62  C   UNL     1       9.061  11.044  -7.733  1.00  0.00     0.010 A 
ATOM     63  C   UNL     1       7.364  12.863  -9.012  1.00  0.00     0.020 A 
ATOM     64  C   UNL     1       9.603  12.152  -8.381  1.00  0.00     0.020 A 
ATOM     65  C   UNL     1       8.750  13.054  -9.019  1.00  0.00     0.054 A 
BRANCH  65  66
ATOM     66  S   UNL     1       9.420  14.540  -9.811  1.00  0.00     0.124 S 
ATOM     67  O   UNL     1       9.223  14.245 -11.227  1.00  0.00    -0.237 OA
ATOM     68  O   UNL     1       8.576  15.600  -9.264  1.00  0.00    -0.237 OA
ATOM     69  O   UNL     1      10.812  14.571  -9.368  1.00  0.00    -0.744 OA
ENDBRANCH  65  66
ENDBRANCH  39  60
ENDBRANCH  13  14
ENDBRANCH   6   8
ENDBRANCH   5   6
ENDBRANCH   4   5
ENDBRANCH   3   4
ENDBRANCH   2   3
ENDBRANCH   1   2
BRANCH   1  70
ATOM     70  C   UNL     1       1.772  -2.682  -1.359  1.00  0.00     0.188 C 
BRANCH  70  71
ATOM     71  O   UNL     1       2.264  -4.021  -1.361  1.00  0.00    -0.376 OA
BRANCH  71  72
ATOM     72  C   UNL     1       3.655  -4.190  -1.600  1.00  0.00     0.202 C 
BRANCH  72  73
ATOM     73  C   UNL     1       4.166  -3.827  -2.996  1.00  0.00     0.261 C 
BRANCH  73  74
ATOM     74  O   UNL     1       3.772  -2.526  -3.452  1.00  0.00    -0.458 OA
BRANCH  74  75
ATOM     75  C   UNL     1       2.978  -2.479  -4.570  1.00  0.00     0.381 C 
ATOM     76  O   UNL     1       2.478  -3.456  -5.104  1.00  0.00    -0.244 OA
BRANCH  75  77
ATOM     77  C   UNL     1       2.873  -1.041  -5.103  1.00  0.00     0.461 C 
ATOM     78  F   UNL     1       3.445  -0.104  -4.284  1.00  0.00    -0.189 F 
BRANCH  77  79
ATOM     79  O   UNL     1       3.369  -0.848  -6.426  1.00  0.00    -0.451 OA
BRANCH  79  80
ATOM     80  C   UNL     1       4.726  -0.747  -6.564  1.00  0.00     0.125 A 
ATOM     81  C   UNL     1       5.660  -1.499  -5.846  1.00  0.00     0.050 A 
ATOM     82  C   UNL     1       5.179   0.139  -7.545  1.00  0.00     0.070 A 
ATOM     83  C   UNL     1       7.027  -1.316  -6.040  1.00  0.00     0.044 A 
ATOM     84  C   UNL     1       6.550   0.323  -7.740  1.00  0.00     0.080 A 
ATOM     85  C   UNL     1       7.466  -0.397  -6.979  1.00  0.00     0.142 A 
ATOM     86  Cl  UNL     1       7.114   1.430  -8.925  1.00  0.00    -0.081 Cl
ATOM     87  F   UNL     1       8.787  -0.238  -7.145  1.00  0.00    -0.205 F 
ENDBRANCH  79  80
ENDBRANCH  77  79
ENDBRANCH  75  77
ENDBRANCH  74  75
ENDBRANCH  73  74
ENDBRANCH  72  73
ENDBRANCH  71  72
ENDBRANCH  70  71
ENDBRANCH   1  70
TORSDOF 22
