REMARK SMILES O=C(Cn1nc(C(=O)OCCOCCOCCOC(=O)c2ccc(-c3c4nc(c(-c5ccc(S(=O)(=O)[O-])cc5)c5ccc([nH]5)c(-c5ccc(S(=O)(=O)[O-])cc5)c5nc(c(-c6ccc(S(=O)(=O)[O-])cc6)c6ccc3[nH]6)C=C5)C=C4)cc2)c2ccccc2c1=O)Nc1ccc2c(c1)C(=O)c1ccccc1C2=O
REMARK SMILES IDX 13 1 12 2 11 3 10 4 9 5 7 6 8 7 6 8 4 9 5 10 87 11 86 12
REMARK SMILES IDX 88 13 81 14 85 15 82 16 84 17 83 18 3 19 2 20 1 21 89 22
REMARK SMILES IDX 90 24 91 25 95 26 92 27 94 28 93 29 96 30 104 31 97 32 98 33
REMARK SMILES IDX 103 34 105 35 99 36 102 37 100 38 101 39 14 40 15 41 16 42
REMARK SMILES IDX 17 43 18 44 19 45 20 46 21 47 22 48 80 49 23 50 79 51 24 52
REMARK SMILES IDX 25 53 26 54 73 55 27 56 78 57 72 58 74 59 28 60 77 61 71 62
REMARK SMILES IDX 70 63 29 65 59 66 40 67 58 68 41 69 44 70 57 71 75 72 42 73
REMARK SMILES IDX 43 74 56 76 76 77 45 78 30 79 31 80 39 81 32 82 38 83 33 84
REMARK SMILES IDX 34 85 35 86 36 87 37 88 60 89 61 90 69 91 62 92 68 93 63 94
REMARK SMILES IDX 64 95 65 96 66 97 67 98 46 99 47 100 55 101 48 102 54 103
REMARK SMILES IDX 49 104 50 105 51 106 52 107 53 108
REMARK H PARENT 89 23 74 64 44 75
REMARK Flexibility Score: inf
ROOT
ATOM      1  C   UNL     1       5.053  -4.237  -5.766  1.00  0.00     0.188 C 
ENDROOT
BRANCH   1   2
ATOM      2  O   UNL     1       5.482  -5.583  -5.599  1.00  0.00    -0.376 OA
BRANCH   2   3
ATOM      3  C   UNL     1       6.639  -5.768  -4.793  1.00  0.00     0.202 C 
BRANCH   3   4
ATOM      4  C   UNL     1       6.330  -5.704  -3.297  1.00  0.00     0.261 C 
BRANCH   4   5
ATOM      5  O   UNL     1       5.750  -4.449  -2.910  1.00  0.00    -0.458 OA
BRANCH   5   6
ATOM      6  C   UNL     1       6.595  -3.443  -2.628  1.00  0.00     0.359 C 
ATOM      7  O   UNL     1       7.809  -3.464  -2.649  1.00  0.00    -0.244 OA
BRANCH   6   8
ATOM      8  C   UNL     1       5.789  -2.180  -2.338  1.00  0.00     0.176 A 
ATOM      9  N   UNL     1       4.198  -1.098  -1.050  1.00  0.00    -0.219 N 
ATOM     10  N   UNL     1       4.913  -2.239  -1.374  1.00  0.00    -0.161 NA
ATOM     11  C   UNL     1       4.545   0.162  -1.537  1.00  0.00     0.275 A 
ATOM     12  C   UNL     1       5.364   0.182  -2.759  1.00  0.00     0.051 A 
ATOM     13  O   UNL     1       4.200   1.225  -1.027  1.00  0.00    -0.267 OA
ATOM     14  C   UNL     1       6.018  -0.978  -3.159  1.00  0.00     0.022 A 
ATOM     15  C   UNL     1       5.478   1.361  -3.508  1.00  0.00     0.014 A 
ATOM     16  C   UNL     1       6.822  -0.955  -4.305  1.00  0.00     0.011 A 
ATOM     17  C   UNL     1       6.259   1.376  -4.661  1.00  0.00     0.001 A 
ATOM     18  C   UNL     1       6.938   0.222  -5.051  1.00  0.00     0.001 A 
BRANCH   9  19
ATOM     19  C   UNL     1       3.304  -1.203   0.108  1.00  0.00     0.248 C 
BRANCH  19  20
ATOM     20  C   UNL     1       2.041  -0.335  -0.043  1.00  0.00     0.246 C 
ATOM     21  O   UNL     1       1.273  -0.453  -0.995  1.00  0.00    -0.273 OA
ATOM     22  N   UNL     1       1.935   0.632   0.955  1.00  0.00    -0.324 N 
ATOM     23  H   UNL     1       2.166   0.362   1.873  1.00  0.00     0.169 HD
BRANCH  22  24
ATOM     24  C   UNL     1       1.523   1.970   0.753  1.00  0.00     0.042 A 
ATOM     25  C   UNL     1       1.696   2.857   1.830  1.00  0.00     0.027 A 
ATOM     26  C   UNL     1       1.224   2.474  -0.515  1.00  0.00     0.039 A 
ATOM     27  C   UNL     1       1.761   4.236   1.614  1.00  0.00     0.015 A 
ATOM     28  C   UNL     1       1.360   3.843  -0.738  1.00  0.00     0.036 A 
ATOM     29  C   UNL     1       1.695   4.706   0.305  1.00  0.00     0.034 A 
ATOM     30  C   UNL     1       1.468   4.329  -2.128  1.00  0.00     0.194 C 
ATOM     31  C   UNL     1       2.291   6.021  -0.022  1.00  0.00     0.194 C 
ATOM     32  O   UNL     1       0.763   3.911  -3.022  1.00  0.00    -0.289 OA
ATOM     33  C   UNL     1       2.584   5.266  -2.366  1.00  0.00     0.034 A 
ATOM     34  C   UNL     1       3.011   6.081  -1.316  1.00  0.00     0.034 A 
ATOM     35  O   UNL     1       2.312   6.939   0.781  1.00  0.00    -0.289 OA
ATOM     36  C   UNL     1       3.304   5.194  -3.557  1.00  0.00     0.013 A 
ATOM     37  C   UNL     1       4.193   6.811  -1.435  1.00  0.00     0.013 A 
ATOM     38  C   UNL     1       4.503   5.900  -3.664  1.00  0.00     0.001 A 
ATOM     39  C   UNL     1       4.950   6.697  -2.604  1.00  0.00     0.001 A 
ENDBRANCH  22  24
ENDBRANCH  19  20
ENDBRANCH   9  19
ENDBRANCH   6   8
ENDBRANCH   5   6
ENDBRANCH   4   5
ENDBRANCH   3   4
ENDBRANCH   2   3
ENDBRANCH   1   2
BRANCH   1  40
ATOM     40  C   UNL     1       3.697  -3.918  -5.103  1.00  0.00     0.188 C 
BRANCH  40  41
ATOM     41  O   UNL     1       2.797  -4.981  -4.815  1.00  0.00    -0.376 OA
BRANCH  41  42
ATOM     42  C   UNL     1       2.595  -5.997  -5.788  1.00  0.00     0.202 C 
BRANCH  42  43
ATOM     43  C   UNL     1       1.955  -5.576  -7.113  1.00  0.00     0.261 C 
BRANCH  43  44
ATOM     44  O   UNL     1       2.771  -4.659  -7.861  1.00  0.00    -0.460 OA
BRANCH  44  45
ATOM     45  C   UNL     1       2.226  -3.436  -8.082  1.00  0.00     0.338 C 
ATOM     46  O   UNL     1       1.116  -3.052  -7.757  1.00  0.00    -0.246 OA
BRANCH  45  47
ATOM     47  C   UNL     1       3.262  -2.539  -8.633  1.00  0.00     0.060 A 
ATOM     48  C   UNL     1       3.978  -2.877  -9.784  1.00  0.00     0.016 A 
ATOM     49  C   UNL     1       3.498  -1.321  -7.983  1.00  0.00     0.016 A 
ATOM     50  C   UNL     1       4.920  -1.980 -10.296  1.00  0.00     0.010 A 
ATOM     51  C   UNL     1       4.453  -0.436  -8.485  1.00  0.00     0.010 A 
ATOM     52  C   UNL     1       5.160  -0.753  -9.653  1.00  0.00    -0.014 A 
BRANCH  52  53
ATOM     53  C   UNL     1       6.073   0.243 -10.262  1.00  0.00     0.031 A 
ATOM     54  C   UNL     1       7.513   0.326  -9.857  1.00  0.00     0.074 A 
ATOM     55  C   UNL     1       5.585   1.082 -11.195  1.00  0.00     0.049 A 
ATOM     56  N   UNL     1       8.452   1.103 -10.329  1.00  0.00    -0.248 NA
ATOM     57  C   UNL     1       7.955  -0.573  -8.781  1.00  0.00     0.031 C 
ATOM     58  C   UNL     1       4.201   1.090 -11.668  1.00  0.00     0.029 A 
ATOM     59  N   UNL     1       6.195   2.077 -11.917  1.00  0.00    -0.354 N 
ATOM     60  C   UNL     1       9.605   0.774  -9.629  1.00  0.00     0.074 A 
ATOM     61  C   UNL     1       9.235  -0.238  -8.661  1.00  0.00     0.031 C 
ATOM     62  C   UNL     1       4.071   2.028 -12.619  1.00  0.00     0.029 A 
ATOM     63  C   UNL     1       5.355   2.700 -12.810  1.00  0.00     0.049 A 
ATOM     64  H   UNL     1       7.142   2.321 -11.807  1.00  0.00     0.167 HD
ATOM     65  C   UNL     1      10.858   1.259  -9.799  1.00  0.00     0.031 A 
ATOM     66  C   UNL     1       5.590   3.689 -13.695  1.00  0.00     0.031 A 
ATOM     67  C   UNL     1      11.214   2.270 -10.762  1.00  0.00     0.049 A 
ATOM     68  C   UNL     1       6.978   4.245 -13.832  1.00  0.00     0.074 A 
ATOM     69  C   UNL     1      12.468   2.796 -11.025  1.00  0.00     0.029 A 
ATOM     70  N   UNL     1      10.327   2.909 -11.616  1.00  0.00    -0.354 N 
ATOM     71  N   UNL     1       8.068   3.890 -13.195  1.00  0.00    -0.248 NA
ATOM     72  C   UNL     1       7.177   5.320 -14.814  1.00  0.00     0.031 C 
ATOM     73  C   UNL     1      12.331   3.792 -11.994  1.00  0.00     0.029 A 
ATOM     74  C   UNL     1      11.002   3.842 -12.385  1.00  0.00     0.049 A 
ATOM     75  H   UNL     1       9.361   2.725 -11.668  1.00  0.00     0.167 HD
ATOM     76  C   UNL     1       9.087   4.680 -13.716  1.00  0.00     0.074 A 
ATOM     77  C   UNL     1       8.486   5.530 -14.723  1.00  0.00     0.031 C 
ATOM     78  C   UNL     1      10.401   4.689 -13.387  1.00  0.00     0.031 A 
BRANCH  65  79
ATOM     79  C   UNL     1      11.962   0.695  -8.943  1.00  0.00    -0.014 A 
ATOM     80  C   UNL     1      12.601   1.511  -7.991  1.00  0.00     0.010 A 
ATOM     81  C   UNL     1      12.451  -0.604  -9.171  1.00  0.00     0.010 A 
ATOM     82  C   UNL     1      13.723   1.047  -7.298  1.00  0.00     0.020 A 
ATOM     83  C   UNL     1      13.557  -1.080  -8.461  1.00  0.00     0.020 A 
ATOM     84  C   UNL     1      14.198  -0.244  -7.545  1.00  0.00     0.054 A 
BRANCH  84  85
ATOM     85  S   UNL     1      15.660  -0.830  -6.644  1.00  0.00     0.124 S 
ATOM     86  O   UNL     1      16.748  -0.176  -7.363  1.00  0.00    -0.237 OA
ATOM     87  O   UNL     1      15.415  -0.345  -5.287  1.00  0.00    -0.237 OA
ATOM     88  O   UNL     1      15.591  -2.282  -6.796  1.00  0.00    -0.744 OA
ENDBRANCH  84  85
ENDBRANCH  65  79
BRANCH  66  89
ATOM     89  C   UNL     1       4.473   4.152 -14.560  1.00  0.00    -0.014 A 
ATOM     90  C   UNL     1       3.399   4.878 -14.011  1.00  0.00     0.010 A 
ATOM     91  C   UNL     1       4.422   3.769 -15.911  1.00  0.00     0.010 A 
ATOM     92  C   UNL     1       2.268   5.159 -14.781  1.00  0.00     0.020 A 
ATOM     93  C   UNL     1       3.302   4.070 -16.691  1.00  0.00     0.020 A 
ATOM     94  C   UNL     1       2.220   4.736 -16.112  1.00  0.00     0.054 A 
BRANCH  94  95
ATOM     95  S   UNL     1       0.712   5.043 -17.072  1.00  0.00     0.124 S 
ATOM     96  O   UNL     1      -0.187   4.017 -16.552  1.00  0.00    -0.237 OA
ATOM     97  O   UNL     1       0.376   6.418 -16.709  1.00  0.00    -0.237 OA
ATOM     98  O   UNL     1       1.144   4.855 -18.455  1.00  0.00    -0.744 OA
ENDBRANCH  94  95
ENDBRANCH  66  89
BRANCH  78  99
ATOM     99  C   UNL     1      11.317   5.643 -14.109  1.00  0.00    -0.014 A 
ATOM    100  C   UNL     1      12.293   5.137 -14.988  1.00  0.00     0.010 A 
ATOM    101  C   UNL     1      11.320   7.013 -13.796  1.00  0.00     0.010 A 
ATOM    102  C   UNL     1      13.287   5.974 -15.503  1.00  0.00     0.020 A 
ATOM    103  C   UNL     1      12.299   7.858 -14.329  1.00  0.00     0.020 A 
ATOM    104  C   UNL     1      13.293   7.327 -15.154  1.00  0.00     0.054 A 
BRANCH 104 105
ATOM    105  S   UNL     1      14.631   8.384 -15.774  1.00  0.00     0.124 S 
ATOM    106  O   UNL     1      15.748   8.001 -14.915  1.00  0.00    -0.237 OA
ATOM    107  O   UNL     1      14.743   7.975 -17.172  1.00  0.00    -0.237 OA
ATOM    108  O   UNL     1      14.120   9.738 -15.569  1.00  0.00    -0.744 OA
ENDBRANCH 104 105
ENDBRANCH  78  99
ENDBRANCH  52  53
ENDBRANCH  45  47
ENDBRANCH  44  45
ENDBRANCH  43  44
ENDBRANCH  42  43
ENDBRANCH  41  42
ENDBRANCH  40  41
ENDBRANCH   1  40
TORSDOF 23
