REMARK SMILES O=C(OCCOCCOCCOC(=O)[C@@H]1CC=CC[C@@H]1C(=O)Nc1sc2c(c1C(=O)N1CCCCC1)CCCC2)c1ccc(-c2c3nc(c(-c4ccc(S(=O)(=O)[O-])cc4)c4ccc([nH]4)c(-c4ccc(S(=O)(=O)[O-])cc4)c4nc(c(-c5ccc(S(=O)(=O)[O-])cc5)c5ccc2[nH]5)C=C4)C=C3)cc1
REMARK SMILES IDX 7 1 6 2 5 3 4 4 3 5 2 6 1 7 41 8 42 9 100 10 43 11 99 12
REMARK SMILES IDX 44 13 45 14 46 15 93 16 47 17 98 18 92 19 94 20 48 21 97 22
REMARK SMILES IDX 91 23 90 24 49 26 79 27 60 28 78 29 61 30 64 31 77 32 95 33
REMARK SMILES IDX 62 34 63 35 76 37 96 38 65 39 50 40 51 41 59 42 52 43 58 44
REMARK SMILES IDX 53 45 54 46 55 47 56 48 57 49 80 50 81 51 89 52 82 53 88 54
REMARK SMILES IDX 83 55 84 56 85 57 86 58 87 59 66 60 67 61 75 62 68 63 74 64
REMARK SMILES IDX 69 65 70 66 71 67 72 68 73 69 8 70 9 71 10 72 11 73 12 74
REMARK SMILES IDX 13 75 14 76 15 77 16 78 20 79 17 80 19 81 18 82 21 83 22 84
REMARK SMILES IDX 23 85 24 87 25 88 28 89 26 90 27 91 40 92 37 93 39 94 38 95
REMARK SMILES IDX 29 96 30 97 31 98 32 99 36 100 33 101 35 102 34 103
REMARK H PARENT 94 25 64 36 23 86
REMARK Flexibility Score: inf
ROOT
ATOM      1  C   UNL     1      -0.585  -0.517  -1.141  1.00  0.00     0.188 C 
ENDROOT
BRANCH   1   2
ATOM      2  O   UNL     1      -0.739  -1.844  -1.664  1.00  0.00    -0.376 OA
BRANCH   2   3
ATOM      3  C   UNL     1      -1.679  -2.643  -0.936  1.00  0.00     0.202 C 
BRANCH   3   4
ATOM      4  C   UNL     1      -1.201  -3.172   0.426  1.00  0.00     0.261 C 
BRANCH   4   5
ATOM      5  O   UNL     1      -0.332  -2.259   1.108  1.00  0.00    -0.460 OA
BRANCH   5   6
ATOM      6  C   UNL     1       1.024  -2.236   1.104  1.00  0.00     0.338 C 
ATOM      7  O   UNL     1       1.588  -1.399   1.809  1.00  0.00    -0.246 OA
BRANCH   6   8
ATOM      8  C   UNL     1       1.880  -3.166   0.297  1.00  0.00     0.060 A 
ATOM      9  C   UNL     1       1.484  -3.861  -0.850  1.00  0.00     0.016 A 
ATOM     10  C   UNL     1       3.214  -3.305   0.716  1.00  0.00     0.016 A 
ATOM     11  C   UNL     1       2.334  -4.759  -1.490  1.00  0.00     0.010 A 
ATOM     12  C   UNL     1       4.090  -4.167   0.051  1.00  0.00     0.010 A 
ATOM     13  C   UNL     1       3.633  -4.935  -1.026  1.00  0.00    -0.014 A 
BRANCH  13  14
ATOM     14  C   UNL     1       4.455  -6.040  -1.552  1.00  0.00     0.031 A 
ATOM     15  C   UNL     1       4.651  -7.243  -0.683  1.00  0.00     0.074 A 
ATOM     16  C   UNL     1       4.969  -5.999  -2.792  1.00  0.00     0.049 A 
ATOM     17  N   UNL     1       5.440  -8.266  -0.856  1.00  0.00    -0.248 NA
ATOM     18  C   UNL     1       3.832  -7.304   0.540  1.00  0.00     0.031 C 
ATOM     19  C   UNL     1       4.712  -4.948  -3.774  1.00  0.00     0.029 A 
ATOM     20  N   UNL     1       5.821  -6.861  -3.434  1.00  0.00    -0.354 N 
ATOM     21  C   UNL     1       5.236  -9.081   0.250  1.00  0.00     0.074 A 
ATOM     22  C   UNL     1       4.258  -8.428   1.092  1.00  0.00     0.031 C 
ATOM     23  C   UNL     1       5.419  -5.215  -4.884  1.00  0.00     0.029 A 
ATOM     24  C   UNL     1       6.240  -6.391  -4.655  1.00  0.00     0.049 A 
ATOM     25  H   UNL     1       6.104  -7.726  -3.059  1.00  0.00     0.167 HD
ATOM     26  C   UNL     1       5.824 -10.265   0.534  1.00  0.00     0.031 A 
ATOM     27  C   UNL     1       7.225  -6.811  -5.471  1.00  0.00     0.031 A 
ATOM     28  C   UNL     1       6.817 -10.869  -0.308  1.00  0.00     0.049 A 
ATOM     29  C   UNL     1       7.982  -8.042  -5.077  1.00  0.00     0.074 A 
ATOM     30  C   UNL     1       7.519 -12.043  -0.114  1.00  0.00     0.029 A 
ATOM     31  N   UNL     1       7.260 -10.326  -1.509  1.00  0.00    -0.354 N 
ATOM     32  N   UNL     1       7.817  -8.789  -4.010  1.00  0.00    -0.248 NA
ATOM     33  C   UNL     1       9.037  -8.501  -5.985  1.00  0.00     0.031 C 
ATOM     34  C   UNL     1       8.423 -12.183  -1.173  1.00  0.00     0.029 A 
ATOM     35  C   UNL     1       8.243 -11.128  -2.057  1.00  0.00     0.049 A 
ATOM     36  H   UNL     1       6.922  -9.493  -1.910  1.00  0.00     0.167 HD
ATOM     37  C   UNL     1       8.723  -9.830  -4.134  1.00  0.00     0.074 A 
ATOM     38  C   UNL     1       9.441  -9.610  -5.377  1.00  0.00     0.031 C 
ATOM     39  C   UNL     1       8.929 -10.881  -3.303  1.00  0.00     0.031 A 
BRANCH  26  40
ATOM     40  C   UNL     1       5.459 -10.897   1.849  1.00  0.00    -0.014 A 
ATOM     41  C   UNL     1       4.180 -11.441   2.075  1.00  0.00     0.010 A 
ATOM     42  C   UNL     1       6.387 -10.867   2.904  1.00  0.00     0.010 A 
ATOM     43  C   UNL     1       3.812 -11.870   3.354  1.00  0.00     0.020 A 
ATOM     44  C   UNL     1       6.032 -11.321   4.177  1.00  0.00     0.020 A 
ATOM     45  C   UNL     1       4.736 -11.789   4.401  1.00  0.00     0.054 A 
BRANCH  45  46
ATOM     46  S   UNL     1       4.216 -12.289   6.065  1.00  0.00     0.124 S 
ATOM     47  O   UNL     1       3.380 -11.160   6.468  1.00  0.00    -0.237 OA
ATOM     48  O   UNL     1       3.502 -13.539   5.818  1.00  0.00    -0.237 OA
ATOM     49  O   UNL     1       5.474 -12.425   6.794  1.00  0.00    -0.744 OA
ENDBRANCH  45  46
ENDBRANCH  26  40
BRANCH  27  50
ATOM     50  C   UNL     1       7.572  -6.004  -6.675  1.00  0.00    -0.014 A 
ATOM     51  C   UNL     1       7.251  -6.446  -7.968  1.00  0.00     0.010 A 
ATOM     52  C   UNL     1       8.159  -4.731  -6.516  1.00  0.00     0.010 A 
ATOM     53  C   UNL     1       7.506  -5.631  -9.078  1.00  0.00     0.020 A 
ATOM     54  C   UNL     1       8.394  -3.905  -7.619  1.00  0.00     0.020 A 
ATOM     55  C   UNL     1       8.071  -4.364  -8.896  1.00  0.00     0.054 A 
BRANCH  55  56
ATOM     56  S   UNL     1       8.332  -3.303 -10.347  1.00  0.00     0.124 S 
ATOM     57  O   UNL     1       9.448  -3.969 -11.011  1.00  0.00    -0.237 OA
ATOM     58  O   UNL     1       7.046  -3.390 -11.033  1.00  0.00    -0.237 OA
ATOM     59  O   UNL     1       8.640  -1.998  -9.765  1.00  0.00    -0.744 OA
ENDBRANCH  55  56
ENDBRANCH  27  50
BRANCH  39  60
ATOM     60  C   UNL     1       9.931 -11.910  -3.735  1.00  0.00    -0.014 A 
ATOM     61  C   UNL     1      11.310 -11.683  -3.603  1.00  0.00     0.010 A 
ATOM     62  C   UNL     1       9.469 -13.165  -4.171  1.00  0.00     0.010 A 
ATOM     63  C   UNL     1      12.216 -12.704  -3.896  1.00  0.00     0.020 A 
ATOM     64  C   UNL     1      10.370 -14.194  -4.441  1.00  0.00     0.020 A 
ATOM     65  C   UNL     1      11.739 -13.955  -4.302  1.00  0.00     0.054 A 
BRANCH  65  66
ATOM     66  S   UNL     1      12.928 -15.297  -4.569  1.00  0.00     0.124 S 
ATOM     67  O   UNL     1      13.528 -14.922  -5.846  1.00  0.00    -0.237 OA
ATOM     68  O   UNL     1      13.803 -15.186  -3.404  1.00  0.00    -0.237 OA
ATOM     69  O   UNL     1      12.094 -16.497  -4.600  1.00  0.00    -0.744 OA
ENDBRANCH  65  66
ENDBRANCH  39  60
ENDBRANCH  13  14
ENDBRANCH   6   8
ENDBRANCH   5   6
ENDBRANCH   4   5
ENDBRANCH   3   4
ENDBRANCH   2   3
ENDBRANCH   1   2
BRANCH   1  70
ATOM     70  C   UNL     1      -0.496   0.553  -2.229  1.00  0.00     0.188 C 
BRANCH  70  71
ATOM     71  O   UNL     1      -1.709   0.807  -2.938  1.00  0.00    -0.376 OA
BRANCH  71  72
ATOM     72  C   UNL     1      -2.246  -0.271  -3.702  1.00  0.00     0.202 C 
BRANCH  72  73
ATOM     73  C   UNL     1      -1.466  -0.668  -4.956  1.00  0.00     0.261 C 
BRANCH  73  74
ATOM     74  O   UNL     1      -0.127  -1.093  -4.662  1.00  0.00    -0.463 OA
BRANCH  74  75
ATOM     75  C   UNL     1       0.866  -0.420  -5.302  1.00  0.00     0.310 C 
ATOM     76  O   UNL     1       0.678   0.524  -6.069  1.00  0.00    -0.252 OA
BRANCH  75  77
ATOM     77  C   UNL     1       2.237  -0.959  -4.917  1.00  0.00     0.116 C 
ATOM     78  C   UNL     1       3.100   0.260  -4.515  1.00  0.00     0.043 C 
ATOM     79  C   UNL     1       2.812  -1.932  -5.976  1.00  0.00     0.097 C 
ATOM     80  C   UNL     1       4.527   0.264  -4.937  1.00  0.00    -0.030 C 
ATOM     81  C   UNL     1       4.341  -1.883  -6.176  1.00  0.00     0.041 C 
ATOM     82  C   UNL     1       5.075  -0.683  -5.695  1.00  0.00    -0.030 C 
BRANCH  79  83
ATOM     83  C   UNL     1       2.111  -1.849  -7.330  1.00  0.00     0.229 C 
ATOM     84  O   UNL     1       2.517  -1.038  -8.172  1.00  0.00    -0.274 OA
ATOM     85  N   UNL     1       1.017  -2.581  -7.689  1.00  0.00    -0.317 N 
ATOM     86  H   UNL     1       0.763  -2.421  -8.626  1.00  0.00     0.170 HD
BRANCH  85  87
ATOM     87  C   UNL     1       0.168  -3.493  -7.076  1.00  0.00     0.108 A 
ATOM     88  S   UNL     1       0.401  -4.049  -5.492  1.00  0.00    -0.122 S 
ATOM     89  C   UNL     1      -0.963  -4.070  -7.664  1.00  0.00     0.078 A 
ATOM     90  C   UNL     1      -1.113  -4.788  -5.437  1.00  0.00     0.011 A 
ATOM     91  C   UNL     1      -1.739  -4.799  -6.667  1.00  0.00    -0.019 A 
ATOM     92  C   UNL     1      -1.687  -5.322  -4.164  1.00  0.00     0.047 C 
ATOM     93  C   UNL     1      -3.069  -5.477  -6.838  1.00  0.00     0.037 C 
ATOM     94  C   UNL     1      -2.781  -6.351  -4.459  1.00  0.00     0.006 C 
ATOM     95  C   UNL     1      -3.760  -5.822  -5.510  1.00  0.00     0.005 C 
BRANCH  89  96
ATOM     96  C   UNL     1      -1.296  -3.862  -9.084  1.00  0.00     0.257 C 
ATOM     97  O   UNL     1      -0.843  -2.909  -9.739  1.00  0.00    -0.269 OA
ATOM     98  N   UNL     1      -2.098  -4.820  -9.669  1.00  0.00    -0.339 N 
ATOM     99  C   UNL     1      -1.466  -5.855 -10.479  1.00  0.00     0.120 C 
ATOM    100  C   UNL     1      -3.496  -4.519  -9.937  1.00  0.00     0.120 C 
ATOM    101  C   UNL     1      -1.781  -5.707 -11.969  1.00  0.00     0.022 C 
ATOM    102  C   UNL     1      -3.803  -4.353 -11.418  1.00  0.00     0.022 C 
ATOM    103  C   UNL     1      -3.282  -5.551 -12.204  1.00  0.00     0.004 C 
ENDBRANCH  89  96
ENDBRANCH  85  87
ENDBRANCH  79  83
ENDBRANCH  75  77
ENDBRANCH  74  75
ENDBRANCH  73  74
ENDBRANCH  72  73
ENDBRANCH  71  72
ENDBRANCH  70  71
ENDBRANCH   1  70
TORSDOF 23
