REMARK SMILES Cc1ccc([S@TB4](=O)(=O)n2cc(C(=O)C(=O)NCC(=O)N[C@@H](Cc3c[nH]c4ccccc34)C(=O)OCCOCCOCCOC(=O)c3ccc(-c4c5nc(c(-c6ccc(S(=O)(=O)[O-])cc6)c6ccc([nH]6)c(-c6ccc(S(=O)(=O)[O-])cc6)c6nc(c(-c7ccc(S(=O)(=O)[O-])cc7)c7ccc4[nH]7)C=C6)C=C5)cc3)c3ccccc32)cc1
REMARK SMILES IDX 36 1 35 2 34 3 32 4 33 5 21 6 20 7 18 8 19 9 17 11 16 12
REMARK SMILES IDX 14 13 15 14 12 16 13 17 11 18 9 19 10 20 111 21 106 22
REMARK SMILES IDX 110 23 107 24 109 25 108 26 6 27 7 28 8 29 5 30 1 31 2 32
REMARK SMILES IDX 3 33 113 34 4 35 112 36 22 37 23 38 24 39 31 40 25 41 26 42
REMARK SMILES IDX 30 43 27 45 29 46 28 47 37 48 38 49 39 50 40 51 41 52 42 53
REMARK SMILES IDX 43 54 44 55 45 56 46 57 47 58 105 59 48 60 104 61 49 62
REMARK SMILES IDX 50 63 51 64 98 65 52 66 103 67 97 68 99 69 53 70 102 71
REMARK SMILES IDX 96 72 95 73 54 75 84 76 65 77 83 78 66 79 69 80 82 81 100 82
REMARK SMILES IDX 67 83 68 84 81 86 101 87 70 88 55 89 56 90 64 91 57 92 63 93
REMARK SMILES IDX 58 94 59 95 60 96 61 97 62 98 85 99 86 100 94 101 87 102
REMARK SMILES IDX 93 103 88 104 89 105 90 106 91 107 92 108 71 109 72 110
REMARK SMILES IDX 80 111 73 112 79 113 74 114 75 115 76 116 77 117 78 118
REMARK H PARENT 20 10 16 15 25 44 99 74 69 85
REMARK Flexibility Score: inf
ROOT
ATOM      1  C   UNL     1      -9.550  -3.826   4.633  1.00  0.00     0.202 C 
ENDROOT
BRANCH   1   2
ATOM      2  C   UNL     1      -9.779  -2.343   4.230  1.00  0.00     0.261 C 
BRANCH   2   3
ATOM      3  O   UNL     1      -9.083  -1.276   2.886  1.00  0.00    -0.462 OA
BRANCH   3   4
ATOM      4  C   UNL     1      -8.448   0.266   2.633  1.00  0.00     0.329 C 
ATOM      5  O   UNL     1      -7.237   0.408   2.416  1.00  0.00    -0.250 OA
BRANCH   4   6
ATOM      6  C   UNL     1      -9.245   1.905   2.607  1.00  0.00     0.196 C 
BRANCH   6   7
ATOM      7  N   UNL     1     -10.609   2.424   2.142  1.00  0.00    -0.341 N 
ATOM      8  C   UNL     1     -11.277   2.653   0.976  1.00  0.00     0.240 C 
ATOM      9  O   UNL     1     -12.423   3.112   1.073  1.00  0.00    -0.273 OA
ATOM     10  H   UNL     1     -11.169   2.664   2.914  1.00  0.00     0.164 HD
BRANCH   8  11
ATOM     11  C   UNL     1     -10.693   2.353  -0.395  1.00  0.00     0.216 C 
BRANCH  11  12
ATOM     12  N   UNL     1      -9.548   3.229  -0.598  1.00  0.00    -0.340 N 
ATOM     13  C   UNL     1      -8.227   2.899  -0.820  1.00  0.00     0.292 C 
ATOM     14  O   UNL     1      -7.367   3.769  -0.744  1.00  0.00    -0.265 OA
ATOM     15  H   UNL     1      -9.744   4.194  -0.572  1.00  0.00     0.164 HD
BRANCH  13  16
ATOM     16  C   UNL     1      -7.854   1.459  -1.204  1.00  0.00     0.252 C 
ATOM     17  O   UNL     1      -8.740   0.800  -1.743  1.00  0.00    -0.283 OA
BRANCH  16  18
ATOM     18  C   UNL     1      -6.530   0.873  -0.956  1.00  0.00     0.055 A 
ATOM     19  N   UNL     1      -4.505   0.411  -0.154  1.00  0.00    -0.218 N 
ATOM     20  C   UNL     1      -5.390   1.440  -0.361  1.00  0.00     0.126 A 
ATOM     21  C   UNL     1      -5.075  -0.798  -0.556  1.00  0.00     0.072 A 
ATOM     22  C   UNL     1      -6.179  -0.481  -1.315  1.00  0.00     0.013 A 
ATOM     23  C   UNL     1      -4.579  -2.133  -0.420  1.00  0.00     0.029 A 
ATOM     24  C   UNL     1      -6.735  -1.542  -2.067  1.00  0.00     0.011 A 
ATOM     25  C   UNL     1      -5.129  -3.148  -1.162  1.00  0.00     0.002 A 
ATOM     26  C   UNL     1      -6.173  -2.843  -2.011  1.00  0.00     0.001 A 
BRANCH  19  27
ATOM     27  S   UNL     1      -2.862   0.246  -0.231  1.00  0.00     0.083 S 
ATOM     28  O   UNL     1      -2.772  -0.243  -1.608  1.00  0.00    -0.149 OA
ATOM     29  O   UNL     1      -2.851  -0.588   0.975  1.00  0.00    -0.149 OA
BRANCH  27  30
ATOM     30  C   UNL     1      -1.198   0.548  -0.045  1.00  0.00     0.111 A 
ATOM     31  C   UNL     1       3.047   0.166   0.025  1.00  0.00     0.044 C 
ATOM     32  C   UNL     1       1.565   0.325  -0.004  1.00  0.00    -0.051 A 
ATOM     33  C   UNL     1       0.834  -0.844  -0.071  1.00  0.00     0.005 A 
ATOM     34  C   UNL     1       0.912   1.587   0.030  1.00  0.00     0.005 A 
ATOM     35  C   UNL     1      -0.522  -0.720  -0.108  1.00  0.00     0.030 A 
ATOM     36  C   UNL     1      -0.489   1.715   0.006  1.00  0.00     0.030 A 
ENDBRANCH  27  30
ENDBRANCH  19  27
ENDBRANCH  16  18
ENDBRANCH  13  16
ENDBRANCH  11  12
ENDBRANCH   8  11
ENDBRANCH   6   7
BRANCH   6  37
ATOM     37  C   UNL     1      -8.709   3.009   3.765  1.00  0.00     0.074 C 
BRANCH  37  38
ATOM     38  C   UNL     1      -9.401   3.242   5.359  1.00  0.00    -0.020 A 
ATOM     39  C   UNL     1     -10.309   2.094   6.831  1.00  0.00     0.087 A 
ATOM     40  C   UNL     1      -9.702   5.026   5.997  1.00  0.00     0.003 A 
ATOM     41  N   UNL     1     -10.986   3.310   7.975  1.00  0.00    -0.361 N 
ATOM     42  C   UNL     1     -10.624   4.960   7.407  1.00  0.00     0.046 A 
ATOM     43  C   UNL     1      -9.604   6.260   5.343  1.00  0.00     0.010 A 
ATOM     44  H   UNL     1     -11.484   3.094   8.796  1.00  0.00     0.166 HD
ATOM     45  C   UNL     1     -11.381   6.093   7.728  1.00  0.00     0.026 A 
ATOM     46  C   UNL     1     -10.310   7.347   5.886  1.00  0.00     0.001 A 
ATOM     47  C   UNL     1     -11.169   7.260   7.000  1.00  0.00     0.002 A 
ENDBRANCH  37  38
ENDBRANCH   6  37
ENDBRANCH   4   6
ENDBRANCH   3   4
ENDBRANCH   2   3
ENDBRANCH   1   2
BRANCH   1  48
ATOM     48  O   UNL     1     -10.104  -4.848   3.845  1.00  0.00    -0.376 OA
BRANCH  48  49
ATOM     49  C   UNL     1     -10.270  -4.372   2.539  1.00  0.00     0.188 C 
BRANCH  49  50
ATOM     50  C   UNL     1     -11.446  -3.447   2.333  1.00  0.00     0.188 C 
BRANCH  50  51
ATOM     51  O   UNL     1     -12.041  -2.915   3.499  1.00  0.00    -0.376 OA
BRANCH  51  52
ATOM     52  C   UNL     1     -13.059  -3.478   4.260  1.00  0.00     0.202 C 
BRANCH  52  53
ATOM     53  C   UNL     1     -14.082  -3.955   3.291  1.00  0.00     0.261 C 
BRANCH  53  54
ATOM     54  O   UNL     1     -14.752  -2.882   2.522  1.00  0.00    -0.460 OA
BRANCH  54  55
ATOM     55  C   UNL     1     -14.236  -1.868   1.756  1.00  0.00     0.338 C 
ATOM     56  O   UNL     1     -14.599  -1.712   0.593  1.00  0.00    -0.246 OA
BRANCH  55  57
ATOM     57  C   UNL     1     -13.318  -0.851   2.362  1.00  0.00     0.060 A 
ATOM     58  C   UNL     1     -12.230  -0.487   1.608  1.00  0.00     0.016 A 
ATOM     59  C   UNL     1     -13.336  -0.487   3.712  1.00  0.00     0.016 A 
ATOM     60  C   UNL     1     -11.057  -0.160   2.298  1.00  0.00     0.010 A 
ATOM     61  C   UNL     1     -12.129  -0.201   4.410  1.00  0.00     0.010 A 
ATOM     62  C   UNL     1     -10.883  -0.085   3.753  1.00  0.00    -0.014 A 
BRANCH  62  63
ATOM     63  C   UNL     1      -9.394  -0.041   4.797  1.00  0.00     0.031 A 
ATOM     64  C   UNL     1      -9.440   1.246   5.334  1.00  0.00     0.074 A 
ATOM     65  C   UNL     1      -8.103  -0.745   5.060  1.00  0.00     0.049 A 
ATOM     66  N   UNL     1      -8.436   1.823   6.265  1.00  0.00    -0.248 NA
ATOM     67  C   UNL     1     -11.108   2.251   5.014  1.00  0.00     0.031 C 
ATOM     68  C   UNL     1      -7.272  -1.017   6.261  1.00  0.00     0.029 A 
ATOM     69  N   UNL     1      -7.523  -1.796   4.295  1.00  0.00    -0.354 N 
ATOM     70  C   UNL     1      -9.116   3.321   7.101  1.00  0.00     0.074 A 
ATOM     71  C   UNL     1     -11.019   3.467   6.012  1.00  0.00     0.031 C 
ATOM     72  C   UNL     1      -6.261  -1.916   6.011  1.00  0.00     0.029 A 
ATOM     73  C   UNL     1      -6.333  -2.359   4.630  1.00  0.00     0.049 A 
ATOM     74  H   UNL     1      -7.999  -2.125   3.498  1.00  0.00     0.167 HD
ATOM     75  C   UNL     1      -8.425   3.360   8.389  1.00  0.00     0.031 A 
ATOM     76  C   UNL     1      -5.416  -2.506   3.626  1.00  0.00     0.031 A 
ATOM     77  C   UNL     1      -7.191   2.478   8.285  1.00  0.00     0.049 A 
ATOM     78  C   UNL     1      -4.625  -1.166   3.893  1.00  0.00     0.074 A 
ATOM     79  C   UNL     1      -6.872   1.230   8.817  1.00  0.00     0.029 A 
ATOM     80  N   UNL     1      -6.269   2.659   7.241  1.00  0.00    -0.354 N 
ATOM     81  N   UNL     1      -5.149  -0.092   4.466  1.00  0.00    -0.248 NA
ATOM     82  C   UNL     1      -3.167  -1.093   3.864  1.00  0.00     0.031 C 
ATOM     83  C   UNL     1      -5.726   0.713   8.124  1.00  0.00     0.029 A 
ATOM     84  C   UNL     1      -5.435   1.550   7.051  1.00  0.00     0.049 A 
ATOM     85  H   UNL     1      -6.214   3.480   6.700  1.00  0.00     0.167 HD
ATOM     86  C   UNL     1      -4.166   0.634   5.090  1.00  0.00     0.074 A 
ATOM     87  C   UNL     1      -2.936   0.015   4.592  1.00  0.00     0.031 C 
ATOM     88  C   UNL     1      -4.326   1.588   6.074  1.00  0.00     0.031 A 
BRANCH  75  89
ATOM     89  C   UNL     1      -8.895   3.740   9.871  1.00  0.00    -0.014 A 
ATOM     90  C   UNL     1      -8.187   3.337  11.025  1.00  0.00     0.010 A 
ATOM     91  C   UNL     1     -10.057   4.447  10.218  1.00  0.00     0.010 A 
ATOM     92  C   UNL     1      -8.630   3.635  12.354  1.00  0.00     0.020 A 
ATOM     93  C   UNL     1     -10.562   4.703  11.488  1.00  0.00     0.020 A 
ATOM     94  C   UNL     1      -9.821   4.329  12.570  1.00  0.00     0.054 A 
BRANCH  94  95
ATOM     95  S   UNL     1     -10.398   4.851  14.198  1.00  0.00     0.124 S 
ATOM     96  O   UNL     1     -10.507   3.586  14.916  1.00  0.00    -0.237 OA
ATOM     97  O   UNL     1      -9.334   5.750  14.629  1.00  0.00    -0.237 OA
ATOM     98  O   UNL     1     -11.679   5.506  13.920  1.00  0.00    -0.744 OA
ENDBRANCH  94  95
ENDBRANCH  75  89
BRANCH  76  99
ATOM     99  C   UNL     1      -6.101  -3.010   2.286  1.00  0.00    -0.014 A 
ATOM    100  C   UNL     1      -6.535  -4.319   1.943  1.00  0.00     0.010 A 
ATOM    101  C   UNL     1      -6.712  -2.051   1.498  1.00  0.00     0.010 A 
ATOM    102  C   UNL     1      -7.539  -4.582   0.914  1.00  0.00     0.020 A 
ATOM    103  C   UNL     1      -7.814  -2.255   0.629  1.00  0.00     0.020 A 
ATOM    104  C   UNL     1      -8.206  -3.526   0.277  1.00  0.00     0.054 A 
BRANCH 104 105
ATOM    105  S   UNL     1      -9.665  -3.685  -0.848  1.00  0.00     0.124 S 
ATOM    106  O   UNL     1      -9.071  -3.911  -2.158  1.00  0.00    -0.237 OA
ATOM    107  O   UNL     1     -10.401  -4.825  -0.312  1.00  0.00    -0.237 OA
ATOM    108  O   UNL     1     -10.352  -2.404  -0.677  1.00  0.00    -0.744 OA
ENDBRANCH 104 105
ENDBRANCH  76  99
BRANCH  88 109
ATOM    109  C   UNL     1      -3.285   2.659   6.312  1.00  0.00    -0.014 A 
ATOM    110  C   UNL     1      -2.257   2.939   5.405  1.00  0.00     0.010 A 
ATOM    111  C   UNL     1      -3.417   3.532   7.421  1.00  0.00     0.010 A 
ATOM    112  C   UNL     1      -1.325   3.940   5.665  1.00  0.00     0.020 A 
ATOM    113  C   UNL     1      -2.563   4.606   7.630  1.00  0.00     0.020 A 
ATOM    114  C   UNL     1      -1.486   4.766   6.776  1.00  0.00     0.054 A 
BRANCH 114 115
ATOM    115  S   UNL     1      -0.268   6.053   7.076  1.00  0.00     0.124 S 
ATOM    116  O   UNL     1       0.891   5.269   7.494  1.00  0.00    -0.237 OA
ATOM    117  O   UNL     1      -0.158   6.689   5.765  1.00  0.00    -0.237 OA
ATOM    118  O   UNL     1      -0.877   6.877   8.116  1.00  0.00    -0.744 OA
ENDBRANCH 114 115
ENDBRANCH  88 109
ENDBRANCH  62  63
ENDBRANCH  55  57
ENDBRANCH  54  55
ENDBRANCH  53  54
ENDBRANCH  52  53
ENDBRANCH  51  52
ENDBRANCH  50  51
ENDBRANCH  49  50
ENDBRANCH  48  49
ENDBRANCH   1  48
TORSDOF 29
