REMARK SMILES O=C(OCCOCCOCCOC(=O)[C@@H]1C[N@@H+](CCOc2ccc(F)cc2)C[C@H]1C1CC1)c1ccc(-c2c3nc(c(-c4ccc(S(=O)(=O)[O-])cc4)c4ccc([nH]4)c(-c4ccc(S(=O)(=O)[O-])cc4)c4nc(c(-c5ccc(S(=O)(=O)[O-])cc5)c5ccc2[nH]5)C=C4)C=C3)cc1
REMARK SMILES IDX 8 1 7 2 6 3 5 4 4 5 3 6 2 7 1 8 33 9 34 10 92 11 35 12 91 13
REMARK SMILES IDX 36 14 37 15 38 16 85 17 39 18 90 19 84 20 86 21 40 22 89 23
REMARK SMILES IDX 83 24 82 25 41 27 71 28 52 29 70 30 53 31 56 32 69 33 87 34
REMARK SMILES IDX 54 35 55 36 68 38 88 39 57 40 42 41 43 42 51 43 44 44 50 45
REMARK SMILES IDX 45 46 46 47 47 48 48 49 49 50 72 51 73 52 81 53 74 54 80 55
REMARK SMILES IDX 75 56 76 57 77 58 78 59 79 60 58 61 59 62 67 63 60 64 66 65
REMARK SMILES IDX 61 66 62 67 63 68 64 69 65 70 9 71 10 72 11 73 12 74 13 75
REMARK SMILES IDX 14 76 15 77 16 78 29 79 17 80 28 81 30 83 31 84 32 85 18 86
REMARK SMILES IDX 19 87 20 88 21 89 22 90 27 91 23 92 26 93 24 94 25 95
REMARK H PARENT 86 26 56 37 17 82
REMARK Flexibility Score: inf
ROOT
ATOM      1  C   UNL     1       2.328   3.323   0.927  1.00  0.00     0.188 C 
ENDROOT
BRANCH   1   2
ATOM      2  C   UNL     1       2.649   2.071   0.098  1.00  0.00     0.188 C 
BRANCH   2   3
ATOM      3  O   UNL     1       3.972   1.554   0.296  1.00  0.00    -0.376 OA
BRANCH   3   4
ATOM      4  C   UNL     1       4.726   1.449  -0.919  1.00  0.00     0.202 C 
BRANCH   4   5
ATOM      5  C   UNL     1       4.406   0.225  -1.791  1.00  0.00     0.261 C 
BRANCH   5   6
ATOM      6  O   UNL     1       3.059  -0.244  -1.632  1.00  0.00    -0.460 OA
BRANCH   6   7
ATOM      7  C   UNL     1       2.572  -1.151  -0.747  1.00  0.00     0.338 C 
ATOM      8  O   UNL     1       1.370  -1.414  -0.801  1.00  0.00    -0.246 OA
BRANCH   7   9
ATOM      9  C   UNL     1       3.401  -1.870   0.276  1.00  0.00     0.060 A 
ATOM     10  C   UNL     1       4.685  -1.507   0.680  1.00  0.00     0.016 A 
ATOM     11  C   UNL     1       2.815  -2.985   0.909  1.00  0.00     0.016 A 
ATOM     12  C   UNL     1       5.406  -2.271   1.590  1.00  0.00     0.010 A 
ATOM     13  C   UNL     1       3.509  -3.721   1.880  1.00  0.00     0.010 A 
ATOM     14  C   UNL     1       4.825  -3.380   2.200  1.00  0.00    -0.014 A 
BRANCH  14  15
ATOM     15  C   UNL     1       5.670  -4.182   3.110  1.00  0.00     0.031 A 
ATOM     16  C   UNL     1       6.279  -5.437   2.596  1.00  0.00     0.074 A 
ATOM     17  C   UNL     1       6.047  -3.682   4.302  1.00  0.00     0.049 A 
ATOM     18  N   UNL     1       7.170  -6.193   3.171  1.00  0.00    -0.248 NA
ATOM     19  C   UNL     1       5.893  -5.860   1.240  1.00  0.00     0.031 C 
ATOM     20  C   UNL     1       5.625  -2.380   4.784  1.00  0.00     0.029 A 
ATOM     21  N   UNL     1       6.865  -4.139   5.298  1.00  0.00    -0.354 N 
ATOM     22  C   UNL     1       7.498  -7.150   2.228  1.00  0.00     0.074 A 
ATOM     23  C   UNL     1       6.668  -6.920   1.066  1.00  0.00     0.031 C 
ATOM     24  C   UNL     1       6.156  -2.135   5.987  1.00  0.00     0.029 A 
ATOM     25  C   UNL     1       6.932  -3.290   6.383  1.00  0.00     0.049 A 
ATOM     26  H   UNL     1       7.357  -4.990   5.247  1.00  0.00     0.167 HD
ATOM     27  C   UNL     1       8.439  -8.113   2.328  1.00  0.00     0.031 A 
ATOM     28  C   UNL     1       7.533  -3.427   7.578  1.00  0.00     0.031 A 
ATOM     29  C   UNL     1       9.199  -8.349   3.524  1.00  0.00     0.049 A 
ATOM     30  C   UNL     1       8.396  -4.634   7.748  1.00  0.00     0.074 A 
ATOM     31  C   UNL     1      10.097  -9.365   3.787  1.00  0.00     0.029 A 
ATOM     32  N   UNL     1       9.134  -7.561   4.669  1.00  0.00    -0.354 N 
ATOM     33  N   UNL     1       8.663  -5.564   6.861  1.00  0.00    -0.248 NA
ATOM     34  C   UNL     1       9.068  -4.803   9.037  1.00  0.00     0.031 C 
ATOM     35  C   UNL     1      10.530  -9.226   5.111  1.00  0.00     0.029 A 
ATOM     36  C   UNL     1       9.952  -8.087   5.654  1.00  0.00     0.049 A 
ATOM     37  H   UNL     1       8.587  -6.749   4.764  1.00  0.00     0.167 HD
ATOM     38  C   UNL     1       9.565  -6.415   7.470  1.00  0.00     0.074 A 
ATOM     39  C   UNL     1       9.808  -5.877   8.798  1.00  0.00     0.031 C 
ATOM     40  C   UNL     1      10.146  -7.534   6.973  1.00  0.00     0.031 A 
BRANCH  27  41
ATOM     41  C   UNL     1       8.624  -8.989   1.126  1.00  0.00    -0.014 A 
ATOM     42  C   UNL     1       9.262  -8.505  -0.031  1.00  0.00     0.010 A 
ATOM     43  C   UNL     1       8.114 -10.298   1.137  1.00  0.00     0.010 A 
ATOM     44  C   UNL     1       9.362  -9.309  -1.169  1.00  0.00     0.020 A 
ATOM     45  C   UNL     1       8.231 -11.112   0.008  1.00  0.00     0.020 A 
ATOM     46  C   UNL     1       8.843 -10.607  -1.142  1.00  0.00     0.054 A 
BRANCH  46  47
ATOM     47  S   UNL     1       8.999 -11.636  -2.627  1.00  0.00     0.124 S 
ATOM     48  O   UNL     1       8.053 -10.997  -3.538  1.00  0.00    -0.237 OA
ATOM     49  O   UNL     1      10.409 -11.481  -2.974  1.00  0.00    -0.237 OA
ATOM     50  O   UNL     1       8.617 -12.969  -2.167  1.00  0.00    -0.744 OA
ENDBRANCH  46  47
ENDBRANCH  27  41
BRANCH  28  51
ATOM     51  C   UNL     1       7.298  -2.442   8.675  1.00  0.00    -0.014 A 
ATOM     52  C   UNL     1       8.329  -1.644   9.197  1.00  0.00     0.010 A 
ATOM     53  C   UNL     1       6.003  -2.309   9.219  1.00  0.00     0.010 A 
ATOM     54  C   UNL     1       8.083  -0.771  10.266  1.00  0.00     0.020 A 
ATOM     55  C   UNL     1       5.746  -1.420  10.267  1.00  0.00     0.020 A 
ATOM     56  C   UNL     1       6.794  -0.672  10.800  1.00  0.00     0.054 A 
BRANCH  56  57
ATOM     57  S   UNL     1       6.500   0.451  12.197  1.00  0.00     0.124 S 
ATOM     58  O   UNL     1       7.185  -0.236  13.288  1.00  0.00    -0.237 OA
ATOM     59  O   UNL     1       7.119   1.692  11.740  1.00  0.00    -0.237 OA
ATOM     60  O   UNL     1       5.042   0.492  12.301  1.00  0.00    -0.744 OA
ENDBRANCH  56  57
ENDBRANCH  28  51
BRANCH  40  61
ATOM     61  C   UNL     1      11.112  -8.226   7.885  1.00  0.00    -0.014 A 
ATOM     62  C   UNL     1      10.663  -8.918   9.022  1.00  0.00     0.010 A 
ATOM     63  C   UNL     1      12.486  -8.181   7.592  1.00  0.00     0.010 A 
ATOM     64  C   UNL     1      11.582  -9.517   9.882  1.00  0.00     0.020 A 
ATOM     65  C   UNL     1      13.404  -8.810   8.431  1.00  0.00     0.020 A 
ATOM     66  C   UNL     1      12.946  -9.456   9.581  1.00  0.00     0.054 A 
BRANCH  66  67
ATOM     67  S   UNL     1      14.118 -10.264  10.700  1.00  0.00     0.124 S 
ATOM     68  O   UNL     1      14.152  -9.333  11.825  1.00  0.00    -0.237 OA
ATOM     69  O   UNL     1      13.475 -11.548  10.965  1.00  0.00    -0.237 OA
ATOM     70  O   UNL     1      15.348 -10.339   9.915  1.00  0.00    -0.744 OA
ENDBRANCH  66  67
ENDBRANCH  40  61
ENDBRANCH  14  15
ENDBRANCH   7   9
ENDBRANCH   6   7
ENDBRANCH   5   6
ENDBRANCH   4   5
ENDBRANCH   3   4
ENDBRANCH   2   3
ENDBRANCH   1   2
BRANCH   1  71
ATOM     71  O   UNL     1       3.125   4.480   0.704  1.00  0.00    -0.376 OA
BRANCH  71  72
ATOM     72  C   UNL     1       4.519   4.354   0.972  1.00  0.00     0.202 C 
BRANCH  72  73
ATOM     73  C   UNL     1       5.001   3.984   2.391  1.00  0.00     0.261 C 
BRANCH  73  74
ATOM     74  O   UNL     1       4.378   2.830   2.984  1.00  0.00    -0.463 OA
BRANCH  74  75
ATOM     75  C   UNL     1       4.267   2.893   4.348  1.00  0.00     0.315 C 
ATOM     76  O   UNL     1       4.751   3.774   5.032  1.00  0.00    -0.252 OA
BRANCH  75  77
ATOM     77  C   UNL     1       3.409   1.794   4.942  1.00  0.00     0.163 C 
ATOM     78  C   UNL     1       4.017   0.427   4.899  1.00  0.00     0.278 C 
ATOM     79  C   UNL     1       2.075   1.598   4.242  1.00  0.00     0.067 C 
ATOM     80  N   UNL     1       2.884  -0.506   5.070  1.00  0.00    -0.331 N 
ATOM     81  C   UNL     1       1.833   0.082   4.257  1.00  0.00     0.267 C 
ATOM     82  H   UNL     1       3.127  -1.447   4.761  1.00  0.00     0.348 HD
BRANCH  79  83
ATOM     83  C   UNL     1       0.958   2.443   4.776  1.00  0.00    -0.001 C 
ATOM     84  C   UNL     1       1.069   3.344   5.995  1.00  0.00     0.004 C 
ATOM     85  C   UNL     1       0.977   3.945   4.627  1.00  0.00     0.004 C 
ENDBRANCH  79  83
BRANCH  80  86
ATOM     86  C   UNL     1       2.507  -0.839   6.467  1.00  0.00     0.304 C 
BRANCH  86  87
ATOM     87  C   UNL     1       1.286  -0.194   7.193  1.00  0.00     0.290 C 
BRANCH  87  88
ATOM     88  O   UNL     1       0.066  -0.955   7.027  1.00  0.00    -0.488 OA
BRANCH  88  89
ATOM     89  C   UNL     1      -0.913  -0.347   6.289  1.00  0.00     0.119 A 
ATOM     90  C   UNL     1      -1.349  -1.036   5.152  1.00  0.00     0.049 A 
ATOM     91  C   UNL     1      -1.440   0.911   6.585  1.00  0.00     0.049 A 
ATOM     92  C   UNL     1      -2.161  -0.396   4.214  1.00  0.00     0.043 A 
ATOM     93  C   UNL     1      -2.289   1.538   5.663  1.00  0.00     0.043 A 
ATOM     94  C   UNL     1      -2.604   0.896   4.468  1.00  0.00     0.123 A 
ATOM     95  F   UNL     1      -3.304   1.549   3.530  1.00  0.00    -0.207 F 
ENDBRANCH  88  89
ENDBRANCH  87  88
ENDBRANCH  86  87
ENDBRANCH  80  86
ENDBRANCH  75  77
ENDBRANCH  74  75
ENDBRANCH  73  74
ENDBRANCH  72  73
ENDBRANCH  71  72
ENDBRANCH   1  71
TORSDOF 25
