REMARK SMILES O=C(OCCOCCOCCOC(=O)[C@H]1Cc2c([nH]c3ccccc23)[C@@H](c2ccc(OC(F)(F)F)cc2)[NH2+]1)c1ccc(-c2c3nc(c(-c4ccc(S(=O)(=O)[O-])cc4)c4ccc([nH]4)c(-c4ccc(S(=O)(=O)[O-])cc4)c4nc(c(-c5ccc(S(=O)(=O)[O-])cc5)c5ccc2[nH]5)C=C4)C=C3)cc1
REMARK SMILES IDX 7 1 6 2 5 3 4 4 3 5 2 6 1 7 39 8 40 9 98 10 41 11 97 12
REMARK SMILES IDX 42 13 43 14 44 15 91 16 45 17 96 18 90 19 92 20 46 21 95 22
REMARK SMILES IDX 89 23 88 24 47 26 77 27 58 28 76 29 59 30 62 31 75 32 93 33
REMARK SMILES IDX 60 34 61 35 74 37 94 38 63 39 48 40 49 41 57 42 50 43 56 44
REMARK SMILES IDX 51 45 52 46 53 47 54 48 55 49 78 50 79 51 87 52 80 53 86 54
REMARK SMILES IDX 81 55 82 56 83 57 84 58 85 59 64 60 65 61 73 62 66 63 72 64
REMARK SMILES IDX 67 65 68 66 69 67 70 68 71 69 8 70 9 71 10 72 11 73 12 74
REMARK SMILES IDX 13 75 14 76 15 77 16 78 38 79 17 80 26 81 18 84 25 85 19 86
REMARK SMILES IDX 20 87 24 88 21 90 23 91 22 92 27 93 28 94 37 95 29 96 36 97
REMARK SMILES IDX 30 98 31 99 32 100 33 101 34 102 35 103
REMARK H PARENT 92 25 62 36 38 82 38 83 19 89
REMARK Flexibility Score: inf
ROOT
ATOM      1  C   UNL     1       2.524  -1.972   0.068  1.00  0.00     0.188 C 
ENDROOT
BRANCH   1   2
ATOM      2  O   UNL     1       3.838  -1.647  -0.396  1.00  0.00    -0.376 OA
BRANCH   2   3
ATOM      3  C   UNL     1       4.787  -1.394   0.646  1.00  0.00     0.202 C 
BRANCH   3   4
ATOM      4  C   UNL     1       4.608  -0.075   1.411  1.00  0.00     0.261 C 
BRANCH   4   5
ATOM      5  O   UNL     1       3.256   0.397   1.417  1.00  0.00    -0.460 OA
BRANCH   5   6
ATOM      6  C   UNL     1       2.680   1.232   0.518  1.00  0.00     0.338 C 
ATOM      7  O   UNL     1       1.496   1.532   0.675  1.00  0.00    -0.246 OA
BRANCH   6   8
ATOM      8  C   UNL     1       3.405   1.827  -0.644  1.00  0.00     0.060 A 
ATOM      9  C   UNL     1       4.404   1.210  -1.406  1.00  0.00     0.016 A 
ATOM     10  C   UNL     1       2.959   3.085  -1.055  1.00  0.00     0.016 A 
ATOM     11  C   UNL     1       5.002   1.843  -2.503  1.00  0.00     0.010 A 
ATOM     12  C   UNL     1       3.517   3.698  -2.177  1.00  0.00     0.010 A 
ATOM     13  C   UNL     1       4.561   3.094  -2.908  1.00  0.00    -0.014 A 
BRANCH  13  14
ATOM     14  C   UNL     1       5.233   3.882  -3.978  1.00  0.00     0.031 A 
ATOM     15  C   UNL     1       5.769   5.215  -3.584  1.00  0.00     0.074 A 
ATOM     16  C   UNL     1       5.326   3.494  -5.266  1.00  0.00     0.049 A 
ATOM     17  N   UNL     1       6.100   6.221  -4.338  1.00  0.00    -0.248 NA
ATOM     18  C   UNL     1       5.926   5.449  -2.137  1.00  0.00     0.031 C 
ATOM     19  C   UNL     1       4.983   2.174  -5.756  1.00  0.00     0.029 A 
ATOM     20  N   UNL     1       5.663   4.183  -6.416  1.00  0.00    -0.354 N 
ATOM     21  C   UNL     1       6.489   7.213  -3.458  1.00  0.00     0.074 A 
ATOM     22  C   UNL     1       6.245   6.730  -2.118  1.00  0.00     0.031 C 
ATOM     23  C   UNL     1       4.998   2.186  -7.096  1.00  0.00     0.029 A 
ATOM     24  C   UNL     1       5.351   3.492  -7.572  1.00  0.00     0.049 A 
ATOM     25  H   UNL     1       6.082   5.074  -6.412  1.00  0.00     0.167 HD
ATOM     26  C   UNL     1       7.053   8.402  -3.753  1.00  0.00     0.031 A 
ATOM     27  C   UNL     1       5.286   3.841  -8.873  1.00  0.00     0.031 A 
ATOM     28  C   UNL     1       7.288   8.836  -5.099  1.00  0.00     0.049 A 
ATOM     29  C   UNL     1       5.718   5.225  -9.193  1.00  0.00     0.074 A 
ATOM     30  C   UNL     1       7.890   9.997  -5.538  1.00  0.00     0.029 A 
ATOM     31  N   UNL     1       6.923   8.114  -6.232  1.00  0.00    -0.354 N 
ATOM     32  N   UNL     1       6.051   6.172  -8.352  1.00  0.00    -0.248 NA
ATOM     33  C   UNL     1       5.831   5.577 -10.608  1.00  0.00     0.031 C 
ATOM     34  C   UNL     1       7.838  10.003  -6.935  1.00  0.00     0.029 A 
ATOM     35  C   UNL     1       7.264   8.816  -7.371  1.00  0.00     0.049 A 
ATOM     36  H   UNL     1       6.485   7.232  -6.222  1.00  0.00     0.167 HD
ATOM     37  C   UNL     1       6.504   7.214  -9.133  1.00  0.00     0.074 A 
ATOM     38  C   UNL     1       6.340   6.800 -10.518  1.00  0.00     0.031 C 
ATOM     39  C   UNL     1       7.061   8.378  -8.731  1.00  0.00     0.031 A 
BRANCH  26  40
ATOM     40  C   UNL     1       7.396   9.274  -2.581  1.00  0.00    -0.014 A 
ATOM     41  C   UNL     1       8.373   8.884  -1.644  1.00  0.00     0.010 A 
ATOM     42  C   UNL     1       6.641  10.434  -2.345  1.00  0.00     0.010 A 
ATOM     43  C   UNL     1       8.520   9.584  -0.445  1.00  0.00     0.020 A 
ATOM     44  C   UNL     1       6.814  11.160  -1.165  1.00  0.00     0.020 A 
ATOM     45  C   UNL     1       7.726  10.710  -0.208  1.00  0.00     0.054 A 
BRANCH  45  46
ATOM     46  S   UNL     1       7.897  11.567   1.379  1.00  0.00     0.124 S 
ATOM     47  O   UNL     1       7.216  10.648   2.290  1.00  0.00    -0.237 OA
ATOM     48  O   UNL     1       9.338  11.663   1.542  1.00  0.00    -0.237 OA
ATOM     49  O   UNL     1       7.207  12.842   1.156  1.00  0.00    -0.744 OA
ENDBRANCH  45  46
ENDBRANCH  26  40
BRANCH  27  50
ATOM     50  C   UNL     1       4.809   2.890  -9.932  1.00  0.00    -0.014 A 
ATOM     51  C   UNL     1       5.676   1.974 -10.551  1.00  0.00     0.010 A 
ATOM     52  C   UNL     1       3.449   2.846 -10.286  1.00  0.00     0.010 A 
ATOM     53  C   UNL     1       5.186   1.009 -11.449  1.00  0.00     0.020 A 
ATOM     54  C   UNL     1       2.945   1.866 -11.152  1.00  0.00     0.020 A 
ATOM     55  C   UNL     1       3.819   0.946 -11.728  1.00  0.00     0.054 A 
BRANCH  55  56
ATOM     56  S   UNL     1       3.158  -0.381 -12.781  1.00  0.00     0.124 S 
ATOM     57  O   UNL     1       3.278   0.198 -14.114  1.00  0.00    -0.237 OA
ATOM     58  O   UNL     1       4.042  -1.509 -12.498  1.00  0.00    -0.237 OA
ATOM     59  O   UNL     1       1.792  -0.541 -12.283  1.00  0.00    -0.744 OA
ENDBRANCH  55  56
ENDBRANCH  27  50
BRANCH  39  60
ATOM     60  C   UNL     1       7.593   9.260  -9.812  1.00  0.00    -0.014 A 
ATOM     61  C   UNL     1       6.735  10.036 -10.604  1.00  0.00     0.010 A 
ATOM     62  C   UNL     1       8.987   9.370  -9.959  1.00  0.00     0.010 A 
ATOM     63  C   UNL     1       7.271  10.931 -11.526  1.00  0.00     0.020 A 
ATOM     64  C   UNL     1       9.524  10.285 -10.858  1.00  0.00     0.020 A 
ATOM     65  C   UNL     1       8.661  11.062 -11.633  1.00  0.00     0.054 A 
BRANCH  65  66
ATOM     66  S   UNL     1       9.326  12.328 -12.741  1.00  0.00     0.124 S 
ATOM     67  O   UNL     1       9.073  11.744 -14.055  1.00  0.00    -0.237 OA
ATOM     68  O   UNL     1       8.518  13.498 -12.404  1.00  0.00    -0.237 OA
ATOM     69  O   UNL     1      10.733  12.419 -12.357  1.00  0.00    -0.744 OA
ENDBRANCH  65  66
ENDBRANCH  39  60
ENDBRANCH  13  14
ENDBRANCH   6   8
ENDBRANCH   5   6
ENDBRANCH   4   5
ENDBRANCH   3   4
ENDBRANCH   2   3
ENDBRANCH   1   2
BRANCH   1  70
ATOM     70  C   UNL     1       1.835  -3.034  -0.786  1.00  0.00     0.188 C 
BRANCH  70  71
ATOM     71  O   UNL     1       2.442  -4.321  -0.843  1.00  0.00    -0.376 OA
BRANCH  71  72
ATOM     72  C   UNL     1       3.831  -4.385  -1.138  1.00  0.00     0.202 C 
BRANCH  72  73
ATOM     73  C   UNL     1       4.327  -3.936  -2.522  1.00  0.00     0.261 C 
BRANCH  73  74
ATOM     74  O   UNL     1       3.672  -2.806  -3.109  1.00  0.00    -0.459 OA
BRANCH  74  75
ATOM     75  C   UNL     1       2.615  -3.132  -3.904  1.00  0.00     0.365 C 
ATOM     76  O   UNL     1       2.130  -4.260  -3.983  1.00  0.00    -0.245 OA
BRANCH  75  77
ATOM     77  C   UNL     1       2.192  -2.011  -4.856  1.00  0.00     0.298 C 
ATOM     78  C   UNL     1       2.418  -0.572  -4.335  1.00  0.00     0.115 C 
ATOM     79  N   UNL     1       2.906  -2.330  -6.101  1.00  0.00    -0.323 N 
ATOM     80  C   UNL     1       2.154   0.377  -5.459  1.00  0.00    -0.006 A 
ATOM     81  C   UNL     1       2.805  -1.404  -7.226  1.00  0.00     0.262 C 
ATOM     82  H   UNL     1       2.559  -3.233  -6.423  1.00  0.00     0.347 HD
ATOM     83  H   UNL     1       3.891  -2.292  -5.837  1.00  0.00     0.347 HD
ATOM     84  C   UNL     1       2.391  -0.026  -6.764  1.00  0.00     0.083 A 
ATOM     85  C   UNL     1       1.756   1.748  -5.479  1.00  0.00     0.003 A 
ATOM     86  N   UNL     1       2.052   1.029  -7.581  1.00  0.00    -0.353 N 
ATOM     87  C   UNL     1       1.772   2.151  -6.816  1.00  0.00     0.046 A 
ATOM     88  C   UNL     1       1.459   2.718  -4.498  1.00  0.00     0.010 A 
ATOM     89  H   UNL     1       2.014   0.992  -8.565  1.00  0.00     0.166 HD
ATOM     90  C   UNL     1       1.593   3.495  -7.188  1.00  0.00     0.026 A 
ATOM     91  C   UNL     1       1.354   4.072  -4.858  1.00  0.00     0.001 A 
ATOM     92  C   UNL     1       1.454   4.457  -6.186  1.00  0.00     0.002 A 
BRANCH  81  93
ATOM     93  C   UNL     1       4.137  -1.572  -7.958  1.00  0.00     0.016 A 
ATOM     94  C   UNL     1       5.333  -0.985  -7.531  1.00  0.00     0.014 A 
ATOM     95  C   UNL     1       4.242  -2.519  -8.989  1.00  0.00     0.014 A 
ATOM     96  C   UNL     1       6.531  -1.155  -8.236  1.00  0.00     0.047 A 
ATOM     97  C   UNL     1       5.461  -2.777  -9.635  1.00  0.00     0.047 A 
ATOM     98  C   UNL     1       6.603  -2.063  -9.288  1.00  0.00     0.129 A 
BRANCH  98  99
ATOM     99  O   UNL     1       7.802  -2.121  -9.936  1.00  0.00    -0.406 OA
BRANCH  99 100
ATOM    100  C   UNL     1       8.234  -3.410 -10.332  1.00  0.00     0.573 C 
ATOM    101  F   UNL     1       8.278  -4.255  -9.277  1.00  0.00    -0.132 F 
ATOM    102  F   UNL     1       7.469  -3.945 -11.304  1.00  0.00    -0.132 F 
ATOM    103  F   UNL     1       9.497  -3.307 -10.817  1.00  0.00    -0.132 F 
ENDBRANCH  99 100
ENDBRANCH  98  99
ENDBRANCH  81  93
ENDBRANCH  75  77
ENDBRANCH  74  75
ENDBRANCH  73  74
ENDBRANCH  72  73
ENDBRANCH  71  72
ENDBRANCH  70  71
ENDBRANCH   1  70
TORSDOF 23
