REMARK SMILES O=C(CN(CC(=O)OCCOCCOCCOC(=O)c1ccc(-c2c3nc(c(-c4ccc(S(=O)(=O)[O-])cc4)c4ccc([nH]4)c(-c4ccc(S(=O)(=O)[O-])cc4)c4nc(c(-c5ccc(S(=O)(=O)[O-])cc5)c5ccc2[nH]5)C=C4)C=C3)cc1)c1ccccc1)NCc1ccccc1
REMARK SMILES IDX 12 1 11 2 10 3 9 4 8 5 6 6 7 7 5 8 4 9 3 10 2 11 1 12 86 13
REMARK SMILES IDX 87 15 88 16 89 17 93 18 90 19 92 20 91 21 80 22 81 23 85 24
REMARK SMILES IDX 82 25 84 26 83 27 13 28 14 29 15 30 16 31 17 32 18 33 19 34
REMARK SMILES IDX 20 35 21 36 79 37 22 38 78 39 23 40 24 41 25 42 72 43 26 44
REMARK SMILES IDX 77 45 71 46 73 47 27 48 76 49 70 50 69 51 28 53 58 54 39 55
REMARK SMILES IDX 57 56 40 57 43 58 56 59 74 60 41 61 42 62 55 64 75 65 44 66
REMARK SMILES IDX 29 67 30 68 38 69 31 70 37 71 32 72 33 73 34 74 35 75 36 76
REMARK SMILES IDX 59 77 60 78 68 79 61 80 67 81 62 82 63 83 64 84 65 85 66 86
REMARK SMILES IDX 45 87 46 88 54 89 47 90 53 91 48 92 49 93 50 94 51 95 52 96
REMARK H PARENT 86 14 73 52 43 63
REMARK Flexibility Score: inf
ROOT
ATOM      1  C   UNL     1       6.437  -4.331   2.933  1.00  0.00     0.188 C 
ENDROOT
BRANCH   1   2
ATOM      2  O   UNL     1       7.201  -3.966   4.080  1.00  0.00    -0.376 OA
BRANCH   2   3
ATOM      3  C   UNL     1       6.687  -2.967   4.954  1.00  0.00     0.202 C 
BRANCH   3   4
ATOM      4  C   UNL     1       6.585  -1.560   4.354  1.00  0.00     0.261 C 
BRANCH   4   5
ATOM      5  O   UNL     1       5.624  -1.512   3.282  1.00  0.00    -0.462 OA
BRANCH   5   6
ATOM      6  C   UNL     1       5.917  -0.703   2.229  1.00  0.00     0.325 C 
ATOM      7  O   UNL     1       6.808   0.140   2.238  1.00  0.00    -0.250 OA
BRANCH   6   8
ATOM      8  C   UNL     1       5.108  -1.049   0.969  1.00  0.00     0.239 C 
BRANCH   8   9
ATOM      9  N   UNL     1       3.645  -1.088   1.147  1.00  0.00    -0.351 N 
BRANCH   9  10
ATOM     10  C   UNL     1       2.895   0.175   1.340  1.00  0.00     0.217 C 
BRANCH  10  11
ATOM     11  C   UNL     1       2.154   0.667   0.074  1.00  0.00     0.239 C 
ATOM     12  O   UNL     1       0.974   1.016   0.102  1.00  0.00    -0.273 OA
ATOM     13  N   UNL     1       2.920   0.723  -1.072  1.00  0.00    -0.350 N 
ATOM     14  H   UNL     1       3.897   0.642  -0.991  1.00  0.00     0.163 HD
BRANCH  13  15
ATOM     15  C   UNL     1       2.346   0.896  -2.386  1.00  0.00     0.151 C 
BRANCH  15  16
ATOM     16  C   UNL     1       2.682   2.239  -2.969  1.00  0.00    -0.029 A 
ATOM     17  C   UNL     1       3.790   2.405  -3.812  1.00  0.00     0.005 A 
ATOM     18  C   UNL     1       1.885   3.350  -2.663  1.00  0.00     0.005 A 
ATOM     19  C   UNL     1       4.082   3.658  -4.353  1.00  0.00     0.000 A 
ATOM     20  C   UNL     1       2.178   4.601  -3.206  1.00  0.00     0.000 A 
ATOM     21  C   UNL     1       3.276   4.754  -4.051  1.00  0.00     0.000 A 
ENDBRANCH  15  16
ENDBRANCH  13  15
ENDBRANCH  10  11
ENDBRANCH   9  10
BRANCH   9  22
ATOM     22  C   UNL     1       2.918  -2.154   0.618  1.00  0.00     0.038 A 
ATOM     23  C   UNL     1       2.122  -2.943   1.456  1.00  0.00     0.026 A 
ATOM     24  C   UNL     1       2.912  -2.452  -0.752  1.00  0.00     0.026 A 
ATOM     25  C   UNL     1       1.373  -4.012   0.951  1.00  0.00     0.002 A 
ATOM     26  C   UNL     1       2.114  -3.478  -1.272  1.00  0.00     0.002 A 
ATOM     27  C   UNL     1       1.358  -4.271  -0.416  1.00  0.00     0.000 A 
ENDBRANCH   9  22
ENDBRANCH   8   9
ENDBRANCH   6   8
ENDBRANCH   5   6
ENDBRANCH   4   5
ENDBRANCH   3   4
ENDBRANCH   2   3
ENDBRANCH   1   2
BRANCH   1  28
ATOM     28  C   UNL     1       4.909  -4.322   3.031  1.00  0.00     0.188 C 
BRANCH  28  29
ATOM     29  O   UNL     1       4.440  -4.776   4.294  1.00  0.00    -0.376 OA
BRANCH  29  30
ATOM     30  C   UNL     1       3.232  -5.524   4.216  1.00  0.00     0.202 C 
BRANCH  30  31
ATOM     31  C   UNL     1       3.576  -7.001   4.030  1.00  0.00     0.261 C 
BRANCH  31  32
ATOM     32  O   UNL     1       4.245  -7.253   2.778  1.00  0.00    -0.460 OA
BRANCH  32  33
ATOM     33  C   UNL     1       3.450  -7.272   1.681  1.00  0.00     0.338 C 
ATOM     34  O   UNL     1       2.238  -7.186   1.655  1.00  0.00    -0.246 OA
BRANCH  33  35
ATOM     35  C   UNL     1       4.321  -7.289   0.489  1.00  0.00     0.060 A 
ATOM     36  C   UNL     1       4.519  -6.110  -0.241  1.00  0.00     0.016 A 
ATOM     37  C   UNL     1       4.919  -8.478   0.081  1.00  0.00     0.016 A 
ATOM     38  C   UNL     1       5.306  -6.116  -1.394  1.00  0.00     0.010 A 
ATOM     39  C   UNL     1       5.704  -8.484  -1.076  1.00  0.00     0.010 A 
ATOM     40  C   UNL     1       5.891  -7.309  -1.829  1.00  0.00    -0.014 A 
BRANCH  40  41
ATOM     41  C   UNL     1       6.626  -7.389  -3.115  1.00  0.00     0.031 A 
ATOM     42  C   UNL     1       5.972  -8.074  -4.281  1.00  0.00     0.074 A 
ATOM     43  C   UNL     1       7.881  -6.918  -3.228  1.00  0.00     0.049 A 
ATOM     44  N   UNL     1       6.502  -8.488  -5.401  1.00  0.00    -0.248 NA
ATOM     45  C   UNL     1       4.528  -8.332  -4.161  1.00  0.00     0.031 C 
ATOM     46  C   UNL     1       8.604  -6.167  -2.203  1.00  0.00     0.029 A 
ATOM     47  N   UNL     1       8.785  -7.039  -4.256  1.00  0.00    -0.354 N 
ATOM     48  C   UNL     1       5.469  -9.096  -6.104  1.00  0.00     0.074 A 
ATOM     49  C   UNL     1       4.279  -8.989  -5.286  1.00  0.00     0.031 C 
ATOM     50  C   UNL     1       9.852  -5.924  -2.639  1.00  0.00     0.029 A 
ATOM     51  C   UNL     1      10.035  -6.557  -3.943  1.00  0.00     0.049 A 
ATOM     52  H   UNL     1       8.561  -7.432  -5.131  1.00  0.00     0.167 HD
ATOM     53  C   UNL     1       5.514  -9.702  -7.314  1.00  0.00     0.031 A 
ATOM     54  C   UNL     1      11.207  -6.669  -4.602  1.00  0.00     0.031 A 
ATOM     55  C   UNL     1       6.701  -9.806  -8.119  1.00  0.00     0.049 A 
ATOM     56  C   UNL     1      11.256  -7.427  -5.903  1.00  0.00     0.074 A 
ATOM     57  C   UNL     1       6.846 -10.389  -9.366  1.00  0.00     0.029 A 
ATOM     58  N   UNL     1       7.949  -9.322  -7.757  1.00  0.00    -0.354 N 
ATOM     59  N   UNL     1      10.278  -8.014  -6.553  1.00  0.00    -0.248 NA
ATOM     60  C   UNL     1      12.569  -7.549  -6.554  1.00  0.00     0.031 C 
ATOM     61  C   UNL     1       8.193 -10.306  -9.733  1.00  0.00     0.029 A 
ATOM     62  C   UNL     1       8.875  -9.618  -8.742  1.00  0.00     0.049 A 
ATOM     63  H   UNL     1       8.147  -8.840  -6.922  1.00  0.00     0.167 HD
ATOM     64  C   UNL     1      10.855  -8.555  -7.698  1.00  0.00     0.074 A 
ATOM     65  C   UNL     1      12.262  -8.215  -7.659  1.00  0.00     0.031 C 
ATOM     66  C   UNL     1      10.272  -9.270  -8.692  1.00  0.00     0.031 A 
BRANCH  53  67
ATOM     67  C   UNL     1       4.253 -10.350  -7.818  1.00  0.00    -0.014 A 
ATOM     68  C   UNL     1       3.170  -9.585  -8.284  1.00  0.00     0.010 A 
ATOM     69  C   UNL     1       4.173 -11.754  -7.868  1.00  0.00     0.010 A 
ATOM     70  C   UNL     1       2.016 -10.213  -8.761  1.00  0.00     0.020 A 
ATOM     71  C   UNL     1       3.032 -12.386  -8.368  1.00  0.00     0.020 A 
ATOM     72  C   UNL     1       1.954 -11.610  -8.799  1.00  0.00     0.054 A 
BRANCH  72  73
ATOM     73  S   UNL     1       0.457 -12.399  -9.451  1.00  0.00     0.124 S 
ATOM     74  O   UNL     1      -0.500 -12.165  -8.372  1.00  0.00    -0.237 OA
ATOM     75  O   UNL     1       0.210 -11.650 -10.681  1.00  0.00    -0.237 OA
ATOM     76  O   UNL     1       0.852 -13.792  -9.642  1.00  0.00    -0.744 OA
ENDBRANCH  72  73
ENDBRANCH  53  67
BRANCH  54  77
ATOM     77  C   UNL     1      12.450  -6.104  -4.008  1.00  0.00    -0.014 A 
ATOM     78  C   UNL     1      13.086  -4.997  -4.596  1.00  0.00     0.010 A 
ATOM     79  C   UNL     1      13.009  -6.678  -2.850  1.00  0.00     0.010 A 
ATOM     80  C   UNL     1      14.263  -4.482  -4.044  1.00  0.00     0.020 A 
ATOM     81  C   UNL     1      14.169  -6.148  -2.279  1.00  0.00     0.020 A 
ATOM     82  C   UNL     1      14.795  -5.059  -2.887  1.00  0.00     0.054 A 
BRANCH  82  83
ATOM     83  S   UNL     1      16.292  -4.338  -2.157  1.00  0.00     0.124 S 
ATOM     84  O   UNL     1      17.327  -4.790  -3.081  1.00  0.00    -0.237 OA
ATOM     85  O   UNL     1      15.999  -2.907  -2.186  1.00  0.00    -0.237 OA
ATOM     86  O   UNL     1      16.340  -4.929  -0.822  1.00  0.00    -0.744 OA
ENDBRANCH  82  83
ENDBRANCH  54  77
BRANCH  66  87
ATOM     87  C   UNL     1      11.140  -9.703  -9.844  1.00  0.00    -0.014 A 
ATOM     88  C   UNL     1      12.066 -10.752  -9.706  1.00  0.00     0.010 A 
ATOM     89  C   UNL     1      10.972  -9.098 -11.103  1.00  0.00     0.010 A 
ATOM     90  C   UNL     1      12.823 -11.174 -10.803  1.00  0.00     0.020 A 
ATOM     91  C   UNL     1      11.708  -9.534 -12.208  1.00  0.00     0.020 A 
ATOM     92  C   UNL     1      12.638 -10.563 -12.048  1.00  0.00     0.054 A 
BRANCH  92  93
ATOM     93  S   UNL     1      13.589 -11.168 -13.469  1.00  0.00     0.124 S 
ATOM     94  O   UNL     1      14.922 -10.639 -13.190  1.00  0.00    -0.237 OA
ATOM     95  O   UNL     1      13.452 -12.618 -13.354  1.00  0.00    -0.237 OA
ATOM     96  O   UNL     1      12.911 -10.573 -14.619  1.00  0.00    -0.744 OA
ENDBRANCH  92  93
ENDBRANCH  66  87
ENDBRANCH  40  41
ENDBRANCH  33  35
ENDBRANCH  32  33
ENDBRANCH  31  32
ENDBRANCH  30  31
ENDBRANCH  29  30
ENDBRANCH  28  29
ENDBRANCH   1  28
TORSDOF 26
