REMARK SMILES [NH3+][C@@H](Cc1c[nH]c2ccccc12)C(=O)N[C@@H](CS)C(=O)N[C@@H](CO)C(=O)OCCOCCOCCOC(=O)c1ccc(-c2c3nc(c(-c4ccc(S(=O)(=O)[O-])cc4)c4ccc([nH]4)c(-c4ccc(S(=O)(=O)[O-])cc4)c4nc(c(-c5ccc(S(=O)(=O)[O-])cc5)c5ccc2[nH]5)C=C4)C=C3)cc1
REMARK SMILES IDX 30 1 29 2 28 3 27 4 25 5 26 6 22 7 21 8 19 9 20 10 16 12
REMARK SMILES IDX 15 13 13 14 14 15 2 17 1 18 3 22 4 23 5 24 12 25 6 26 7 27
REMARK SMILES IDX 11 28 8 30 10 31 9 32 17 33 18 34 23 36 24 37 31 39 32 40
REMARK SMILES IDX 33 41 34 42 35 43 36 44 37 45 38 46 39 47 40 48 98 49 41 50
REMARK SMILES IDX 97 51 42 52 43 53 44 54 91 55 45 56 96 57 90 58 92 59 46 60
REMARK SMILES IDX 95 61 89 62 88 63 47 65 77 66 58 67 76 68 59 69 62 70 75 71
REMARK SMILES IDX 93 72 60 73 61 74 74 76 94 77 63 78 48 79 49 80 57 81 50 82
REMARK SMILES IDX 56 83 51 84 52 85 53 86 54 87 55 88 78 89 79 90 87 91 80 92
REMARK SMILES IDX 86 93 81 94 82 95 83 96 84 97 85 98 64 99 65 100 73 101
REMARK SMILES IDX 66 102 72 103 67 104 68 105 69 106 70 107 71 108
REMARK H PARENT 21 11 15 16 1 19 1 20 1 21 6 29 18 35 24 38 92 64 62 75
REMARK Flexibility Score: inf
ROOT
ATOM      1  O   UNL     1      -4.654  -2.354  -6.322  1.00  0.00    -0.376 OA
ENDROOT
BRANCH   1   2
ATOM      2  C   UNL     1      -5.982  -2.068  -5.887  1.00  0.00     0.202 C 
BRANCH   2   3
ATOM      3  C   UNL     1      -6.318  -0.580  -5.936  1.00  0.00     0.261 C 
BRANCH   3   4
ATOM      4  O   UNL     1      -5.638   0.138  -4.894  1.00  0.00    -0.462 OA
BRANCH   4   5
ATOM      5  C   UNL     1      -6.252   0.177  -3.678  1.00  0.00     0.331 C 
ATOM      6  O   UNL     1      -7.354  -0.302  -3.443  1.00  0.00    -0.250 OA
BRANCH   5   7
ATOM      7  C   UNL     1      -5.412   0.958  -2.661  1.00  0.00     0.218 C 
BRANCH   7   8
ATOM      8  N   UNL     1      -4.025   1.172  -3.123  1.00  0.00    -0.339 N 
ATOM      9  C   UNL     1      -3.100   1.736  -2.295  1.00  0.00     0.244 C 
ATOM     10  O   UNL     1      -3.081   2.967  -2.216  1.00  0.00    -0.273 OA
ATOM     11  H   UNL     1      -3.767   0.905  -4.035  1.00  0.00     0.164 HD
BRANCH   9  12
ATOM     12  C   UNL     1      -2.100   0.823  -1.537  1.00  0.00     0.181 C 
BRANCH  12  13
ATOM     13  N   UNL     1      -2.011   1.333  -0.175  1.00  0.00    -0.338 N 
ATOM     14  C   UNL     1      -0.937   1.866   0.473  1.00  0.00     0.279 C 
ATOM     15  O   UNL     1      -1.182   2.658   1.391  1.00  0.00    -0.268 OA
ATOM     16  H   UNL     1      -2.842   1.287   0.351  1.00  0.00     0.164 HD
BRANCH  14  17
ATOM     17  C   UNL     1       0.527   1.499   0.134  1.00  0.00     0.275 C 
BRANCH  17  18
ATOM     18  N   UNL     1       0.691   0.040  -0.033  1.00  0.00    -0.347 N 
ATOM     19  H   UNL     1       1.664  -0.170  -0.255  1.00  0.00     0.345 HD
ATOM     20  H   UNL     1       0.091  -0.285  -0.791  1.00  0.00     0.345 HD
ATOM     21  H   UNL     1       0.430  -0.433   0.833  1.00  0.00     0.345 HD
ENDBRANCH  17  18
BRANCH  17  22
ATOM     22  C   UNL     1       1.216   2.415  -0.904  1.00  0.00     0.113 C 
BRANCH  22  23
ATOM     23  C   UNL     1       1.129   2.038  -2.363  1.00  0.00    -0.016 A 
ATOM     24  C   UNL     1       1.705   0.940  -2.979  1.00  0.00     0.087 A 
ATOM     25  C   UNL     1       0.497   2.795  -3.409  1.00  0.00     0.003 A 
ATOM     26  N   UNL     1       1.388   0.964  -4.311  1.00  0.00    -0.361 N 
ATOM     27  C   UNL     1       0.608   2.059  -4.589  1.00  0.00     0.046 A 
ATOM     28  C   UNL     1      -0.171   4.035  -3.460  1.00  0.00     0.010 A 
ATOM     29  H   UNL     1       1.677   0.295  -4.973  1.00  0.00     0.166 HD
ATOM     30  C   UNL     1       0.028   2.462  -5.798  1.00  0.00     0.026 A 
ATOM     31  C   UNL     1      -0.721   4.476  -4.671  1.00  0.00     0.001 A 
ATOM     32  C   UNL     1      -0.638   3.689  -5.817  1.00  0.00     0.002 A 
ENDBRANCH  22  23
ENDBRANCH  17  22
ENDBRANCH  14  17
ENDBRANCH  12  13
BRANCH  12  33
ATOM     33  C   UNL     1      -2.269  -0.697  -1.650  1.00  0.00     0.101 C 
BRANCH  33  34
ATOM     34  S   UNL     1      -3.640  -1.450  -0.727  1.00  0.00    -0.177 SA
ATOM     35  H   UNL     1      -3.437  -1.278   0.607  1.00  0.00     0.102 HD
ENDBRANCH  33  34
ENDBRANCH  12  33
ENDBRANCH   9  12
ENDBRANCH   7   8
BRANCH   7  36
ATOM     36  C   UNL     1      -6.118   2.292  -2.377  1.00  0.00     0.193 C 
BRANCH  36  37
ATOM     37  O   UNL     1      -5.840   3.243  -3.410  1.00  0.00    -0.394 OA
ATOM     38  H   UNL     1      -4.885   3.406  -3.451  1.00  0.00     0.210 HD
ENDBRANCH  36  37
ENDBRANCH   7  36
ENDBRANCH   5   7
ENDBRANCH   4   5
ENDBRANCH   3   4
ENDBRANCH   2   3
ENDBRANCH   1   2
BRANCH   1  39
ATOM     39  C   UNL     1      -3.619  -1.982  -5.422  1.00  0.00     0.188 C 
BRANCH  39  40
ATOM     40  C   UNL     1      -2.833  -0.717  -5.822  1.00  0.00     0.188 C 
BRANCH  40  41
ATOM     41  O   UNL     1      -2.987  -0.168  -7.122  1.00  0.00    -0.376 OA
BRANCH  41  42
ATOM     42  C   UNL     1      -2.864  -1.040  -8.237  1.00  0.00     0.202 C 
BRANCH  42  43
ATOM     43  C   UNL     1      -1.520  -1.751  -8.424  1.00  0.00     0.261 C 
BRANCH  43  44
ATOM     44  O   UNL     1      -1.180  -2.626  -7.331  1.00  0.00    -0.460 OA
BRANCH  44  45
ATOM     45  C   UNL     1       0.016  -2.375  -6.752  1.00  0.00     0.338 C 
ATOM     46  O   UNL     1       0.836  -1.525  -7.079  1.00  0.00    -0.246 OA
BRANCH  45  47
ATOM     47  C   UNL     1       0.161  -3.116  -5.488  1.00  0.00     0.060 A 
ATOM     48  C   UNL     1       0.214  -2.353  -4.317  1.00  0.00     0.016 A 
ATOM     49  C   UNL     1       0.410  -4.489  -5.447  1.00  0.00     0.016 A 
ATOM     50  C   UNL     1       0.592  -2.936  -3.115  1.00  0.00     0.010 A 
ATOM     51  C   UNL     1       0.780  -5.079  -4.229  1.00  0.00     0.010 A 
ATOM     52  C   UNL     1       0.916  -4.295  -3.068  1.00  0.00    -0.014 A 
BRANCH  52  53
ATOM     53  C   UNL     1       1.539  -4.818  -1.827  1.00  0.00     0.031 A 
ATOM     54  C   UNL     1       3.035  -4.971  -1.764  1.00  0.00     0.074 A 
ATOM     55  C   UNL     1       0.797  -5.024  -0.723  1.00  0.00     0.049 A 
ATOM     56  N   UNL     1       3.785  -5.358  -0.764  1.00  0.00    -0.248 NA
ATOM     57  C   UNL     1       3.787  -4.619  -2.980  1.00  0.00     0.031 C 
ATOM     58  C   UNL     1      -0.647  -4.816  -0.622  1.00  0.00     0.029 A 
ATOM     59  N   UNL     1       1.168  -5.430   0.534  1.00  0.00    -0.354 N 
ATOM     60  C   UNL     1       5.094  -5.308  -1.231  1.00  0.00     0.074 A 
ATOM     61  C   UNL     1       5.035  -4.862  -2.607  1.00  0.00     0.031 C 
ATOM     62  C   UNL     1      -1.039  -5.086   0.635  1.00  0.00     0.029 A 
ATOM     63  C   UNL     1       0.118  -5.521   1.415  1.00  0.00     0.049 A 
ATOM     64  H   UNL     1       2.098  -5.636   0.781  1.00  0.00     0.167 HD
ATOM     65  C   UNL     1       6.242  -5.607  -0.577  1.00  0.00     0.031 A 
ATOM     66  C   UNL     1       0.088  -5.929   2.700  1.00  0.00     0.031 A 
ATOM     67  C   UNL     1       6.307  -6.069   0.783  1.00  0.00     0.049 A 
ATOM     68  C   UNL     1       1.367  -6.352   3.374  1.00  0.00     0.074 A 
ATOM     69  C   UNL     1       7.424  -6.434   1.516  1.00  0.00     0.029 A 
ATOM     70  N   UNL     1       5.212  -6.235   1.615  1.00  0.00    -0.354 N 
ATOM     71  N   UNL     1       2.592  -6.334   2.905  1.00  0.00    -0.248 NA
ATOM     72  C   UNL     1       1.255  -6.851   4.752  1.00  0.00     0.031 C 
ATOM     73  C   UNL     1       6.997  -6.861   2.779  1.00  0.00     0.029 A 
ATOM     74  C   UNL     1       5.621  -6.715   2.847  1.00  0.00     0.049 A 
ATOM     75  H   UNL     1       4.279  -6.039   1.366  1.00  0.00     0.167 HD
ATOM     76  C   UNL     1       3.398  -6.806   3.936  1.00  0.00     0.074 A 
ATOM     77  C   UNL     1       2.525  -7.082   5.058  1.00  0.00     0.031 C 
ATOM     78  C   UNL     1       4.741  -6.995   3.952  1.00  0.00     0.031 A 
BRANCH  65  79
ATOM     79  C   UNL     1       7.521  -5.496  -1.359  1.00  0.00    -0.014 A 
ATOM     80  C   UNL     1       8.093  -4.245  -1.647  1.00  0.00     0.010 A 
ATOM     81  C   UNL     1       8.162  -6.666  -1.806  1.00  0.00     0.010 A 
ATOM     82  C   UNL     1       9.264  -4.164  -2.407  1.00  0.00     0.020 A 
ATOM     83  C   UNL     1       9.343  -6.589  -2.548  1.00  0.00     0.020 A 
ATOM     84  C   UNL     1       9.875  -5.337  -2.861  1.00  0.00     0.054 A 
BRANCH  84  85
ATOM     85  S   UNL     1      11.389  -5.207  -3.852  1.00  0.00     0.124 S 
ATOM     86  O   UNL     1      10.862  -4.787  -5.148  1.00  0.00    -0.237 OA
ATOM     87  O   UNL     1      12.161  -4.199  -3.131  1.00  0.00    -0.237 OA
ATOM     88  O   UNL     1      11.944  -6.558  -3.813  1.00  0.00    -0.744 OA
ENDBRANCH  84  85
ENDBRANCH  65  79
BRANCH  66  89
ATOM     89  C   UNL     1      -1.208  -6.005   3.426  1.00  0.00    -0.014 A 
ATOM     90  C   UNL     1      -1.497  -5.126   4.483  1.00  0.00     0.010 A 
ATOM     91  C   UNL     1      -2.156  -6.982   3.069  1.00  0.00     0.010 A 
ATOM     92  C   UNL     1      -2.703  -5.234   5.183  1.00  0.00     0.020 A 
ATOM     93  C   UNL     1      -3.372  -7.077   3.749  1.00  0.00     0.020 A 
ATOM     94  C   UNL     1      -3.632  -6.211   4.812  1.00  0.00     0.054 A 
BRANCH  94  95
ATOM     95  S   UNL     1      -5.209  -6.313   5.703  1.00  0.00     0.124 S 
ATOM     96  O   UNL     1      -4.817  -6.989   6.935  1.00  0.00    -0.237 OA
ATOM     97  O   UNL     1      -5.588  -4.909   5.843  1.00  0.00    -0.237 OA
ATOM     98  O   UNL     1      -6.058  -7.091   4.802  1.00  0.00    -0.744 OA
ENDBRANCH  94  95
ENDBRANCH  66  89
BRANCH  78  99
ATOM     99  C   UNL     1       5.351  -7.507   5.230  1.00  0.00    -0.014 A 
ATOM    100  C   UNL     1       5.191  -8.847   5.626  1.00  0.00     0.010 A 
ATOM    101  C   UNL     1       6.123  -6.643   6.027  1.00  0.00     0.010 A 
ATOM    102  C   UNL     1       5.763  -9.304   6.817  1.00  0.00     0.020 A 
ATOM    103  C   UNL     1       6.716  -7.103   7.206  1.00  0.00     0.020 A 
ATOM    104  C   UNL     1       6.517  -8.427   7.603  1.00  0.00     0.054 A 
BRANCH 104 105
ATOM    105  S   UNL     1       7.274  -9.046   9.131  1.00  0.00     0.124 S 
ATOM    106  O   UNL     1       6.136  -9.064  10.047  1.00  0.00    -0.237 OA
ATOM    107  O   UNL     1       7.781 -10.357   8.733  1.00  0.00    -0.237 OA
ATOM    108  O   UNL     1       8.303  -8.054   9.433  1.00  0.00    -0.744 OA
ENDBRANCH 104 105
ENDBRANCH  78  99
ENDBRANCH  52  53
ENDBRANCH  45  47
ENDBRANCH  44  45
ENDBRANCH  43  44
ENDBRANCH  42  43
ENDBRANCH  41  42
ENDBRANCH  40  41
ENDBRANCH  39  40
ENDBRANCH   1  39
TORSDOF 31
