REMARK SMILES O=C(C[C@H]1CN(S(=O)(=O)c2cc(F)cc(F)c2)CCO1)OCCOCCOCCOC(=O)c1ccc(-c2c3nc(c(-c4ccc(S(=O)(=O)[O-])cc4)c4ccc([nH]4)c(-c4ccc(S(=O)(=O)[O-])cc4)c4nc(c(-c5ccc(S(=O)(=O)[O-])cc5)c5ccc2[nH]5)C=C4)C=C3)cc1
REMARK SMILES IDX 25 1 24 2 23 3 22 4 21 5 2 6 1 7 3 8 4 9 5 10 20 11 6 12
REMARK SMILES IDX 19 13 18 14 7 15 8 16 9 17 10 18 11 19 17 20 12 21 15 22
REMARK SMILES IDX 13 23 14 24 16 25 26 26 27 27 28 28 29 29 30 30 31 31 32 32
REMARK SMILES IDX 33 33 34 34 92 35 35 36 91 37 36 38 37 39 38 40 85 41 39 42
REMARK SMILES IDX 90 43 84 44 86 45 40 46 89 47 83 48 82 49 41 51 71 52 52 53
REMARK SMILES IDX 70 54 53 55 56 56 69 57 87 58 54 59 55 60 68 62 88 63 57 64
REMARK SMILES IDX 42 65 43 66 51 67 44 68 50 69 45 70 46 71 47 72 48 73 49 74
REMARK SMILES IDX 72 75 73 76 81 77 74 78 80 79 75 80 76 81 77 82 78 83 79 84
REMARK SMILES IDX 58 85 59 86 67 87 60 88 66 89 61 90 62 91 63 92 64 93 65 94
REMARK H PARENT 86 50 56 61
REMARK Flexibility Score: inf
ROOT
ATOM      1  C   UNL     1       6.961   3.379  -2.588  1.00  0.00     0.188 C 
ENDROOT
BRANCH   1   2
ATOM      2  O   UNL     1       6.134   4.523  -2.381  1.00  0.00    -0.376 OA
BRANCH   2   3
ATOM      3  C   UNL     1       5.797   4.842  -1.044  1.00  0.00     0.202 C 
BRANCH   3   4
ATOM      4  C   UNL     1       5.078   3.764  -0.259  1.00  0.00     0.261 C 
BRANCH   4   5
ATOM      5  O   UNL     1       5.721   2.485  -0.288  1.00  0.00    -0.463 OA
BRANCH   5   6
ATOM      6  C   UNL     1       5.080   1.341  -0.623  1.00  0.00     0.308 C 
ATOM      7  O   UNL     1       5.718   0.292  -0.695  1.00  0.00    -0.252 OA
BRANCH   6   8
ATOM      8  C   UNL     1       3.587   1.351  -0.856  1.00  0.00     0.156 C 
BRANCH   8   9
ATOM      9  C   UNL     1       2.734   1.157   0.409  1.00  0.00     0.144 C 
ATOM     10  C   UNL     1       3.496   0.722   1.669  1.00  0.00     0.135 C 
ATOM     11  O   UNL     1       1.854   2.258   0.688  1.00  0.00    -0.375 OA
ATOM     12  N   UNL     1       4.337   1.862   2.125  1.00  0.00    -0.193 NA
ATOM     13  C   UNL     1       2.367   3.322   1.488  1.00  0.00     0.177 C 
ATOM     14  C   UNL     1       3.401   2.956   2.571  1.00  0.00     0.131 C 
BRANCH  12  15
ATOM     15  S   UNL     1       5.567   1.550   3.275  1.00  0.00     0.243 S 
ATOM     16  O   UNL     1       6.211   2.830   3.508  1.00  0.00    -0.207 OA
ATOM     17  O   UNL     1       4.959   0.828   4.371  1.00  0.00    -0.207 OA
BRANCH  15  18
ATOM     18  C   UNL     1       6.808   0.480   2.567  1.00  0.00     0.088 A 
ATOM     19  C   UNL     1       6.502  -0.820   2.162  1.00  0.00     0.061 A 
ATOM     20  C   UNL     1       8.152   0.883   2.599  1.00  0.00     0.061 A 
ATOM     21  C   UNL     1       7.515  -1.665   1.710  1.00  0.00     0.127 A 
ATOM     22  C   UNL     1       9.151  -0.005   2.199  1.00  0.00     0.127 A 
ATOM     23  F   UNL     1       7.199  -2.897   1.290  1.00  0.00    -0.207 F 
ATOM     24  C   UNL     1       8.844  -1.274   1.733  1.00  0.00     0.078 A 
ATOM     25  F   UNL     1      10.436   0.358   2.305  1.00  0.00    -0.207 F 
ENDBRANCH  15  18
ENDBRANCH  12  15
ENDBRANCH   8   9
ENDBRANCH   6   8
ENDBRANCH   5   6
ENDBRANCH   4   5
ENDBRANCH   3   4
ENDBRANCH   2   3
ENDBRANCH   1   2
BRANCH   1  26
ATOM     26  C   UNL     1       8.253   3.282  -1.759  1.00  0.00     0.188 C 
BRANCH  26  27
ATOM     27  O   UNL     1       9.332   4.097  -2.227  1.00  0.00    -0.376 OA
BRANCH  27  28
ATOM     28  C   UNL     1       9.146   5.501  -2.090  1.00  0.00     0.202 C 
BRANCH  28  29
ATOM     29  C   UNL     1       9.020   6.236  -3.431  1.00  0.00     0.261 C 
BRANCH  29  30
ATOM     30  O   UNL     1       8.400   5.443  -4.449  1.00  0.00    -0.460 OA
BRANCH  30  31
ATOM     31  C   UNL     1       9.238   4.563  -5.069  1.00  0.00     0.338 C 
ATOM     32  O   UNL     1      10.441   4.511  -4.990  1.00  0.00    -0.246 OA
BRANCH  31  33
ATOM     33  C   UNL     1       8.397   3.543  -5.744  1.00  0.00     0.060 A 
ATOM     34  C   UNL     1       8.644   2.188  -5.476  1.00  0.00     0.016 A 
ATOM     35  C   UNL     1       7.315   3.920  -6.543  1.00  0.00     0.016 A 
ATOM     36  C   UNL     1       7.821   1.203  -6.033  1.00  0.00     0.010 A 
ATOM     37  C   UNL     1       6.513   2.936  -7.123  1.00  0.00     0.010 A 
ATOM     38  C   UNL     1       6.781   1.573  -6.898  1.00  0.00    -0.014 A 
BRANCH  38  39
ATOM     39  C   UNL     1       6.155   0.576  -7.801  1.00  0.00     0.031 A 
ATOM     40  C   UNL     1       6.827   0.348  -9.130  1.00  0.00     0.074 A 
ATOM     41  C   UNL     1       4.998  -0.047  -7.510  1.00  0.00     0.049 A 
ATOM     42  N   UNL     1       6.413  -0.337 -10.162  1.00  0.00    -0.248 NA
ATOM     43  C   UNL     1       8.137   0.998  -9.322  1.00  0.00     0.031 C 
ATOM     44  C   UNL     1       4.263   0.058  -6.251  1.00  0.00     0.029 A 
ATOM     45  N   UNL     1       4.221  -0.878  -8.284  1.00  0.00    -0.354 N 
ATOM     46  C   UNL     1       7.397  -0.182 -11.130  1.00  0.00     0.074 A 
ATOM     47  C   UNL     1       8.428   0.660 -10.568  1.00  0.00     0.031 C 
ATOM     48  C   UNL     1       3.124  -0.655  -6.351  1.00  0.00     0.029 A 
ATOM     49  C   UNL     1       3.031  -1.233  -7.692  1.00  0.00     0.049 A 
ATOM     50  H   UNL     1       4.492  -1.189  -9.178  1.00  0.00     0.167 HD
ATOM     51  C   UNL     1       7.437  -0.685 -12.383  1.00  0.00     0.031 A 
ATOM     52  C   UNL     1       1.974  -1.908  -8.192  1.00  0.00     0.031 A 
ATOM     53  C   UNL     1       6.410  -1.507 -12.954  1.00  0.00     0.049 A 
ATOM     54  C   UNL     1       2.011  -2.397  -9.622  1.00  0.00     0.074 A 
ATOM     55  C   UNL     1       6.383  -2.098 -14.204  1.00  0.00     0.029 A 
ATOM     56  N   UNL     1       5.222  -1.835 -12.324  1.00  0.00    -0.354 N 
ATOM     57  N   UNL     1       2.978  -2.298 -10.504  1.00  0.00    -0.248 NA
ATOM     58  C   UNL     1       0.809  -3.080 -10.127  1.00  0.00     0.031 C 
ATOM     59  C   UNL     1       5.148  -2.734 -14.354  1.00  0.00     0.029 A 
ATOM     60  C   UNL     1       4.432  -2.585 -13.176  1.00  0.00     0.049 A 
ATOM     61  H   UNL     1       4.976  -1.574 -11.407  1.00  0.00     0.167 HD
ATOM     62  C   UNL     1       2.506  -2.921 -11.658  1.00  0.00     0.074 A 
ATOM     63  C   UNL     1       1.177  -3.409 -11.359  1.00  0.00     0.031 C 
ATOM     64  C   UNL     1       3.115  -3.071 -12.860  1.00  0.00     0.031 A 
BRANCH  51  65
ATOM     65  C   UNL     1       8.612  -0.318 -13.242  1.00  0.00    -0.014 A 
ATOM     66  C   UNL     1       9.873  -0.905 -13.039  1.00  0.00     0.010 A 
ATOM     67  C   UNL     1       8.434   0.591 -14.300  1.00  0.00     0.010 A 
ATOM     68  C   UNL     1      10.942  -0.578 -13.876  1.00  0.00     0.020 A 
ATOM     69  C   UNL     1       9.495   0.904 -15.152  1.00  0.00     0.020 A 
ATOM     70  C   UNL     1      10.745   0.322 -14.929  1.00  0.00     0.054 A 
BRANCH  70  71
ATOM     71  S   UNL     1      12.135   0.681 -16.037  1.00  0.00     0.124 S 
ATOM     72  O   UNL     1      12.982   1.523 -15.196  1.00  0.00    -0.237 OA
ATOM     73  O   UNL     1      12.664  -0.649 -16.328  1.00  0.00    -0.237 OA
ATOM     74  O   UNL     1      11.510   1.361 -17.169  1.00  0.00    -0.744 OA
ENDBRANCH  70  71
ENDBRANCH  51  65
BRANCH  52  75
ATOM     75  C   UNL     1       0.745  -2.110  -7.372  1.00  0.00    -0.014 A 
ATOM     76  C   UNL     1       0.357  -3.397  -6.955  1.00  0.00     0.010 A 
ATOM     77  C   UNL     1      -0.081  -1.016  -7.055  1.00  0.00     0.010 A 
ATOM     78  C   UNL     1      -0.845  -3.588  -6.265  1.00  0.00     0.020 A 
ATOM     79  C   UNL     1      -1.269  -1.199  -6.341  1.00  0.00     0.020 A 
ATOM     80  C   UNL     1      -1.653  -2.487  -5.965  1.00  0.00     0.054 A 
BRANCH  80  81
ATOM     81  S   UNL     1      -3.196  -2.750  -5.046  1.00  0.00     0.124 S 
ATOM     82  O   UNL     1      -4.073  -3.297  -6.075  1.00  0.00    -0.237 OA
ATOM     83  O   UNL     1      -2.787  -3.683  -3.999  1.00  0.00    -0.237 OA
ATOM     84  O   UNL     1      -3.542  -1.411  -4.573  1.00  0.00    -0.744 OA
ENDBRANCH  80  81
ENDBRANCH  52  75
BRANCH  64  85
ATOM     85  C   UNL     1       2.374  -3.808 -13.943  1.00  0.00    -0.014 A 
ATOM     86  C   UNL     1       1.314  -3.200 -14.637  1.00  0.00     0.010 A 
ATOM     87  C   UNL     1       2.814  -5.084 -14.341  1.00  0.00     0.010 A 
ATOM     88  C   UNL     1       0.698  -3.862 -15.703  1.00  0.00     0.020 A 
ATOM     89  C   UNL     1       2.217  -5.738 -15.422  1.00  0.00     0.020 A 
ATOM     90  C   UNL     1       1.156  -5.125 -16.091  1.00  0.00     0.054 A 
BRANCH  90  91
ATOM     91  S   UNL     1       0.389  -5.930 -17.525  1.00  0.00     0.124 S 
ATOM     92  O   UNL     1      -0.894  -6.364 -16.979  1.00  0.00    -0.237 OA
ATOM     93  O   UNL     1       0.322  -4.848 -18.504  1.00  0.00    -0.237 OA
ATOM     94  O   UNL     1       1.321  -7.006 -17.858  1.00  0.00    -0.744 OA
ENDBRANCH  90  91
ENDBRANCH  64  85
ENDBRANCH  38  39
ENDBRANCH  31  33
ENDBRANCH  30  31
ENDBRANCH  29  30
ENDBRANCH  28  29
ENDBRANCH  27  28
ENDBRANCH  26  27
ENDBRANCH   1  26
TORSDOF 23
