REMARK SMILES C[C@@H](C(=O)OCCOCCOCCOC(=O)c1ccc(-c2c3nc(c(-c4ccc(S(=O)(=O)[O-])cc4)c4ccc([nH]4)c(-c4ccc(S(=O)(=O)[O-])cc4)c4nc(c(-c5ccc(S(=O)(=O)[O-])cc5)c5ccc2[nH]5)C=C4)C=C3)cc1)c1ccc(C[C@H]2CCCC2=O)cc1
REMARK SMILES IDX 9 1 8 2 7 3 6 4 5 5 3 6 4 7 2 8 1 9 77 10 78 11 89 12 79 13
REMARK SMILES IDX 88 14 80 15 81 16 82 17 83 18 86 19 84 20 85 21 87 22 10 23
REMARK SMILES IDX 11 24 12 25 13 26 14 27 15 28 16 29 17 30 18 31 76 32 19 33
REMARK SMILES IDX 75 34 20 35 21 36 22 37 69 38 23 39 74 40 68 41 70 42 24 43
REMARK SMILES IDX 73 44 67 45 66 46 25 48 55 49 36 50 54 51 37 52 40 53 53 54
REMARK SMILES IDX 71 55 38 56 39 57 52 59 72 60 41 61 26 62 27 63 35 64 28 65
REMARK SMILES IDX 34 66 29 67 30 68 31 69 32 70 33 71 56 72 57 73 65 74 58 75
REMARK SMILES IDX 64 76 59 77 60 78 61 79 62 80 63 81 42 82 43 83 51 84 44 85
REMARK SMILES IDX 50 86 45 87 46 88 47 89 48 90 49 91
REMARK H PARENT 70 47 40 58
REMARK Flexibility Score: inf
ROOT
ATOM      1  C   UNL     1       0.476  -3.813   1.003  1.00  0.00     0.188 C 
ENDROOT
BRANCH   1   2
ATOM      2  O   UNL     1       1.235  -4.995   0.805  1.00  0.00    -0.376 OA
BRANCH   2   3
ATOM      3  C   UNL     1       2.453  -4.904   0.075  1.00  0.00     0.202 C 
BRANCH   3   4
ATOM      4  C   UNL     1       2.524  -4.069  -1.218  1.00  0.00     0.261 C 
BRANCH   4   5
ATOM      5  O   UNL     1       2.030  -2.720  -1.098  1.00  0.00    -0.463 OA
BRANCH   5   6
ATOM      6  C   UNL     1       1.191  -2.284  -2.079  1.00  0.00     0.313 C 
ATOM      7  O   UNL     1       0.905  -2.952  -3.068  1.00  0.00    -0.252 OA
BRANCH   6   8
ATOM      8  C   UNL     1       0.600  -0.888  -1.827  1.00  0.00     0.126 C 
ATOM      9  C   UNL     1       1.427   0.012  -0.888  1.00  0.00     0.025 C 
BRANCH   8  10
ATOM     10  C   UNL     1      -0.901  -0.846  -1.503  1.00  0.00    -0.034 A 
ATOM     11  C   UNL     1      -1.530   0.400  -1.346  1.00  0.00     0.005 A 
ATOM     12  C   UNL     1      -1.724  -1.980  -1.443  1.00  0.00     0.005 A 
ATOM     13  C   UNL     1      -2.913   0.509  -1.146  1.00  0.00     0.004 A 
ATOM     14  C   UNL     1      -3.107  -1.872  -1.208  1.00  0.00     0.004 A 
ATOM     15  C   UNL     1      -3.726  -0.623  -1.057  1.00  0.00    -0.047 A 
BRANCH  15  16
ATOM     16  C   UNL     1      -5.240  -0.515  -0.996  1.00  0.00     0.047 C 
BRANCH  16  17
ATOM     17  C   UNL     1      -5.933   0.265   0.135  1.00  0.00     0.060 C 
ATOM     18  C   UNL     1      -5.707  -0.282   1.539  1.00  0.00     0.012 C 
ATOM     19  C   UNL     1      -5.490   1.700   0.296  1.00  0.00     0.136 C 
ATOM     20  C   UNL     1      -4.597   0.557   2.152  1.00  0.00     0.009 C 
ATOM     21  C   UNL     1      -4.848   1.962   1.636  1.00  0.00     0.076 C 
ATOM     22  O   UNL     1      -5.635   2.566  -0.559  1.00  0.00    -0.299 OA
ENDBRANCH  16  17
ENDBRANCH  15  16
ENDBRANCH   8  10
ENDBRANCH   6   8
ENDBRANCH   5   6
ENDBRANCH   4   5
ENDBRANCH   3   4
ENDBRANCH   2   3
ENDBRANCH   1   2
BRANCH   1  23
ATOM     23  C   UNL     1       1.164  -2.576   1.608  1.00  0.00     0.188 C 
BRANCH  23  24
ATOM     24  O   UNL     1       2.554  -2.659   1.786  1.00  0.00    -0.376 OA
BRANCH  24  25
ATOM     25  C   UNL     1       3.075  -3.071   3.038  1.00  0.00     0.202 C 
BRANCH  25  26
ATOM     26  C   UNL     1       2.271  -3.718   4.190  1.00  0.00     0.261 C 
BRANCH  26  27
ATOM     27  O   UNL     1       0.850  -3.831   4.069  1.00  0.00    -0.460 OA
BRANCH  27  28
ATOM     28  C   UNL     1       0.112  -2.891   4.705  1.00  0.00     0.338 C 
ATOM     29  O   UNL     1       0.527  -1.929   5.338  1.00  0.00    -0.246 OA
BRANCH  28  30
ATOM     30  C   UNL     1      -1.305  -3.106   4.363  1.00  0.00     0.060 A 
ATOM     31  C   UNL     1      -1.867  -2.365   3.323  1.00  0.00     0.016 A 
ATOM     32  C   UNL     1      -2.086  -4.019   5.072  1.00  0.00     0.016 A 
ATOM     33  C   UNL     1      -3.200  -2.555   2.977  1.00  0.00     0.010 A 
ATOM     34  C   UNL     1      -3.449  -4.156   4.759  1.00  0.00     0.010 A 
ATOM     35  C   UNL     1      -4.028  -3.397   3.727  1.00  0.00    -0.014 A 
BRANCH  35  36
ATOM     36  C   UNL     1      -5.508  -3.304   3.560  1.00  0.00     0.031 A 
ATOM     37  C   UNL     1      -6.310  -2.568   4.609  1.00  0.00     0.074 A 
ATOM     38  C   UNL     1      -6.134  -3.705   2.434  1.00  0.00     0.049 A 
ATOM     39  N   UNL     1      -7.604  -2.388   4.693  1.00  0.00    -0.248 NA
ATOM     40  C   UNL     1      -5.546  -1.935   5.697  1.00  0.00     0.031 C 
ATOM     41  C   UNL     1      -5.478  -4.258   1.251  1.00  0.00     0.029 A 
ATOM     42  N   UNL     1      -7.461  -3.628   2.074  1.00  0.00    -0.354 N 
ATOM     43  C   UNL     1      -7.814  -1.690   5.878  1.00  0.00     0.074 A 
ATOM     44  C   UNL     1      -6.513  -1.452   6.463  1.00  0.00     0.031 C 
ATOM     45  C   UNL     1      -6.394  -4.418   0.279  1.00  0.00     0.029 A 
ATOM     46  C   UNL     1      -7.717  -4.064   0.794  1.00  0.00     0.049 A 
ATOM     47  H   UNL     1      -8.162  -3.291   2.677  1.00  0.00     0.167 HD
ATOM     48  C   UNL     1      -8.983  -1.302   6.442  1.00  0.00     0.031 A 
ATOM     49  C   UNL     1      -8.882  -4.193   0.122  1.00  0.00     0.031 A 
ATOM     50  C   UNL     1     -10.281  -1.507   5.854  1.00  0.00     0.049 A 
ATOM     51  C   UNL     1     -10.181  -3.841   0.806  1.00  0.00     0.074 A 
ATOM     52  C   UNL     1     -11.521  -1.177   6.375  1.00  0.00     0.029 A 
ATOM     53  N   UNL     1     -10.511  -2.084   4.616  1.00  0.00    -0.354 N 
ATOM     54  N   UNL     1     -10.373  -3.272   1.973  1.00  0.00    -0.248 NA
ATOM     55  C   UNL     1     -11.423  -4.173   0.090  1.00  0.00     0.031 C 
ATOM     56  C   UNL     1     -12.503  -1.618   5.483  1.00  0.00     0.029 A 
ATOM     57  C   UNL     1     -11.873  -2.150   4.371  1.00  0.00     0.049 A 
ATOM     58  H   UNL     1      -9.810  -2.401   4.001  1.00  0.00     0.167 HD
ATOM     59  C   UNL     1     -11.755  -3.171   2.123  1.00  0.00     0.074 A 
ATOM     60  C   UNL     1     -12.349  -3.707   0.917  1.00  0.00     0.031 C 
ATOM     61  C   UNL     1     -12.466  -2.687   3.172  1.00  0.00     0.031 A 
BRANCH  48  62
ATOM     62  C   UNL     1      -8.925  -0.702   7.824  1.00  0.00    -0.014 A 
ATOM     63  C   UNL     1      -8.440   0.595   8.061  1.00  0.00     0.010 A 
ATOM     64  C   UNL     1      -9.413  -1.460   8.907  1.00  0.00     0.010 A 
ATOM     65  C   UNL     1      -8.411   1.108   9.362  1.00  0.00     0.020 A 
ATOM     66  C   UNL     1      -9.415  -0.939  10.202  1.00  0.00     0.020 A 
ATOM     67  C   UNL     1      -8.898   0.337  10.424  1.00  0.00     0.054 A 
BRANCH  67  68
ATOM     68  S   UNL     1      -8.867   1.035  12.098  1.00  0.00     0.124 S 
ATOM     69  O   UNL     1      -7.438   1.024  12.401  1.00  0.00    -0.237 OA
ATOM     70  O   UNL     1      -9.458   2.356  11.903  1.00  0.00    -0.237 OA
ATOM     71  O   UNL     1      -9.675   0.101  12.879  1.00  0.00    -0.744 OA
ENDBRANCH  67  68
ENDBRANCH  48  62
BRANCH  49  72
ATOM     72  C   UNL     1      -8.894  -4.754  -1.262  1.00  0.00    -0.014 A 
ATOM     73  C   UNL     1      -9.362  -3.996  -2.351  1.00  0.00     0.010 A 
ATOM     74  C   UNL     1      -8.467  -6.076  -1.492  1.00  0.00     0.010 A 
ATOM     75  C   UNL     1      -9.411  -4.551  -3.636  1.00  0.00     0.020 A 
ATOM     76  C   UNL     1      -8.477  -6.621  -2.777  1.00  0.00     0.020 A 
ATOM     77  C   UNL     1      -8.961  -5.859  -3.841  1.00  0.00     0.054 A 
BRANCH  77  78
ATOM     78  S   UNL     1      -8.981  -6.546  -5.520  1.00  0.00     0.124 S 
ATOM     79  O   UNL     1     -10.405  -6.779  -5.736  1.00  0.00    -0.237 OA
ATOM     80  O   UNL     1      -8.388  -5.468  -6.308  1.00  0.00    -0.237 OA
ATOM     81  O   UNL     1      -8.159  -7.749  -5.405  1.00  0.00    -0.744 OA
ENDBRANCH  77  78
ENDBRANCH  49  72
BRANCH  61  82
ATOM     82  C   UNL     1     -13.972  -2.684   3.067  1.00  0.00    -0.014 A 
ATOM     83  C   UNL     1     -14.712  -3.880   3.105  1.00  0.00     0.010 A 
ATOM     84  C   UNL     1     -14.663  -1.460   2.995  1.00  0.00     0.010 A 
ATOM     85  C   UNL     1     -16.109  -3.853   3.038  1.00  0.00     0.020 A 
ATOM     86  C   UNL     1     -16.061  -1.427   2.960  1.00  0.00     0.020 A 
ATOM     87  C   UNL     1     -16.775  -2.626   2.967  1.00  0.00     0.054 A 
BRANCH  87  88
ATOM     88  S   UNL     1     -18.589  -2.618   2.924  1.00  0.00     0.124 S 
ATOM     89  O   UNL     1     -18.864  -3.131   1.584  1.00  0.00    -0.237 OA
ATOM     90  O   UNL     1     -18.940  -3.512   4.024  1.00  0.00    -0.237 OA
ATOM     91  O   UNL     1     -18.936  -1.214   3.135  1.00  0.00    -0.744 OA
ENDBRANCH  87  88
ENDBRANCH  61  82
ENDBRANCH  35  36
ENDBRANCH  28  30
ENDBRANCH  27  28
ENDBRANCH  26  27
ENDBRANCH  25  26
ENDBRANCH  24  25
ENDBRANCH  23  24
ENDBRANCH   1  23
TORSDOF 23
