REMARK SMILES COc1ccc(N[C@]2(Br)C(=O)NC(=O)N[C@@H]2C(=O)OCCOCCOCCOC(=O)c2ccc(-c3c4nc(c(-c5ccc(S(=O)(=O)[O-])cc5)c5ccc([nH]5)c(-c5ccc(S(=O)(=O)[O-])cc5)c5nc(c(-c6ccc(S(=O)(=O)[O-])cc6)c6ccc3[nH]6)C=C5)C=C4)cc2)cc1
REMARK SMILES IDX 23 1 22 2 21 3 20 4 19 5 17 6 18 7 16 8 8 9 10 10 9 11 11 12
REMARK SMILES IDX 12 13 15 14 13 15 14 18 7 19 6 21 3 22 4 23 92 24 5 25 91 26
REMARK SMILES IDX 2 27 1 28 24 29 25 30 26 31 27 32 28 33 29 34 30 35 31 36
REMARK SMILES IDX 32 37 90 38 33 39 89 40 34 41 35 42 36 43 83 44 37 45 88 46
REMARK SMILES IDX 82 47 84 48 38 49 87 50 81 51 80 52 39 54 69 55 50 56 68 57
REMARK SMILES IDX 51 58 54 59 67 60 85 61 52 62 53 63 66 65 86 66 55 67 40 68
REMARK SMILES IDX 41 69 49 70 42 71 48 72 43 73 44 74 45 75 46 76 47 77 70 78
REMARK SMILES IDX 71 79 79 80 72 81 78 82 73 83 74 84 75 85 76 86 77 87 56 88
REMARK SMILES IDX 57 89 65 90 58 91 64 92 59 93 60 94 61 95 62 96 63 97
REMARK H PARENT 12 16 15 17 7 20 84 53 54 64
REMARK Flexibility Score: inf
ROOT
ATOM      1  C   UNL     1      -0.804  -3.681   9.986  1.00  0.00     0.188 C 
ENDROOT
BRANCH   1   2
ATOM      2  O   UNL     1      -2.131  -3.950  10.419  1.00  0.00    -0.376 OA
BRANCH   2   3
ATOM      3  C   UNL     1      -3.074  -2.908  10.203  1.00  0.00     0.202 C 
BRANCH   3   4
ATOM      4  C   UNL     1      -3.511  -2.841   8.742  1.00  0.00     0.261 C 
BRANCH   4   5
ATOM      5  O   UNL     1      -2.383  -2.625   7.873  1.00  0.00    -0.462 OA
BRANCH   5   6
ATOM      6  C   UNL     1      -1.985  -1.342   7.650  1.00  0.00     0.332 C 
ATOM      7  O   UNL     1      -2.651  -0.355   7.926  1.00  0.00    -0.250 OA
BRANCH   6   8
ATOM      8  C   UNL     1      -0.683  -1.347   6.854  1.00  0.00     0.240 C 
ATOM      9  C   UNL     1       0.441  -0.488   7.448  1.00  0.00     0.204 C 
ATOM     10  C   UNL     1       0.293   0.990   7.094  1.00  0.00     0.267 C 
ATOM     11  Br  UNL     1       2.097  -1.001   6.337  1.00  0.00    -0.048 Br
ATOM     12  O   UNL     1       0.932   1.889   7.641  1.00  0.00    -0.271 OA
ATOM     13  N   UNL     1      -0.533   1.285   6.032  1.00  0.00    -0.275 N 
ATOM     14  N   UNL     1      -1.073  -0.905   5.516  1.00  0.00    -0.321 N 
ATOM     15  C   UNL     1      -1.135   0.409   5.177  1.00  0.00     0.322 C 
ATOM     16  H   UNL     1      -0.709   2.240   5.871  1.00  0.00     0.174 HD
ATOM     17  H   UNL     1      -1.299  -1.582   4.838  1.00  0.00     0.166 HD
ATOM     18  O   UNL     1      -1.676   0.762   4.137  1.00  0.00    -0.248 OA
BRANCH   9  19
ATOM     19  N   UNL     1       0.930  -0.773   8.795  1.00  0.00    -0.360 N 
ATOM     20  H   UNL     1       1.795  -1.244   8.815  1.00  0.00     0.162 HD
BRANCH  19  21
ATOM     21  C   UNL     1       0.409  -0.506  10.039  1.00  0.00     0.036 A 
ATOM     22  C   UNL     1      -0.738  -0.610  12.645  1.00  0.00     0.119 A 
ATOM     23  C   UNL     1      -1.364   0.071  11.599  1.00  0.00     0.048 A 
ATOM     24  C   UNL     1       0.522  -1.126  12.422  1.00  0.00     0.048 A 
ATOM     25  C   UNL     1      -0.786   0.137  10.315  1.00  0.00     0.029 A 
ATOM     26  C   UNL     1       1.057  -1.086  11.133  1.00  0.00     0.029 A 
BRANCH  22  27
ATOM     27  O   UNL     1      -1.452  -0.737  13.802  1.00  0.00    -0.497 OA
ATOM     28  C   UNL     1      -0.845  -1.501  14.843  1.00  0.00     0.278 C 
ENDBRANCH  22  27
ENDBRANCH  19  21
ENDBRANCH   9  19
ENDBRANCH   6   8
ENDBRANCH   5   6
ENDBRANCH   4   5
ENDBRANCH   3   4
ENDBRANCH   2   3
ENDBRANCH   1   2
BRANCH   1  29
ATOM     29  C   UNL     1      -0.262  -4.710   8.981  1.00  0.00     0.188 C 
BRANCH  29  30
ATOM     30  O   UNL     1      -0.492  -6.101   9.165  1.00  0.00    -0.376 OA
BRANCH  30  31
ATOM     31  C   UNL     1      -1.039  -6.546  10.391  1.00  0.00     0.202 C 
BRANCH  31  32
ATOM     32  C   UNL     1      -0.106  -6.546  11.614  1.00  0.00     0.261 C 
BRANCH  32  33
ATOM     33  O   UNL     1       0.818  -5.449  11.747  1.00  0.00    -0.460 OA
BRANCH  33  34
ATOM     34  C   UNL     1       2.031  -5.604  11.153  1.00  0.00     0.338 C 
ATOM     35  O   UNL     1       2.396  -6.553  10.487  1.00  0.00    -0.246 OA
BRANCH  34  36
ATOM     36  C   UNL     1       2.862  -4.383  11.354  1.00  0.00     0.060 A 
ATOM     37  C   UNL     1       3.513  -3.805  10.253  1.00  0.00     0.016 A 
ATOM     38  C   UNL     1       3.053  -3.834  12.626  1.00  0.00     0.016 A 
ATOM     39  C   UNL     1       4.341  -2.677  10.418  1.00  0.00     0.010 A 
ATOM     40  C   UNL     1       3.885  -2.710  12.790  1.00  0.00     0.010 A 
ATOM     41  C   UNL     1       4.541  -2.118  11.691  1.00  0.00    -0.014 A 
BRANCH  41  42
ATOM     42  C   UNL     1       5.558  -1.045  11.922  1.00  0.00     0.031 A 
ATOM     43  C   UNL     1       6.924  -1.470  12.395  1.00  0.00     0.074 A 
ATOM     44  C   UNL     1       5.309   0.275  11.772  1.00  0.00     0.049 A 
ATOM     45  N   UNL     1       7.967  -0.738  12.689  1.00  0.00    -0.248 NA
ATOM     46  C   UNL     1       7.133  -2.918  12.560  1.00  0.00     0.031 C 
ATOM     47  C   UNL     1       4.063   0.862  11.297  1.00  0.00     0.029 A 
ATOM     48  N   UNL     1       6.104   1.374  12.027  1.00  0.00    -0.354 N 
ATOM     49  C   UNL     1       8.960  -1.634  13.064  1.00  0.00     0.074 A 
ATOM     50  C   UNL     1       8.376  -2.958  13.013  1.00  0.00     0.031 C 
ATOM     51  C   UNL     1       4.154   2.203  11.328  1.00  0.00     0.029 A 
ATOM     52  C   UNL     1       5.471   2.584  11.826  1.00  0.00     0.049 A 
ATOM     53  H   UNL     1       7.039   1.302  12.325  1.00  0.00     0.167 HD
ATOM     54  C   UNL     1      10.247  -1.390  13.405  1.00  0.00     0.031 A 
ATOM     55  C   UNL     1       5.892   3.854  12.017  1.00  0.00     0.031 A 
ATOM     56  C   UNL     1      10.830  -0.080  13.504  1.00  0.00     0.049 A 
ATOM     57  C   UNL     1       7.303   4.108  12.487  1.00  0.00     0.074 A 
ATOM     58  C   UNL     1      12.134   0.256  13.823  1.00  0.00     0.029 A 
ATOM     59  N   UNL     1      10.147   1.111  13.311  1.00  0.00    -0.354 N 
ATOM     60  N   UNL     1       8.251   3.242  12.757  1.00  0.00    -0.248 NA
ATOM     61  C   UNL     1       7.711   5.512  12.653  1.00  0.00     0.031 C 
ATOM     62  C   UNL     1      12.222   1.649  13.894  1.00  0.00     0.029 A 
ATOM     63  C   UNL     1      10.993   2.183  13.542  1.00  0.00     0.049 A 
ATOM     64  H   UNL     1       9.201   1.183  13.049  1.00  0.00     0.167 HD
ATOM     65  C   UNL     1       9.376   3.997  13.081  1.00  0.00     0.074 A 
ATOM     66  C   UNL     1       8.993   5.389  12.970  1.00  0.00     0.031 C 
ATOM     67  C   UNL     1      10.615   3.570  13.430  1.00  0.00     0.031 A 
BRANCH  54  68
ATOM     68  C   UNL     1      11.099  -2.586  13.732  1.00  0.00    -0.014 A 
ATOM     69  C   UNL     1      11.470  -3.506  12.733  1.00  0.00     0.010 A 
ATOM     70  C   UNL     1      11.527  -2.797  15.054  1.00  0.00     0.010 A 
ATOM     71  C   UNL     1      12.204  -4.647  13.063  1.00  0.00     0.020 A 
ATOM     72  C   UNL     1      12.290  -3.920  15.382  1.00  0.00     0.020 A 
ATOM     73  C   UNL     1      12.603  -4.849  14.387  1.00  0.00     0.054 A 
BRANCH  73  74
ATOM     74  S   UNL     1      13.548  -6.343  14.788  1.00  0.00     0.124 S 
ATOM     75  O   UNL     1      12.529  -7.383  14.668  1.00  0.00    -0.237 OA
ATOM     76  O   UNL     1      14.581  -6.354  13.756  1.00  0.00    -0.237 OA
ATOM     77  O   UNL     1      14.029  -6.097  16.145  1.00  0.00    -0.744 OA
ENDBRANCH  73  74
ENDBRANCH  54  68
BRANCH  55  78
ATOM     78  C   UNL     1       4.974   5.005  11.755  1.00  0.00    -0.014 A 
ATOM     79  C   UNL     1       5.207   5.881  10.678  1.00  0.00     0.010 A 
ATOM     80  C   UNL     1       3.875   5.250  12.600  1.00  0.00     0.010 A 
ATOM     81  C   UNL     1       4.375   6.988  10.465  1.00  0.00     0.020 A 
ATOM     82  C   UNL     1       3.025   6.340  12.374  1.00  0.00     0.020 A 
ATOM     83  C   UNL     1       3.287   7.208  11.313  1.00  0.00     0.054 A 
BRANCH  83  84
ATOM     84  S   UNL     1       2.199   8.627  10.990  1.00  0.00     0.124 S 
ATOM     85  O   UNL     1       3.053   9.755  11.344  1.00  0.00    -0.237 OA
ATOM     86  O   UNL     1       1.903   8.480   9.567  1.00  0.00    -0.237 OA
ATOM     87  O   UNL     1       1.063   8.400  11.881  1.00  0.00    -0.744 OA
ENDBRANCH  83  84
ENDBRANCH  55  78
BRANCH  67  88
ATOM     88  C   UNL     1      11.681   4.609  13.678  1.00  0.00    -0.014 A 
ATOM     89  C   UNL     1      11.652   5.441  14.810  1.00  0.00     0.010 A 
ATOM     90  C   UNL     1      12.776   4.696  12.797  1.00  0.00     0.010 A 
ATOM     91  C   UNL     1      12.684   6.357  15.044  1.00  0.00     0.020 A 
ATOM     92  C   UNL     1      13.825   5.587  13.043  1.00  0.00     0.020 A 
ATOM     93  C   UNL     1      13.766   6.420  14.161  1.00  0.00     0.054 A 
BRANCH  93  94
ATOM     94  S   UNL     1      15.121   7.573  14.519  1.00  0.00     0.124 S 
ATOM     95  O   UNL     1      14.504   8.866  14.239  1.00  0.00    -0.237 OA
ATOM     96  O   UNL     1      15.406   7.304  15.926  1.00  0.00    -0.237 OA
ATOM     97  O   UNL     1      16.175   7.171  13.589  1.00  0.00    -0.744 OA
ENDBRANCH  93  94
ENDBRANCH  67  88
ENDBRANCH  41  42
ENDBRANCH  34  36
ENDBRANCH  33  34
ENDBRANCH  32  33
ENDBRANCH  31  32
ENDBRANCH  30  31
ENDBRANCH  29  30
ENDBRANCH   1  29
TORSDOF 23
