REMARK SMILES COc1ccc(-c2ccc(CCC(=O)OCCOCCOCCOC(=O)c3ccc(-c4c5nc(c(-c6ccc(S(=O)(=O)[O-])cc6)c6ccc([nH]6)c(-c6ccc(S(=O)(=O)[O-])cc6)c6nc(c(-c7ccc(S(=O)(=O)[O-])cc7)c7ccc4[nH]7)C=C6)C=C5)cc3)n2-c2ccc(C(C)=O)cc2)cc1
REMARK SMILES IDX 19 1 18 2 17 3 16 4 15 5 13 6 14 7 12 8 11 9 10 10 7 11 8 12
REMARK SMILES IDX 87 13 9 14 6 15 3 16 4 17 98 18 5 19 97 20 2 21 1 22 88 23
REMARK SMILES IDX 89 24 96 25 90 26 95 27 91 28 92 29 93 30 94 31 20 32 21 33
REMARK SMILES IDX 22 34 23 35 24 36 25 37 26 38 27 39 28 40 86 41 29 42 85 43
REMARK SMILES IDX 30 44 31 45 32 46 79 47 33 48 84 49 78 50 80 51 34 52 83 53
REMARK SMILES IDX 77 54 76 55 35 57 65 58 46 59 64 60 47 61 50 62 63 63 81 64
REMARK SMILES IDX 48 65 49 66 62 68 82 69 51 70 36 71 37 72 45 73 38 74 44 75
REMARK SMILES IDX 39 76 40 77 41 78 42 79 43 80 66 81 67 82 75 83 68 84 74 85
REMARK SMILES IDX 69 86 70 87 71 88 72 89 73 90 52 91 53 92 61 93 54 94 60 95
REMARK SMILES IDX 55 96 56 97 57 98 58 99 59 100
REMARK H PARENT 80 56 50 67
REMARK Flexibility Score: inf
ROOT
ATOM      1  C   UNL     1       4.415   8.771   9.000  1.00  0.00     0.188 C 
ENDROOT
BRANCH   1   2
ATOM      2  O   UNL     1       5.846   8.841   9.007  1.00  0.00    -0.376 OA
BRANCH   2   3
ATOM      3  C   UNL     1       6.527   8.190   7.933  1.00  0.00     0.202 C 
BRANCH   3   4
ATOM      4  C   UNL     1       6.515   6.657   7.986  1.00  0.00     0.261 C 
BRANCH   4   5
ATOM      5  O   UNL     1       5.186   6.103   7.947  1.00  0.00    -0.463 OA
BRANCH   5   6
ATOM      6  C   UNL     1       4.843   5.215   8.906  1.00  0.00     0.306 C 
ATOM      7  O   UNL     1       5.598   4.824   9.792  1.00  0.00    -0.252 OA
BRANCH   6   8
ATOM      8  C   UNL     1       3.421   4.691   8.793  1.00  0.00     0.129 C 
BRANCH   8   9
ATOM      9  C   UNL     1       2.417   5.435   7.908  1.00  0.00     0.066 C 
BRANCH   9  10
ATOM     10  C   UNL     1       2.520   5.078   6.449  1.00  0.00     0.024 A 
ATOM     11  C   UNL     1       2.188   4.052   4.461  1.00  0.00     0.053 A 
ATOM     12  C   UNL     1       3.262   4.908   4.323  1.00  0.00     0.029 A 
ATOM     13  N   UNL     1       1.685   4.203   5.755  1.00  0.00    -0.314 N 
ATOM     14  C   UNL     1       3.485   5.510   5.561  1.00  0.00     0.024 A 
BRANCH  11  15
ATOM     15  C   UNL     1       1.656   3.206   3.397  1.00  0.00    -0.001 A 
ATOM     16  C   UNL     1       0.801   1.683   1.205  1.00  0.00     0.118 A 
ATOM     17  C   UNL     1      -0.062   2.600   1.810  1.00  0.00     0.047 A 
ATOM     18  C   UNL     1       2.102   1.543   1.684  1.00  0.00     0.047 A 
ATOM     19  C   UNL     1       0.359   3.358   2.906  1.00  0.00     0.014 A 
ATOM     20  C   UNL     1       2.525   2.300   2.775  1.00  0.00     0.014 A 
BRANCH  16  21
ATOM     21  O   UNL     1       0.284   1.006   0.135  1.00  0.00    -0.497 OA
ATOM     22  C   UNL     1       0.936  -0.217  -0.188  1.00  0.00     0.278 C 
ENDBRANCH  16  21
ENDBRANCH  11  15
BRANCH  13  23
ATOM     23  C   UNL     1       0.564   3.521   6.290  1.00  0.00     0.046 A 
ATOM     24  C   UNL     1      -0.518   4.248   6.796  1.00  0.00     0.027 A 
ATOM     25  C   UNL     1       0.541   2.126   6.289  1.00  0.00     0.027 A 
ATOM     26  C   UNL     1      -1.632   3.571   7.313  1.00  0.00     0.014 A 
ATOM     27  C   UNL     1      -0.561   1.459   6.830  1.00  0.00     0.014 A 
ATOM     28  C   UNL     1      -1.659   2.171   7.343  1.00  0.00     0.017 A 
BRANCH  28  29
ATOM     29  C   UNL     1      -2.794   1.372   7.906  1.00  0.00     0.159 C 
ATOM     30  C   UNL     1      -4.091   2.026   8.308  1.00  0.00     0.093 C 
ATOM     31  O   UNL     1      -2.666   0.151   8.026  1.00  0.00    -0.295 OA
ENDBRANCH  28  29
ENDBRANCH  13  23
ENDBRANCH   9  10
ENDBRANCH   8   9
ENDBRANCH   6   8
ENDBRANCH   5   6
ENDBRANCH   4   5
ENDBRANCH   3   4
ENDBRANCH   2   3
ENDBRANCH   1   2
BRANCH   1  32
ATOM     32  C   UNL     1       3.753   9.301   7.721  1.00  0.00     0.188 C 
BRANCH  32  33
ATOM     33  O   UNL     1       4.098   8.465   6.622  1.00  0.00    -0.376 OA
BRANCH  33  34
ATOM     34  C   UNL     1       3.657   8.770   5.303  1.00  0.00     0.202 C 
BRANCH  34  35
ATOM     35  C   UNL     1       3.699  10.222   4.849  1.00  0.00     0.261 C 
BRANCH  35  36
ATOM     36  O   UNL     1       2.930  11.103   5.656  1.00  0.00    -0.460 OA
BRANCH  36  37
ATOM     37  C   UNL     1       1.676  10.754   5.962  1.00  0.00     0.338 C 
ATOM     38  O   UNL     1       1.050   9.749   5.608  1.00  0.00    -0.246 OA
BRANCH  37  39
ATOM     39  C   UNL     1       1.125  11.769   6.845  1.00  0.00     0.060 A 
ATOM     40  C   UNL     1      -0.052  11.464   7.536  1.00  0.00     0.016 A 
ATOM     41  C   UNL     1       1.677  13.058   6.829  1.00  0.00     0.016 A 
ATOM     42  C   UNL     1      -0.781  12.499   8.071  1.00  0.00     0.010 A 
ATOM     43  C   UNL     1       0.925  14.095   7.311  1.00  0.00     0.010 A 
ATOM     44  C   UNL     1      -0.322  13.805   7.870  1.00  0.00    -0.014 A 
BRANCH  44  45
ATOM     45  C   UNL     1      -1.196  14.919   8.219  1.00  0.00     0.031 A 
ATOM     46  C   UNL     1      -0.909  15.441   9.615  1.00  0.00     0.074 A 
ATOM     47  C   UNL     1      -2.091  15.257   7.242  1.00  0.00     0.049 A 
ATOM     48  N   UNL     1      -1.692  16.091  10.412  1.00  0.00    -0.248 NA
ATOM     49  C   UNL     1       0.398  15.139  10.265  1.00  0.00     0.031 C 
ATOM     50  C   UNL     1      -2.196  14.583   5.921  1.00  0.00     0.029 A 
ATOM     51  N   UNL     1      -3.080  16.205   7.137  1.00  0.00    -0.354 N 
ATOM     52  C   UNL     1      -0.936  16.439  11.546  1.00  0.00     0.074 A 
ATOM     53  C   UNL     1       0.305  15.736  11.453  1.00  0.00     0.031 C 
ATOM     54  C   UNL     1      -3.223  15.081   5.203  1.00  0.00     0.029 A 
ATOM     55  C   UNL     1      -3.857  16.143   5.955  1.00  0.00     0.049 A 
ATOM     56  H   UNL     1      -3.237  16.881   7.836  1.00  0.00     0.167 HD
ATOM     57  C   UNL     1      -1.328  17.405  12.421  1.00  0.00     0.031 A 
ATOM     58  C   UNL     1      -4.961  16.873   5.619  1.00  0.00     0.031 A 
ATOM     59  C   UNL     1      -2.612  17.910  12.061  1.00  0.00     0.049 A 
ATOM     60  C   UNL     1      -5.114  17.884   6.679  1.00  0.00     0.074 A 
ATOM     61  C   UNL     1      -3.868  17.363  12.097  1.00  0.00     0.029 A 
ATOM     62  N   UNL     1      -2.621  19.003  11.225  1.00  0.00    -0.354 N 
ATOM     63  N   UNL     1      -4.335  18.907   6.856  1.00  0.00    -0.248 NA
ATOM     64  C   UNL     1      -6.171  17.700   7.680  1.00  0.00     0.031 C 
ATOM     65  C   UNL     1      -4.482  17.860  10.925  1.00  0.00     0.029 A 
ATOM     66  C   UNL     1      -3.644  18.808  10.328  1.00  0.00     0.049 A 
ATOM     67  H   UNL     1      -2.012  19.776  11.262  1.00  0.00     0.167 HD
ATOM     68  C   UNL     1      -4.566  19.234   8.169  1.00  0.00     0.074 A 
ATOM     69  C   UNL     1      -5.872  18.704   8.500  1.00  0.00     0.031 C 
ATOM     70  C   UNL     1      -3.517  19.401   9.015  1.00  0.00     0.031 A 
BRANCH  57  71
ATOM     71  C   UNL     1      -0.539  18.156  13.450  1.00  0.00    -0.014 A 
ATOM     72  C   UNL     1      -1.280  18.921  14.381  1.00  0.00     0.010 A 
ATOM     73  C   UNL     1       0.834  18.417  13.330  1.00  0.00     0.010 A 
ATOM     74  C   UNL     1      -0.713  20.006  15.046  1.00  0.00     0.020 A 
ATOM     75  C   UNL     1       1.422  19.480  14.030  1.00  0.00     0.020 A 
ATOM     76  C   UNL     1       0.629  20.303  14.833  1.00  0.00     0.054 A 
BRANCH  76  77
ATOM     77  S   UNL     1       1.291  21.833  15.542  1.00  0.00     0.124 S 
ATOM     78  O   UNL     1       0.709  22.848  14.669  1.00  0.00    -0.237 OA
ATOM     79  O   UNL     1       0.766  21.804  16.905  1.00  0.00    -0.237 OA
ATOM     80  O   UNL     1       2.737  21.660  15.436  1.00  0.00    -0.744 OA
ENDBRANCH  76  77
ENDBRANCH  57  71
BRANCH  58  81
ATOM     81  C   UNL     1      -6.056  16.816   4.583  1.00  0.00    -0.014 A 
ATOM     82  C   UNL     1      -6.169  15.882   3.546  1.00  0.00     0.010 A 
ATOM     83  C   UNL     1      -7.166  17.691   4.751  1.00  0.00     0.010 A 
ATOM     84  C   UNL     1      -7.378  15.733   2.827  1.00  0.00     0.020 A 
ATOM     85  C   UNL     1      -8.381  17.520   4.088  1.00  0.00     0.020 A 
ATOM     86  C   UNL     1      -8.492  16.517   3.142  1.00  0.00     0.054 A 
BRANCH  86  87
ATOM     87  S   UNL     1     -10.128  16.149   2.447  1.00  0.00     0.124 S 
ATOM     88  O   UNL     1     -10.149  16.973   1.244  1.00  0.00    -0.237 OA
ATOM     89  O   UNL     1     -10.074  14.706   2.226  1.00  0.00    -0.237 OA
ATOM     90  O   UNL     1     -11.043  16.567   3.509  1.00  0.00    -0.744 OA
ENDBRANCH  86  87
ENDBRANCH  58  81
BRANCH  70  91
ATOM     91  C   UNL     1      -2.200  19.788   8.354  1.00  0.00    -0.014 A 
ATOM     92  C   UNL     1      -2.105  20.986   7.622  1.00  0.00     0.010 A 
ATOM     93  C   UNL     1      -1.066  18.951   8.365  1.00  0.00     0.010 A 
ATOM     94  C   UNL     1      -0.935  21.329   6.925  1.00  0.00     0.020 A 
ATOM     95  C   UNL     1       0.112  19.284   7.672  1.00  0.00     0.020 A 
ATOM     96  C   UNL     1       0.169  20.476   6.953  1.00  0.00     0.054 A 
BRANCH  96  97
ATOM     97  S   UNL     1       1.660  20.937   6.019  1.00  0.00     0.124 S 
ATOM     98  O   UNL     1       1.153  21.101   4.659  1.00  0.00    -0.237 OA
ATOM     99  O   UNL     1       2.079  22.169   6.681  1.00  0.00    -0.237 OA
ATOM    100  O   UNL     1       2.558  19.797   6.205  1.00  0.00    -0.744 OA
ENDBRANCH  96  97
ENDBRANCH  70  91
ENDBRANCH  44  45
ENDBRANCH  37  39
ENDBRANCH  36  37
ENDBRANCH  35  36
ENDBRANCH  34  35
ENDBRANCH  33  34
ENDBRANCH  32  33
ENDBRANCH   1  32
TORSDOF 26
