REMARK SMILES COCCNC(=O)N[C@H]1CCCCC[C@@H]1C(=O)OCCOCCOCCOC(=O)c1ccc(-c2c3nc(c(-c4ccc(S(=O)(=O)[O-])cc4)c4ccc([nH]4)c(-c4ccc(S(=O)(=O)[O-])cc4)c4nc(c(-c5ccc(S(=O)(=O)[O-])cc5)c5ccc2[nH]5)C=C4)C=C3)cc1
REMARK SMILES IDX 22 1 21 2 20 3 19 4 18 5 16 6 17 7 15 8 9 9 8 10 5 11 6 12
REMARK SMILES IDX 7 14 4 16 3 17 2 18 1 19 10 20 11 21 14 23 13 24 12 25 23 27
REMARK SMILES IDX 24 28 25 29 26 30 27 31 28 32 29 33 30 34 31 35 89 36 32 37
REMARK SMILES IDX 88 38 33 39 34 40 35 41 82 42 36 43 87 44 81 45 83 46 37 47
REMARK SMILES IDX 86 48 80 49 79 50 38 52 68 53 49 54 67 55 50 56 53 57 66 58
REMARK SMILES IDX 84 59 51 60 52 61 65 63 85 64 54 65 39 66 40 67 48 68 41 69
REMARK SMILES IDX 47 70 42 71 43 72 44 73 45 74 46 75 69 76 70 77 78 78 71 79
REMARK SMILES IDX 77 80 72 81 73 82 74 83 75 84 76 85 55 86 56 87 64 88 57 89
REMARK SMILES IDX 63 90 58 91 59 92 60 93 61 94 62 95
REMARK H PARENT 5 13 8 15 83 51 53 62
REMARK Flexibility Score: 90.00
ROOT
ATOM      1  C   UNL     1      -1.277   1.876   4.775  1.00  0.00     0.188 C 
ENDROOT
BRANCH   1   2
ATOM      2  O   UNL     1      -1.871   0.683   4.282  1.00  0.00    -0.376 OA
BRANCH   2   3
ATOM      3  C   UNL     1      -2.319   0.737   2.937  1.00  0.00     0.202 C 
BRANCH   3   4
ATOM      4  C   UNL     1      -1.171   0.915   1.952  1.00  0.00     0.261 C 
BRANCH   4   5
ATOM      5  O   UNL     1      -0.500   2.195   2.053  1.00  0.00    -0.463 OA
BRANCH   5   6
ATOM      6  C   UNL     1      -1.188   3.284   1.652  1.00  0.00     0.311 C 
ATOM      7  O   UNL     1      -2.386   3.251   1.389  1.00  0.00    -0.252 OA
BRANCH   6   8
ATOM      8  C   UNL     1      -0.356   4.563   1.534  1.00  0.00     0.121 C 
BRANCH   8   9
ATOM      9  C   UNL     1       1.200   4.457   1.672  1.00  0.00     0.098 C 
BRANCH   9  10
ATOM     10  N   UNL     1       1.989   4.571   0.396  1.00  0.00    -0.335 N 
ATOM     11  N   UNL     1       1.796   2.837  -1.209  1.00  0.00    -0.336 N 
ATOM     12  C   UNL     1       2.328   3.949  -0.725  1.00  0.00     0.315 C 
ATOM     13  H   UNL     1       2.236   2.512  -2.028  1.00  0.00     0.165 HD
ATOM     14  O   UNL     1       3.241   4.458  -1.383  1.00  0.00    -0.249 OA
ATOM     15  H   UNL     1       2.425   5.453   0.392  1.00  0.00     0.165 HD
BRANCH  11  16
ATOM     16  C   UNL     1       0.705   2.014  -0.778  1.00  0.00     0.146 C 
BRANCH  16  17
ATOM     17  C   UNL     1      -0.620   2.420  -1.432  1.00  0.00     0.181 C 
BRANCH  17  18
ATOM     18  O   UNL     1      -1.314   1.295  -1.972  1.00  0.00    -0.383 OA
ATOM     19  C   UNL     1      -0.775   0.875  -3.215  1.00  0.00     0.194 C 
ENDBRANCH  17  18
ENDBRANCH  16  17
ENDBRANCH  11  16
ENDBRANCH   9  10
BRANCH   9  20
ATOM     20  C   UNL     1       1.797   5.588   2.579  1.00  0.00     0.026 C 
BRANCH  20  21
ATOM     21  C   UNL     1       1.578   7.019   2.037  1.00  0.00     0.002 CG0
ATOM     22  G   UNL     1       0.295   7.691   2.502  1.00  0.00     0.000 G0
ENDBRANCH  20  21
ENDBRANCH   9  20
ENDBRANCH   8   9
BRANCH   8  23
ATOM     23  C   UNL     1      -1.045   5.533   2.527  1.00  0.00     0.017 C 
BRANCH  23  24
ATOM     24  C   UNL     1      -0.973   6.980   2.066  1.00  0.00     0.001 C 
BRANCH  24  25
ATOM     25  C   UNL     1       0.295   7.691   2.502  1.00  0.00     0.000 CG0
ATOM     26  G   UNL     1       1.578   7.019   2.037  1.00  0.00     0.000 G0
ENDBRANCH  24  25
ENDBRANCH  23  24
ENDBRANCH   8  23
ENDBRANCH   6   8
ENDBRANCH   5   6
ENDBRANCH   4   5
ENDBRANCH   3   4
ENDBRANCH   2   3
ENDBRANCH   1   2
BRANCH   1  27
ATOM     27  C   UNL     1       0.261   1.787   4.892  1.00  0.00     0.188 C 
BRANCH  27  28
ATOM     28  O   UNL     1       0.879   0.570   5.297  1.00  0.00    -0.376 OA
BRANCH  28  29
ATOM     29  C   UNL     1       0.158  -0.331   6.120  1.00  0.00     0.202 C 
BRANCH  29  30
ATOM     30  C   UNL     1      -0.124   0.110   7.563  1.00  0.00     0.261 C 
BRANCH  30  31
ATOM     31  O   UNL     1      -0.811   1.371   7.676  1.00  0.00    -0.460 OA
BRANCH  31  32
ATOM     32  C   UNL     1      -0.039   2.440   8.017  1.00  0.00     0.338 C 
ATOM     33  O   UNL     1       1.127   2.410   8.344  1.00  0.00    -0.246 OA
BRANCH  32  34
ATOM     34  C   UNL     1      -0.761   3.713   7.717  1.00  0.00     0.060 A 
ATOM     35  C   UNL     1      -0.038   4.732   7.075  1.00  0.00     0.016 A 
ATOM     36  C   UNL     1      -2.102   3.925   8.047  1.00  0.00     0.016 A 
ATOM     37  C   UNL     1      -0.632   5.968   6.805  1.00  0.00     0.010 A 
ATOM     38  C   UNL     1      -2.690   5.178   7.803  1.00  0.00     0.010 A 
ATOM     39  C   UNL     1      -1.947   6.220   7.215  1.00  0.00    -0.014 A 
BRANCH  39  40
ATOM     40  C   UNL     1      -2.436   7.626   7.271  1.00  0.00     0.031 A 
ATOM     41  C   UNL     1      -2.181   8.410   8.533  1.00  0.00     0.074 A 
ATOM     42  C   UNL     1      -3.058   8.228   6.240  1.00  0.00     0.049 A 
ATOM     43  N   UNL     1      -2.512   9.641   8.828  1.00  0.00    -0.248 NA
ATOM     44  C   UNL     1      -1.458   7.705   9.605  1.00  0.00     0.031 C 
ATOM     45  C   UNL     1      -3.340   7.616   4.947  1.00  0.00     0.029 A 
ATOM     46  N   UNL     1      -3.561   9.504   6.122  1.00  0.00    -0.354 N 
ATOM     47  C   UNL     1      -2.049   9.854  10.121  1.00  0.00     0.074 A 
ATOM     48  C   UNL     1      -1.428   8.623  10.558  1.00  0.00     0.031 C 
ATOM     49  C   UNL     1      -3.955   8.519   4.160  1.00  0.00     0.029 A 
ATOM     50  C   UNL     1      -4.147   9.763   4.905  1.00  0.00     0.049 A 
ATOM     51  H   UNL     1      -3.507  10.171   6.845  1.00  0.00     0.167 HD
ATOM     52  C   UNL     1      -2.136  10.968  10.886  1.00  0.00     0.031 A 
ATOM     53  C   UNL     1      -4.783  10.865   4.448  1.00  0.00     0.031 A 
ATOM     54  C   UNL     1      -2.780  12.187  10.482  1.00  0.00     0.049 A 
ATOM     55  C   UNL     1      -4.939  12.068   5.349  1.00  0.00     0.074 A 
ATOM     56  C   UNL     1      -2.920  13.362  11.200  1.00  0.00     0.029 A 
ATOM     57  N   UNL     1      -3.406  12.387   9.262  1.00  0.00    -0.354 N 
ATOM     58  N   UNL     1      -4.477  12.258   6.562  1.00  0.00    -0.248 NA
ATOM     59  C   UNL     1      -5.715  13.202   4.819  1.00  0.00     0.031 C 
ATOM     60  C   UNL     1      -3.682  14.253  10.437  1.00  0.00     0.029 A 
ATOM     61  C   UNL     1      -3.960  13.656   9.219  1.00  0.00     0.049 A 
ATOM     62  H   UNL     1      -3.449  11.726   8.534  1.00  0.00     0.167 HD
ATOM     63  C   UNL     1      -4.892  13.537   6.931  1.00  0.00     0.074 A 
ATOM     64  C   UNL     1      -5.622  14.083   5.807  1.00  0.00     0.031 C 
ATOM     65  C   UNL     1      -4.687  14.196   8.098  1.00  0.00     0.031 A 
BRANCH  52  66
ATOM     66  C   UNL     1      -1.560  10.891  12.273  1.00  0.00    -0.014 A 
ATOM     67  C   UNL     1      -0.170  10.868  12.484  1.00  0.00     0.010 A 
ATOM     68  C   UNL     1      -2.425  10.857  13.381  1.00  0.00     0.010 A 
ATOM     69  C   UNL     1       0.344  10.770  13.779  1.00  0.00     0.020 A 
ATOM     70  C   UNL     1      -1.915  10.787  14.679  1.00  0.00     0.020 A 
ATOM     71  C   UNL     1      -0.533  10.725  14.868  1.00  0.00     0.054 A 
BRANCH  71  72
ATOM     72  S   UNL     1       0.162  10.610  16.539  1.00  0.00     0.124 S 
ATOM     73  O   UNL     1       0.633   9.228  16.573  1.00  0.00    -0.237 OA
ATOM     74  O   UNL     1       1.207  11.630  16.522  1.00  0.00    -0.237 OA
ATOM     75  O   UNL     1      -0.975  10.901  17.408  1.00  0.00    -0.744 OA
ENDBRANCH  71  72
ENDBRANCH  52  66
BRANCH  53  76
ATOM     76  C   UNL     1      -5.366  10.885   3.074  1.00  0.00    -0.014 A 
ATOM     77  C   UNL     1      -4.851  11.744   2.086  1.00  0.00     0.010 A 
ATOM     78  C   UNL     1      -6.469  10.071   2.758  1.00  0.00     0.010 A 
ATOM     79  C   UNL     1      -5.438  11.801   0.817  1.00  0.00     0.020 A 
ATOM     80  C   UNL     1      -7.039  10.102   1.482  1.00  0.00     0.020 A 
ATOM     81  C   UNL     1      -6.528  10.976   0.522  1.00  0.00     0.054 A 
BRANCH  81  82
ATOM     82  S   UNL     1      -7.245  11.031  -1.144  1.00  0.00     0.124 S 
ATOM     83  O   UNL     1      -7.958  12.305  -1.127  1.00  0.00    -0.237 OA
ATOM     84  O   UNL     1      -6.062  10.979  -1.999  1.00  0.00    -0.237 OA
ATOM     85  O   UNL     1      -8.091   9.840  -1.191  1.00  0.00    -0.744 OA
ENDBRANCH  81  82
ENDBRANCH  53  76
BRANCH  65  86
ATOM     86  C   UNL     1      -5.233  15.597   8.226  1.00  0.00    -0.014 A 
ATOM     87  C   UNL     1      -6.612  15.835   8.363  1.00  0.00     0.010 A 
ATOM     88  C   UNL     1      -4.343  16.686   8.286  1.00  0.00     0.010 A 
ATOM     89  C   UNL     1      -7.092  17.138   8.533  1.00  0.00     0.020 A 
ATOM     90  C   UNL     1      -4.817  17.986   8.482  1.00  0.00     0.020 A 
ATOM     91  C   UNL     1      -6.191  18.206   8.593  1.00  0.00     0.054 A 
BRANCH  91  92
ATOM     92  S   UNL     1      -6.835  19.880   8.866  1.00  0.00     0.124 S 
ATOM     93  O   UNL     1      -7.437  20.191   7.572  1.00  0.00    -0.237 OA
ATOM     94  O   UNL     1      -7.777  19.686   9.967  1.00  0.00    -0.237 OA
ATOM     95  O   UNL     1      -5.646  20.659   9.203  1.00  0.00    -0.744 OA
ENDBRANCH  91  92
ENDBRANCH  65  86
ENDBRANCH  39  40
ENDBRANCH  32  34
ENDBRANCH  31  32
ENDBRANCH  30  31
ENDBRANCH  29  30
ENDBRANCH  28  29
ENDBRANCH  27  28
ENDBRANCH   1  27
TORSDOF 24
