REMARK SMILES O=C(OCCOCCOCCOC(=O)[C@H]1CS[C@]2(c3ccccc3)CCC(=O)N12)c1ccc(-c2c3nc(c(-c4ccc(S(=O)(=O)[O-])cc4)c4ccc([nH]4)c(-c4ccc(S(=O)(=O)[O-])cc4)c4nc(c(-c5ccc(S(=O)(=O)[O-])cc5)c5ccc2[nH]5)C=C4)C=C3)cc1
REMARK SMILES IDX 7 1 6 2 5 3 4 4 3 5 2 6 1 7 30 8 31 9 89 10 32 11 88 12
REMARK SMILES IDX 33 13 34 14 35 15 82 16 36 17 87 18 81 19 83 20 37 21 86 22
REMARK SMILES IDX 80 23 79 24 38 26 68 27 49 28 67 29 50 30 53 31 66 32 84 33
REMARK SMILES IDX 51 34 52 35 65 37 85 38 54 39 39 40 40 41 48 42 41 43 47 44
REMARK SMILES IDX 42 45 43 46 44 47 45 48 46 49 69 50 70 51 78 52 71 53 77 54
REMARK SMILES IDX 72 55 73 56 74 57 75 58 76 59 55 60 56 61 64 62 57 63 63 64
REMARK SMILES IDX 58 65 59 66 60 67 61 68 62 69 8 70 9 71 10 72 11 73 12 74
REMARK SMILES IDX 13 75 14 76 15 77 16 78 29 79 17 80 18 81 27 82 25 83 26 84
REMARK SMILES IDX 28 85 19 86 20 87 24 88 21 89 23 90 22 91
REMARK H PARENT 83 25 53 36
REMARK Flexibility Score: inf
ROOT
ATOM      1  C   UNL     1       3.894   1.453   1.234  1.00  0.00     0.188 C 
ENDROOT
BRANCH   1   2
ATOM      2  O   UNL     1       3.318   0.373   0.491  1.00  0.00    -0.376 OA
BRANCH   2   3
ATOM      3  C   UNL     1       3.776  -0.949   0.776  1.00  0.00     0.202 C 
BRANCH   3   4
ATOM      4  C   UNL     1       5.076  -1.369   0.079  1.00  0.00     0.261 C 
BRANCH   4   5
ATOM      5  O   UNL     1       6.147  -0.448   0.334  1.00  0.00    -0.460 OA
BRANCH   5   6
ATOM      6  C   UNL     1       6.666   0.497  -0.490  1.00  0.00     0.338 C 
ATOM      7  O   UNL     1       7.745   0.997  -0.172  1.00  0.00    -0.246 OA
BRANCH   6   8
ATOM      8  C   UNL     1       5.987   1.015  -1.728  1.00  0.00     0.060 A 
ATOM      9  C   UNL     1       4.706   0.673  -2.166  1.00  0.00     0.016 A 
ATOM     10  C   UNL     1       6.703   1.948  -2.503  1.00  0.00     0.016 A 
ATOM     11  C   UNL     1       4.200   1.129  -3.377  1.00  0.00     0.010 A 
ATOM     12  C   UNL     1       6.186   2.445  -3.707  1.00  0.00     0.010 A 
ATOM     13  C   UNL     1       4.954   1.982  -4.175  1.00  0.00    -0.014 A 
BRANCH  13  14
ATOM     14  C   UNL     1       4.509   2.175  -5.572  1.00  0.00     0.031 A 
ATOM     15  C   UNL     1       5.193   1.373  -6.637  1.00  0.00     0.074 A 
ATOM     16  C   UNL     1       3.408   2.895  -5.849  1.00  0.00     0.049 A 
ATOM     17  N   UNL     1       4.921   1.296  -7.911  1.00  0.00    -0.248 NA
ATOM     18  C   UNL     1       6.309   0.514  -6.203  1.00  0.00     0.031 C 
ATOM     19  C   UNL     1       2.597   3.579  -4.849  1.00  0.00     0.029 A 
ATOM     20  N   UNL     1       2.759   3.147  -7.028  1.00  0.00    -0.354 N 
ATOM     21  C   UNL     1       5.834   0.389  -8.429  1.00  0.00     0.074 A 
ATOM     22  C   UNL     1       6.682  -0.044  -7.343  1.00  0.00     0.031 C 
ATOM     23  C   UNL     1       1.560   4.184  -5.449  1.00  0.00     0.029 A 
ATOM     24  C   UNL     1       1.644   3.941  -6.882  1.00  0.00     0.049 A 
ATOM     25  H   UNL     1       3.060   2.794  -7.896  1.00  0.00     0.167 HD
ATOM     26  C   UNL     1       5.949  -0.048  -9.703  1.00  0.00     0.031 A 
ATOM     27  C   UNL     1       0.792   4.420  -7.809  1.00  0.00     0.031 A 
ATOM     28  C   UNL     1       5.108   0.412 -10.772  1.00  0.00     0.049 A 
ATOM     29  C   UNL     1       1.015   4.012  -9.238  1.00  0.00     0.074 A 
ATOM     30  C   UNL     1       5.170   0.098 -12.116  1.00  0.00     0.029 A 
ATOM     31  N   UNL     1       4.048   1.294 -10.609  1.00  0.00    -0.354 N 
ATOM     32  N   UNL     1       1.915   3.189  -9.726  1.00  0.00    -0.248 NA
ATOM     33  C   UNL     1       0.108   4.583 -10.241  1.00  0.00     0.031 C 
ATOM     34  C   UNL     1       4.173   0.827 -12.774  1.00  0.00     0.029 A 
ATOM     35  C   UNL     1       3.458   1.553 -11.832  1.00  0.00     0.049 A 
ATOM     36  H   UNL     1       3.759   1.679  -9.750  1.00  0.00     0.167 HD
ATOM     37  C   UNL     1       1.667   3.121 -11.089  1.00  0.00     0.074 A 
ATOM     38  C   UNL     1       0.525   3.978 -11.346  1.00  0.00     0.031 C 
ATOM     39  C   UNL     1       2.320   2.413 -12.044  1.00  0.00     0.031 A 
BRANCH  26  40
ATOM     40  C   UNL     1       7.074  -1.000  -9.990  1.00  0.00    -0.014 A 
ATOM     41  C   UNL     1       7.030  -2.340  -9.562  1.00  0.00     0.010 A 
ATOM     42  C   UNL     1       8.223  -0.526 -10.647  1.00  0.00     0.010 A 
ATOM     43  C   UNL     1       8.136  -3.175  -9.743  1.00  0.00     0.020 A 
ATOM     44  C   UNL     1       9.322  -1.364 -10.851  1.00  0.00     0.020 A 
ATOM     45  C   UNL     1       9.280  -2.677 -10.377  1.00  0.00     0.054 A 
BRANCH  45  46
ATOM     46  S   UNL     1      10.712  -3.770 -10.582  1.00  0.00     0.124 S 
ATOM     47  O   UNL     1      11.255  -3.812  -9.227  1.00  0.00    -0.237 OA
ATOM     48  O   UNL     1      10.104  -5.012 -11.053  1.00  0.00    -0.237 OA
ATOM     49  O   UNL     1      11.541  -3.075 -11.564  1.00  0.00    -0.744 OA
ENDBRANCH  45  46
ENDBRANCH  26  40
BRANCH  27  50
ATOM     50  C   UNL     1      -0.317   5.335  -7.418  1.00  0.00    -0.014 A 
ATOM     51  C   UNL     1      -1.661   4.936  -7.518  1.00  0.00     0.010 A 
ATOM     52  C   UNL     1      -0.027   6.626  -6.934  1.00  0.00     0.010 A 
ATOM     53  C   UNL     1      -2.692   5.814  -7.161  1.00  0.00     0.020 A 
ATOM     54  C   UNL     1      -1.053   7.497  -6.554  1.00  0.00     0.020 A 
ATOM     55  C   UNL     1      -2.381   7.089  -6.681  1.00  0.00     0.054 A 
BRANCH  55  56
ATOM     56  S   UNL     1      -3.729   8.196  -6.177  1.00  0.00     0.124 S 
ATOM     57  O   UNL     1      -4.277   8.615  -7.463  1.00  0.00    -0.237 OA
ATOM     58  O   UNL     1      -4.581   7.315  -5.381  1.00  0.00    -0.237 OA
ATOM     59  O   UNL     1      -3.047   9.240  -5.415  1.00  0.00    -0.744 OA
ENDBRANCH  55  56
ENDBRANCH  27  50
BRANCH  39  60
ATOM     60  C   UNL     1       1.785   2.512 -13.443  1.00  0.00    -0.014 A 
ATOM     61  C   UNL     1       1.990   3.666 -14.218  1.00  0.00     0.010 A 
ATOM     62  C   UNL     1       1.115   1.409 -14.001  1.00  0.00     0.010 A 
ATOM     63  C   UNL     1       1.501   3.727 -15.524  1.00  0.00     0.020 A 
ATOM     64  C   UNL     1       0.648   1.458 -15.315  1.00  0.00     0.020 A 
ATOM     65  C   UNL     1       0.831   2.623 -16.063  1.00  0.00     0.054 A 
BRANCH  65  66
ATOM     66  S   UNL     1       0.241   2.708 -17.774  1.00  0.00     0.124 S 
ATOM     67  O   UNL     1      -0.960   3.526 -17.640  1.00  0.00    -0.237 OA
ATOM     68  O   UNL     1       1.359   3.341 -18.470  1.00  0.00    -0.237 OA
ATOM     69  O   UNL     1       0.008   1.309 -18.128  1.00  0.00    -0.744 OA
ENDBRANCH  65  66
ENDBRANCH  39  60
ENDBRANCH  13  14
ENDBRANCH   6   8
ENDBRANCH   5   6
ENDBRANCH   4   5
ENDBRANCH   3   4
ENDBRANCH   2   3
ENDBRANCH   1   2
BRANCH   1  70
ATOM     70  C   UNL     1       3.682   1.408   2.752  1.00  0.00     0.188 C 
BRANCH  70  71
ATOM     71  O   UNL     1       2.371   1.685   3.234  1.00  0.00    -0.376 OA
BRANCH  71  72
ATOM     72  C   UNL     1       1.292   1.012   2.611  1.00  0.00     0.202 C 
BRANCH  72  73
ATOM     73  C   UNL     1       0.341   1.996   1.929  1.00  0.00     0.261 C 
BRANCH  73  74
ATOM     74  O   UNL     1       0.916   2.837   0.914  1.00  0.00    -0.462 OA
BRANCH  74  75
ATOM     75  C   UNL     1       1.436   4.036   1.331  1.00  0.00     0.329 C 
ATOM     76  O   UNL     1       1.835   4.273   2.462  1.00  0.00    -0.250 OA
BRANCH  75  77
ATOM     77  C   UNL     1       1.258   5.086   0.229  1.00  0.00     0.206 C 
ATOM     78  C   UNL     1       0.136   6.019   0.691  1.00  0.00     0.109 C 
ATOM     79  N   UNL     1       2.362   5.969  -0.173  1.00  0.00    -0.309 N 
ATOM     80  S   UNL     1       0.992   7.387   1.546  1.00  0.00    -0.126 SA
ATOM     81  C   UNL     1       2.532   7.207   0.573  1.00  0.00     0.116 C 
ATOM     82  C   UNL     1       2.442   6.189  -1.549  1.00  0.00     0.224 C 
ATOM     83  C   UNL     1       2.622   8.299  -0.524  1.00  0.00     0.055 C 
ATOM     84  C   UNL     1       2.183   7.644  -1.811  1.00  0.00     0.104 C 
ATOM     85  O   UNL     1       2.458   5.326  -2.388  1.00  0.00    -0.275 OA
BRANCH  81  86
ATOM     86  C   UNL     1       3.799   7.250   1.438  1.00  0.00    -0.012 A 
ATOM     87  C   UNL     1       4.492   6.090   1.821  1.00  0.00     0.007 A 
ATOM     88  C   UNL     1       4.365   8.489   1.815  1.00  0.00     0.007 A 
ATOM     89  C   UNL     1       5.714   6.163   2.502  1.00  0.00     0.000 A 
ATOM     90  C   UNL     1       5.600   8.564   2.467  1.00  0.00     0.000 A 
ATOM     91  C   UNL     1       6.277   7.399   2.807  1.00  0.00     0.000 A 
ENDBRANCH  81  86
ENDBRANCH  75  77
ENDBRANCH  74  75
ENDBRANCH  73  74
ENDBRANCH  72  73
ENDBRANCH  71  72
ENDBRANCH  70  71
ENDBRANCH   1  70
TORSDOF 21
