REMARK SMILES CS(=O)(=O)c1ccc(/C=C(/C(=O)OCCOCCOCCOC(=O)c2ccc(-c3c4nc(c(-c5ccc(S(=O)(=O)[O-])cc5)c5ccc([nH]5)c(-c5ccc(S(=O)(=O)[O-])cc5)c5nc(c(-c6ccc(S(=O)(=O)[O-])cc6)c6ccc3[nH]6)C=C5)C=C4)cc2)c2ccc(O)cc2)cc1
REMARK SMILES IDX 18 1 17 2 16 3 15 4 14 5 13 6 11 7 12 8 10 9 9 10 8 11 5 12
REMARK SMILES IDX 6 13 93 14 7 15 92 16 2 17 1 18 3 19 4 20 85 21 86 22 91 23
REMARK SMILES IDX 87 24 90 25 88 26 89 27 19 29 20 30 21 31 22 32 23 33 24 34
REMARK SMILES IDX 25 35 26 36 84 37 27 38 83 39 28 40 29 41 30 42 77 43 31 44
REMARK SMILES IDX 82 45 76 46 78 47 32 48 81 49 75 50 74 51 33 53 63 54 44 55
REMARK SMILES IDX 62 56 45 57 48 58 61 59 79 60 46 61 47 62 60 64 80 65 49 66
REMARK SMILES IDX 34 67 35 68 43 69 36 70 42 71 37 72 38 73 39 74 40 75 41 76
REMARK SMILES IDX 64 77 65 78 73 79 66 80 72 81 67 82 68 83 69 84 70 85 71 86
REMARK SMILES IDX 50 87 51 88 59 89 52 90 58 91 53 92 54 93 55 94 56 95 57 96
REMARK H PARENT 89 28 78 52 48 63
REMARK Flexibility Score: inf
ROOT
ATOM      1  C   UNL     1       0.841   1.766   9.488  1.00  0.00     0.188 C 
ENDROOT
BRANCH   1   2
ATOM      2  C   UNL     1       1.880   1.012  10.345  1.00  0.00     0.188 C 
BRANCH   2   3
ATOM      3  O   UNL     1       2.448   1.808  11.371  1.00  0.00    -0.376 OA
BRANCH   3   4
ATOM      4  C   UNL     1       3.807   2.169  11.175  1.00  0.00     0.202 C 
BRANCH   4   5
ATOM      5  C   UNL     1       4.120   3.079   9.974  1.00  0.00     0.261 C 
BRANCH   5   6
ATOM      6  O   UNL     1       3.515   2.711   8.719  1.00  0.00    -0.460 OA
BRANCH   6   7
ATOM      7  C   UNL     1       4.111   1.741   7.981  1.00  0.00     0.338 C 
ATOM      8  O   UNL     1       5.142   1.166   8.292  1.00  0.00    -0.246 OA
BRANCH   7   9
ATOM      9  C   UNL     1       3.273   1.385   6.778  1.00  0.00     0.067 C 
ATOM     10  C   UNL     1       2.558   2.349   6.142  1.00  0.00     0.024 C 
BRANCH  10  11
ATOM     11  C   UNL     1       1.774   2.252   4.881  1.00  0.00    -0.025 A 
ATOM     12  C   UNL     1       0.731   2.048   2.275  1.00  0.00     0.067 A 
ATOM     13  C   UNL     1       0.571   0.991   3.166  1.00  0.00     0.021 A 
ATOM     14  C   UNL     1       1.284   3.253   2.710  1.00  0.00     0.021 A 
ATOM     15  C   UNL     1       1.059   1.115   4.473  1.00  0.00     0.009 A 
ATOM     16  C   UNL     1       1.799   3.351   4.008  1.00  0.00     0.009 A 
BRANCH  12  17
ATOM     17  S   UNL     1       0.305   1.846   0.561  1.00  0.00     0.175 S 
ATOM     18  C   UNL     1       1.037   0.301   0.076  1.00  0.00     0.163 C 
ATOM     19  O   UNL     1       0.997   2.886  -0.180  1.00  0.00    -0.224 OA
ATOM     20  O   UNL     1      -1.137   1.717   0.493  1.00  0.00    -0.224 OA
ENDBRANCH  12  17
ENDBRANCH  10  11
BRANCH   9  21
ATOM     21  C   UNL     1       3.243  -0.029   6.341  1.00  0.00    -0.011 A 
ATOM     22  C   UNL     1       2.485  -0.958   7.074  1.00  0.00     0.013 A 
ATOM     23  C   UNL     1       3.806  -0.427   5.120  1.00  0.00     0.013 A 
ATOM     24  C   UNL     1       2.239  -2.233   6.566  1.00  0.00     0.047 A 
ATOM     25  C   UNL     1       3.550  -1.703   4.607  1.00  0.00     0.047 A 
ATOM     26  C   UNL     1       2.751  -2.585   5.326  1.00  0.00     0.115 A 
BRANCH  26  27
ATOM     27  O   UNL     1       2.407  -3.806   4.835  1.00  0.00    -0.508 OA
ATOM     28  H   UNL     1       1.867  -4.380   5.341  1.00  0.00     0.293 HD
ENDBRANCH  26  27
ENDBRANCH   9  21
ENDBRANCH   7   9
ENDBRANCH   6   7
ENDBRANCH   5   6
ENDBRANCH   4   5
ENDBRANCH   3   4
ENDBRANCH   2   3
ENDBRANCH   1   2
BRANCH   1  29
ATOM     29  O   UNL     1       0.436   3.081   9.838  1.00  0.00    -0.376 OA
BRANCH  29  30
ATOM     30  C   UNL     1       0.196   3.387  11.202  1.00  0.00     0.202 C 
BRANCH  30  31
ATOM     31  C   UNL     1      -0.722   2.494  12.059  1.00  0.00     0.261 C 
BRANCH  31  32
ATOM     32  O   UNL     1      -0.634   1.074  11.849  1.00  0.00    -0.460 OA
BRANCH  32  33
ATOM     33  C   UNL     1      -1.633   0.520  11.120  1.00  0.00     0.338 C 
ATOM     34  O   UNL     1      -2.599   1.099  10.638  1.00  0.00    -0.246 OA
BRANCH  33  35
ATOM     35  C   UNL     1      -1.302  -0.889  10.810  1.00  0.00     0.060 A 
ATOM     36  C   UNL     1      -1.166  -1.271   9.466  1.00  0.00     0.016 A 
ATOM     37  C   UNL     1      -1.169  -1.838  11.824  1.00  0.00     0.016 A 
ATOM     38  C   UNL     1      -0.907  -2.602   9.133  1.00  0.00     0.010 A 
ATOM     39  C   UNL     1      -0.942  -3.178  11.486  1.00  0.00     0.010 A 
ATOM     40  C   UNL     1      -0.831  -3.571  10.139  1.00  0.00    -0.014 A 
BRANCH  40  41
ATOM     41  C   UNL     1      -0.832  -5.013   9.783  1.00  0.00     0.031 A 
ATOM     42  C   UNL     1      -2.150  -5.739   9.745  1.00  0.00     0.074 A 
ATOM     43  C   UNL     1       0.305  -5.671   9.494  1.00  0.00     0.049 A 
ATOM     44  N   UNL     1      -2.393  -7.007   9.535  1.00  0.00    -0.248 NA
ATOM     45  C   UNL     1      -3.353  -4.924   9.978  1.00  0.00     0.031 C 
ATOM     46  C   UNL     1       1.638  -5.075   9.433  1.00  0.00     0.029 A 
ATOM     47  N   UNL     1       0.516  -6.997   9.203  1.00  0.00    -0.354 N 
ATOM     48  C   UNL     1      -3.774  -7.145   9.622  1.00  0.00     0.074 A 
ATOM     49  C   UNL     1      -4.312  -5.836   9.924  1.00  0.00     0.031 C 
ATOM     50  C   UNL     1       2.531  -6.035   9.132  1.00  0.00     0.029 A 
ATOM     51  C   UNL     1       1.841  -7.321   9.026  1.00  0.00     0.049 A 
ATOM     52  H   UNL     1      -0.213  -7.654   9.129  1.00  0.00     0.167 HD
ATOM     53  C   UNL     1      -4.527  -8.260   9.469  1.00  0.00     0.031 A 
ATOM     54  C   UNL     1       2.431  -8.519   8.833  1.00  0.00     0.031 A 
ATOM     55  C   UNL     1      -3.989  -9.567   9.200  1.00  0.00     0.049 A 
ATOM     56  C   UNL     1       1.579  -9.764   8.766  1.00  0.00     0.074 A 
ATOM     57  C   UNL     1      -4.673 -10.759   9.030  1.00  0.00     0.029 A 
ATOM     58  N   UNL     1      -2.640  -9.860   9.074  1.00  0.00    -0.354 N 
ATOM     59  N   UNL     1       0.274  -9.879   8.836  1.00  0.00    -0.248 NA
ATOM     60  C   UNL     1       2.284 -11.044   8.591  1.00  0.00     0.031 C 
ATOM     61  C   UNL     1      -3.735 -11.782   8.871  1.00  0.00     0.029 A 
ATOM     62  C   UNL     1      -2.469 -11.218   8.861  1.00  0.00     0.049 A 
ATOM     63  H   UNL     1      -1.911  -9.201   9.128  1.00  0.00     0.167 HD
ATOM     64  C   UNL     1       0.001 -11.236   8.677  1.00  0.00     0.074 A 
ATOM     65  C   UNL     1       1.275 -11.900   8.497  1.00  0.00     0.031 C 
ATOM     66  C   UNL     1      -1.197 -11.872   8.675  1.00  0.00     0.031 A 
BRANCH  53  67
ATOM     67  C   UNL     1      -6.016  -8.121   9.644  1.00  0.00    -0.014 A 
ATOM     68  C   UNL     1      -6.804  -7.436   8.701  1.00  0.00     0.010 A 
ATOM     69  C   UNL     1      -6.641  -8.714  10.756  1.00  0.00     0.010 A 
ATOM     70  C   UNL     1      -8.184  -7.314   8.888  1.00  0.00     0.020 A 
ATOM     71  C   UNL     1      -8.024  -8.621  10.931  1.00  0.00     0.020 A 
ATOM     72  C   UNL     1      -8.785  -7.907  10.003  1.00  0.00     0.054 A 
BRANCH  72  73
ATOM     73  S   UNL     1     -10.580  -7.751  10.209  1.00  0.00     0.124 S 
ATOM     74  O   UNL     1     -10.722  -6.336  10.545  1.00  0.00    -0.237 OA
ATOM     75  O   UNL     1     -11.086  -8.138   8.895  1.00  0.00    -0.237 OA
ATOM     76  O   UNL     1     -10.888  -8.681  11.292  1.00  0.00    -0.744 OA
ENDBRANCH  72  73
ENDBRANCH  53  67
BRANCH  54  77
ATOM     77  C   UNL     1       3.915  -8.615   8.721  1.00  0.00    -0.014 A 
ATOM     78  C   UNL     1       4.522  -9.010   7.516  1.00  0.00     0.010 A 
ATOM     79  C   UNL     1       4.731  -8.331   9.832  1.00  0.00     0.010 A 
ATOM     80  C   UNL     1       5.912  -9.139   7.430  1.00  0.00     0.020 A 
ATOM     81  C   UNL     1       6.123  -8.427   9.741  1.00  0.00     0.020 A 
ATOM     82  C   UNL     1       6.704  -8.842   8.542  1.00  0.00     0.054 A 
BRANCH  82  83
ATOM     83  S   UNL     1       8.508  -8.969   8.390  1.00  0.00     0.124 S 
ATOM     84  O   UNL     1       8.706 -10.413   8.312  1.00  0.00    -0.237 OA
ATOM     85  O   UNL     1       8.772  -8.226   7.160  1.00  0.00    -0.237 OA
ATOM     86  O   UNL     1       9.001  -8.334   9.611  1.00  0.00    -0.744 OA
ENDBRANCH  82  83
ENDBRANCH  54  77
BRANCH  66  87
ATOM     87  C   UNL     1      -1.207 -13.359   8.419  1.00  0.00    -0.014 A 
ATOM     88  C   UNL     1      -0.724 -14.277   9.369  1.00  0.00     0.010 A 
ATOM     89  C   UNL     1      -1.776 -13.849   7.228  1.00  0.00     0.010 A 
ATOM     90  C   UNL     1      -0.783 -15.652   9.119  1.00  0.00     0.020 A 
ATOM     91  C   UNL     1      -1.867 -15.223   6.989  1.00  0.00     0.020 A 
ATOM     92  C   UNL     1      -1.357 -16.116   7.931  1.00  0.00     0.054 A 
BRANCH  92  93
ATOM     93  S   UNL     1      -1.465 -17.906   7.653  1.00  0.00     0.124 S 
ATOM     94  O   UNL     1      -0.070 -18.262   7.411  1.00  0.00    -0.237 OA
ATOM     95  O   UNL     1      -2.029 -18.391   8.911  1.00  0.00    -0.237 OA
ATOM     96  O   UNL     1      -2.347 -18.026   6.495  1.00  0.00    -0.744 OA
ENDBRANCH  92  93
ENDBRANCH  66  87
ENDBRANCH  40  41
ENDBRANCH  33  35
ENDBRANCH  32  33
ENDBRANCH  31  32
ENDBRANCH  30  31
ENDBRANCH  29  30
ENDBRANCH   1  29
TORSDOF 24
