REMARK SMILES O=C(CCN1C(=O)S/C(=C\c2ccccc2F)C1=O)Nc1ccc(C(=O)OCCOCCOCCOC(=O)c2ccc(-c3c4nc(c(-c5ccc(S(=O)(=O)[O-])cc5)c5ccc([nH]5)c(-c5ccc(S(=O)(=O)[O-])cc5)c5nc(c(-c6ccc(S(=O)(=O)[O-])cc6)c6ccc3[nH]6)C=C5)C=C4)cc2)c(O)c1
REMARK SMILES IDX 31 1 30 2 29 3 28 4 27 5 25 6 26 7 24 8 21 9 22 10 101 11
REMARK SMILES IDX 23 12 99 13 20 14 1 15 2 16 3 18 4 19 5 20 6 21 18 22 7 23
REMARK SMILES IDX 8 24 9 25 19 26 10 27 11 28 12 29 16 30 13 31 15 32 17 33
REMARK SMILES IDX 14 34 100 35 32 37 33 38 34 39 35 40 36 41 37 42 38 43 39 44
REMARK SMILES IDX 40 45 98 46 41 47 97 48 42 49 43 50 44 51 91 52 45 53 96 54
REMARK SMILES IDX 90 55 92 56 46 57 95 58 89 59 88 60 47 62 77 63 58 64 76 65
REMARK SMILES IDX 59 66 62 67 75 68 93 69 60 70 61 71 74 73 94 74 63 75 48 76
REMARK SMILES IDX 49 77 57 78 50 79 56 80 51 81 52 82 53 83 54 84 55 85 78 86
REMARK SMILES IDX 79 87 87 88 80 89 86 90 81 91 82 92 83 93 84 94 85 95 64 96
REMARK SMILES IDX 65 97 73 98 66 99 72 100 67 101 68 102 69 103 70 104 71 105
REMARK H PARENT 20 17 100 36 92 61 62 72
REMARK Flexibility Score: inf
ROOT
ATOM      1  C   UNL     1      -1.968  -4.990   3.854  1.00  0.00     0.188 C 
ENDROOT
BRANCH   1   2
ATOM      2  O   UNL     1      -2.236  -6.264   4.433  1.00  0.00    -0.376 OA
BRANCH   2   3
ATOM      3  C   UNL     1      -1.275  -6.870   5.287  1.00  0.00     0.202 C 
BRANCH   3   4
ATOM      4  C   UNL     1       0.103  -7.178   4.697  1.00  0.00     0.261 C 
BRANCH   4   5
ATOM      5  O   UNL     1       0.781  -6.004   4.212  1.00  0.00    -0.460 OA
BRANCH   5   6
ATOM      6  C   UNL     1       1.105  -6.040   2.893  1.00  0.00     0.341 C 
ATOM      7  O   UNL     1       1.042  -7.006   2.150  1.00  0.00    -0.246 OA
BRANCH   6   8
ATOM      8  C   UNL     1       1.401  -4.676   2.410  1.00  0.00     0.101 A 
ATOM      9  C   UNL     1       1.963  -2.192   1.280  1.00  0.00     0.044 A 
ATOM     10  C   UNL     1       1.097  -3.063   0.625  1.00  0.00     0.027 A 
ATOM     11  C   UNL     1       2.529  -2.537   2.511  1.00  0.00     0.073 A 
ATOM     12  C   UNL     1       0.822  -4.307   1.186  1.00  0.00     0.022 A 
ATOM     13  C   UNL     1       2.223  -3.771   3.089  1.00  0.00     0.132 A 
BRANCH   9  14
ATOM     14  N   UNL     1       2.479  -1.114   0.561  1.00  0.00    -0.326 N 
ATOM     15  O   UNL     1       0.881   0.484   1.048  1.00  0.00    -0.275 OA
ATOM     16  C   UNL     1       1.902   0.133   0.469  1.00  0.00     0.226 C 
ATOM     17  H   UNL     1       3.326  -1.257   0.079  1.00  0.00     0.169 HD
BRANCH  16  18
ATOM     18  C   UNL     1       2.699   1.076  -0.418  1.00  0.00     0.122 C 
BRANCH  18  19
ATOM     19  C   UNL     1       3.854   1.753   0.327  1.00  0.00     0.140 C 
BRANCH  19  20
ATOM     20  N   UNL     1       4.914   0.915   0.891  1.00  0.00    -0.268 N 
ATOM     21  C   UNL     1       5.725   1.414   1.882  1.00  0.00     0.293 C 
ATOM     22  C   UNL     1       5.277  -0.318   0.414  1.00  0.00     0.268 C 
ATOM     23  O   UNL     1       5.730   2.552   2.325  1.00  0.00    -0.261 OA
ATOM     24  S   UNL     1       6.853   0.180   2.431  1.00  0.00    -0.022 SA
ATOM     25  C   UNL     1       6.178  -0.992   1.384  1.00  0.00     0.083 C 
ATOM     26  O   UNL     1       4.884  -0.849  -0.616  1.00  0.00    -0.268 OA
ATOM     27  C   UNL     1       6.262  -2.329   1.394  1.00  0.00     0.032 C 
BRANCH  27  28
ATOM     28  C   UNL     1       6.972  -3.216   2.328  1.00  0.00     0.012 A 
ATOM     29  C   UNL     1       7.654  -4.319   1.791  1.00  0.00     0.011 A 
ATOM     30  C   UNL     1       6.906  -3.095   3.721  1.00  0.00     0.130 A 
ATOM     31  C   UNL     1       8.289  -5.243   2.626  1.00  0.00     0.001 A 
ATOM     32  C   UNL     1       7.550  -4.006   4.558  1.00  0.00     0.040 A 
ATOM     33  F   UNL     1       6.183  -2.122   4.293  1.00  0.00    -0.206 F 
ATOM     34  C   UNL     1       8.247  -5.080   4.010  1.00  0.00     0.003 A 
ENDBRANCH  27  28
ENDBRANCH  19  20
ENDBRANCH  18  19
ENDBRANCH  16  18
ENDBRANCH   9  14
BRANCH  13  35
ATOM     35  O   UNL     1       2.779  -4.033   4.311  1.00  0.00    -0.507 OA
ATOM     36  H   UNL     1       2.604  -4.848   4.740  1.00  0.00     0.293 HD
ENDBRANCH  13  35
ENDBRANCH   6   8
ENDBRANCH   5   6
ENDBRANCH   4   5
ENDBRANCH   3   4
ENDBRANCH   2   3
ENDBRANCH   1   2
BRANCH   1  37
ATOM     37  C   UNL     1      -1.319  -3.886   4.712  1.00  0.00     0.188 C 
BRANCH  37  38
ATOM     38  O   UNL     1      -1.352  -4.151   6.105  1.00  0.00    -0.376 OA
BRANCH  38  39
ATOM     39  C   UNL     1      -2.178  -3.295   6.880  1.00  0.00     0.202 C 
BRANCH  39  40
ATOM     40  C   UNL     1      -3.686  -3.489   6.680  1.00  0.00     0.261 C 
BRANCH  40  41
ATOM     41  O   UNL     1      -4.158  -3.334   5.332  1.00  0.00    -0.460 OA
BRANCH  41  42
ATOM     42  C   UNL     1      -4.125  -2.090   4.801  1.00  0.00     0.338 C 
ATOM     43  O   UNL     1      -3.720  -1.077   5.341  1.00  0.00    -0.246 OA
BRANCH  42  44
ATOM     44  C   UNL     1      -4.519  -2.200   3.379  1.00  0.00     0.060 A 
ATOM     45  C   UNL     1      -3.643  -1.750   2.384  1.00  0.00     0.016 A 
ATOM     46  C   UNL     1      -5.752  -2.762   3.032  1.00  0.00     0.016 A 
ATOM     47  C   UNL     1      -4.012  -1.841   1.037  1.00  0.00     0.010 A 
ATOM     48  C   UNL     1      -6.124  -2.837   1.687  1.00  0.00     0.010 A 
ATOM     49  C   UNL     1      -5.268  -2.356   0.682  1.00  0.00    -0.014 A 
BRANCH  49  50
ATOM     50  C   UNL     1      -5.764  -2.245  -0.713  1.00  0.00     0.031 A 
ATOM     51  C   UNL     1      -6.625  -1.066  -1.080  1.00  0.00     0.074 A 
ATOM     52  C   UNL     1      -5.473  -3.177  -1.640  1.00  0.00     0.049 A 
ATOM     53  N   UNL     1      -7.208  -0.786  -2.217  1.00  0.00    -0.248 NA
ATOM     54  C   UNL     1      -6.859  -0.072  -0.020  1.00  0.00     0.031 C 
ATOM     55  C   UNL     1      -4.624  -4.348  -1.430  1.00  0.00     0.029 A 
ATOM     56  N   UNL     1      -5.874  -3.283  -2.950  1.00  0.00    -0.354 N 
ATOM     57  C   UNL     1      -7.875   0.416  -2.012  1.00  0.00     0.074 A 
ATOM     58  C   UNL     1      -7.650   0.795  -0.633  1.00  0.00     0.031 C 
ATOM     59  C   UNL     1      -4.569  -5.057  -2.572  1.00  0.00     0.029 A 
ATOM     60  C   UNL     1      -5.405  -4.409  -3.583  1.00  0.00     0.049 A 
ATOM     61  H   UNL     1      -6.444  -2.614  -3.394  1.00  0.00     0.167 HD
ATOM     62  C   UNL     1      -8.605   1.146  -2.889  1.00  0.00     0.031 A 
ATOM     63  C   UNL     1      -5.636  -4.873  -4.828  1.00  0.00     0.031 A 
ATOM     64  C   UNL     1      -8.861   0.758  -4.250  1.00  0.00     0.049 A 
ATOM     65  C   UNL     1      -6.532  -4.094  -5.759  1.00  0.00     0.074 A 
ATOM     66  C   UNL     1      -9.590   1.431  -5.215  1.00  0.00     0.029 A 
ATOM     67  N   UNL     1      -8.406  -0.412  -4.836  1.00  0.00    -0.354 N 
ATOM     68  N   UNL     1      -7.136  -2.947  -5.557  1.00  0.00    -0.248 NA
ATOM     69  C   UNL     1      -6.774  -4.674  -7.089  1.00  0.00     0.031 C 
ATOM     70  C   UNL     1      -9.617   0.642  -6.371  1.00  0.00     0.029 A 
ATOM     71  C   UNL     1      -8.858  -0.495  -6.142  1.00  0.00     0.049 A 
ATOM     72  H   UNL     1      -7.843  -1.086  -4.390  1.00  0.00     0.167 HD
ATOM     73  C   UNL     1      -7.804  -2.655  -6.742  1.00  0.00     0.074 A 
ATOM     74  C   UNL     1      -7.526  -3.742  -7.659  1.00  0.00     0.031 C 
ATOM     75  C   UNL     1      -8.575  -1.581  -7.046  1.00  0.00     0.031 A 
BRANCH  62  76
ATOM     76  C   UNL     1      -9.209   2.426  -2.378  1.00  0.00    -0.014 A 
ATOM     77  C   UNL     1      -8.405   3.550  -2.114  1.00  0.00     0.010 A 
ATOM     78  C   UNL     1     -10.596   2.508  -2.163  1.00  0.00     0.010 A 
ATOM     79  C   UNL     1      -8.972   4.718  -1.598  1.00  0.00     0.020 A 
ATOM     80  C   UNL     1     -11.170   3.683  -1.671  1.00  0.00     0.020 A 
ATOM     81  C   UNL     1     -10.351   4.774  -1.371  1.00  0.00     0.054 A 
BRANCH  81  82
ATOM     82  S   UNL     1     -11.063   6.299  -0.696  1.00  0.00     0.124 S 
ATOM     83  O   UNL     1     -10.656   6.226   0.705  1.00  0.00    -0.237 OA
ATOM     84  O   UNL     1     -10.408   7.338  -1.486  1.00  0.00    -0.237 OA
ATOM     85  O   UNL     1     -12.496   6.149  -0.937  1.00  0.00    -0.744 OA
ENDBRANCH  81  82
ENDBRANCH  62  76
BRANCH  63  86
ATOM     86  C   UNL     1      -5.015  -6.150  -5.277  1.00  0.00    -0.014 A 
ATOM     87  C   UNL     1      -3.989  -6.145  -6.238  1.00  0.00     0.010 A 
ATOM     88  C   UNL     1      -5.454  -7.379  -4.752  1.00  0.00     0.010 A 
ATOM     89  C   UNL     1      -3.421  -7.345  -6.675  1.00  0.00     0.020 A 
ATOM     90  C   UNL     1      -4.872  -8.580  -5.169  1.00  0.00     0.020 A 
ATOM     91  C   UNL     1      -3.865  -8.556  -6.136  1.00  0.00     0.054 A 
BRANCH  91  92
ATOM     92  S   UNL     1      -3.077 -10.098  -6.679  1.00  0.00     0.124 S 
ATOM     93  O   UNL     1      -3.649 -10.280  -8.009  1.00  0.00    -0.237 OA
ATOM     94  O   UNL     1      -1.657  -9.757  -6.642  1.00  0.00    -0.237 OA
ATOM     95  O   UNL     1      -3.502 -11.070  -5.675  1.00  0.00    -0.744 OA
ENDBRANCH  91  92
ENDBRANCH  63  86
BRANCH  75  96
ATOM     96  C   UNL     1      -9.145  -1.500  -8.438  1.00  0.00    -0.014 A 
ATOM     97  C   UNL     1     -10.219  -2.315  -8.835  1.00  0.00     0.010 A 
ATOM     98  C   UNL     1      -8.636  -0.548  -9.340  1.00  0.00     0.010 A 
ATOM     99  C   UNL     1     -10.758  -2.196 -10.120  1.00  0.00     0.020 A 
ATOM    100  C   UNL     1      -9.188  -0.409 -10.617  1.00  0.00     0.020 A 
ATOM    101  C   UNL     1     -10.239  -1.244 -11.003  1.00  0.00     0.054 A 
BRANCH 101 102
ATOM    102  S   UNL     1     -10.987  -1.072 -12.647  1.00  0.00     0.124 S 
ATOM    103  O   UNL     1     -10.457  -2.240 -13.346  1.00  0.00    -0.237 OA
ATOM    104  O   UNL     1     -12.418  -1.110 -12.356  1.00  0.00    -0.237 OA
ATOM    105  O   UNL     1     -10.489   0.217 -13.121  1.00  0.00    -0.744 OA
ENDBRANCH 101 102
ENDBRANCH  75  96
ENDBRANCH  49  50
ENDBRANCH  42  44
ENDBRANCH  41  42
ENDBRANCH  40  41
ENDBRANCH  39  40
ENDBRANCH  38  39
ENDBRANCH  37  38
ENDBRANCH   1  37
TORSDOF 26
