REMARK SMILES Cc1ccccc1[C@@H]1[NH2+][C@@H](C(=O)OCCOCCOCCOC(=O)c2ccc(-c3c4nc(c(-c5ccc(S(=O)(=O)[O-])cc5)c5ccc([nH]5)c(-c5ccc(S(=O)(=O)[O-])cc5)c5nc(c(-c6ccc(S(=O)(=O)[O-])cc6)c6ccc3[nH]6)C=C5)C=C4)cc2)CC2=c3ccccc3=N[C@H]21
REMARK SMILES IDX 18 1 17 2 16 3 15 4 14 5 13 6 11 7 12 8 10 9 8 10 9 11 94 12
REMARK SMILES IDX 86 15 93 16 85 17 87 18 92 19 88 20 91 21 89 22 90 23 7 24
REMARK SMILES IDX 1 25 2 26 3 27 4 28 6 29 5 30 19 31 20 32 21 33 22 34 23 35
REMARK SMILES IDX 24 36 25 37 26 38 84 39 27 40 83 41 28 42 29 43 30 44 77 45
REMARK SMILES IDX 31 46 82 47 76 48 78 49 32 50 81 51 75 52 74 53 33 55 63 56
REMARK SMILES IDX 44 57 62 58 45 59 48 60 61 61 79 62 46 63 47 64 60 66 80 67
REMARK SMILES IDX 49 68 34 69 35 70 43 71 36 72 42 73 37 74 38 75 39 76 40 77
REMARK SMILES IDX 41 78 64 79 65 80 73 81 66 82 72 83 67 84 68 85 69 86 70 87
REMARK SMILES IDX 71 88 50 89 51 90 59 91 52 92 58 93 53 94 54 95 55 96 56 97
REMARK SMILES IDX 57 98
REMARK H PARENT 9 13 9 14 78 54 48 65
REMARK Flexibility Score: inf
ROOT
ATOM      1  C   UNL     1      -2.378   7.710  -4.871  1.00  0.00     0.188 C 
ENDROOT
BRANCH   1   2
ATOM      2  C   UNL     1      -3.470   6.651  -4.609  1.00  0.00     0.188 C 
BRANCH   2   3
ATOM      3  O   UNL     1      -4.439   6.707  -3.529  1.00  0.00    -0.376 OA
BRANCH   3   4
ATOM      4  C   UNL     1      -4.385   7.561  -2.360  1.00  0.00     0.202 C 
BRANCH   4   5
ATOM      5  C   UNL     1      -4.133   7.016  -0.756  1.00  0.00     0.261 C 
BRANCH   5   6
ATOM      6  O   UNL     1      -2.754   6.430  -0.061  1.00  0.00    -0.459 OA
BRANCH   6   7
ATOM      7  C   UNL     1      -2.233   5.154   0.309  1.00  0.00     0.365 C 
ATOM      8  O   UNL     1      -2.775   4.044   0.286  1.00  0.00    -0.245 OA
BRANCH   7   9
ATOM      9  C   UNL     1      -0.792   5.034   0.788  1.00  0.00     0.298 C 
ATOM     10  C   UNL     1       0.561   2.803   1.179  1.00  0.00     0.243 C 
ATOM     11  N   UNL     1      -0.236   3.697   0.288  1.00  0.00    -0.326 N 
ATOM     12  C   UNL     1       0.691   3.248   2.669  1.00  0.00     0.196 C 
ATOM     13  H   UNL     1      -1.038   3.150  -0.025  1.00  0.00     0.347 HD
ATOM     14  H   UNL     1       0.454   3.990  -0.403  1.00  0.00     0.347 HD
ATOM     15  C   UNL     1      -0.595   3.932   3.023  1.00  0.00    -0.024 C 
ATOM     16  N   UNL     1       0.762   2.080   3.605  1.00  0.00    -0.270 NA
ATOM     17  C   UNL     1      -0.872   5.202   2.303  1.00  0.00     0.111 C 
ATOM     18  C   UNL     1      -1.345   3.162   3.802  1.00  0.00     0.002 A 
ATOM     19  C   UNL     1      -0.404   2.093   4.179  1.00  0.00     0.066 A 
ATOM     20  C   UNL     1      -2.707   3.146   4.220  1.00  0.00     0.010 A 
ATOM     21  C   UNL     1      -0.876   1.152   5.219  1.00  0.00     0.028 A 
ATOM     22  C   UNL     1      -3.102   2.186   5.073  1.00  0.00     0.001 A 
ATOM     23  C   UNL     1      -2.155   1.231   5.629  1.00  0.00     0.002 A 
BRANCH  10  24
ATOM     24  C   UNL     1       1.920   2.420   0.567  1.00  0.00     0.015 A 
ATOM     25  C   UNL     1       2.705   4.845   0.252  1.00  0.00     0.045 C 
ATOM     26  C   UNL     1       2.903   3.361   0.192  1.00  0.00    -0.042 A 
ATOM     27  C   UNL     1       4.167   2.918  -0.242  1.00  0.00     0.004 A 
ATOM     28  C   UNL     1       4.461   1.564  -0.363  1.00  0.00     0.000 A 
ATOM     29  C   UNL     1       2.232   1.048   0.402  1.00  0.00     0.010 A 
ATOM     30  C   UNL     1       3.484   0.626  -0.061  1.00  0.00     0.001 A 
ENDBRANCH  10  24
ENDBRANCH   7   9
ENDBRANCH   6   7
ENDBRANCH   5   6
ENDBRANCH   4   5
ENDBRANCH   3   4
ENDBRANCH   2   3
ENDBRANCH   1   2
BRANCH   1  31
ATOM     31  O   UNL     1      -1.916   8.321  -3.679  1.00  0.00    -0.376 OA
BRANCH  31  32
ATOM     32  C   UNL     1      -0.772   9.161  -3.791  1.00  0.00     0.202 C 
BRANCH  32  33
ATOM     33  C   UNL     1       0.573   8.453  -4.106  1.00  0.00     0.261 C 
BRANCH  33  34
ATOM     34  O   UNL     1       1.074   7.628  -3.014  1.00  0.00    -0.460 OA
BRANCH  34  35
ATOM     35  C   UNL     1       1.324   6.282  -3.245  1.00  0.00     0.338 C 
ATOM     36  O   UNL     1       2.448   5.885  -3.525  1.00  0.00    -0.246 OA
BRANCH  35  37
ATOM     37  C   UNL     1       0.136   5.419  -2.895  1.00  0.00     0.060 A 
ATOM     38  C   UNL     1      -0.131   4.049  -3.055  1.00  0.00     0.016 A 
ATOM     39  C   UNL     1      -0.899   6.096  -2.365  1.00  0.00     0.016 A 
ATOM     40  C   UNL     1      -1.457   3.436  -2.736  1.00  0.00     0.010 A 
ATOM     41  C   UNL     1      -2.150   5.489  -2.286  1.00  0.00     0.010 A 
ATOM     42  C   UNL     1      -2.562   4.176  -2.308  1.00  0.00    -0.014 A 
BRANCH  42  43
ATOM     43  C   UNL     1      -4.118   3.903  -2.038  1.00  0.00     0.031 A 
ATOM     44  C   UNL     1      -5.156   3.981  -0.713  1.00  0.00     0.074 A 
ATOM     45  C   UNL     1      -4.805   3.740  -3.191  1.00  0.00     0.049 A 
ATOM     46  N   UNL     1      -6.389   3.492  -0.733  1.00  0.00    -0.248 NA
ATOM     47  C   UNL     1      -5.001   4.538   0.675  1.00  0.00     0.031 C 
ATOM     48  C   UNL     1      -6.237   3.896  -3.431  1.00  0.00     0.029 A 
ATOM     49  N   UNL     1      -4.340   3.260  -4.397  1.00  0.00    -0.354 N 
ATOM     50  C   UNL     1      -7.101   3.895   0.411  1.00  0.00     0.074 A 
ATOM     51  C   UNL     1      -6.138   4.354   1.321  1.00  0.00     0.031 C 
ATOM     52  C   UNL     1      -6.556   3.280  -4.578  1.00  0.00     0.029 A 
ATOM     53  C   UNL     1      -5.370   2.595  -5.048  1.00  0.00     0.049 A 
ATOM     54  H   UNL     1      -3.425   3.372  -4.742  1.00  0.00     0.167 HD
ATOM     55  C   UNL     1      -8.461   3.964   0.497  1.00  0.00     0.031 A 
ATOM     56  C   UNL     1      -5.273   1.262  -5.323  1.00  0.00     0.031 A 
ATOM     57  C   UNL     1      -9.054   3.275  -0.621  1.00  0.00     0.049 A 
ATOM     58  C   UNL     1      -6.351   0.422  -4.670  1.00  0.00     0.074 A 
ATOM     59  C   UNL     1      -9.721   3.667  -1.763  1.00  0.00     0.029 A 
ATOM     60  N   UNL     1      -8.742   1.937  -0.771  1.00  0.00    -0.354 N 
ATOM     61  N   UNL     1      -7.241   0.887  -3.837  1.00  0.00    -0.248 NA
ATOM     62  C   UNL     1      -6.513  -1.012  -4.885  1.00  0.00     0.031 C 
ATOM     63  C   UNL     1      -9.751   2.546  -2.640  1.00  0.00     0.029 A 
ATOM     64  C   UNL     1      -9.147   1.477  -2.001  1.00  0.00     0.049 A 
ATOM     65  H   UNL     1      -8.291   1.388  -0.089  1.00  0.00     0.167 HD
ATOM     66  C   UNL     1      -8.003  -0.135  -3.333  1.00  0.00     0.074 A 
ATOM     67  C   UNL     1      -7.544  -1.298  -4.067  1.00  0.00     0.031 C 
ATOM     68  C   UNL     1      -8.903   0.078  -2.325  1.00  0.00     0.031 A 
BRANCH  55  69
ATOM     69  C   UNL     1      -9.276   4.781   1.523  1.00  0.00    -0.014 A 
ATOM     70  C   UNL     1     -10.672   4.922   1.348  1.00  0.00     0.010 A 
ATOM     71  C   UNL     1      -8.753   5.510   2.617  1.00  0.00     0.010 A 
ATOM     72  C   UNL     1     -11.466   5.764   2.161  1.00  0.00     0.020 A 
ATOM     73  C   UNL     1      -9.531   6.340   3.449  1.00  0.00     0.020 A 
ATOM     74  C   UNL     1     -10.886   6.481   3.203  1.00  0.00     0.054 A 
BRANCH  74  75
ATOM     75  S   UNL     1     -11.886   7.622   4.200  1.00  0.00     0.124 S 
ATOM     76  O   UNL     1     -12.367   8.573   3.202  1.00  0.00    -0.237 OA
ATOM     77  O   UNL     1     -12.899   6.741   4.774  1.00  0.00    -0.237 OA
ATOM     78  O   UNL     1     -10.932   8.174   5.162  1.00  0.00    -0.744 OA
ENDBRANCH  74  75
ENDBRANCH  55  69
BRANCH  56  79
ATOM     79  C   UNL     1      -3.880   0.856  -5.688  1.00  0.00    -0.014 A 
ATOM     80  C   UNL     1      -3.402   1.359  -6.920  1.00  0.00     0.010 A 
ATOM     81  C   UNL     1      -2.938   0.465  -4.716  1.00  0.00     0.010 A 
ATOM     82  C   UNL     1      -2.046   1.639  -7.106  1.00  0.00     0.020 A 
ATOM     83  C   UNL     1      -1.565   0.711  -4.919  1.00  0.00     0.020 A 
ATOM     84  C   UNL     1      -1.144   1.367  -6.081  1.00  0.00     0.054 A 
BRANCH  84  85
ATOM     85  S   UNL     1       0.524   2.081  -6.227  1.00  0.00     0.124 S 
ATOM     86  O   UNL     1       0.993   1.531  -7.496  1.00  0.00    -0.237 OA
ATOM     87  O   UNL     1       0.233   3.515  -6.238  1.00  0.00    -0.237 OA
ATOM     88  O   UNL     1       1.214   1.587  -5.040  1.00  0.00    -0.744 OA
ENDBRANCH  84  85
ENDBRANCH  56  79
BRANCH  68  89
ATOM     89  C   UNL     1      -9.636  -0.966  -1.495  1.00  0.00    -0.014 A 
ATOM     90  C   UNL     1      -9.372  -2.341  -1.518  1.00  0.00     0.010 A 
ATOM     91  C   UNL     1     -10.594  -0.531  -0.537  1.00  0.00     0.010 A 
ATOM     92  C   UNL     1     -10.056  -3.235  -0.678  1.00  0.00     0.020 A 
ATOM     93  C   UNL     1     -11.241  -1.403   0.343  1.00  0.00     0.020 A 
ATOM     94  C   UNL     1     -10.988  -2.761   0.245  1.00  0.00     0.054 A 
BRANCH  94  95
ATOM     95  S   UNL     1     -11.835  -3.925   1.341  1.00  0.00     0.124 S 
ATOM     96  O   UNL     1     -12.930  -4.390   0.495  1.00  0.00    -0.237 OA
ATOM     97  O   UNL     1     -10.800  -4.916   1.627  1.00  0.00    -0.237 OA
ATOM     98  O   UNL     1     -12.229  -3.101   2.481  1.00  0.00    -0.744 OA
ENDBRANCH  94  95
ENDBRANCH  68  89
ENDBRANCH  42  43
ENDBRANCH  35  37
ENDBRANCH  34  35
ENDBRANCH  33  34
ENDBRANCH  32  33
ENDBRANCH  31  32
ENDBRANCH   1  31
TORSDOF 21
