REMARK SMILES COC(=O)c1ccc([C@H]([NH3+])CC(=O)OCCOCCOCCOC(=O)c2ccc(-c3c4nc(c(-c5ccc(S(=O)(=O)[O-])cc5)c5ccc([nH]5)c(-c5ccc(S(=O)(=O)[O-])cc5)c5nc(c(-c6ccc(S(=O)(=O)[O-])cc6)c6ccc3[nH]6)C=C5)C=C4)cc2)cc1
REMARK SMILES IDX 18 1 17 2 16 3 15 4 14 5 12 6 13 7 11 8 9 9 8 10 5 11 6 12
REMARK SMILES IDX 87 13 7 14 86 15 3 16 4 17 2 18 1 19 10 20 19 24 20 25 21 26
REMARK SMILES IDX 22 27 23 28 24 29 25 30 26 31 27 32 85 33 28 34 84 35 29 36
REMARK SMILES IDX 30 37 31 38 78 39 32 40 83 41 77 42 79 43 33 44 82 45 76 46
REMARK SMILES IDX 75 47 34 49 64 50 45 51 63 52 46 53 49 54 62 55 80 56 47 57
REMARK SMILES IDX 48 58 61 60 81 61 50 62 35 63 36 64 44 65 37 66 43 67 38 68
REMARK SMILES IDX 39 69 40 70 41 71 42 72 65 73 66 74 74 75 67 76 73 77 68 78
REMARK SMILES IDX 69 79 70 80 71 81 72 82 51 83 52 84 60 85 53 86 59 87 54 88
REMARK SMILES IDX 55 89 56 90 57 91 58 92
REMARK H PARENT 10 21 10 22 10 23 79 48 49 59
REMARK Flexibility Score: inf
ROOT
ATOM      1  C   UNL     1      -2.053  -4.510   7.458  1.00  0.00     0.188 C 
ENDROOT
BRANCH   1   2
ATOM      2  O   UNL     1      -1.366  -3.494   8.181  1.00  0.00    -0.376 OA
BRANCH   2   3
ATOM      3  C   UNL     1      -0.632  -2.544   7.410  1.00  0.00     0.202 C 
BRANCH   3   4
ATOM      4  C   UNL     1       0.542  -3.096   6.588  1.00  0.00     0.261 C 
BRANCH   4   5
ATOM      5  O   UNL     1       0.193  -4.197   5.720  1.00  0.00    -0.463 OA
BRANCH   5   6
ATOM      6  C   UNL     1       0.823  -5.372   5.985  1.00  0.00     0.312 C 
ATOM      7  O   UNL     1       1.704  -5.507   6.830  1.00  0.00    -0.252 OA
BRANCH   6   8
ATOM      8  C   UNL     1       0.312  -6.566   5.211  1.00  0.00     0.192 C 
BRANCH   8   9
ATOM      9  C   UNL     1      -0.697  -6.401   4.059  1.00  0.00     0.223 C 
BRANCH   9  10
ATOM     10  C   UNL     1      -0.893  -7.735   3.327  1.00  0.00     0.010 A 
ATOM     11  C   UNL     1      -1.211 -10.217   2.000  1.00  0.00     0.060 A 
ATOM     12  C   UNL     1      -2.331  -9.481   2.405  1.00  0.00     0.016 A 
ATOM     13  C   UNL     1       0.065  -9.698   2.229  1.00  0.00     0.016 A 
ATOM     14  C   UNL     1      -2.174  -8.253   3.070  1.00  0.00     0.011 A 
ATOM     15  C   UNL     1       0.217  -8.465   2.864  1.00  0.00     0.011 A 
BRANCH  11  16
ATOM     16  C   UNL     1      -1.393 -11.510   1.292  1.00  0.00     0.337 C 
ATOM     17  O   UNL     1      -2.413 -11.823   0.691  1.00  0.00    -0.246 OA
BRANCH  16  18
ATOM     18  O   UNL     1      -0.274 -12.266   1.415  1.00  0.00    -0.465 OA
ATOM     19  C   UNL     1      -0.318 -13.527   0.745  1.00  0.00     0.282 C 
ENDBRANCH  16  18
ENDBRANCH  11  16
ENDBRANCH   9  10
BRANCH   9  20
ATOM     20  N   UNL     1      -0.308  -5.378   3.085  1.00  0.00    -0.351 N 
ATOM     21  H   UNL     1       0.563  -5.654   2.632  1.00  0.00     0.345 HD
ATOM     22  H   UNL     1      -0.175  -4.487   3.563  1.00  0.00     0.345 HD
ATOM     23  H   UNL     1      -1.041  -5.281   2.382  1.00  0.00     0.345 HD
ENDBRANCH   9  20
ENDBRANCH   8   9
ENDBRANCH   6   8
ENDBRANCH   5   6
ENDBRANCH   4   5
ENDBRANCH   3   4
ENDBRANCH   2   3
ENDBRANCH   1   2
BRANCH   1  24
ATOM     24  C   UNL     1      -3.017  -4.017   6.379  1.00  0.00     0.188 C 
BRANCH  24  25
ATOM     25  O   UNL     1      -2.472  -3.109   5.431  1.00  0.00    -0.376 OA
BRANCH  25  26
ATOM     26  C   UNL     1      -3.391  -2.475   4.535  1.00  0.00     0.202 C 
BRANCH  26  27
ATOM     27  C   UNL     1      -4.729  -1.937   5.095  1.00  0.00     0.261 C 
BRANCH  27  28
ATOM     28  O   UNL     1      -5.570  -2.879   5.795  1.00  0.00    -0.460 OA
BRANCH  28  29
ATOM     29  C   UNL     1      -5.820  -4.067   5.200  1.00  0.00     0.338 C 
ATOM     30  O   UNL     1      -5.604  -4.341   4.029  1.00  0.00    -0.246 OA
BRANCH  29  31
ATOM     31  C   UNL     1      -6.131  -5.085   6.246  1.00  0.00     0.060 A 
ATOM     32  C   UNL     1      -5.663  -6.393   6.042  1.00  0.00     0.016 A 
ATOM     33  C   UNL     1      -6.812  -4.775   7.428  1.00  0.00     0.016 A 
ATOM     34  C   UNL     1      -5.949  -7.403   6.962  1.00  0.00     0.010 A 
ATOM     35  C   UNL     1      -7.110  -5.793   8.348  1.00  0.00     0.010 A 
ATOM     36  C   UNL     1      -6.733  -7.124   8.088  1.00  0.00    -0.014 A 
BRANCH  36  37
ATOM     37  C   UNL     1      -7.393  -8.253   8.801  1.00  0.00     0.031 A 
ATOM     38  C   UNL     1      -8.820  -8.576   8.423  1.00  0.00     0.074 A 
ATOM     39  C   UNL     1      -6.751  -9.030   9.693  1.00  0.00     0.049 A 
ATOM     40  N   UNL     1      -9.612  -9.513   8.877  1.00  0.00    -0.248 NA
ATOM     41  C   UNL     1      -9.433  -7.723   7.390  1.00  0.00     0.031 C 
ATOM     42  C   UNL     1      -5.358  -8.880  10.109  1.00  0.00     0.029 A 
ATOM     43  N   UNL     1      -7.197 -10.118  10.408  1.00  0.00    -0.354 N 
ATOM     44  C   UNL     1     -10.813  -9.356   8.192  1.00  0.00     0.074 A 
ATOM     45  C   UNL     1     -10.661  -8.212   7.323  1.00  0.00     0.031 C 
ATOM     46  C   UNL     1      -5.064  -9.839  11.007  1.00  0.00     0.029 A 
ATOM     47  C   UNL     1      -6.254 -10.655  11.253  1.00  0.00     0.049 A 
ATOM     48  H   UNL     1      -8.110 -10.479  10.323  1.00  0.00     0.167 HD
ATOM     49  C   UNL     1     -11.942 -10.100   8.264  1.00  0.00     0.031 A 
ATOM     50  C   UNL     1      -6.342 -11.677  12.131  1.00  0.00     0.031 A 
ATOM     51  C   UNL     1     -12.106 -11.235   9.131  1.00  0.00     0.049 A 
ATOM     52  C   UNL     1      -7.639 -12.444  12.255  1.00  0.00     0.074 A 
ATOM     53  C   UNL     1     -13.214 -12.052   9.273  1.00  0.00     0.029 A 
ATOM     54  N   UNL     1     -11.141 -11.713  10.002  1.00  0.00    -0.354 N 
ATOM     55  N   UNL     1      -8.761 -12.287  11.594  1.00  0.00    -0.248 NA
ATOM     56  C   UNL     1      -7.673 -13.539  13.238  1.00  0.00     0.031 C 
ATOM     57  C   UNL     1     -12.940 -12.987  10.276  1.00  0.00     0.029 A 
ATOM     58  C   UNL     1     -11.635 -12.800  10.702  1.00  0.00     0.049 A 
ATOM     59  H   UNL     1     -10.238 -11.335  10.108  1.00  0.00     0.167 HD
ATOM     60  C   UNL     1      -9.615 -13.290  12.048  1.00  0.00     0.074 A 
ATOM     61  C   UNL     1      -8.879 -14.051  13.034  1.00  0.00     0.031 C 
ATOM     62  C   UNL     1     -10.891 -13.561  11.674  1.00  0.00     0.031 A 
BRANCH  49  63
ATOM     63  C   UNL     1     -13.105  -9.681   7.404  1.00  0.00    -0.014 A 
ATOM     64  C   UNL     1     -13.072  -9.825   6.005  1.00  0.00     0.010 A 
ATOM     65  C   UNL     1     -14.263  -9.161   8.011  1.00  0.00     0.010 A 
ATOM     66  C   UNL     1     -14.161  -9.421   5.227  1.00  0.00     0.020 A 
ATOM     67  C   UNL     1     -15.366  -8.787   7.239  1.00  0.00     0.020 A 
ATOM     68  C   UNL     1     -15.301  -8.904   5.850  1.00  0.00     0.054 A 
BRANCH  68  69
ATOM     69  S   UNL     1     -16.708  -8.412   4.817  1.00  0.00     0.124 S 
ATOM     70  O   UNL     1     -16.197  -7.207   4.168  1.00  0.00    -0.237 OA
ATOM     71  O   UNL     1     -16.884  -9.570   3.945  1.00  0.00    -0.237 OA
ATOM     72  O   UNL     1     -17.784  -8.190   5.779  1.00  0.00    -0.744 OA
ENDBRANCH  68  69
ENDBRANCH  49  63
BRANCH  50  73
ATOM     73  C   UNL     1      -5.173 -12.040  12.984  1.00  0.00    -0.014 A 
ATOM     74  C   UNL     1      -4.514 -13.273  12.826  1.00  0.00     0.010 A 
ATOM     75  C   UNL     1      -4.732 -11.160  13.990  1.00  0.00     0.010 A 
ATOM     76  C   UNL     1      -3.456 -13.628  13.669  1.00  0.00     0.020 A 
ATOM     77  C   UNL     1      -3.654 -11.497  14.814  1.00  0.00     0.020 A 
ATOM     78  C   UNL     1      -3.030 -12.735  14.657  1.00  0.00     0.054 A 
BRANCH  78  79
ATOM     79  S   UNL     1      -1.628 -13.199  15.713  1.00  0.00     0.124 S 
ATOM     80  O   UNL     1      -2.212 -14.238  16.555  1.00  0.00    -0.237 OA
ATOM     81  O   UNL     1      -0.639 -13.654  14.739  1.00  0.00    -0.237 OA
ATOM     82  O   UNL     1      -1.290 -11.954  16.398  1.00  0.00    -0.744 OA
ENDBRANCH  78  79
ENDBRANCH  50  73
BRANCH  62  83
ATOM     83  C   UNL     1     -11.562 -14.772  12.276  1.00  0.00    -0.014 A 
ATOM     84  C   UNL     1     -11.944 -14.815  13.628  1.00  0.00     0.010 A 
ATOM     85  C   UNL     1     -11.865 -15.870  11.447  1.00  0.00     0.010 A 
ATOM     86  C   UNL     1     -12.576 -15.949  14.149  1.00  0.00     0.020 A 
ATOM     87  C   UNL     1     -12.526 -16.991  11.955  1.00  0.00     0.020 A 
ATOM     88  C   UNL     1     -12.862 -17.030  13.309  1.00  0.00     0.054 A 
BRANCH  88  89
ATOM     89  S   UNL     1     -13.708 -18.478  14.002  1.00  0.00     0.124 S 
ATOM     90  O   UNL     1     -12.657 -19.085  14.814  1.00  0.00    -0.237 OA
ATOM     91  O   UNL     1     -14.811 -17.877  14.748  1.00  0.00    -0.237 OA
ATOM     92  O   UNL     1     -14.106 -19.245  12.824  1.00  0.00    -0.744 OA
ENDBRANCH  88  89
ENDBRANCH  62  83
ENDBRANCH  36  37
ENDBRANCH  29  31
ENDBRANCH  28  29
ENDBRANCH  27  28
ENDBRANCH  26  27
ENDBRANCH  25  26
ENDBRANCH  24  25
ENDBRANCH   1  24
TORSDOF 25
