REMARK SMILES Cn1ncc(C(=O)OCCOCCOCCOC(=O)c2ccc(-c3c4nc(c(-c5ccc(S(=O)(=O)[O-])cc5)c5ccc([nH]5)c(-c5ccc(S(=O)(=O)[O-])cc5)c5nc(c(-c6ccc(S(=O)(=O)[O-])cc6)c6ccc3[nH]6)C=C5)C=C4)cc2)c1C(=O)Nc1ccccn1
REMARK SMILES IDX 13 1 12 2 11 3 10 4 9 5 8 6 6 7 7 8 5 9 1 10 2 11 3 12 80 13
REMARK SMILES IDX 4 14 81 15 82 16 83 17 84 19 85 20 89 21 86 22 88 23 87 24
REMARK SMILES IDX 14 25 15 26 16 27 17 28 18 29 19 30 20 31 21 32 79 33 22 34
REMARK SMILES IDX 78 35 23 36 24 37 25 38 72 39 26 40 77 41 71 42 73 43 27 44
REMARK SMILES IDX 76 45 70 46 69 47 28 49 58 50 39 51 57 52 40 53 43 54 56 55
REMARK SMILES IDX 74 56 41 57 42 58 55 60 75 61 44 62 29 63 30 64 38 65 31 66
REMARK SMILES IDX 37 67 32 68 33 69 34 70 35 71 36 72 59 73 60 74 68 75 61 76
REMARK SMILES IDX 67 77 62 78 63 79 64 80 65 81 66 82 45 83 46 84 54 85 47 86
REMARK SMILES IDX 53 87 48 88 49 89 50 90 51 91 52 92
REMARK H PARENT 83 18 73 48 43 59
REMARK Flexibility Score: inf
ROOT
ATOM      1  C   UNL     1       2.804  -1.947  -2.323  1.00  0.00     0.188 C 
ENDROOT
BRANCH   1   2
ATOM      2  C   UNL     1       4.107  -1.493  -1.625  1.00  0.00     0.188 C 
BRANCH   2   3
ATOM      3  O   UNL     1       5.134  -2.412  -1.299  1.00  0.00    -0.376 OA
BRANCH   3   4
ATOM      4  C   UNL     1       4.888  -3.540  -0.473  1.00  0.00     0.202 C 
BRANCH   4   5
ATOM      5  C   UNL     1       3.985  -3.445   0.757  1.00  0.00     0.261 C 
BRANCH   5   6
ATOM      6  O   UNL     1       2.766  -2.748   0.502  1.00  0.00    -0.460 OA
BRANCH   6   7
ATOM      7  C   UNL     1       2.447  -1.800   1.430  1.00  0.00     0.342 C 
ATOM      8  O   UNL     1       3.040  -1.617   2.476  1.00  0.00    -0.246 OA
BRANCH   7   9
ATOM      9  C   UNL     1       1.417  -0.892   0.966  1.00  0.00     0.111 A 
ATOM     10  C   UNL     1      -1.706   0.656   1.203  1.00  0.00     0.174 C 
ATOM     11  N   UNL     1      -0.460   0.140   0.681  1.00  0.00    -0.262 N 
ATOM     12  N   UNL     1       0.468   1.073   0.379  1.00  0.00    -0.180 NA
ATOM     13  C   UNL     1       0.057  -1.141   0.735  1.00  0.00     0.140 A 
ATOM     14  C   UNL     1       1.608   0.477   0.710  1.00  0.00     0.151 A 
BRANCH  13  15
ATOM     15  C   UNL     1      -0.574  -2.447   0.806  1.00  0.00     0.275 C 
ATOM     16  O   UNL     1       0.070  -3.433   1.181  1.00  0.00    -0.267 OA
ATOM     17  N   UNL     1      -1.898  -2.699   0.584  1.00  0.00    -0.305 N 
ATOM     18  H   UNL     1      -2.155  -3.610   0.852  1.00  0.00     0.171 HD
BRANCH  17  19
ATOM     19  C   UNL     1      -2.962  -1.983   0.072  1.00  0.00     0.132 A 
ATOM     20  C   UNL     1      -2.890  -1.164  -1.042  1.00  0.00     0.047 A 
ATOM     21  N   UNL     1      -4.091  -2.146   0.793  1.00  0.00    -0.239 NA
ATOM     22  C   UNL     1      -4.017  -0.406  -1.370  1.00  0.00     0.005 A 
ATOM     23  C   UNL     1      -5.149  -1.370   0.483  1.00  0.00     0.113 A 
ATOM     24  C   UNL     1      -5.156  -0.482  -0.574  1.00  0.00     0.020 A 
ENDBRANCH  17  19
ENDBRANCH  13  15
ENDBRANCH   7   9
ENDBRANCH   6   7
ENDBRANCH   5   6
ENDBRANCH   4   5
ENDBRANCH   3   4
ENDBRANCH   2   3
ENDBRANCH   1   2
BRANCH   1  25
ATOM     25  O   UNL     1       2.670  -3.263  -2.831  1.00  0.00    -0.376 OA
BRANCH  25  26
ATOM     26  C   UNL     1       3.682  -3.779  -3.680  1.00  0.00     0.202 C 
BRANCH  26  27
ATOM     27  C   UNL     1       3.985  -3.052  -4.989  1.00  0.00     0.261 C 
BRANCH  27  28
ATOM     28  O   UNL     1       4.447  -1.709  -4.784  1.00  0.00    -0.460 OA
BRANCH  28  29
ATOM     29  C   UNL     1       3.676  -0.749  -5.348  1.00  0.00     0.338 C 
ATOM     30  O   UNL     1       2.676  -0.909  -6.026  1.00  0.00    -0.246 OA
BRANCH  29  31
ATOM     31  C   UNL     1       4.120   0.579  -4.886  1.00  0.00     0.060 A 
ATOM     32  C   UNL     1       3.169   1.411  -4.281  1.00  0.00     0.016 A 
ATOM     33  C   UNL     1       5.423   1.027  -5.105  1.00  0.00     0.016 A 
ATOM     34  C   UNL     1       3.510   2.715  -3.930  1.00  0.00     0.010 A 
ATOM     35  C   UNL     1       5.757   2.343  -4.770  1.00  0.00     0.010 A 
ATOM     36  C   UNL     1       4.793   3.201  -4.213  1.00  0.00    -0.014 A 
BRANCH  36  37
ATOM     37  C   UNL     1       5.074   4.649  -4.075  1.00  0.00     0.031 A 
ATOM     38  C   UNL     1       4.910   5.534  -5.280  1.00  0.00     0.074 A 
ATOM     39  C   UNL     1       5.452   5.172  -2.896  1.00  0.00     0.049 A 
ATOM     40  N   UNL     1       5.121   6.820  -5.397  1.00  0.00    -0.248 NA
ATOM     41  C   UNL     1       4.444   4.884  -6.517  1.00  0.00     0.031 C 
ATOM     42  C   UNL     1       5.604   4.426  -1.648  1.00  0.00     0.029 A 
ATOM     43  N   UNL     1       5.783   6.461  -2.562  1.00  0.00    -0.354 N 
ATOM     44  C   UNL     1       4.814   7.133  -6.716  1.00  0.00     0.074 A 
ATOM     45  C   UNL     1       4.426   5.900  -7.367  1.00  0.00     0.031 C 
ATOM     46  C   UNL     1       6.013   5.270  -0.684  1.00  0.00     0.029 A 
ATOM     47  C   UNL     1       6.175   6.607  -1.254  1.00  0.00     0.049 A 
ATOM     48  H   UNL     1       5.744   7.210  -3.200  1.00  0.00     0.167 HD
ATOM     49  C   UNL     1       4.848   8.339  -7.330  1.00  0.00     0.031 A 
ATOM     50  C   UNL     1       6.632   7.691  -0.597  1.00  0.00     0.031 A 
ATOM     51  C   UNL     1       5.259   9.560  -6.693  1.00  0.00     0.049 A 
ATOM     52  C   UNL     1       6.743   9.006  -1.325  1.00  0.00     0.074 A 
ATOM     53  C   UNL     1       5.322  10.834  -7.231  1.00  0.00     0.029 A 
ATOM     54  N   UNL     1       5.688   9.659  -5.378  1.00  0.00    -0.354 N 
ATOM     55  N   UNL     1       6.423   9.292  -2.565  1.00  0.00    -0.248 NA
ATOM     56  C   UNL     1       7.274  10.145  -0.562  1.00  0.00     0.031 C 
ATOM     57  C   UNL     1       5.835  11.694  -6.254  1.00  0.00     0.029 A 
ATOM     58  C   UNL     1       6.043  10.966  -5.094  1.00  0.00     0.049 A 
ATOM     59  H   UNL     1       5.732   8.910  -4.741  1.00  0.00     0.167 HD
ATOM     60  C   UNL     1       6.693  10.648  -2.723  1.00  0.00     0.074 A 
ATOM     61  C   UNL     1       7.191  11.127  -1.450  1.00  0.00     0.031 C 
ATOM     62  C   UNL     1       6.540  11.426  -3.823  1.00  0.00     0.031 A 
BRANCH  49  63
ATOM     63  C   UNL     1       4.460   8.383  -8.782  1.00  0.00    -0.014 A 
ATOM     64  C   UNL     1       3.115   8.266  -9.176  1.00  0.00     0.010 A 
ATOM     65  C   UNL     1       5.450   8.569  -9.764  1.00  0.00     0.010 A 
ATOM     66  C   UNL     1       2.771   8.298 -10.530  1.00  0.00     0.020 A 
ATOM     67  C   UNL     1       5.107   8.622 -11.117  1.00  0.00     0.020 A 
ATOM     68  C   UNL     1       3.771   8.470 -11.493  1.00  0.00     0.054 A 
BRANCH  68  69
ATOM     69  S   UNL     1       3.297   8.522 -13.243  1.00  0.00     0.124 S 
ATOM     70  O   UNL     1       3.025   7.114 -13.523  1.00  0.00    -0.237 OA
ATOM     71  O   UNL     1       2.127   9.397 -13.234  1.00  0.00    -0.237 OA
ATOM     72  O   UNL     1       4.477   9.073 -13.905  1.00  0.00    -0.744 OA
ENDBRANCH  68  69
ENDBRANCH  49  63
BRANCH  50  73
ATOM     73  C   UNL     1       7.046   7.579   0.827  1.00  0.00    -0.014 A 
ATOM     74  C   UNL     1       6.279   8.168   1.846  1.00  0.00     0.010 A 
ATOM     75  C   UNL     1       8.223   6.888   1.168  1.00  0.00     0.010 A 
ATOM     76  C   UNL     1       6.690   8.084   3.180  1.00  0.00     0.020 A 
ATOM     77  C   UNL     1       8.625   6.781   2.502  1.00  0.00     0.020 A 
ATOM     78  C   UNL     1       7.862   7.392   3.499  1.00  0.00     0.054 A 
BRANCH  78  79
ATOM     79  S   UNL     1       8.357   7.257   5.240  1.00  0.00     0.124 S 
ATOM     80  O   UNL     1       8.908   8.583   5.501  1.00  0.00    -0.237 OA
ATOM     81  O   UNL     1       7.094   6.953   5.907  1.00  0.00    -0.237 OA
ATOM     82  O   UNL     1       9.328   6.165   5.234  1.00  0.00    -0.744 OA
ENDBRANCH  78  79
ENDBRANCH  50  73
BRANCH  62  83
ATOM     83  C   UNL     1       6.889  12.885  -3.696  1.00  0.00    -0.014 A 
ATOM     84  C   UNL     1       8.229  13.310  -3.653  1.00  0.00     0.010 A 
ATOM     85  C   UNL     1       5.862  13.846  -3.681  1.00  0.00     0.010 A 
ATOM     86  C   UNL     1       8.535  14.671  -3.573  1.00  0.00     0.020 A 
ATOM     87  C   UNL     1       6.165  15.209  -3.624  1.00  0.00     0.020 A 
ATOM     88  C   UNL     1       7.500  15.613  -3.558  1.00  0.00     0.054 A 
BRANCH  88  89
ATOM     89  S   UNL     1       7.921  17.377  -3.504  1.00  0.00     0.124 S 
ATOM     90  O   UNL     1       8.289  17.559  -2.103  1.00  0.00    -0.237 OA
ATOM     91  O   UNL     1       9.021  17.476  -4.461  1.00  0.00    -0.237 OA
ATOM     92  O   UNL     1       6.685  18.039  -3.916  1.00  0.00    -0.744 OA
ENDBRANCH  88  89
ENDBRANCH  62  83
ENDBRANCH  36  37
ENDBRANCH  29  31
ENDBRANCH  28  29
ENDBRANCH  27  28
ENDBRANCH  26  27
ENDBRANCH  25  26
ENDBRANCH   1  25
TORSDOF 22
