REMARK SMILES O=C(COc1ccccc1/C=C1/SC(=S)N(c2ccc(F)c(Cl)c2)C1=O)OCCOCCOCCOC(=O)c1ccc(-c2c3nc(c(-c4ccc(S(=O)(=O)[O-])cc4)c4ccc([nH]4)c(-c4ccc(S(=O)(=O)[O-])cc4)c4nc(c(-c5ccc(S(=O)(=O)[O-])cc5)c5ccc2[nH]5)C=C4)C=C3)cc1
REMARK SMILES IDX 31 1 30 2 29 3 28 4 27 5 2 6 1 7 3 8 4 9 5 10 6 11 10 12
REMARK SMILES IDX 7 13 9 14 8 15 11 16 12 17 13 18 25 19 14 20 16 21 26 22
REMARK SMILES IDX 15 23 17 24 18 25 24 26 19 27 22 28 20 29 23 30 21 31 32 32
REMARK SMILES IDX 33 33 34 34 35 35 36 36 37 37 38 38 39 39 40 40 98 41 41 42
REMARK SMILES IDX 97 43 42 44 43 45 44 46 91 47 45 48 96 49 90 50 92 51 46 52
REMARK SMILES IDX 95 53 89 54 88 55 47 57 77 58 58 59 76 60 59 61 62 62 75 63
REMARK SMILES IDX 93 64 60 65 61 66 74 68 94 69 63 70 48 71 49 72 57 73 50 74
REMARK SMILES IDX 56 75 51 76 52 77 53 78 54 79 55 80 78 81 79 82 87 83 80 84
REMARK SMILES IDX 86 85 81 86 82 87 83 88 84 89 85 90 64 91 65 92 73 93 66 94
REMARK SMILES IDX 72 95 67 96 68 97 69 98 70 99 71 100
REMARK H PARENT 92 56 62 67
REMARK Flexibility Score: inf
ROOT
ATOM      1  C   UNL     1       3.613  -1.868  -1.899  1.00  0.00     0.188 C 
ENDROOT
BRANCH   1   2
ATOM      2  O   UNL     1       4.984  -1.635  -1.589  1.00  0.00    -0.376 OA
BRANCH   2   3
ATOM      3  C   UNL     1       5.291  -0.299  -1.226  1.00  0.00     0.202 C 
BRANCH   3   4
ATOM      4  C   UNL     1       4.678   0.082   0.110  1.00  0.00     0.261 C 
BRANCH   4   5
ATOM      5  O   UNL     1       3.231   0.122   0.148  1.00  0.00    -0.461 OA
BRANCH   5   6
ATOM      6  C   UNL     1       2.407   0.858  -0.635  1.00  0.00     0.344 C 
ATOM      7  O   UNL     1       1.237   0.514  -0.793  1.00  0.00    -0.248 OA
BRANCH   6   8
ATOM      8  C   UNL     1       2.967   2.099  -1.269  1.00  0.00     0.351 C 
BRANCH   8   9
ATOM      9  O   UNL     1       3.866   2.719  -0.357  1.00  0.00    -0.481 OA
BRANCH   9  10
ATOM     10  C   UNL     1       3.291   3.810   0.229  1.00  0.00     0.127 A 
ATOM     11  C   UNL     1       3.634   5.032  -0.357  1.00  0.00     0.047 A 
ATOM     12  C   UNL     1       2.409   3.737   1.323  1.00  0.00     0.018 A 
ATOM     13  C   UNL     1       3.056   6.206   0.103  1.00  0.00     0.004 A 
ATOM     14  C   UNL     1       1.837   4.936   1.769  1.00  0.00     0.012 A 
ATOM     15  C   UNL     1       2.154   6.157   1.163  1.00  0.00     0.001 A 
BRANCH  12  16
ATOM     16  C   UNL     1       1.914   2.503   1.967  1.00  0.00     0.033 C 
ATOM     17  C   UNL     1       2.566   1.582   2.696  1.00  0.00     0.081 C 
ATOM     18  S   UNL     1       1.782   0.158   3.279  1.00  0.00    -0.054 SA
ATOM     19  C   UNL     1       4.013   1.527   3.041  1.00  0.00     0.270 C 
ATOM     20  C   UNL     1       3.301  -0.627   3.712  1.00  0.00     0.152 C 
ATOM     21  N   UNL     1       4.362   0.239   3.477  1.00  0.00    -0.261 N 
ATOM     22  O   UNL     1       4.758   2.489   2.904  1.00  0.00    -0.268 OA
ATOM     23  S   UNL     1       3.292  -2.141   4.430  1.00  0.00    -0.051 S 
BRANCH  21  24
ATOM     24  C   UNL     1       5.752  -0.117   3.590  1.00  0.00     0.052 A 
ATOM     25  C   UNL     1       6.685   0.800   4.100  1.00  0.00     0.030 A 
ATOM     26  C   UNL     1       6.239  -1.334   3.074  1.00  0.00     0.050 A 
ATOM     27  C   UNL     1       8.057   0.530   4.074  1.00  0.00     0.043 A 
ATOM     28  C   UNL     1       7.614  -1.594   3.029  1.00  0.00     0.078 A 
ATOM     29  C   UNL     1       8.515  -0.660   3.526  1.00  0.00     0.141 A 
ATOM     30  Cl  UNL     1       8.178  -3.051   2.303  1.00  0.00    -0.081 Cl
ATOM     31  F   UNL     1       9.837  -0.879   3.472  1.00  0.00    -0.205 F 
ENDBRANCH  21  24
ENDBRANCH  12  16
ENDBRANCH   9  10
ENDBRANCH   8   9
ENDBRANCH   6   8
ENDBRANCH   5   6
ENDBRANCH   4   5
ENDBRANCH   3   4
ENDBRANCH   2   3
ENDBRANCH   1   2
BRANCH   1  32
ATOM     32  C   UNL     1       2.843  -2.595  -0.780  1.00  0.00     0.188 C 
BRANCH  32  33
ATOM     33  O   UNL     1       3.712  -3.300   0.105  1.00  0.00    -0.376 OA
BRANCH  33  34
ATOM     34  C   UNL     1       3.708  -4.714  -0.084  1.00  0.00     0.202 C 
BRANCH  34  35
ATOM     35  C   UNL     1       4.488  -5.184  -1.319  1.00  0.00     0.261 C 
BRANCH  35  36
ATOM     36  O   UNL     1       3.966  -4.773  -2.600  1.00  0.00    -0.460 OA
BRANCH  36  37
ATOM     37  C   UNL     1       2.684  -5.056  -2.929  1.00  0.00     0.338 C 
ATOM     38  O   UNL     1       1.906  -5.750  -2.298  1.00  0.00    -0.246 OA
BRANCH  37  39
ATOM     39  C   UNL     1       2.308  -4.163  -4.063  1.00  0.00     0.060 A 
ATOM     40  C   UNL     1       1.108  -3.437  -3.994  1.00  0.00     0.016 A 
ATOM     41  C   UNL     1       3.194  -3.934  -5.122  1.00  0.00     0.016 A 
ATOM     42  C   UNL     1       0.784  -2.506  -4.991  1.00  0.00     0.010 A 
ATOM     43  C   UNL     1       2.865  -3.012  -6.122  1.00  0.00     0.010 A 
ATOM     44  C   UNL     1       1.646  -2.312  -6.081  1.00  0.00    -0.014 A 
BRANCH  44  45
ATOM     45  C   UNL     1       1.191  -1.599  -7.305  1.00  0.00     0.031 A 
ATOM     46  C   UNL     1       0.581  -2.435  -8.402  1.00  0.00     0.074 A 
ATOM     47  C   UNL     1       1.357  -0.275  -7.493  1.00  0.00     0.049 A 
ATOM     48  N   UNL     1       0.218  -2.087  -9.608  1.00  0.00    -0.248 NA
ATOM     49  C   UNL     1       0.367  -3.859  -8.093  1.00  0.00     0.031 C 
ATOM     50  C   UNL     1       1.903   0.666  -6.518  1.00  0.00     0.029 A 
ATOM     51  N   UNL     1       1.097   0.503  -8.599  1.00  0.00    -0.354 N 
ATOM     52  C   UNL     1      -0.249  -3.250 -10.207  1.00  0.00     0.074 A 
ATOM     53  C   UNL     1      -0.110  -4.316  -9.240  1.00  0.00     0.031 C 
ATOM     54  C   UNL     1       1.960   1.890  -7.077  1.00  0.00     0.029 A 
ATOM     55  C   UNL     1       1.487   1.815  -8.461  1.00  0.00     0.049 A 
ATOM     56  H   UNL     1       0.670   0.153  -9.414  1.00  0.00     0.167 HD
ATOM     57  C   UNL     1      -0.746  -3.425 -11.453  1.00  0.00     0.031 A 
ATOM     58  C   UNL     1       1.493   2.829  -9.354  1.00  0.00     0.031 A 
ATOM     59  C   UNL     1      -0.877  -2.382 -12.430  1.00  0.00     0.049 A 
ATOM     60  C   UNL     1       1.003   2.593 -10.765  1.00  0.00     0.074 A 
ATOM     61  C   UNL     1      -1.409  -2.464 -13.704  1.00  0.00     0.029 A 
ATOM     62  N   UNL     1      -0.456  -1.075 -12.251  1.00  0.00    -0.354 N 
ATOM     63  N   UNL     1       0.507   1.500 -11.295  1.00  0.00    -0.248 NA
ATOM     64  C   UNL     1       1.079   3.729 -11.700  1.00  0.00     0.031 C 
ATOM     65  C   UNL     1      -1.254  -1.219 -14.320  1.00  0.00     0.029 A 
ATOM     66  C   UNL     1      -0.678  -0.349 -13.408  1.00  0.00     0.049 A 
ATOM     67  H   UNL     1      -0.057  -0.717 -11.426  1.00  0.00     0.167 HD
ATOM     68  C   UNL     1       0.193   1.825 -12.614  1.00  0.00     0.074 A 
ATOM     69  C   UNL     1       0.541   3.217 -12.799  1.00  0.00     0.031 C 
ATOM     70  C   UNL     1      -0.336   1.038 -13.583  1.00  0.00     0.031 A 
BRANCH  57  71
ATOM     71  C   UNL     1      -1.150  -4.819 -11.844  1.00  0.00    -0.014 A 
ATOM     72  C   UNL     1      -2.320  -5.406 -11.333  1.00  0.00     0.010 A 
ATOM     73  C   UNL     1      -0.361  -5.535 -12.762  1.00  0.00     0.010 A 
ATOM     74  C   UNL     1      -2.680  -6.701 -11.713  1.00  0.00     0.020 A 
ATOM     75  C   UNL     1      -0.731  -6.820 -13.162  1.00  0.00     0.020 A 
ATOM     76  C   UNL     1      -1.882  -7.400 -12.624  1.00  0.00     0.054 A 
BRANCH  76  77
ATOM     77  S   UNL     1      -2.390  -9.067 -13.124  1.00  0.00     0.124 S 
ATOM     78  O   UNL     1      -2.072  -9.848 -11.931  1.00  0.00    -0.237 OA
ATOM     79  O   UNL     1      -3.814  -8.897 -13.403  1.00  0.00    -0.237 OA
ATOM     80  O   UNL     1      -1.558  -9.347 -14.292  1.00  0.00    -0.744 OA
ENDBRANCH  76  77
ENDBRANCH  57  71
BRANCH  58  81
ATOM     81  C   UNL     1       2.028   4.168  -8.973  1.00  0.00    -0.014 A 
ATOM     82  C   UNL     1       1.175   5.282  -8.868  1.00  0.00     0.010 A 
ATOM     83  C   UNL     1       3.408   4.345  -8.760  1.00  0.00     0.010 A 
ATOM     84  C   UNL     1       1.693   6.549  -8.577  1.00  0.00     0.020 A 
ATOM     85  C   UNL     1       3.926   5.605  -8.442  1.00  0.00     0.020 A 
ATOM     86  C   UNL     1       3.066   6.702  -8.365  1.00  0.00     0.054 A 
BRANCH  86  87
ATOM     87  S   UNL     1       3.714   8.344  -7.940  1.00  0.00     0.124 S 
ATOM     88  O   UNL     1       3.680   9.027  -9.229  1.00  0.00    -0.237 OA
ATOM     89  O   UNL     1       2.752   8.815  -6.946  1.00  0.00    -0.237 OA
ATOM     90  O   UNL     1       5.047   8.057  -7.415  1.00  0.00    -0.744 OA
ENDBRANCH  86  87
ENDBRANCH  58  81
BRANCH  70  91
ATOM     91  C   UNL     1      -0.605   1.652 -14.932  1.00  0.00    -0.014 A 
ATOM     92  C   UNL     1       0.443   1.924 -15.829  1.00  0.00     0.010 A 
ATOM     93  C   UNL     1      -1.934   1.860 -15.348  1.00  0.00     0.010 A 
ATOM     94  C   UNL     1       0.167   2.403 -17.114  1.00  0.00     0.020 A 
ATOM     95  C   UNL     1      -2.214   2.315 -16.640  1.00  0.00     0.020 A 
ATOM     96  C   UNL     1      -1.160   2.591 -17.513  1.00  0.00     0.054 A 
BRANCH  96  97
ATOM     97  S   UNL     1      -1.494   3.139 -19.211  1.00  0.00     0.124 S 
ATOM     98  O   UNL     1      -1.118   4.548 -19.155  1.00  0.00    -0.237 OA
ATOM     99  O   UNL     1      -0.614   2.284 -20.004  1.00  0.00    -0.237 OA
ATOM    100  O   UNL     1      -2.922   2.881 -19.383  1.00  0.00    -0.744 OA
ENDBRANCH  96  97
ENDBRANCH  70  91
ENDBRANCH  44  45
ENDBRANCH  37  39
ENDBRANCH  36  37
ENDBRANCH  35  36
ENDBRANCH  34  35
ENDBRANCH  33  34
ENDBRANCH  32  33
ENDBRANCH   1  32
TORSDOF 24
