REMARK SMILES COc1ccc(/C=C2/C(=O)N(c3ccccc3)C(=O)N=C2OCCOCCOCCOC(=O)c2ccc(-c3c4nc(c(-c5ccc(S(=O)(=O)[O-])cc5)c5ccc([nH]5)c(-c5ccc(S(=O)(=O)[O-])cc5)c5nc(c(-c6ccc(S(=O)(=O)[O-])cc6)c6ccc3[nH]6)C=C5)C=C4)cc2)cc1C(=O)[O-]
REMARK SMILES IDX 27 1 26 2 25 3 24 4 23 5 22 6 21 7 7 8 8 9 9 10 10 11 11 12
REMARK SMILES IDX 20 13 18 14 19 15 6 16 3 17 4 18 95 19 5 20 94 21 2 22 1 23
REMARK SMILES IDX 96 24 97 25 98 26 12 27 13 28 17 29 14 30 16 31 15 32 28 33
REMARK SMILES IDX 29 34 30 35 31 36 32 37 33 38 34 39 35 40 93 41 36 42 92 43
REMARK SMILES IDX 37 44 38 45 39 46 86 47 40 48 91 49 85 50 87 51 41 52 90 53
REMARK SMILES IDX 84 54 83 55 42 57 72 58 53 59 71 60 54 61 57 62 70 63 88 64
REMARK SMILES IDX 55 65 56 66 69 68 89 69 58 70 43 71 44 72 52 73 45 74 51 75
REMARK SMILES IDX 46 76 47 77 48 78 49 79 50 80 73 81 74 82 82 83 75 84 81 85
REMARK SMILES IDX 76 86 77 87 78 88 79 89 80 90 59 91 60 92 68 93 61 94 67 95
REMARK SMILES IDX 62 96 63 97 64 98 65 99 66 100
REMARK H PARENT 87 56 57 67
REMARK Flexibility Score: inf
ROOT
ATOM      1  C   UNL     1      -1.155   2.052   6.509  1.00  0.00     0.188 C 
ENDROOT
BRANCH   1   2
ATOM      2  C   UNL     1      -2.000   3.255   6.974  1.00  0.00     0.188 C 
BRANCH   2   3
ATOM      3  O   UNL     1      -3.125   3.689   6.237  1.00  0.00    -0.376 OA
BRANCH   3   4
ATOM      4  C   UNL     1      -2.989   4.149   4.902  1.00  0.00     0.201 C 
BRANCH   4   5
ATOM      5  C   UNL     1      -1.917   5.171   4.537  1.00  0.00     0.260 C 
BRANCH   5   6
ATOM      6  O   UNL     1      -0.584   4.649   4.707  1.00  0.00    -0.475 OA
BRANCH   6   7
ATOM      7  C   UNL     1       0.206   5.166   5.663  1.00  0.00     0.231 C 
ATOM      8  C   UNL     1       2.143   3.602   5.004  1.00  0.00     0.027 C 
ATOM      9  C   UNL     1       1.499   4.481   5.821  1.00  0.00     0.103 C 
ATOM     10  C   UNL     1       2.161   4.785   7.149  1.00  0.00     0.272 C 
ATOM     11  O   UNL     1       3.220   4.239   7.459  1.00  0.00    -0.268 OA
ATOM     12  N   UNL     1       1.459   5.659   7.979  1.00  0.00    -0.226 N 
ATOM     13  N   UNL     1      -0.273   6.075   6.421  1.00  0.00    -0.156 NA
ATOM     14  C   UNL     1       0.316   6.369   7.609  1.00  0.00     0.358 C 
ATOM     15  O   UNL     1      -0.223   7.196   8.337  1.00  0.00    -0.245 OA
BRANCH   8  16
ATOM     16  C   UNL     1       1.904   2.954   3.672  1.00  0.00    -0.024 A 
ATOM     17  C   UNL     1       1.562   1.583   1.180  1.00  0.00     0.127 A 
ATOM     18  C   UNL     1       0.698   2.597   1.568  1.00  0.00     0.048 A 
ATOM     19  C   UNL     1       2.664   1.292   1.988  1.00  0.00     0.040 A 
ATOM     20  C   UNL     1       0.908   3.301   2.760  1.00  0.00     0.012 A 
ATOM     21  C   UNL     1       2.790   1.939   3.247  1.00  0.00     0.022 A 
BRANCH  17  22
ATOM     22  O   UNL     1       1.320   1.047  -0.054  1.00  0.00    -0.496 OA
ATOM     23  C   UNL     1       0.792  -0.277   0.012  1.00  0.00     0.278 C 
ENDBRANCH  17  22
BRANCH  19  24
ATOM     24  C   UNL     1       3.780   0.405   1.574  1.00  0.00     0.075 C 
ATOM     25  O   UNL     1       4.662  -0.010   2.309  1.00  0.00    -0.545 OA
ATOM     26  O   UNL     1       3.825   0.151   0.256  1.00  0.00    -0.545 OA
ENDBRANCH  19  24
ENDBRANCH   8  16
BRANCH  12  27
ATOM     27  C   UNL     1       1.920   5.869   9.309  1.00  0.00     0.054 A 
ATOM     28  C   UNL     1       1.204   5.324  10.383  1.00  0.00     0.027 A 
ATOM     29  C   UNL     1       2.996   6.725   9.554  1.00  0.00     0.027 A 
ATOM     30  C   UNL     1       1.579   5.619  11.694  1.00  0.00     0.002 A 
ATOM     31  C   UNL     1       3.335   7.052  10.869  1.00  0.00     0.002 A 
ATOM     32  C   UNL     1       2.629   6.500  11.937  1.00  0.00     0.000 A 
ENDBRANCH  12  27
ENDBRANCH   6   7
ENDBRANCH   5   6
ENDBRANCH   4   5
ENDBRANCH   3   4
ENDBRANCH   2   3
ENDBRANCH   1   2
BRANCH   1  33
ATOM     33  O   UNL     1      -1.503   1.331   5.348  1.00  0.00    -0.376 OA
BRANCH  33  34
ATOM     34  C   UNL     1      -2.789   0.746   5.239  1.00  0.00     0.202 C 
BRANCH  34  35
ATOM     35  C   UNL     1      -3.522   0.104   6.427  1.00  0.00     0.261 C 
BRANCH  35  36
ATOM     36  O   UNL     1      -3.485   0.825   7.666  1.00  0.00    -0.460 OA
BRANCH  36  37
ATOM     37  C   UNL     1      -2.785   0.227   8.666  1.00  0.00     0.338 C 
ATOM     38  O   UNL     1      -2.206  -0.844   8.608  1.00  0.00    -0.246 OA
BRANCH  37  39
ATOM     39  C   UNL     1      -2.633   1.160   9.806  1.00  0.00     0.060 A 
ATOM     40  C   UNL     1      -1.335   1.438  10.257  1.00  0.00     0.016 A 
ATOM     41  C   UNL     1      -3.736   1.742  10.436  1.00  0.00     0.016 A 
ATOM     42  C   UNL     1      -1.141   2.269  11.361  1.00  0.00     0.010 A 
ATOM     43  C   UNL     1      -3.540   2.559  11.559  1.00  0.00     0.010 A 
ATOM     44  C   UNL     1      -2.244   2.804  12.044  1.00  0.00    -0.014 A 
BRANCH  44  45
ATOM     45  C   UNL     1      -2.027   3.443  13.369  1.00  0.00     0.031 A 
ATOM     46  C   UNL     1      -1.997   2.563  14.589  1.00  0.00     0.074 A 
ATOM     47  C   UNL     1      -1.810   4.764  13.494  1.00  0.00     0.049 A 
ATOM     48  N   UNL     1      -1.721   2.869  15.830  1.00  0.00    -0.248 NA
ATOM     49  C   UNL     1      -2.344   1.149  14.377  1.00  0.00     0.031 C 
ATOM     50  C   UNL     1      -1.824   5.729  12.398  1.00  0.00     0.029 A 
ATOM     51  N   UNL     1      -1.485   5.514  14.600  1.00  0.00    -0.354 N 
ATOM     52  C   UNL     1      -1.894   1.695  16.555  1.00  0.00     0.074 A 
ATOM     53  C   UNL     1      -2.296   0.673  15.611  1.00  0.00     0.031 C 
ATOM     54  C   UNL     1      -1.449   6.931  12.873  1.00  0.00     0.029 A 
ATOM     55  C   UNL     1      -1.208   6.831  14.313  1.00  0.00     0.049 A 
ATOM     56  H   UNL     1      -1.454   5.144  15.511  1.00  0.00     0.167 HD
ATOM     57  C   UNL     1      -1.756   1.488  17.887  1.00  0.00     0.031 A 
ATOM     58  C   UNL     1      -0.790   7.834  15.115  1.00  0.00     0.031 A 
ATOM     59  C   UNL     1      -1.404   2.512  18.834  1.00  0.00     0.049 A 
ATOM     60  C   UNL     1      -0.601   7.573  16.591  1.00  0.00     0.074 A 
ATOM     61  C   UNL     1      -1.269   2.406  20.207  1.00  0.00     0.029 A 
ATOM     62  N   UNL     1      -1.145   3.836  18.510  1.00  0.00    -0.354 N 
ATOM     63  N   UNL     1      -0.743   6.451  17.259  1.00  0.00    -0.248 NA
ATOM     64  C   UNL     1      -0.205   8.719  17.424  1.00  0.00     0.031 C 
ATOM     65  C   UNL     1      -0.988   3.678  20.720  1.00  0.00     0.029 A 
ATOM     66  C   UNL     1      -0.873   4.562  19.659  1.00  0.00     0.049 A 
ATOM     67  H   UNL     1      -1.154   4.206  17.597  1.00  0.00     0.167 HD
ATOM     68  C   UNL     1      -0.466   6.761  18.589  1.00  0.00     0.074 A 
ATOM     69  C   UNL     1      -0.096   8.161  18.622  1.00  0.00     0.031 C 
ATOM     70  C   UNL     1      -0.530   5.964  19.687  1.00  0.00     0.031 A 
BRANCH  57  71
ATOM     71  C   UNL     1      -2.081   0.106  18.396  1.00  0.00    -0.014 A 
ATOM     72  C   UNL     1      -1.267  -1.001  18.095  1.00  0.00     0.010 A 
ATOM     73  C   UNL     1      -3.241  -0.088  19.167  1.00  0.00     0.010 A 
ATOM     74  C   UNL     1      -1.643  -2.285  18.500  1.00  0.00     0.020 A 
ATOM     75  C   UNL     1      -3.603  -1.365  19.603  1.00  0.00     0.020 A 
ATOM     76  C   UNL     1      -2.815  -2.459  19.243  1.00  0.00     0.054 A 
BRANCH  76  77
ATOM     77  S   UNL     1      -3.296  -4.138  19.733  1.00  0.00     0.124 S 
ATOM     78  O   UNL     1      -3.742  -4.705  18.463  1.00  0.00    -0.237 OA
ATOM     79  O   UNL     1      -2.050  -4.686  20.262  1.00  0.00    -0.237 OA
ATOM     80  O   UNL     1      -4.348  -3.923  20.722  1.00  0.00    -0.744 OA
ENDBRANCH  76  77
ENDBRANCH  57  71
BRANCH  58  81
ATOM     81  C   UNL     1      -0.513   9.185  14.542  1.00  0.00    -0.014 A 
ATOM     82  C   UNL     1       0.792   9.710  14.532  1.00  0.00     0.010 A 
ATOM     83  C   UNL     1      -1.555   9.955  13.993  1.00  0.00     0.010 A 
ATOM     84  C   UNL     1       1.049  10.976  13.992  1.00  0.00     0.020 A 
ATOM     85  C   UNL     1      -1.298  11.205  13.420  1.00  0.00     0.020 A 
ATOM     86  C   UNL     1       0.002  11.712  13.431  1.00  0.00     0.054 A 
BRANCH  86  87
ATOM     87  S   UNL     1       0.366  13.318  12.667  1.00  0.00     0.124 S 
ATOM     88  O   UNL     1       0.567  14.171  13.833  1.00  0.00    -0.237 OA
ATOM     89  O   UNL     1       1.564  13.032  11.880  1.00  0.00    -0.237 OA
ATOM     90  O   UNL     1      -0.832  13.604  11.881  1.00  0.00    -0.744 OA
ENDBRANCH  86  87
ENDBRANCH  58  81
BRANCH  70  91
ATOM     91  C   UNL     1      -0.200   6.585  21.023  1.00  0.00    -0.014 A 
ATOM     92  C   UNL     1      -1.042   7.547  21.612  1.00  0.00     0.010 A 
ATOM     93  C   UNL     1       0.949   6.169  21.723  1.00  0.00     0.010 A 
ATOM     94  C   UNL     1      -0.715   8.117  22.848  1.00  0.00     0.020 A 
ATOM     95  C   UNL     1       1.262   6.713  22.973  1.00  0.00     0.020 A 
ATOM     96  C   UNL     1       0.438   7.699  23.518  1.00  0.00     0.054 A 
BRANCH  96  97
ATOM     97  S   UNL     1       0.834   8.444  25.125  1.00  0.00     0.124 S 
ATOM     98  O   UNL     1       1.270   9.784  24.739  1.00  0.00    -0.237 OA
ATOM     99  O   UNL     1      -0.442   8.378  25.833  1.00  0.00    -0.237 OA
ATOM    100  O   UNL     1       1.883   7.579  25.660  1.00  0.00    -0.744 OA
ENDBRANCH  96  97
ENDBRANCH  70  91
ENDBRANCH  44  45
ENDBRANCH  37  39
ENDBRANCH  36  37
ENDBRANCH  35  36
ENDBRANCH  34  35
ENDBRANCH  33  34
ENDBRANCH   1  33
TORSDOF 23
