REMARK SMILES Cc1ccc2[nH]cc([C@@H](C(=O)OCCOCCOCCOC(=O)c3ccc(-c4c5nc(c(-c6ccc(S(=O)(=O)[O-])cc6)c6ccc([nH]6)c(-c6ccc(S(=O)(=O)[O-])cc6)c6nc(c(-c7ccc(S(=O)(=O)[O-])cc7)c7ccc4[nH]7)C=C6)C=C5)cc3)[NH+]3CCN(c4ccc(F)cc4)CC3)c2c1
REMARK SMILES IDX 17 1 16 2 15 3 14 4 13 5 12 6 10 7 11 8 9 9 8 10 1 11 2 12
REMARK SMILES IDX 3 13 98 14 4 15 97 16 5 17 6 18 7 19 84 21 85 22 96 23 86 25
REMARK SMILES IDX 95 26 87 27 88 28 89 29 94 30 90 31 93 32 91 33 92 34 18 35
REMARK SMILES IDX 19 36 20 37 21 38 22 39 23 40 24 41 25 42 83 43 26 44 82 45
REMARK SMILES IDX 27 46 28 47 29 48 76 49 30 50 81 51 75 52 77 53 31 54 80 55
REMARK SMILES IDX 74 56 73 57 32 59 62 60 43 61 61 62 44 63 47 64 60 65 78 66
REMARK SMILES IDX 45 67 46 68 59 70 79 71 48 72 33 73 34 74 42 75 35 76 41 77
REMARK SMILES IDX 36 78 37 79 38 80 39 81 40 82 63 83 64 84 72 85 65 86 71 87
REMARK SMILES IDX 66 88 67 89 68 90 69 91 70 92 49 93 50 94 58 95 51 96 57 97
REMARK SMILES IDX 52 98 53 99 54 100 55 101 56 102
REMARK H PARENT 6 20 84 24 77 58 47 69
REMARK Flexibility Score: inf
ROOT
ATOM      1  C   UNL     1      -4.607  -1.846   2.426  1.00  0.00     0.188 C 
ENDROOT
BRANCH   1   2
ATOM      2  C   UNL     1      -5.128  -3.280   2.401  1.00  0.00     0.188 C 
BRANCH   2   3
ATOM      3  O   UNL     1      -4.756  -4.137   3.474  1.00  0.00    -0.376 OA
BRANCH   3   4
ATOM      4  C   UNL     1      -3.501  -3.938   4.111  1.00  0.00     0.202 C 
BRANCH   4   5
ATOM      5  C   UNL     1      -2.262  -4.334   3.303  1.00  0.00     0.261 C 
BRANCH   5   6
ATOM      6  O   UNL     1      -1.844  -3.362   2.313  1.00  0.00    -0.459 OA
BRANCH   6   7
ATOM      7  C   UNL     1      -1.999  -3.744   1.011  1.00  0.00     0.370 C 
ATOM      8  O   UNL     1      -2.562  -4.791   0.697  1.00  0.00    -0.245 OA
BRANCH   7   9
ATOM      9  C   UNL     1      -1.288  -2.825  -0.019  1.00  0.00     0.328 C 
BRANCH   9  10
ATOM     10  C   UNL     1      -1.111  -1.349   0.285  1.00  0.00     0.046 A 
ATOM     11  C   UNL     1       3.958  -0.654  -0.064  1.00  0.00     0.044 C 
ATOM     12  C   UNL     1       2.547  -0.164   0.073  1.00  0.00    -0.050 A 
ATOM     13  C   UNL     1       2.257   1.202   0.121  1.00  0.00     0.005 A 
ATOM     14  C   UNL     1       1.501  -1.099   0.142  1.00  0.00     0.014 A 
ATOM     15  C   UNL     1       0.945   1.660   0.271  1.00  0.00     0.027 A 
ATOM     16  C   UNL     1       0.165  -0.668   0.281  1.00  0.00     0.009 A 
ATOM     17  C   UNL     1      -0.073   0.704   0.363  1.00  0.00     0.046 A 
ATOM     18  N   UNL     1      -1.427   0.866   0.514  1.00  0.00    -0.361 N 
ATOM     19  C   UNL     1      -2.054  -0.354   0.484  1.00  0.00     0.094 A 
ATOM     20  H   UNL     1      -1.882   1.731   0.628  1.00  0.00     0.166 HD
ENDBRANCH   9  10
BRANCH   9  21
ATOM     21  N   UNL     1      -1.828  -3.053  -1.377  1.00  0.00    -0.316 N 
ATOM     22  C   UNL     1      -3.252  -2.816  -1.620  1.00  0.00     0.284 C 
ATOM     23  C   UNL     1      -0.998  -2.650  -2.516  1.00  0.00     0.284 C 
ATOM     24  H   UNL     1      -1.758  -4.070  -1.335  1.00  0.00     0.349 HD
ATOM     25  C   UNL     1      -3.626  -1.485  -2.298  1.00  0.00     0.178 C 
ATOM     26  C   UNL     1      -1.291  -1.255  -3.120  1.00  0.00     0.178 C 
ATOM     27  N   UNL     1      -2.724  -1.097  -3.381  1.00  0.00    -0.360 N 
BRANCH  27  28
ATOM     28  C   UNL     1      -3.123   0.049  -4.070  1.00  0.00     0.037 A 
ATOM     29  C   UNL     1      -3.315   1.284  -3.428  1.00  0.00     0.029 A 
ATOM     30  C   UNL     1      -3.425  -0.051  -5.433  1.00  0.00     0.029 A 
ATOM     31  C   UNL     1      -3.828   2.380  -4.125  1.00  0.00     0.041 A 
ATOM     32  C   UNL     1      -3.934   1.044  -6.135  1.00  0.00     0.041 A 
ATOM     33  C   UNL     1      -4.136   2.247  -5.472  1.00  0.00     0.123 A 
ATOM     34  F   UNL     1      -4.638   3.295  -6.139  1.00  0.00    -0.207 F 
ENDBRANCH  27  28
ENDBRANCH   9  21
ENDBRANCH   7   9
ENDBRANCH   6   7
ENDBRANCH   5   6
ENDBRANCH   4   5
ENDBRANCH   3   4
ENDBRANCH   2   3
ENDBRANCH   1   2
BRANCH   1  35
ATOM     35  O   UNL     1      -4.755  -1.252   3.709  1.00  0.00    -0.376 OA
BRANCH  35  36
ATOM     36  C   UNL     1      -4.883   0.166   3.666  1.00  0.00     0.202 C 
BRANCH  36  37
ATOM     37  C   UNL     1      -6.369   0.506   3.795  1.00  0.00     0.261 C 
BRANCH  37  38
ATOM     38  O   UNL     1      -7.154   0.040   2.679  1.00  0.00    -0.460 OA
BRANCH  38  39
ATOM     39  C   UNL     1      -6.913   0.652   1.502  1.00  0.00     0.338 C 
ATOM     40  O   UNL     1      -6.133   1.582   1.306  1.00  0.00    -0.246 OA
BRANCH  39  41
ATOM     41  C   UNL     1      -7.551  -0.118   0.423  1.00  0.00     0.060 A 
ATOM     42  C   UNL     1      -6.726  -0.638  -0.577  1.00  0.00     0.016 A 
ATOM     43  C   UNL     1      -8.933  -0.302   0.362  1.00  0.00     0.016 A 
ATOM     44  C   UNL     1      -7.280  -1.326  -1.654  1.00  0.00     0.010 A 
ATOM     45  C   UNL     1      -9.487  -0.977  -0.733  1.00  0.00     0.010 A 
ATOM     46  C   UNL     1      -8.664  -1.475  -1.758  1.00  0.00    -0.014 A 
BRANCH  46  47
ATOM     47  C   UNL     1      -9.239  -1.976  -3.031  1.00  0.00     0.031 A 
ATOM     48  C   UNL     1      -9.855  -0.981  -3.974  1.00  0.00     0.074 A 
ATOM     49  C   UNL     1      -9.142  -3.268  -3.399  1.00  0.00     0.049 A 
ATOM     50  N   UNL     1     -10.585  -1.187  -5.037  1.00  0.00    -0.248 NA
ATOM     51  C   UNL     1      -9.605   0.440  -3.676  1.00  0.00     0.031 C 
ATOM     52  C   UNL     1      -8.424  -4.312  -2.669  1.00  0.00     0.029 A 
ATOM     53  N   UNL     1      -9.651  -3.917  -4.497  1.00  0.00    -0.354 N 
ATOM     54  C   UNL     1     -10.922   0.076  -5.510  1.00  0.00     0.074 A 
ATOM     55  C   UNL     1     -10.309   1.041  -4.624  1.00  0.00     0.031 C 
ATOM     56  C   UNL     1      -8.544  -5.473  -3.337  1.00  0.00     0.029 A 
ATOM     57  C   UNL     1      -9.409  -5.271  -4.498  1.00  0.00     0.049 A 
ATOM     58  H   UNL     1     -10.143  -3.458  -5.216  1.00  0.00     0.167 HD
ATOM     59  C   UNL     1     -11.687   0.399  -6.578  1.00  0.00     0.031 A 
ATOM     60  C   UNL     1      -9.879  -6.242  -5.308  1.00  0.00     0.031 A 
ATOM     61  C   UNL     1     -12.281  -0.566  -7.462  1.00  0.00     0.049 A 
ATOM     62  C   UNL     1     -10.836  -5.875  -6.415  1.00  0.00     0.074 A 
ATOM     63  C   UNL     1     -13.123  -0.348  -8.538  1.00  0.00     0.029 A 
ATOM     64  N   UNL     1     -12.082  -1.936  -7.378  1.00  0.00    -0.354 N 
ATOM     65  N   UNL     1     -11.251  -4.688  -6.788  1.00  0.00    -0.248 NA
ATOM     66  C   UNL     1     -11.406  -6.983  -7.197  1.00  0.00     0.031 C 
ATOM     67  C   UNL     1     -13.468  -1.591  -9.079  1.00  0.00     0.029 A 
ATOM     68  C   UNL     1     -12.796  -2.578  -8.374  1.00  0.00     0.049 A 
ATOM     69  H   UNL     1     -11.517  -2.385  -6.710  1.00  0.00     0.167 HD
ATOM     70  C   UNL     1     -12.113  -4.905  -7.859  1.00  0.00     0.074 A 
ATOM     71  C   UNL     1     -12.151  -6.335  -8.083  1.00  0.00     0.031 C 
ATOM     72  C   UNL     1     -12.812  -4.002  -8.590  1.00  0.00     0.031 A 
BRANCH  59  73
ATOM     73  C   UNL     1     -11.987   1.856  -6.795  1.00  0.00    -0.014 A 
ATOM     74  C   UNL     1     -11.017   2.745  -7.291  1.00  0.00     0.010 A 
ATOM     75  C   UNL     1     -13.275   2.340  -6.499  1.00  0.00     0.010 A 
ATOM     76  C   UNL     1     -11.320   4.100  -7.450  1.00  0.00     0.020 A 
ATOM     77  C   UNL     1     -13.589   3.688  -6.681  1.00  0.00     0.020 A 
ATOM     78  C   UNL     1     -12.603   4.564  -7.138  1.00  0.00     0.054 A 
BRANCH  78  79
ATOM     79  S   UNL     1     -12.975   6.325  -7.357  1.00  0.00     0.124 S 
ATOM     80  O   UNL     1     -12.271   6.925  -6.226  1.00  0.00    -0.237 OA
ATOM     81  O   UNL     1     -12.409   6.613  -8.673  1.00  0.00    -0.237 OA
ATOM     82  O   UNL     1     -14.433   6.384  -7.284  1.00  0.00    -0.744 OA
ENDBRANCH  78  79
ENDBRANCH  59  73
BRANCH  60  83
ATOM     83  C   UNL     1      -9.529  -7.669  -5.055  1.00  0.00    -0.014 A 
ATOM     84  C   UNL     1      -8.757  -8.399  -5.975  1.00  0.00     0.010 A 
ATOM     85  C   UNL     1      -9.998  -8.316  -3.896  1.00  0.00     0.010 A 
ATOM     86  C   UNL     1      -8.476  -9.751  -5.750  1.00  0.00     0.020 A 
ATOM     87  C   UNL     1      -9.694  -9.658  -3.652  1.00  0.00     0.020 A 
ATOM     88  C   UNL     1      -8.947 -10.372  -4.589  1.00  0.00     0.054 A 
BRANCH  88  89
ATOM     89  S   UNL     1      -8.544 -12.117  -4.297  1.00  0.00     0.124 S 
ATOM     90  O   UNL     1      -9.447 -12.796  -5.222  1.00  0.00    -0.237 OA
ATOM     91  O   UNL     1      -7.125 -12.178  -4.639  1.00  0.00    -0.237 OA
ATOM     92  O   UNL     1      -8.844 -12.304  -2.879  1.00  0.00    -0.744 OA
ENDBRANCH  88  89
ENDBRANCH  60  83
BRANCH  72  93
ATOM     93  C   UNL     1     -13.645  -4.520  -9.732  1.00  0.00    -0.014 A 
ATOM     94  C   UNL     1     -14.868  -5.174  -9.506  1.00  0.00     0.010 A 
ATOM     95  C   UNL     1     -13.232  -4.272 -11.055  1.00  0.00     0.010 A 
ATOM     96  C   UNL     1     -15.656  -5.587 -10.583  1.00  0.00     0.020 A 
ATOM     97  C   UNL     1     -14.029  -4.663 -12.134  1.00  0.00     0.020 A 
ATOM     98  C   UNL     1     -15.233  -5.327 -11.891  1.00  0.00     0.054 A 
BRANCH  98  99
ATOM     99  S   UNL     1     -16.304  -5.814 -13.271  1.00  0.00     0.124 S 
ATOM    100  O   UNL     1     -16.112  -7.261 -13.310  1.00  0.00    -0.237 OA
ATOM    101  O   UNL     1     -17.623  -5.367 -12.829  1.00  0.00    -0.237 OA
ATOM    102  O   UNL     1     -15.756  -5.082 -14.411  1.00  0.00    -0.744 OA
ENDBRANCH  98  99
ENDBRANCH  72  93
ENDBRANCH  46  47
ENDBRANCH  39  41
ENDBRANCH  38  39
ENDBRANCH  37  38
ENDBRANCH  36  37
ENDBRANCH  35  36
ENDBRANCH   1  35
TORSDOF 23
