REMARK SMILES C[C@@H](C(=O)OCCOCCOCCOC(=O)c1ccc(-c2c3nc(c(-c4ccc(S(=O)(=O)[O-])cc4)c4ccc([nH]4)c(-c4ccc(S(=O)(=O)[O-])cc4)c4nc(c(-c5ccc(S(=O)(=O)[O-])cc5)c5ccc2[nH]5)C=C4)C=C3)cc1)S(=O)(=O)N[C@@]12C[C@@H]3C[C@@](C)(C[C@@](C)(C3)C1)C2
REMARK SMILES IDX 9 1 8 2 7 3 6 4 5 5 3 6 4 7 2 8 1 9 77 10 78 11 79 12 80 13
REMARK SMILES IDX 81 15 82 16 91 17 92 18 83 19 88 20 85 21 90 22 84 23 87 24
REMARK SMILES IDX 89 25 86 26 10 27 11 28 12 29 13 30 14 31 15 32 16 33 17 34
REMARK SMILES IDX 18 35 76 36 19 37 75 38 20 39 21 40 22 41 69 42 23 43 74 44
REMARK SMILES IDX 68 45 70 46 24 47 73 48 67 49 66 50 25 52 55 53 36 54 54 55
REMARK SMILES IDX 37 56 40 57 53 58 71 59 38 60 39 61 52 63 72 64 41 65 26 66
REMARK SMILES IDX 27 67 35 68 28 69 34 70 29 71 30 72 31 73 32 74 33 75 56 76
REMARK SMILES IDX 57 77 65 78 58 79 64 80 59 81 60 82 61 83 62 84 63 85 42 86
REMARK SMILES IDX 43 87 51 88 44 89 50 90 45 91 46 92 47 93 48 94 49 95
REMARK H PARENT 80 14 70 51 40 62
REMARK Flexibility Score: inf
ROOT
ATOM      1  C   UNL     1       0.705  -4.314  -0.257  1.00  0.00     0.188 C 
ENDROOT
BRANCH   1   2
ATOM      2  O   UNL     1       1.514  -5.296  -0.882  1.00  0.00    -0.376 OA
BRANCH   2   3
ATOM      3  C   UNL     1       2.723  -4.879  -1.499  1.00  0.00     0.202 C 
BRANCH   3   4
ATOM      4  C   UNL     1       2.671  -3.688  -2.467  1.00  0.00     0.261 C 
BRANCH   4   5
ATOM      5  O   UNL     1       2.201  -2.451  -1.878  1.00  0.00    -0.462 OA
BRANCH   5   6
ATOM      6  C   UNL     1       1.125  -1.836  -2.464  1.00  0.00     0.325 C 
ATOM      7  O   UNL     1       0.574  -2.280  -3.462  1.00  0.00    -0.251 OA
BRANCH   6   8
ATOM      8  C   UNL     1       0.798  -0.493  -1.845  1.00  0.00     0.230 C 
ATOM      9  C   UNL     1       1.858   0.093  -0.934  1.00  0.00     0.039 C 
BRANCH   8  10
ATOM     10  S   UNL     1      -0.925  -0.335  -1.296  1.00  0.00     0.225 S 
ATOM     11  O   UNL     1      -1.289   1.068  -1.378  1.00  0.00    -0.212 OA
ATOM     12  O   UNL     1      -1.716  -1.315  -2.000  1.00  0.00    -0.212 OA
BRANCH  10  13
ATOM     13  N   UNL     1      -1.143  -0.807   0.296  1.00  0.00    -0.208 NA
ATOM     14  H   UNL     1      -0.451  -1.543   0.438  1.00  0.00     0.141 HD
BRANCH  13  15
ATOM     15  C   UNL     1      -1.073   0.017   1.554  1.00  0.00     0.034 C 
ATOM     16  C   UNL     1      -0.276   1.315   1.428  1.00  0.00     0.027 C 
ATOM     17  C   UNL     1      -2.464   0.375   2.159  1.00  0.00     0.030 C 
ATOM     18  C   UNL     1      -0.396  -0.915   2.579  1.00  0.00     0.030 C 
ATOM     19  C   UNL     1      -0.043   1.956   2.801  1.00  0.00    -0.008 C 
ATOM     20  C   UNL     1      -2.285   1.069   3.559  1.00  0.00    -0.030 C 
ATOM     21  C   UNL     1      -0.176  -0.283   3.949  1.00  0.00    -0.030 C 
ATOM     22  C   UNL     1      -1.403   2.329   3.402  1.00  0.00     0.010 C 
ATOM     23  C   UNL     1       0.693   0.964   3.720  1.00  0.00     0.010 C 
ATOM     24  C   UNL     1      -1.547   0.114   4.525  1.00  0.00     0.013 C 
ATOM     25  C   UNL     1      -3.632   1.459   4.179  1.00  0.00     0.011 C 
ATOM     26  C   UNL     1       0.512  -1.296   4.873  1.00  0.00     0.011 C 
ENDBRANCH  13  15
ENDBRANCH  10  13
ENDBRANCH   8  10
ENDBRANCH   6   8
ENDBRANCH   5   6
ENDBRANCH   4   5
ENDBRANCH   3   4
ENDBRANCH   2   3
ENDBRANCH   1   2
BRANCH   1  27
ATOM     27  C   UNL     1       1.368  -3.318   0.713  1.00  0.00     0.188 C 
BRANCH  27  28
ATOM     28  O   UNL     1       2.740  -3.502   0.952  1.00  0.00    -0.376 OA
BRANCH  28  29
ATOM     29  C   UNL     1       3.143  -4.224   2.101  1.00  0.00     0.202 C 
BRANCH  29  30
ATOM     30  C   UNL     1       2.215  -5.144   2.929  1.00  0.00     0.261 C 
BRANCH  30  31
ATOM     31  O   UNL     1       0.806  -5.087   2.646  1.00  0.00    -0.460 OA
BRANCH  31  32
ATOM     32  C   UNL     1      -0.024  -5.003   3.714  1.00  0.00     0.338 C 
ATOM     33  O   UNL     1       0.323  -5.025   4.885  1.00  0.00    -0.246 OA
BRANCH  32  34
ATOM     34  C   UNL     1      -1.452  -4.842   3.320  1.00  0.00     0.060 A 
ATOM     35  C   UNL     1      -1.857  -4.025   2.266  1.00  0.00     0.016 A 
ATOM     36  C   UNL     1      -2.436  -5.389   4.143  1.00  0.00     0.016 A 
ATOM     37  C   UNL     1      -3.192  -3.648   2.112  1.00  0.00     0.010 A 
ATOM     38  C   UNL     1      -3.791  -5.099   3.920  1.00  0.00     0.010 A 
ATOM     39  C   UNL     1      -4.188  -4.189   2.924  1.00  0.00    -0.014 A 
BRANCH  39  40
ATOM     40  C   UNL     1      -5.616  -3.780   2.769  1.00  0.00     0.031 A 
ATOM     41  C   UNL     1      -6.386  -3.269   3.962  1.00  0.00     0.074 A 
ATOM     42  C   UNL     1      -6.239  -3.843   1.572  1.00  0.00     0.049 A 
ATOM     43  N   UNL     1      -7.678  -3.147   4.123  1.00  0.00    -0.248 NA
ATOM     44  C   UNL     1      -5.595  -2.846   5.130  1.00  0.00     0.031 C 
ATOM     45  C   UNL     1      -5.612  -4.192   0.294  1.00  0.00     0.029 A 
ATOM     46  N   UNL     1      -7.553  -3.615   1.236  1.00  0.00    -0.354 N 
ATOM     47  C   UNL     1      -7.861  -2.714   5.434  1.00  0.00     0.074 A 
ATOM     48  C   UNL     1      -6.543  -2.574   6.016  1.00  0.00     0.031 C 
ATOM     49  C   UNL     1      -6.527  -4.119  -0.684  1.00  0.00     0.029 A 
ATOM     50  C   UNL     1      -7.831  -3.860  -0.090  1.00  0.00     0.049 A 
ATOM     51  H   UNL     1      -8.230  -3.306   1.881  1.00  0.00     0.167 HD
ATOM     52  C   UNL     1      -9.024  -2.482   6.091  1.00  0.00     0.031 A 
ATOM     53  C   UNL     1      -9.002  -3.956  -0.750  1.00  0.00     0.031 A 
ATOM     54  C   UNL     1     -10.326  -2.590   5.484  1.00  0.00     0.049 A 
ATOM     55  C   UNL     1     -10.284  -3.798   0.018  1.00  0.00     0.074 A 
ATOM     56  C   UNL     1     -11.567  -2.389   6.065  1.00  0.00     0.029 A 
ATOM     57  N   UNL     1     -10.559  -2.914   4.155  1.00  0.00    -0.354 N 
ATOM     58  N   UNL     1     -10.454  -3.504   1.285  1.00  0.00    -0.248 NA
ATOM     59  C   UNL     1     -11.532  -4.013  -0.726  1.00  0.00     0.031 C 
ATOM     60  C   UNL     1     -12.549  -2.653   5.104  1.00  0.00     0.029 A 
ATOM     61  C   UNL     1     -11.921  -2.945   3.904  1.00  0.00     0.049 A 
ATOM     62  H   UNL     1      -9.858  -3.095   3.487  1.00  0.00     0.167 HD
ATOM     63  C   UNL     1     -11.830  -3.477   1.485  1.00  0.00     0.074 A 
ATOM     64  C   UNL     1     -12.444  -3.768   0.205  1.00  0.00     0.031 C 
ATOM     65  C   UNL     1     -12.521  -3.236   2.626  1.00  0.00     0.031 A 
BRANCH  52  66
ATOM     66  C   UNL     1      -8.951  -2.172   7.566  1.00  0.00    -0.014 A 
ATOM     67  C   UNL     1      -8.460  -0.949   8.054  1.00  0.00     0.010 A 
ATOM     68  C   UNL     1      -9.431  -3.126   8.485  1.00  0.00     0.010 A 
ATOM     69  C   UNL     1      -8.411  -0.704   9.432  1.00  0.00     0.020 A 
ATOM     70  C   UNL     1      -9.414  -2.874   9.860  1.00  0.00     0.020 A 
ATOM     71  C   UNL     1      -8.885  -1.671  10.326  1.00  0.00     0.054 A 
BRANCH  71  72
ATOM     72  S   UNL     1      -8.819  -1.324  12.106  1.00  0.00     0.124 S 
ATOM     73  O   UNL     1      -7.385  -1.403  12.374  1.00  0.00    -0.237 OA
ATOM     74  O   UNL     1      -9.401   0.013  12.193  1.00  0.00    -0.237 OA
ATOM     75  O   UNL     1      -9.622  -2.391  12.699  1.00  0.00    -0.744 OA
ENDBRANCH  71  72
ENDBRANCH  52  66
BRANCH  53  76
ATOM     76  C   UNL     1      -9.015  -4.314  -2.198  1.00  0.00    -0.014 A 
ATOM     77  C   UNL     1      -9.474  -3.401  -3.162  1.00  0.00     0.010 A 
ATOM     78  C   UNL     1      -8.551  -5.575  -2.622  1.00  0.00     0.010 A 
ATOM     79  C   UNL     1      -9.473  -3.743  -4.519  1.00  0.00     0.020 A 
ATOM     80  C   UNL     1      -8.512  -5.906  -3.978  1.00  0.00     0.020 A 
ATOM     81  C   UNL     1      -8.985  -4.990  -4.919  1.00  0.00     0.054 A 
BRANCH  81  82
ATOM     82  S   UNL     1      -8.940  -5.390  -6.688  1.00  0.00     0.124 S 
ATOM     83  O   UNL     1     -10.354  -5.591  -6.989  1.00  0.00    -0.237 OA
ATOM     84  O   UNL     1      -8.334  -4.194  -7.267  1.00  0.00    -0.237 OA
ATOM     85  O   UNL     1      -8.111  -6.592  -6.747  1.00  0.00    -0.744 OA
ENDBRANCH  81  82
ENDBRANCH  53  76
BRANCH  65  86
ATOM     86  C   UNL     1     -14.024  -3.223   2.534  1.00  0.00    -0.014 A 
ATOM     87  C   UNL     1     -14.759  -4.407   2.347  1.00  0.00     0.010 A 
ATOM     88  C   UNL     1     -14.713  -2.004   2.678  1.00  0.00     0.010 A 
ATOM     89  C   UNL     1     -16.154  -4.367   2.272  1.00  0.00     0.020 A 
ATOM     90  C   UNL     1     -16.108  -1.965   2.635  1.00  0.00     0.020 A 
ATOM     91  C   UNL     1     -16.820  -3.146   2.418  1.00  0.00     0.054 A 
BRANCH  91  92
ATOM     92  S   UNL     1     -18.633  -3.127   2.360  1.00  0.00     0.124 S 
ATOM     93  O   UNL     1     -18.895  -3.370   0.945  1.00  0.00    -0.237 OA
ATOM     94  O   UNL     1     -18.992  -4.218   3.263  1.00  0.00    -0.237 OA
ATOM     95  O   UNL     1     -18.982  -1.791   2.838  1.00  0.00    -0.744 OA
ENDBRANCH  91  92
ENDBRANCH  65  86
ENDBRANCH  39  40
ENDBRANCH  32  34
ENDBRANCH  31  32
ENDBRANCH  30  31
ENDBRANCH  29  30
ENDBRANCH  28  29
ENDBRANCH  27  28
ENDBRANCH   1  27
TORSDOF 23
