REMARK SMILES Cc1ccc(-c2cc(Cl)cc3c2O[C@@H](C(F)(F)F)C(C(=O)OCCOCCOCCOC(=O)c2ccc(-c4c5nc(c(-c6ccc(S(=O)(=O)[O-])cc6)c6ccc([nH]6)c(-c6ccc(S(=O)(=O)[O-])cc6)c6nc(c(-c7ccc(S(=O)(=O)[O-])cc7)c7ccc4[nH]7)C=C6)C=C5)cc2)=C3)cc1
REMARK SMILES IDX 27 1 26 2 25 3 24 4 23 5 22 6 20 7 21 8 19 9 6 10 7 11 12 12
REMARK SMILES IDX 8 13 11 14 13 15 9 16 10 17 94 18 14 19 5 20 1 21 2 22 3 23
REMARK SMILES IDX 96 24 4 25 95 26 15 27 16 28 17 29 18 30 28 31 29 32 30 33
REMARK SMILES IDX 31 34 32 35 33 36 34 37 35 38 93 39 36 40 92 41 37 42 38 43
REMARK SMILES IDX 39 44 86 45 40 46 91 47 85 48 87 49 41 50 90 51 84 52 83 53
REMARK SMILES IDX 42 55 72 56 53 57 71 58 54 59 57 60 70 61 88 62 55 63 56 64
REMARK SMILES IDX 69 66 89 67 58 68 43 69 44 70 52 71 45 72 51 73 46 74 47 75
REMARK SMILES IDX 48 76 49 77 50 78 73 79 74 80 82 81 75 82 81 83 76 84 77 85
REMARK SMILES IDX 78 86 79 87 80 88 59 89 60 90 68 91 61 92 67 93 62 94 63 95
REMARK SMILES IDX 64 96 65 97 66 98
REMARK H PARENT 87 54 57 65
REMARK Flexibility Score: inf
ROOT
ATOM      1  C   UNL     1      -0.824  -4.739   1.607  1.00  0.00     0.188 C 
ENDROOT
BRANCH   1   2
ATOM      2  C   UNL     1      -0.624  -3.386   2.226  1.00  0.00     0.188 C 
BRANCH   2   3
ATOM      3  O   UNL     1      -0.488  -3.257   3.665  1.00  0.00    -0.376 OA
BRANCH   3   4
ATOM      4  C   UNL     1      -1.367  -3.732   4.752  1.00  0.00     0.202 C 
BRANCH   4   5
ATOM      5  C   UNL     1      -3.020  -3.327   5.516  1.00  0.00     0.261 C 
BRANCH   5   6
ATOM      6  O   UNL     1      -4.581  -2.390   4.817  1.00  0.00    -0.460 OA
BRANCH   6   7
ATOM      7  C   UNL     1      -5.049  -0.891   4.201  1.00  0.00     0.338 C 
ATOM      8  O   UNL     1      -4.298   0.093   4.141  1.00  0.00    -0.246 OA
BRANCH   7   9
ATOM      9  C   UNL     1      -6.408  -0.438   3.531  1.00  0.00     0.087 C 
ATOM     10  C   UNL     1      -4.800   0.649  -0.381  1.00  0.00     0.026 A 
ATOM     11  C   UNL     1      -5.600   1.356  -1.260  1.00  0.00     0.033 A 
ATOM     12  C   UNL     1      -5.477   0.294   0.952  1.00  0.00     0.135 A 
ATOM     13  C   UNL     1      -6.868   1.762  -0.824  1.00  0.00     0.042 A 
ATOM     14  C   UNL     1      -6.495   1.052   1.513  1.00  0.00     0.019 A 
ATOM     15  O   UNL     1      -5.690  -1.137   1.404  1.00  0.00    -0.475 OA
ATOM     16  Cl  UNL     1      -7.962   2.359  -2.025  1.00  0.00    -0.084 Cl
ATOM     17  C   UNL     1      -7.279   1.699   0.548  1.00  0.00     0.032 A 
ATOM     18  C   UNL     1      -6.697   0.828   3.033  1.00  0.00     0.027 C 
ATOM     19  C   UNL     1      -6.738  -1.365   2.440  1.00  0.00     0.316 C 
BRANCH  10  20
ATOM     20  C   UNL     1      -3.082   0.603  -0.835  1.00  0.00    -0.015 A 
ATOM     21  C   UNL     1       1.992   1.531  -0.425  1.00  0.00     0.044 C 
ATOM     22  C   UNL     1       0.507   1.289  -0.464  1.00  0.00    -0.051 A 
ATOM     23  C   UNL     1       0.069  -0.393  -0.420  1.00  0.00     0.004 A 
ATOM     24  C   UNL     1      -0.688   2.599  -0.696  1.00  0.00     0.004 A 
ATOM     25  C   UNL     1      -1.647  -0.827  -0.607  1.00  0.00     0.009 A 
ATOM     26  C   UNL     1      -2.452   2.314  -0.889  1.00  0.00     0.009 A 
ENDBRANCH  10  20
BRANCH  19  27
ATOM     27  C   UNL     1      -7.178  -2.634   3.223  1.00  0.00     0.430 C 
ATOM     28  F   UNL     1      -7.248  -2.406   4.578  1.00  0.00    -0.167 F 
ATOM     29  F   UNL     1      -8.460  -2.960   2.900  1.00  0.00    -0.167 F 
ATOM     30  F   UNL     1      -6.434  -3.725   3.061  1.00  0.00    -0.167 F 
ENDBRANCH  19  27
ENDBRANCH   7   9
ENDBRANCH   6   7
ENDBRANCH   5   6
ENDBRANCH   4   5
ENDBRANCH   3   4
ENDBRANCH   2   3
ENDBRANCH   1   2
BRANCH   1  31
ATOM     31  O   UNL     1      -1.430  -5.503   2.615  1.00  0.00    -0.376 OA
BRANCH  31  32
ATOM     32  C   UNL     1      -1.059  -6.847   2.675  1.00  0.00     0.202 C 
BRANCH  32  33
ATOM     33  C   UNL     1      -1.697  -7.623   1.535  1.00  0.00     0.261 C 
BRANCH  33  34
ATOM     34  O   UNL     1      -3.124  -7.811   1.716  1.00  0.00    -0.460 OA
BRANCH  34  35
ATOM     35  C   UNL     1      -3.985  -6.961   1.061  1.00  0.00     0.338 C 
ATOM     36  O   UNL     1      -4.777  -7.345   0.218  1.00  0.00    -0.246 OA
BRANCH  35  37
ATOM     37  C   UNL     1      -4.043  -5.636   1.717  1.00  0.00     0.060 A 
ATOM     38  C   UNL     1      -4.046  -4.382   1.132  1.00  0.00     0.016 A 
ATOM     39  C   UNL     1      -4.170  -5.612   3.063  1.00  0.00     0.016 A 
ATOM     40  C   UNL     1      -3.690  -3.191   1.924  1.00  0.00     0.010 A 
ATOM     41  C   UNL     1      -3.942  -4.382   3.697  1.00  0.00     0.010 A 
ATOM     42  C   UNL     1      -3.336  -3.097   3.228  1.00  0.00    -0.014 A 
BRANCH  42  43
ATOM     43  C   UNL     1      -2.638  -1.611   4.196  1.00  0.00     0.031 A 
ATOM     44  C   UNL     1      -3.245  -1.056   5.913  1.00  0.00     0.074 A 
ATOM     45  C   UNL     1      -1.550  -0.829   3.892  1.00  0.00     0.049 A 
ATOM     46  N   UNL     1      -3.124   0.107   6.481  1.00  0.00    -0.248 NA
ATOM     47  C   UNL     1      -4.301  -1.840   6.907  1.00  0.00     0.031 C 
ATOM     48  C   UNL     1      -0.818   0.097   4.772  1.00  0.00     0.029 A 
ATOM     49  N   UNL     1      -0.828  -0.668   2.699  1.00  0.00    -0.354 N 
ATOM     50  C   UNL     1      -3.771   0.067   7.730  1.00  0.00     0.074 A 
ATOM     51  C   UNL     1      -4.734  -0.947   7.753  1.00  0.00     0.031 C 
ATOM     52  C   UNL     1      -0.066   0.923   4.018  1.00  0.00     0.029 A 
ATOM     53  C   UNL     1      -0.442   0.674   2.635  1.00  0.00     0.049 A 
ATOM     54  H   UNL     1      -0.632  -1.367   2.034  1.00  0.00     0.167 HD
ATOM     55  C   UNL     1      -3.273   0.741   8.787  1.00  0.00     0.031 A 
ATOM     56  C   UNL     1      -1.044   1.539   1.762  1.00  0.00     0.031 A 
ATOM     57  C   UNL     1      -2.431   1.786   8.267  1.00  0.00     0.049 A 
ATOM     58  C   UNL     1      -1.685   2.742   2.558  1.00  0.00     0.074 A 
ATOM     59  C   UNL     1      -1.074   1.984   8.139  1.00  0.00     0.029 A 
ATOM     60  N   UNL     1      -3.023   2.578   7.301  1.00  0.00    -0.354 N 
ATOM     61  N   UNL     1      -1.717   2.840   3.872  1.00  0.00    -0.248 NA
ATOM     62  C   UNL     1      -2.319   3.927   1.972  1.00  0.00     0.031 C 
ATOM     63  C   UNL     1      -0.879   2.927   7.076  1.00  0.00     0.029 A 
ATOM     64  C   UNL     1      -2.117   3.323   6.600  1.00  0.00     0.049 A 
ATOM     65  H   UNL     1      -3.993   2.603   7.136  1.00  0.00     0.167 HD
ATOM     66  C   UNL     1      -2.417   3.951   4.289  1.00  0.00     0.074 A 
ATOM     67  C   UNL     1      -2.771   4.603   3.047  1.00  0.00     0.031 C 
ATOM     68  C   UNL     1      -2.677   4.233   5.610  1.00  0.00     0.031 A 
BRANCH  55  69
ATOM     69  C   UNL     1      -3.396   0.251  10.223  1.00  0.00    -0.014 A 
ATOM     70  C   UNL     1      -2.598   0.882  11.185  1.00  0.00     0.010 A 
ATOM     71  C   UNL     1      -4.126  -0.880  10.687  1.00  0.00     0.010 A 
ATOM     72  C   UNL     1      -2.488   0.393  12.498  1.00  0.00     0.020 A 
ATOM     73  C   UNL     1      -4.040  -1.372  11.998  1.00  0.00     0.020 A 
ATOM     74  C   UNL     1      -3.201  -0.737  12.895  1.00  0.00     0.054 A 
BRANCH  74  75
ATOM     75  S   UNL     1      -2.996  -1.375  14.575  1.00  0.00     0.124 S 
ATOM     76  O   UNL     1      -1.567  -1.670  14.625  1.00  0.00    -0.237 OA
ATOM     77  O   UNL     1      -3.440  -0.249  15.391  1.00  0.00    -0.237 OA
ATOM     78  O   UNL     1      -3.867  -2.549  14.614  1.00  0.00    -0.744 OA
ENDBRANCH  74  75
ENDBRANCH  55  69
BRANCH  56  79
ATOM     79  C   UNL     1      -1.617   0.804   0.397  1.00  0.00    -0.014 A 
ATOM     80  C   UNL     1      -1.319   0.726  -1.608  1.00  0.00     0.010 A 
ATOM     81  C   UNL     1      -2.861  -0.376   0.979  1.00  0.00     0.010 A 
ATOM     82  C   UNL     1      -2.220  -0.400  -2.656  1.00  0.00     0.020 A 
ATOM     83  C   UNL     1      -3.663  -1.449  -0.263  1.00  0.00     0.020 A 
ATOM     84  C   UNL     1      -3.340  -1.435  -1.950  1.00  0.00     0.054 A 
BRANCH  84  85
ATOM     85  S   UNL     1      -4.062  -2.843  -2.801  1.00  0.00     0.124 S 
ATOM     86  O   UNL     1      -3.962  -2.468  -4.205  1.00  0.00    -0.237 OA
ATOM     87  O   UNL     1      -3.180  -3.923  -2.360  1.00  0.00    -0.237 OA
ATOM     88  O   UNL     1      -5.414  -2.884  -2.250  1.00  0.00    -0.744 OA
ENDBRANCH  84  85
ENDBRANCH  56  79
BRANCH  68  89
ATOM     89  C   UNL     1      -3.546   5.370   6.174  1.00  0.00    -0.014 A 
ATOM     90  C   UNL     1      -3.584   6.661   5.640  1.00  0.00     0.010 A 
ATOM     91  C   UNL     1      -4.248   5.197   7.405  1.00  0.00     0.010 A 
ATOM     92  C   UNL     1      -4.278   7.702   6.298  1.00  0.00     0.020 A 
ATOM     93  C   UNL     1      -4.923   6.216   8.075  1.00  0.00     0.020 A 
ATOM     94  C   UNL     1      -4.933   7.474   7.515  1.00  0.00     0.054 A 
BRANCH  94  95
ATOM     95  S   UNL     1      -5.735   8.835   8.396  1.00  0.00     0.124 S 
ATOM     96  O   UNL     1      -4.667   9.828   8.478  1.00  0.00    -0.237 OA
ATOM     97  O   UNL     1      -6.840   9.169   7.501  1.00  0.00    -0.237 OA
ATOM     98  O   UNL     1      -6.131   8.247   9.675  1.00  0.00    -0.744 OA
ENDBRANCH  94  95
ENDBRANCH  68  89
ENDBRANCH  42  43
ENDBRANCH  35  37
ENDBRANCH  34  35
ENDBRANCH  33  34
ENDBRANCH  32  33
ENDBRANCH  31  32
ENDBRANCH   1  31
TORSDOF 22
