REMARK SMILES CC[C@@](O)(C(=O)OCCOCCOCCOC(=O)c1ccc(-c2c3nc(c(-c4ccc(S(=O)(=O)[O-])cc4)c4ccc([nH]4)c(-c4ccc(S(=O)(=O)[O-])cc4)c4nc(c(-c5ccc(S(=O)(=O)[O-])cc5)c5ccc2[nH]5)C=C4)C=C3)cc1)[C@H]1CCc2ccc(OC)cc21
REMARK SMILES IDX 12 1 11 2 10 3 9 4 8 5 7 6 5 7 6 8 3 9 2 10 1 11 4 12 79 14
REMARK SMILES IDX 80 15 89 16 81 17 82 18 88 19 83 20 85 21 84 22 86 23 87 24
REMARK SMILES IDX 13 25 14 26 15 27 16 28 17 29 18 30 19 31 20 32 78 33 21 34
REMARK SMILES IDX 77 35 22 36 23 37 24 38 71 39 25 40 76 41 70 42 72 43 26 44
REMARK SMILES IDX 75 45 69 46 68 47 27 49 57 50 38 51 56 52 39 53 42 54 55 55
REMARK SMILES IDX 73 56 40 57 41 58 54 60 74 61 43 62 28 63 29 64 37 65 30 66
REMARK SMILES IDX 36 67 31 68 32 69 33 70 34 71 35 72 58 73 59 74 67 75 60 76
REMARK SMILES IDX 66 77 61 78 62 79 63 80 64 81 65 82 44 83 45 84 53 85 46 86
REMARK SMILES IDX 52 87 47 88 48 89 49 90 50 91 51 92
REMARK H PARENT 4 13 72 48 42 59
REMARK Flexibility Score: inf
ROOT
ATOM      1  C   UNL     1       0.316  -2.318   3.764  1.00  0.00     0.188 C 
ENDROOT
BRANCH   1   2
ATOM      2  C   UNL     1       0.935  -1.821   5.076  1.00  0.00     0.188 C 
BRANCH   2   3
ATOM      3  O   UNL     1       0.055  -1.539   6.158  1.00  0.00    -0.376 OA
BRANCH   3   4
ATOM      4  C   UNL     1      -1.076  -0.701   5.926  1.00  0.00     0.202 C 
BRANCH   4   5
ATOM      5  C   UNL     1      -0.823   0.653   5.260  1.00  0.00     0.261 C 
BRANCH   5   6
ATOM      6  O   UNL     1      -0.595   0.526   3.841  1.00  0.00    -0.461 OA
BRANCH   6   7
ATOM      7  C   UNL     1       0.450   1.240   3.342  1.00  0.00     0.338 C 
ATOM      8  O   UNL     1       1.198   1.918   4.042  1.00  0.00    -0.249 OA
BRANCH   7   9
ATOM      9  C   UNL     1       0.612   1.129   1.801  1.00  0.00     0.168 C 
BRANCH   9  10
ATOM     10  C   UNL     1      -0.472   0.297   1.076  1.00  0.00     0.044 C 
ATOM     11  C   UNL     1      -0.509   0.488  -0.443  1.00  0.00     0.007 C 
ENDBRANCH   9  10
BRANCH   9  12
ATOM     12  O   UNL     1       0.341   2.502   1.412  1.00  0.00    -0.378 OA
ATOM     13  H   UNL     1      -0.589   2.711   1.589  1.00  0.00     0.212 HD
ENDBRANCH   9  12
BRANCH   9  14
ATOM     14  C   UNL     1       2.119   0.700   1.545  1.00  0.00     0.063 C 
ATOM     15  C   UNL     1       2.344  -0.758   1.044  1.00  0.00     0.017 C 
ATOM     16  C   UNL     1       2.894   1.464   0.501  1.00  0.00    -0.035 A 
ATOM     17  C   UNL     1       3.644  -0.774   0.226  1.00  0.00     0.036 C 
ATOM     18  C   UNL     1       3.663   0.622  -0.301  1.00  0.00    -0.044 A 
ATOM     19  C   UNL     1       2.968   2.838   0.345  1.00  0.00     0.050 A 
ATOM     20  C   UNL     1       4.392   1.126  -1.364  1.00  0.00     0.008 A 
ATOM     21  C   UNL     1       3.628   3.362  -0.762  1.00  0.00     0.119 A 
ATOM     22  C   UNL     1       4.334   2.502  -1.615  1.00  0.00     0.047 A 
BRANCH  21  23
ATOM     23  O   UNL     1       3.633   4.688  -1.105  1.00  0.00    -0.497 OA
ATOM     24  C   UNL     1       2.780   5.532  -0.334  1.00  0.00     0.278 C 
ENDBRANCH  21  23
ENDBRANCH   9  14
ENDBRANCH   7   9
ENDBRANCH   6   7
ENDBRANCH   5   6
ENDBRANCH   4   5
ENDBRANCH   3   4
ENDBRANCH   2   3
ENDBRANCH   1   2
BRANCH   1  25
ATOM     25  O   UNL     1      -1.041  -2.676   3.823  1.00  0.00    -0.376 OA
BRANCH  25  26
ATOM     26  C   UNL     1      -1.438  -4.001   4.112  1.00  0.00     0.202 C 
BRANCH  26  27
ATOM     27  C   UNL     1      -0.546  -5.091   4.737  1.00  0.00     0.261 C 
BRANCH  27  28
ATOM     28  O   UNL     1       0.871  -4.905   4.718  1.00  0.00    -0.460 OA
BRANCH  28  29
ATOM     29  C   UNL     1       1.537  -5.432   3.664  1.00  0.00     0.338 C 
ATOM     30  O   UNL     1       1.062  -5.992   2.696  1.00  0.00    -0.246 OA
BRANCH  29  31
ATOM     31  C   UNL     1       2.956  -5.042   3.796  1.00  0.00     0.060 A 
ATOM     32  C   UNL     1       3.463  -4.080   2.916  1.00  0.00     0.016 A 
ATOM     33  C   UNL     1       3.780  -5.628   4.757  1.00  0.00     0.016 A 
ATOM     34  C   UNL     1       4.798  -3.692   2.997  1.00  0.00     0.010 A 
ATOM     35  C   UNL     1       5.131  -5.266   4.812  1.00  0.00     0.010 A 
ATOM     36  C   UNL     1       5.650  -4.309   3.921  1.00  0.00    -0.014 A 
BRANCH  36  37
ATOM     37  C   UNL     1       7.113  -4.098   3.811  1.00  0.00     0.031 A 
ATOM     38  C   UNL     1       7.925  -5.122   3.066  1.00  0.00     0.074 A 
ATOM     39  C   UNL     1       7.706  -2.995   4.302  1.00  0.00     0.049 A 
ATOM     40  N   UNL     1       9.221  -5.210   2.923  1.00  0.00    -0.248 NA
ATOM     41  C   UNL     1       7.168  -6.185   2.383  1.00  0.00     0.031 C 
ATOM     42  C   UNL     1       7.020  -1.879   4.950  1.00  0.00     0.029 A 
ATOM     43  N   UNL     1       9.031  -2.635   4.325  1.00  0.00    -0.354 N 
ATOM     44  C   UNL     1       9.438  -6.348   2.156  1.00  0.00     0.074 A 
ATOM     45  C   UNL     1       8.141  -6.920   1.867  1.00  0.00     0.031 C 
ATOM     46  C   UNL     1       7.931  -0.959   5.313  1.00  0.00     0.029 A 
ATOM     47  C   UNL     1       9.268  -1.445   4.972  1.00  0.00     0.049 A 
ATOM     48  H   UNL     1       9.744  -3.177   3.917  1.00  0.00     0.167 HD
ATOM     49  C   UNL     1      10.612  -6.874   1.736  1.00  0.00     0.031 A 
ATOM     50  C   UNL     1      10.431  -0.839   5.286  1.00  0.00     0.031 A 
ATOM     51  C   UNL     1      11.899  -6.310   2.034  1.00  0.00     0.049 A 
ATOM     52  C   UNL     1      11.732  -1.494   4.896  1.00  0.00     0.074 A 
ATOM     53  C   UNL     1      13.151  -6.789   1.691  1.00  0.00     0.029 A 
ATOM     54  N   UNL     1      12.099  -5.137   2.745  1.00  0.00    -0.354 N 
ATOM     55  N   UNL     1      11.927  -2.603   4.222  1.00  0.00    -0.248 NA
ATOM     56  C   UNL     1      12.969  -0.821   5.319  1.00  0.00     0.031 C 
ATOM     57  C   UNL     1      14.110  -5.928   2.234  1.00  0.00     0.029 A 
ATOM     58  C   UNL     1      13.454  -4.884   2.867  1.00  0.00     0.049 A 
ATOM     59  H   UNL     1      11.383  -4.568   3.110  1.00  0.00     0.167 HD
ATOM     60  C   UNL     1      13.307  -2.751   4.126  1.00  0.00     0.074 A 
ATOM     61  C   UNL     1      13.898  -1.611   4.796  1.00  0.00     0.031 C 
ATOM     62  C   UNL     1      14.023  -3.742   3.538  1.00  0.00     0.031 A 
BRANCH  49  63
ATOM     63  C   UNL     1      10.548  -8.162   0.961  1.00  0.00    -0.014 A 
ATOM     64  C   UNL     1      10.103  -8.193  -0.372  1.00  0.00     0.010 A 
ATOM     65  C   UNL     1      10.945  -9.360   1.582  1.00  0.00     0.010 A 
ATOM     66  C   UNL     1      10.017  -9.408  -1.058  1.00  0.00     0.020 A 
ATOM     67  C   UNL     1      10.883 -10.573   0.892  1.00  0.00     0.020 A 
ATOM     68  C   UNL     1      10.402 -10.591  -0.418  1.00  0.00     0.054 A 
BRANCH  68  69
ATOM     69  S   UNL     1      10.284 -12.155  -1.330  1.00  0.00     0.124 S 
ATOM     70  O   UNL     1       8.844 -12.396  -1.327  1.00  0.00    -0.237 OA
ATOM     71  O   UNL     1      10.861 -11.814  -2.628  1.00  0.00    -0.237 OA
ATOM     72  O   UNL     1      11.073 -13.085  -0.526  1.00  0.00    -0.744 OA
ENDBRANCH  68  69
ENDBRANCH  49  63
BRANCH  50  73
ATOM     73  C   UNL     1      10.424   0.430   6.068  1.00  0.00    -0.014 A 
ATOM     74  C   UNL     1      10.841   1.641   5.489  1.00  0.00     0.010 A 
ATOM     75  C   UNL     1      10.008   0.425   7.413  1.00  0.00     0.010 A 
ATOM     76  C   UNL     1      10.855   2.819   6.242  1.00  0.00     0.020 A 
ATOM     77  C   UNL     1       9.995   1.605   8.161  1.00  0.00     0.020 A 
ATOM     78  C   UNL     1      10.431   2.794   7.574  1.00  0.00     0.054 A 
BRANCH  78  79
ATOM     79  S   UNL     1      10.411   4.341   8.523  1.00  0.00     0.124 S 
ATOM     80  O   UNL     1      11.827   4.534   8.819  1.00  0.00    -0.237 OA
ATOM     81  O   UNL     1       9.827   5.288   7.576  1.00  0.00    -0.237 OA
ATOM     82  O   UNL     1       9.568   4.024   9.674  1.00  0.00    -0.744 OA
ENDBRANCH  78  79
ENDBRANCH  50  73
BRANCH  62  83
ATOM     83  C   UNL     1      15.524  -3.626   3.561  1.00  0.00    -0.014 A 
ATOM     84  C   UNL     1      16.255  -3.870   4.736  1.00  0.00     0.010 A 
ATOM     85  C   UNL     1      16.214  -3.332   2.371  1.00  0.00     0.010 A 
ATOM     86  C   UNL     1      17.651  -3.797   4.726  1.00  0.00     0.020 A 
ATOM     87  C   UNL     1      17.610  -3.283   2.352  1.00  0.00     0.020 A 
ATOM     88  C   UNL     1      18.320  -3.503   3.534  1.00  0.00     0.054 A 
BRANCH  88  89
ATOM     89  S   UNL     1      20.133  -3.464   3.534  1.00  0.00     0.124 S 
ATOM     90  O   UNL     1      20.409  -2.189   4.191  1.00  0.00    -0.237 OA
ATOM     91  O   UNL     1      20.482  -4.656   4.303  1.00  0.00    -0.237 OA
ATOM     92  O   UNL     1      20.481  -3.522   2.116  1.00  0.00    -0.744 OA
ENDBRANCH  88  89
ENDBRANCH  62  83
ENDBRANCH  36  37
ENDBRANCH  29  31
ENDBRANCH  28  29
ENDBRANCH  27  28
ENDBRANCH  26  27
ENDBRANCH  25  26
ENDBRANCH   1  25
TORSDOF 24
