REMARK SMILES O=C(OCCOCCOCCOC(=O)c1ccn(-c2cc(-c3ccncc3)nc(-c3ccccc3F)n2)n1)c1ccc(-c2c3nc(c(-c4ccc(S(=O)(=O)[O-])cc4)c4ccc([nH]4)c(-c4ccc(S(=O)(=O)[O-])cc4)c4nc(c(-c5ccc(S(=O)(=O)[O-])cc5)c5ccc2[nH]5)C=C4)C=C3)cc1
REMARK SMILES IDX 7 1 6 2 5 3 4 4 3 5 2 6 1 7 39 8 40 9 98 10 41 11 97 12
REMARK SMILES IDX 42 13 43 14 44 15 91 16 45 17 96 18 90 19 92 20 46 21 95 22
REMARK SMILES IDX 89 23 88 24 47 26 77 27 58 28 76 29 59 30 62 31 75 32 93 33
REMARK SMILES IDX 60 34 61 35 74 37 94 38 63 39 48 40 49 41 57 42 50 43 56 44
REMARK SMILES IDX 51 45 52 46 53 47 54 48 55 49 78 50 79 51 87 52 80 53 86 54
REMARK SMILES IDX 81 55 82 56 83 57 84 58 85 59 64 60 65 61 73 62 66 63 72 64
REMARK SMILES IDX 67 65 68 66 69 67 70 68 71 69 8 70 9 71 10 72 11 73 12 74
REMARK SMILES IDX 13 75 14 76 15 77 16 78 38 79 17 80 18 81 19 82 20 83 37 84
REMARK SMILES IDX 21 85 29 86 28 87 22 88 23 89 27 90 24 91 26 92 25 93 30 94
REMARK SMILES IDX 31 95 35 96 32 97 34 98 36 99 33 100
REMARK H PARENT 92 25 62 36
REMARK Flexibility Score: inf
ROOT
ATOM      1  C   UNL     1       3.562   1.855   0.271  1.00  0.00     0.188 C 
ENDROOT
BRANCH   1   2
ATOM      2  O   UNL     1       4.809   1.706  -0.396  1.00  0.00    -0.376 OA
BRANCH   2   3
ATOM      3  C   UNL     1       5.298   0.379  -0.478  1.00  0.00     0.202 C 
BRANCH   3   4
ATOM      4  C   UNL     1       4.712  -0.390  -1.662  1.00  0.00     0.261 C 
BRANCH   4   5
ATOM      5  O   UNL     1       3.284  -0.286  -1.828  1.00  0.00    -0.460 OA
BRANCH   5   6
ATOM      6  C   UNL     1       2.284  -0.991  -1.260  1.00  0.00     0.338 C 
ATOM      7  O   UNL     1       1.190  -1.050  -1.816  1.00  0.00    -0.246 OA
BRANCH   6   8
ATOM      8  C   UNL     1       2.397  -1.511   0.125  1.00  0.00     0.060 A 
ATOM      9  C   UNL     1       3.538  -2.129   0.640  1.00  0.00     0.016 A 
ATOM     10  C   UNL     1       1.239  -1.429   0.921  1.00  0.00     0.016 A 
ATOM     11  C   UNL     1       3.524  -2.692   1.908  1.00  0.00     0.010 A 
ATOM     12  C   UNL     1       1.207  -2.018   2.180  1.00  0.00     0.010 A 
ATOM     13  C   UNL     1       2.336  -2.713   2.633  1.00  0.00    -0.014 A 
BRANCH  13  14
ATOM     14  C   UNL     1       2.232  -3.728   3.686  1.00  0.00     0.031 A 
ATOM     15  C   UNL     1       2.854  -3.486   5.025  1.00  0.00     0.074 A 
ATOM     16  C   UNL     1       1.507  -4.832   3.395  1.00  0.00     0.049 A 
ATOM     17  N   UNL     1       3.380  -4.345   5.843  1.00  0.00    -0.248 NA
ATOM     18  C   UNL     1       2.899  -2.104   5.530  1.00  0.00     0.031 C 
ATOM     19  C   UNL     1       0.720  -5.068   2.172  1.00  0.00     0.029 A 
ATOM     20  N   UNL     1       1.202  -5.911   4.170  1.00  0.00    -0.354 N 
ATOM     21  C   UNL     1       3.650  -3.656   7.028  1.00  0.00     0.074 A 
ATOM     22  C   UNL     1       3.349  -2.272   6.775  1.00  0.00     0.031 C 
ATOM     23  C   UNL     1      -0.160  -6.061   2.394  1.00  0.00     0.029 A 
ATOM     24  C   UNL     1       0.084  -6.602   3.717  1.00  0.00     0.049 A 
ATOM     25  H   UNL     1       1.718  -6.174   4.966  1.00  0.00     0.167 HD
ATOM     26  C   UNL     1       3.998  -4.277   8.190  1.00  0.00     0.031 A 
ATOM     27  C   UNL     1      -0.674  -7.487   4.403  1.00  0.00     0.031 A 
ATOM     28  C   UNL     1       4.638  -5.537   7.956  1.00  0.00     0.049 A 
ATOM     29  C   UNL     1       0.126  -7.989   5.537  1.00  0.00     0.074 A 
ATOM     30  C   UNL     1       5.844  -5.914   7.407  1.00  0.00     0.029 A 
ATOM     31  N   UNL     1       3.887  -6.679   8.071  1.00  0.00    -0.354 N 
ATOM     32  N   UNL     1       1.195  -8.723   5.400  1.00  0.00    -0.248 NA
ATOM     33  C   UNL     1      -0.054  -7.392   6.850  1.00  0.00     0.031 C 
ATOM     34  C   UNL     1       5.616  -7.197   6.838  1.00  0.00     0.029 A 
ATOM     35  C   UNL     1       4.283  -7.539   7.077  1.00  0.00     0.049 A 
ATOM     36  H   UNL     1       3.190  -6.851   8.745  1.00  0.00     0.167 HD
ATOM     37  C   UNL     1       2.015  -8.357   6.454  1.00  0.00     0.074 A 
ATOM     38  C   UNL     1       1.136  -7.668   7.391  1.00  0.00     0.031 C 
ATOM     39  C   UNL     1       3.376  -8.396   6.337  1.00  0.00     0.031 A 
BRANCH  26  40
ATOM     40  C   UNL     1       3.502  -3.866   9.559  1.00  0.00    -0.014 A 
ATOM     41  C   UNL     1       3.916  -4.603  10.691  1.00  0.00     0.010 A 
ATOM     42  C   UNL     1       2.416  -2.987   9.739  1.00  0.00     0.010 A 
ATOM     43  C   UNL     1       3.210  -4.547  11.901  1.00  0.00     0.020 A 
ATOM     44  C   UNL     1       1.714  -2.909  10.949  1.00  0.00     0.020 A 
ATOM     45  C   UNL     1       2.093  -3.720  12.012  1.00  0.00     0.054 A 
BRANCH  45  46
ATOM     46  S   UNL     1       1.067  -3.816  13.505  1.00  0.00     0.124 S 
ATOM     47  O   UNL     1       0.800  -5.249  13.603  1.00  0.00    -0.237 OA
ATOM     48  O   UNL     1       1.959  -3.268  14.523  1.00  0.00    -0.237 OA
ATOM     49  O   UNL     1      -0.090  -2.987  13.180  1.00  0.00    -0.744 OA
ENDBRANCH  45  46
ENDBRANCH  26  40
BRANCH  27  50
ATOM     50  C   UNL     1      -2.141  -7.653   4.280  1.00  0.00    -0.014 A 
ATOM     51  C   UNL     1      -2.796  -8.799   4.757  1.00  0.00     0.010 A 
ATOM     52  C   UNL     1      -2.940  -6.558   3.879  1.00  0.00     0.010 A 
ATOM     53  C   UNL     1      -4.198  -8.836   4.854  1.00  0.00     0.020 A 
ATOM     54  C   UNL     1      -4.333  -6.594   3.954  1.00  0.00     0.020 A 
ATOM     55  C   UNL     1      -4.957  -7.729   4.460  1.00  0.00     0.054 A 
BRANCH  55  56
ATOM     56  S   UNL     1      -6.754  -7.733   4.716  1.00  0.00     0.124 S 
ATOM     57  O   UNL     1      -7.206  -8.705   3.725  1.00  0.00    -0.237 OA
ATOM     58  O   UNL     1      -6.876  -8.148   6.110  1.00  0.00    -0.237 OA
ATOM     59  O   UNL     1      -7.144  -6.349   4.448  1.00  0.00    -0.744 OA
ENDBRANCH  55  56
ENDBRANCH  27  50
BRANCH  39  60
ATOM     60  C   UNL     1       3.969  -9.117   5.143  1.00  0.00    -0.014 A 
ATOM     61  C   UNL     1       3.755  -8.680   3.821  1.00  0.00     0.010 A 
ATOM     62  C   UNL     1       4.914 -10.135   5.363  1.00  0.00     0.010 A 
ATOM     63  C   UNL     1       4.455  -9.248   2.749  1.00  0.00     0.020 A 
ATOM     64  C   UNL     1       5.632 -10.694   4.298  1.00  0.00     0.020 A 
ATOM     65  C   UNL     1       5.397 -10.249   2.995  1.00  0.00     0.054 A 
BRANCH  65  66
ATOM     66  S   UNL     1       6.377 -10.898   1.612  1.00  0.00     0.124 S 
ATOM     67  O   UNL     1       5.409 -11.727   0.898  1.00  0.00    -0.237 OA
ATOM     68  O   UNL     1       6.802  -9.686   0.914  1.00  0.00    -0.237 OA
ATOM     69  O   UNL     1       7.459 -11.633   2.266  1.00  0.00    -0.744 OA
ENDBRANCH  65  66
ENDBRANCH  39  60
ENDBRANCH  13  14
ENDBRANCH   6   8
ENDBRANCH   5   6
ENDBRANCH   4   5
ENDBRANCH   3   4
ENDBRANCH   2   3
ENDBRANCH   1   2
BRANCH   1  70
ATOM     70  C   UNL     1       2.458   2.525  -0.577  1.00  0.00     0.188 C 
BRANCH  70  71
ATOM     71  O   UNL     1       2.733   3.513  -1.571  1.00  0.00    -0.376 OA
BRANCH  71  72
ATOM     72  C   UNL     1       4.042   4.028  -1.716  1.00  0.00     0.202 C 
BRANCH  72  73
ATOM     73  C   UNL     1       4.453   5.036  -0.642  1.00  0.00     0.261 C 
BRANCH  73  74
ATOM     74  O   UNL     1       4.094   4.646   0.694  1.00  0.00    -0.458 OA
BRANCH  74  75
ATOM     75  C   UNL     1       3.007   5.279   1.228  1.00  0.00     0.358 C 
ATOM     76  O   UNL     1       2.402   6.194   0.683  1.00  0.00    -0.244 OA
BRANCH  75  77
ATOM     77  C   UNL     1       2.708   4.870   2.611  1.00  0.00     0.170 A 
ATOM     78  C   UNL     1       2.953   5.704   3.729  1.00  0.00     0.058 A 
ATOM     79  N   UNL     1       2.053   3.736   2.977  1.00  0.00    -0.159 NA
ATOM     80  C   UNL     1       2.259   5.131   4.757  1.00  0.00     0.118 A 
ATOM     81  N   UNL     1       1.649   3.998   4.259  1.00  0.00    -0.222 N 
BRANCH  81  82
ATOM     82  C   UNL     1       0.608   3.297   4.946  1.00  0.00     0.158 A 
ATOM     83  C   UNL     1       0.427   1.933   4.798  1.00  0.00     0.078 A 
ATOM     84  N   UNL     1      -0.162   4.061   5.762  1.00  0.00    -0.209 NA
ATOM     85  C   UNL     1      -0.578   1.381   5.582  1.00  0.00     0.077 A 
ATOM     86  C   UNL     1      -1.160   3.441   6.400  1.00  0.00     0.165 A 
ATOM     87  N   UNL     1      -1.401   2.131   6.340  1.00  0.00    -0.228 NA
BRANCH  85  88
ATOM     88  C   UNL     1      -0.809  -0.057   5.763  1.00  0.00     0.003 A 
ATOM     89  C   UNL     1       0.051  -0.824   6.555  1.00  0.00     0.030 A 
ATOM     90  C   UNL     1      -1.982  -0.671   5.304  1.00  0.00     0.030 A 
ATOM     91  C   UNL     1      -0.259  -2.156   6.797  1.00  0.00     0.111 A 
ATOM     92  C   UNL     1      -2.209  -2.006   5.605  1.00  0.00     0.111 A 
ATOM     93  N   UNL     1      -1.356  -2.765   6.316  1.00  0.00    -0.265 NA
ENDBRANCH  85  88
BRANCH  86  94
ATOM     94  C   UNL     1      -2.133   4.257   7.103  1.00  0.00     0.055 A 
ATOM     95  C   UNL     1      -3.146   4.932   6.399  1.00  0.00     0.015 A 
ATOM     96  C   UNL     1      -2.120   4.352   8.495  1.00  0.00     0.134 A 
ATOM     97  C   UNL     1      -4.122   5.667   7.079  1.00  0.00     0.001 A 
ATOM     98  C   UNL     1      -3.089   5.084   9.180  1.00  0.00     0.040 A 
ATOM     99  F   UNL     1      -1.160   3.741   9.206  1.00  0.00    -0.206 F 
ATOM    100  C   UNL     1      -4.094   5.739   8.471  1.00  0.00     0.003 A 
ENDBRANCH  86  94
ENDBRANCH  81  82
ENDBRANCH  75  77
ENDBRANCH  74  75
ENDBRANCH  73  74
ENDBRANCH  72  73
ENDBRANCH  71  72
ENDBRANCH  70  71
ENDBRANCH   1  70
TORSDOF 23
