REMARK SMILES C[C@@H](C(=O)OCCOCCOCCOC(=O)c1ccc(-c2c3nc(c(-c4ccc(S(=O)(=O)[O-])cc4)c4ccc([nH]4)c(-c4ccc(S(=O)(=O)[O-])cc4)c4nc(c(-c5ccc(S(=O)(=O)[O-])cc5)c5ccc2[nH]5)C=C4)C=C3)cc1)c1ccc(C[C@H]2CCCC2=O)c(-c2ccccc2)c1
REMARK SMILES IDX 9 1 8 2 7 3 6 4 5 5 3 6 4 7 2 8 1 9 77 10 78 11 95 12 79 13
REMARK SMILES IDX 88 14 80 15 89 16 90 17 94 18 91 19 93 20 92 21 81 22 82 23
REMARK SMILES IDX 83 24 86 25 84 26 85 27 87 28 10 29 11 30 12 31 13 32 14 33
REMARK SMILES IDX 15 34 16 35 17 36 18 37 76 38 19 39 75 40 20 41 21 42 22 43
REMARK SMILES IDX 69 44 23 45 74 46 68 47 70 48 24 49 73 50 67 51 66 52 25 54
REMARK SMILES IDX 55 55 36 56 54 57 37 58 40 59 53 60 71 61 38 62 39 63 52 65
REMARK SMILES IDX 72 66 41 67 26 68 27 69 35 70 28 71 34 72 29 73 30 74 31 75
REMARK SMILES IDX 32 76 33 77 56 78 57 79 65 80 58 81 64 82 59 83 60 84 61 85
REMARK SMILES IDX 62 86 63 87 42 88 43 89 51 90 44 91 50 92 45 93 46 94 47 95
REMARK SMILES IDX 48 96 49 97
REMARK H PARENT 70 53 40 64
REMARK Flexibility Score: inf
ROOT
ATOM      1  C   UNL     1       0.313   3.120  -2.094  1.00  0.00     0.188 C 
ENDROOT
BRANCH   1   2
ATOM      2  O   UNL     1       1.086   4.282  -2.365  1.00  0.00    -0.376 OA
BRANCH   2   3
ATOM      3  C   UNL     1       2.337   4.429  -1.695  1.00  0.00     0.202 C 
BRANCH   3   4
ATOM      4  C   UNL     1       2.450   4.091  -0.193  1.00  0.00     0.261 C 
BRANCH   4   5
ATOM      5  O   UNL     1       1.992   2.767   0.159  1.00  0.00    -0.463 OA
BRANCH   5   6
ATOM      6  C   UNL     1       1.295   2.642   1.320  1.00  0.00     0.313 C 
ATOM      7  O   UNL     1       1.161   3.556   2.129  1.00  0.00    -0.252 OA
BRANCH   6   8
ATOM      8  C   UNL     1       0.617   1.268   1.503  1.00  0.00     0.126 C 
ATOM      9  C   UNL     1       1.438   0.090   0.952  1.00  0.00     0.025 C 
BRANCH   8  10
ATOM     10  C   UNL     1      -0.882   1.223   1.161  1.00  0.00    -0.033 A 
ATOM     11  C   UNL     1      -1.625   2.390   0.969  1.00  0.00     0.005 A 
ATOM     12  C   UNL     1      -1.601   0.006   1.151  1.00  0.00     0.013 A 
ATOM     13  C   UNL     1      -3.011   2.351   0.815  1.00  0.00     0.004 A 
ATOM     14  C   UNL     1      -3.019  -0.060   1.048  1.00  0.00    -0.015 A 
ATOM     15  C   UNL     1      -3.735   1.154   0.941  1.00  0.00    -0.039 A 
BRANCH  14  16
ATOM     16  C   UNL     1      -3.693  -1.377   1.127  1.00  0.00    -0.018 A 
ATOM     17  C   UNL     1      -4.609  -1.804   0.147  1.00  0.00     0.009 A 
ATOM     18  C   UNL     1      -3.474  -2.226   2.224  1.00  0.00     0.009 A 
ATOM     19  C   UNL     1      -5.332  -2.992   0.296  1.00  0.00     0.001 A 
ATOM     20  C   UNL     1      -4.177  -3.426   2.364  1.00  0.00     0.001 A 
ATOM     21  C   UNL     1      -5.119  -3.800   1.409  1.00  0.00     0.000 A 
ENDBRANCH  14  16
BRANCH  15  22
ATOM     22  C   UNL     1      -5.253   1.254   1.037  1.00  0.00     0.047 C 
BRANCH  22  23
ATOM     23  C   UNL     1      -5.842   1.876   2.313  1.00  0.00     0.060 C 
ATOM     24  C   UNL     1      -5.439   1.208   3.631  1.00  0.00     0.012 C 
ATOM     25  C   UNL     1      -5.405   3.305   2.529  1.00  0.00     0.136 C 
ATOM     26  C   UNL     1      -4.311   2.054   4.207  1.00  0.00     0.009 C 
ATOM     27  C   UNL     1      -4.632   3.488   3.806  1.00  0.00     0.076 C 
ATOM     28  O   UNL     1      -5.625   4.212   1.736  1.00  0.00    -0.299 OA
ENDBRANCH  22  23
ENDBRANCH  15  22
ENDBRANCH   8  10
ENDBRANCH   6   8
ENDBRANCH   5   6
ENDBRANCH   4   5
ENDBRANCH   3   4
ENDBRANCH   2   3
ENDBRANCH   1   2
BRANCH   1  29
ATOM     29  C   UNL     1       0.990   1.748  -2.223  1.00  0.00     0.188 C 
BRANCH  29  30
ATOM     30  O   UNL     1       2.375   1.785  -2.471  1.00  0.00    -0.376 OA
BRANCH  30  31
ATOM     31  C   UNL     1       2.861   1.521  -3.774  1.00  0.00     0.202 C 
BRANCH  31  32
ATOM     32  C   UNL     1       2.082   1.832  -5.070  1.00  0.00     0.261 C 
BRANCH  32  33
ATOM     33  O   UNL     1       0.650   1.843  -5.021  1.00  0.00    -0.460 OA
BRANCH  33  34
ATOM     34  C   UNL     1       0.021   0.646  -5.091  1.00  0.00     0.338 C 
ATOM     35  O   UNL     1       0.546  -0.453  -5.185  1.00  0.00    -0.246 OA
BRANCH  34  36
ATOM     36  C   UNL     1      -1.409   0.880  -4.788  1.00  0.00     0.060 A 
ATOM     37  C   UNL     1      -1.962   0.324  -3.625  1.00  0.00     0.016 A 
ATOM     38  C   UNL     1      -2.192   1.673  -5.630  1.00  0.00     0.016 A 
ATOM     39  C   UNL     1      -3.305   0.545  -3.312  1.00  0.00     0.010 A 
ATOM     40  C   UNL     1      -3.544   1.864  -5.332  1.00  0.00     0.010 A 
ATOM     41  C   UNL     1      -4.115   1.278  -4.188  1.00  0.00    -0.014 A 
BRANCH  41  42
ATOM     42  C   UNL     1      -5.589   1.274  -4.017  1.00  0.00     0.031 A 
ATOM     43  C   UNL     1      -6.400   0.309  -4.839  1.00  0.00     0.074 A 
ATOM     44  C   UNL     1      -6.203   2.110  -3.159  1.00  0.00     0.049 A 
ATOM     45  N   UNL     1      -7.697   0.165  -4.909  1.00  0.00    -0.248 NA
ATOM     46  C   UNL     1      -5.643  -0.604  -5.712  1.00  0.00     0.031 C 
ATOM     47  C   UNL     1      -5.530   3.072  -2.292  1.00  0.00     0.029 A 
ATOM     48  N   UNL     1      -7.538   2.277  -2.877  1.00  0.00    -0.354 N 
ATOM     49  C   UNL     1      -7.915  -0.825  -5.861  1.00  0.00     0.074 A 
ATOM     50  C   UNL     1      -6.617  -1.242  -6.344  1.00  0.00     0.031 C 
ATOM     51  C   UNL     1      -6.455   3.717  -1.559  1.00  0.00     0.029 A 
ATOM     52  C   UNL     1      -7.787   3.243  -1.931  1.00  0.00     0.049 A 
ATOM     53  H   UNL     1      -8.249   1.753  -3.312  1.00  0.00     0.167 HD
ATOM     54  C   UNL     1      -9.090  -1.331  -6.302  1.00  0.00     0.031 A 
ATOM     55  C   UNL     1      -8.954   3.700  -1.431  1.00  0.00     0.031 A 
ATOM     56  C   UNL     1     -10.381  -0.905  -5.829  1.00  0.00     0.049 A 
ATOM     57  C   UNL     1     -10.252   3.141  -1.965  1.00  0.00     0.074 A 
ATOM     58  C   UNL     1     -11.628  -1.372  -6.203  1.00  0.00     0.029 A 
ATOM     59  N   UNL     1     -10.592   0.091  -4.888  1.00  0.00    -0.354 N 
ATOM     60  N   UNL     1     -10.443   2.186  -2.846  1.00  0.00    -0.248 NA
ATOM     61  C   UNL     1     -11.494   3.731  -1.445  1.00  0.00     0.031 C 
ATOM     62  C   UNL     1     -12.596  -0.613  -5.539  1.00  0.00     0.029 A 
ATOM     63  C   UNL     1     -11.951   0.274  -4.691  1.00  0.00     0.049 A 
ATOM     64  H   UNL     1      -9.882   0.594  -4.428  1.00  0.00     0.167 HD
ATOM     65  C   UNL     1     -11.823   2.052  -2.970  1.00  0.00     0.074 A 
ATOM     66  C   UNL     1     -12.419   3.002  -2.054  1.00  0.00     0.031 C 
ATOM     67  C   UNL     1     -12.534   1.221  -3.773  1.00  0.00     0.031 A 
BRANCH  54  68
ATOM     68  C   UNL     1      -9.036  -2.368  -7.394  1.00  0.00    -0.014 A 
ATOM     69  C   UNL     1      -8.548  -3.665  -7.154  1.00  0.00     0.010 A 
ATOM     70  C   UNL     1      -9.522  -2.046  -8.675  1.00  0.00     0.010 A 
ATOM     71  C   UNL     1      -8.514  -4.609  -8.184  1.00  0.00     0.020 A 
ATOM     72  C   UNL     1      -9.520  -2.996  -9.699  1.00  0.00     0.020 A 
ATOM     73  C   UNL     1      -9.001  -4.268  -9.450  1.00  0.00     0.054 A 
BRANCH  73  74
ATOM     74  S   UNL     1      -8.973  -5.524 -10.758  1.00  0.00     0.124 S 
ATOM     75  O   UNL     1      -7.544  -5.634 -11.040  1.00  0.00    -0.237 OA
ATOM     76  O   UNL     1      -9.574  -6.681 -10.101  1.00  0.00    -0.237 OA
ATOM     77  O   UNL     1      -9.774  -4.931 -11.827  1.00  0.00    -0.744 OA
ENDBRANCH  73  74
ENDBRANCH  54  68
BRANCH  55  78
ATOM     78  C   UNL     1      -8.966   4.757  -0.377  1.00  0.00    -0.014 A 
ATOM     79  C   UNL     1      -9.465   4.481   0.909  1.00  0.00     0.010 A 
ATOM     80  C   UNL     1      -8.498   6.054  -0.656  1.00  0.00     0.010 A 
ATOM     81  C   UNL     1      -9.517   5.482   1.885  1.00  0.00     0.020 A 
ATOM     82  C   UNL     1      -8.513   7.049   0.328  1.00  0.00     0.020 A 
ATOM     83  C   UNL     1      -9.036   6.760   1.589  1.00  0.00     0.054 A 
BRANCH  83  84
ATOM     84  S   UNL     1      -9.082   8.034   2.881  1.00  0.00     0.124 S 
ATOM     85  O   UNL     1     -10.510   8.328   2.966  1.00  0.00    -0.237 OA
ATOM     86  O   UNL     1      -8.512   7.342   4.035  1.00  0.00    -0.237 OA
ATOM     87  O   UNL     1      -8.257   9.110   2.337  1.00  0.00    -0.744 OA
ENDBRANCH  83  84
ENDBRANCH  55  78
BRANCH  67  88
ATOM     88  C   UNL     1     -14.039   1.264  -3.675  1.00  0.00    -0.014 A 
ATOM     89  C   UNL     1     -14.777   2.364  -4.150  1.00  0.00     0.010 A 
ATOM     90  C   UNL     1     -14.731   0.153  -3.157  1.00  0.00     0.010 A 
ATOM     91  C   UNL     1     -16.174   2.365  -4.077  1.00  0.00     0.020 A 
ATOM     92  C   UNL     1     -16.127   0.135  -3.113  1.00  0.00     0.020 A 
ATOM     93  C   UNL     1     -16.840   1.249  -3.560  1.00  0.00     0.054 A 
BRANCH  93  94
ATOM     94  S   UNL     1     -18.654   1.257  -3.516  1.00  0.00     0.124 S 
ATOM     95  O   UNL     1     -18.930   2.223  -2.457  1.00  0.00    -0.237 OA
ATOM     96  O   UNL     1     -19.005   1.687  -4.867  1.00  0.00    -0.237 OA
ATOM     97  O   UNL     1     -19.000  -0.128  -3.200  1.00  0.00    -0.744 OA
ENDBRANCH  93  94
ENDBRANCH  67  88
ENDBRANCH  41  42
ENDBRANCH  34  36
ENDBRANCH  33  34
ENDBRANCH  32  33
ENDBRANCH  31  32
ENDBRANCH  30  31
ENDBRANCH  29  30
ENDBRANCH   1  29
TORSDOF 24
