REMARK SMILES CCCCCCCNC(=O)Oc1cccc(-c2ccc([C@@H](C)C(=O)OCCOCCOCCOC(=O)c3ccc(-c4c5nc(c(-c6ccc(S(=O)(=O)[O-])cc6)c6ccc([nH]6)c(-c6ccc(S(=O)(=O)[O-])cc6)c6nc(c(-c7ccc(S(=O)(=O)[O-])cc7)c7ccc4[nH]7)C=C6)C=C5)cc3)cc2F)c1
REMARK SMILES IDX 26 1 25 2 23 3 24 4 21 5 22 6 20 7 17 8 18 9 98 10 19 11
REMARK SMILES IDX 97 12 99 13 16 14 12 15 13 16 100 17 14 18 15 19 11 20 9 21
REMARK SMILES IDX 8 22 10 24 7 25 6 26 5 27 4 28 3 29 2 30 1 31 27 32 28 33
REMARK SMILES IDX 29 34 30 35 31 36 32 37 33 38 34 39 35 40 36 41 37 42 38 43
REMARK SMILES IDX 96 44 39 45 95 46 40 47 41 48 42 49 89 50 43 51 94 52 88 53
REMARK SMILES IDX 90 54 44 55 93 56 87 57 86 58 45 60 75 61 56 62 74 63 57 64
REMARK SMILES IDX 60 65 73 66 91 67 58 68 59 69 72 71 92 72 61 73 46 74 47 75
REMARK SMILES IDX 55 76 48 77 54 78 49 79 50 80 51 81 52 82 53 83 76 84 77 85
REMARK SMILES IDX 85 86 78 87 84 88 79 89 80 90 81 91 82 92 83 93 62 94 63 95
REMARK SMILES IDX 71 96 64 97 70 98 65 99 66 100 67 101 68 102 69 103
REMARK H PARENT 8 23 90 59 60 70
REMARK Flexibility Score: inf
ROOT
ATOM      1  C   UNL     1     -10.029  -5.976  10.975  1.00  0.00     0.261 C 
ENDROOT
BRANCH   1   2
ATOM      2  O   UNL     1      -9.895  -6.582   9.668  1.00  0.00    -0.463 OA
BRANCH   2   3
ATOM      3  C   UNL     1     -11.035  -6.693   8.939  1.00  0.00     0.313 C 
ATOM      4  O   UNL     1     -12.141  -6.379   9.373  1.00  0.00    -0.252 OA
BRANCH   3   5
ATOM      5  C   UNL     1     -10.882  -7.224   7.510  1.00  0.00     0.126 C 
ATOM      6  C   UNL     1     -11.799  -8.436   7.347  1.00  0.00     0.025 C 
BRANCH   5   7
ATOM      7  C   UNL     1      -9.510  -7.525   6.908  1.00  0.00    -0.031 A 
ATOM      8  C   UNL     1      -6.976  -8.042   5.657  1.00  0.00     0.018 A 
ATOM      9  C   UNL     1      -7.316  -8.602   6.903  1.00  0.00     0.012 A 
ATOM     10  C   UNL     1      -7.935  -7.220   5.056  1.00  0.00     0.131 A 
ATOM     11  C   UNL     1      -8.562  -8.359   7.514  1.00  0.00     0.005 A 
ATOM     12  C   UNL     1      -9.176  -6.971   5.656  1.00  0.00     0.044 A 
ATOM     13  F   UNL     1      -7.695  -6.661   3.859  1.00  0.00    -0.206 F 
BRANCH   8  14
ATOM     14  C   UNL     1      -5.691  -8.357   4.995  1.00  0.00    -0.012 A 
ATOM     15  C   UNL     1      -3.626  -7.702   3.888  1.00  0.00     0.133 A 
ATOM     16  C   UNL     1      -3.288  -9.034   3.656  1.00  0.00     0.047 A 
ATOM     17  C   UNL     1      -4.813  -7.354   4.543  1.00  0.00     0.056 A 
ATOM     18  C   UNL     1      -4.142 -10.037   4.101  1.00  0.00     0.004 A 
ATOM     19  C   UNL     1      -5.330  -9.700   4.761  1.00  0.00     0.009 A 
BRANCH  15  20
ATOM     20  O   UNL     1      -2.795  -6.733   3.300  1.00  0.00    -0.410 OA
BRANCH  20  21
ATOM     21  C   UNL     1      -2.204  -5.790   4.123  1.00  0.00     0.412 C 
ATOM     22  N   UNL     1      -1.430  -4.888   3.445  1.00  0.00    -0.321 N 
ATOM     23  H   UNL     1      -1.054  -4.147   3.972  1.00  0.00     0.167 HD
ATOM     24  O   UNL     1      -2.299  -5.744   5.349  1.00  0.00    -0.224 OA
BRANCH  22  25
ATOM     25  C   UNL     1      -1.105  -4.906   2.030  1.00  0.00     0.119 C 
BRANCH  25  26
ATOM     26  C   UNL     1      -1.569  -3.647   1.296  1.00  0.00     0.021 C 
BRANCH  26  27
ATOM     27  C   UNL     1      -0.944  -2.337   1.792  1.00  0.00     0.002 C 
BRANCH  27  28
ATOM     28  C   UNL     1       0.585  -2.260   1.708  1.00  0.00     0.000 C 
BRANCH  28  29
ATOM     29  C   UNL     1       1.172  -2.360   0.295  1.00  0.00    -0.000 C 
BRANCH  29  30
ATOM     30  C   UNL     1       0.726  -1.267  -0.681  1.00  0.00    -0.003 C 
ATOM     31  C   UNL     1       1.115   0.136  -0.239  1.00  0.00     0.004 C 
ENDBRANCH  29  30
ENDBRANCH  28  29
ENDBRANCH  27  28
ENDBRANCH  26  27
ENDBRANCH  25  26
ENDBRANCH  22  25
ENDBRANCH  20  21
ENDBRANCH  15  20
ENDBRANCH   8  14
ENDBRANCH   5   7
ENDBRANCH   3   5
ENDBRANCH   2   3
ENDBRANCH   1   2
BRANCH   1  32
ATOM     32  C   UNL     1      -9.109  -4.774  11.233  1.00  0.00     0.202 C 
BRANCH  32  33
ATOM     33  O   UNL     1      -9.201  -3.659  10.355  1.00  0.00    -0.376 OA
BRANCH  33  34
ATOM     34  C   UNL     1      -9.016  -3.854   8.957  1.00  0.00     0.188 C 
BRANCH  34  35
ATOM     35  C   UNL     1      -7.955  -4.856   8.480  1.00  0.00     0.188 C 
BRANCH  35  36
ATOM     36  O   UNL     1      -7.056  -5.269   9.488  1.00  0.00    -0.376 OA
BRANCH  36  37
ATOM     37  C   UNL     1      -5.681  -5.056   9.232  1.00  0.00     0.202 C 
BRANCH  37  38
ATOM     38  C   UNL     1      -5.254  -3.583   9.178  1.00  0.00     0.261 C 
BRANCH  38  39
ATOM     39  O   UNL     1      -6.016  -2.735   8.299  1.00  0.00    -0.460 OA
BRANCH  39  40
ATOM     40  C   UNL     1      -5.848  -2.894   6.968  1.00  0.00     0.338 C 
ATOM     41  O   UNL     1      -5.100  -3.689   6.411  1.00  0.00    -0.246 OA
BRANCH  40  42
ATOM     42  C   UNL     1      -6.889  -2.098   6.282  1.00  0.00     0.060 A 
ATOM     43  C   UNL     1      -7.843  -2.748   5.485  1.00  0.00     0.016 A 
ATOM     44  C   UNL     1      -6.949  -0.715   6.461  1.00  0.00     0.016 A 
ATOM     45  C   UNL     1      -8.865  -2.015   4.873  1.00  0.00     0.010 A 
ATOM     46  C   UNL     1      -7.956   0.019   5.828  1.00  0.00     0.010 A 
ATOM     47  C   UNL     1      -8.916  -0.622   5.024  1.00  0.00    -0.014 A 
BRANCH  47  48
ATOM     48  C   UNL     1      -9.898   0.197   4.269  1.00  0.00     0.031 A 
ATOM     49  C   UNL     1      -9.451   0.899   3.017  1.00  0.00     0.074 A 
ATOM     50  C   UNL     1     -11.160   0.352   4.713  1.00  0.00     0.049 A 
ATOM     51  N   UNL     1     -10.095   1.764   2.277  1.00  0.00    -0.248 NA
ATOM     52  C   UNL     1      -8.095   0.585   2.538  1.00  0.00     0.031 C 
ATOM     53  C   UNL     1     -11.733  -0.308   5.885  1.00  0.00     0.029 A 
ATOM     54  N   UNL     1     -12.181   1.138   4.236  1.00  0.00    -0.354 N 
ATOM     55  C   UNL     1      -9.220   2.112   1.254  1.00  0.00     0.074 A 
ATOM     56  C   UNL     1      -7.994   1.376   1.480  1.00  0.00     0.031 C 
ATOM     57  C   UNL     1     -12.999   0.117   6.047  1.00  0.00     0.029 A 
ATOM     58  C   UNL     1     -13.310   1.112   5.022  1.00  0.00     0.049 A 
ATOM     59  H   UNL     1     -12.113   1.669   3.409  1.00  0.00     0.167 HD
ATOM     60  C   UNL     1      -9.419   2.967   0.223  1.00  0.00     0.031 A 
ATOM     61  C   UNL     1     -14.446   1.836   4.949  1.00  0.00     0.031 A 
ATOM     62  C   UNL     1     -10.632   3.715   0.014  1.00  0.00     0.049 A 
ATOM     63  C   UNL     1     -14.606   2.857   3.849  1.00  0.00     0.074 A 
ATOM     64  C   UNL     1     -10.933   4.592  -1.014  1.00  0.00     0.029 A 
ATOM     65  N   UNL     1     -11.736   3.688   0.852  1.00  0.00    -0.354 N 
ATOM     66  N   UNL     1     -13.783   3.152   2.871  1.00  0.00    -0.248 NA
ATOM     67  C   UNL     1     -15.848   3.644   3.847  1.00  0.00     0.031 C 
ATOM     68  C   UNL     1     -12.192   5.147  -0.759  1.00  0.00     0.029 A 
ATOM     69  C   UNL     1     -12.704   4.563   0.388  1.00  0.00     0.049 A 
ATOM     70  H   UNL     1     -11.819   3.129   1.658  1.00  0.00     0.167 HD
ATOM     71  C   UNL     1     -14.418   4.144   2.127  1.00  0.00     0.074 A 
ATOM     72  C   UNL     1     -15.700   4.382   2.755  1.00  0.00     0.031 C 
ATOM     73  C   UNL     1     -13.976   4.799   1.024  1.00  0.00     0.031 A 
BRANCH  60  74
ATOM     74  C   UNL     1      -8.280   3.176  -0.740  1.00  0.00    -0.014 A 
ATOM     75  C   UNL     1      -7.892   2.171  -1.644  1.00  0.00     0.010 A 
ATOM     76  C   UNL     1      -7.618   4.418  -0.773  1.00  0.00     0.010 A 
ATOM     77  C   UNL     1      -6.842   2.392  -2.539  1.00  0.00     0.020 A 
ATOM     78  C   UNL     1      -6.587   4.653  -1.687  1.00  0.00     0.020 A 
ATOM     79  C   UNL     1      -6.195   3.632  -2.554  1.00  0.00     0.054 A 
BRANCH  79  80
ATOM     80  S   UNL     1      -4.853   3.897  -3.745  1.00  0.00     0.124 S 
ATOM     81  O   UNL     1      -3.795   3.050  -3.200  1.00  0.00    -0.237 OA
ATOM     82  O   UNL     1      -5.443   3.436  -4.999  1.00  0.00    -0.237 OA
ATOM     83  O   UNL     1      -4.599   5.334  -3.670  1.00  0.00    -0.744 OA
ENDBRANCH  79  80
ENDBRANCH  60  74
BRANCH  61  84
ATOM     84  C   UNL     1     -15.515   1.656   5.973  1.00  0.00    -0.014 A 
ATOM     85  C   UNL     1     -16.761   1.108   5.622  1.00  0.00     0.010 A 
ATOM     86  C   UNL     1     -15.295   2.049   7.307  1.00  0.00     0.010 A 
ATOM     87  C   UNL     1     -17.771   0.970   6.580  1.00  0.00     0.020 A 
ATOM     88  C   UNL     1     -16.291   1.884   8.274  1.00  0.00     0.020 A 
ATOM     89  C   UNL     1     -17.527   1.356   7.902  1.00  0.00     0.054 A 
BRANCH  89  90
ATOM     90  S   UNL     1     -18.837   1.123   9.136  1.00  0.00     0.124 S 
ATOM     91  O   UNL     1     -19.799   2.153   8.757  1.00  0.00    -0.237 OA
ATOM     92  O   UNL     1     -19.257  -0.255   8.892  1.00  0.00    -0.237 OA
ATOM     93  O   UNL     1     -18.153   1.342  10.408  1.00  0.00    -0.744 OA
ENDBRANCH  89  90
ENDBRANCH  61  84
BRANCH  73  94
ATOM     94  C   UNL     1     -14.891   5.825   0.405  1.00  0.00    -0.014 A 
ATOM     95  C   UNL     1     -15.133   7.060   1.033  1.00  0.00     0.010 A 
ATOM     96  C   UNL     1     -15.464   5.578  -0.857  1.00  0.00     0.010 A 
ATOM     97  C   UNL     1     -15.950   8.017   0.424  1.00  0.00     0.020 A 
ATOM     98  C   UNL     1     -16.257   6.545  -1.484  1.00  0.00     0.020 A 
ATOM     99  C   UNL     1     -16.504   7.755  -0.833  1.00  0.00     0.054 A 
BRANCH  99 100
ATOM    100  S   UNL     1     -17.514   9.036  -1.626  1.00  0.00     0.124 S 
ATOM    101  O   UNL     1     -18.727   9.015  -0.813  1.00  0.00    -0.237 OA
ATOM    102  O   UNL     1     -16.684  10.230  -1.485  1.00  0.00    -0.237 OA
ATOM    103  O   UNL     1     -17.675   8.555  -2.996  1.00  0.00    -0.744 OA
ENDBRANCH  99 100
ENDBRANCH  73  94
ENDBRANCH  47  48
ENDBRANCH  40  42
ENDBRANCH  39  40
ENDBRANCH  38  39
ENDBRANCH  37  38
ENDBRANCH  36  37
ENDBRANCH  35  36
ENDBRANCH  34  35
ENDBRANCH  33  34
ENDBRANCH  32  33
ENDBRANCH   1  32
TORSDOF 30
