REMARK SMILES Cc1ccc(Nc2c(F)cccc2Cl)c(CC(=O)OCCOCCOCCOC(=O)c2ccc(-c3c4nc(c(-c5ccc(S(=O)(=O)[O-])cc5)c5ccc([nH]5)c(-c5ccc(S(=O)(=O)[O-])cc5)c5nc(c(-c6ccc(S(=O)(=O)[O-])cc6)c6ccc3[nH]6)C=C5)C=C4)cc2)c1
REMARK SMILES IDX 23 1 22 2 21 3 20 4 19 5 17 6 18 7 16 8 15 9 1 10 2 11 3 12
REMARK SMILES IDX 91 13 4 14 5 15 6 16 7 18 8 19 13 20 9 21 10 22 12 23 14 24
REMARK SMILES IDX 11 25 24 26 25 27 26 28 27 29 28 30 29 31 30 32 31 33 32 34
REMARK SMILES IDX 90 35 33 36 89 37 34 38 35 39 36 40 83 41 37 42 88 43 82 44
REMARK SMILES IDX 84 45 38 46 87 47 81 48 80 49 39 51 69 52 50 53 68 54 51 55
REMARK SMILES IDX 54 56 67 57 85 58 52 59 53 60 66 62 86 63 55 64 40 65 41 66
REMARK SMILES IDX 49 67 42 68 48 69 43 70 44 71 45 72 46 73 47 74 70 75 71 76
REMARK SMILES IDX 79 77 72 78 78 79 73 80 74 81 75 82 76 83 77 84 56 85 57 86
REMARK SMILES IDX 65 87 58 88 64 89 59 90 60 91 61 92 62 93 63 94
REMARK H PARENT 6 17 84 50 54 61
REMARK Flexibility Score: inf
ROOT
ATOM      1  C   UNL     1      -4.694   0.840  -3.887  1.00  0.00     0.188 C 
ENDROOT
BRANCH   1   2
ATOM      2  O   UNL     1      -4.301   2.018  -4.534  1.00  0.00    -0.376 OA
BRANCH   2   3
ATOM      3  C   UNL     1      -2.949   2.261  -4.845  1.00  0.00     0.202 C 
BRANCH   3   4
ATOM      4  C   UNL     1      -1.628   2.649  -3.980  1.00  0.00     0.261 C 
BRANCH   4   5
ATOM      5  O   UNL     1      -1.002   2.510  -2.279  1.00  0.00    -0.463 OA
BRANCH   5   6
ATOM      6  C   UNL     1      -0.962   3.177  -0.776  1.00  0.00     0.310 C 
ATOM      7  O   UNL     1      -1.506   4.154  -0.242  1.00  0.00    -0.252 OA
BRANCH   6   8
ATOM      8  C   UNL     1      -0.379   2.310   0.191  1.00  0.00     0.160 C 
BRANCH   8   9
ATOM      9  C   UNL     1      -0.339   1.024  -0.564  1.00  0.00    -0.013 A 
ATOM     10  C   UNL     1       3.284  -0.061  -0.026  1.00  0.00     0.044 C 
ATOM     11  C   UNL     1       1.792  -0.074  -0.006  1.00  0.00    -0.051 A 
ATOM     12  C   UNL     1       1.050  -0.918   0.787  1.00  0.00     0.005 A 
ATOM     13  C   UNL     1       1.092   0.860  -0.736  1.00  0.00     0.009 A 
ATOM     14  C   UNL     1      -0.370  -0.837   0.780  1.00  0.00     0.026 A 
ATOM     15  C   UNL     1      -1.326   0.093  -0.132  1.00  0.00     0.042 A 
BRANCH  15  16
ATOM     16  N   UNL     1      -3.147  -0.451  -0.789  1.00  0.00    -0.352 N 
ATOM     17  H   UNL     1      -3.409   0.028  -1.609  1.00  0.00     0.167 HD
BRANCH  16  18
ATOM     18  C   UNL     1      -4.437  -1.627  -0.227  1.00  0.00     0.094 A 
ATOM     19  C   UNL     1      -4.330  -2.529   0.997  1.00  0.00     0.148 A 
ATOM     20  C   UNL     1      -5.412  -2.134  -1.118  1.00  0.00     0.067 A 
ATOM     21  F   UNL     1      -3.568  -2.339   2.091  1.00  0.00    -0.205 F 
ATOM     22  C   UNL     1      -4.989  -3.751   1.183  1.00  0.00     0.041 A 
ATOM     23  C   UNL     1      -6.041  -3.415  -0.896  1.00  0.00     0.023 A 
ATOM     24  Cl  UNL     1      -6.163  -1.319  -2.399  1.00  0.00    -0.082 Cl
ATOM     25  C   UNL     1      -5.813  -4.230   0.210  1.00  0.00     0.005 A 
ENDBRANCH  16  18
ENDBRANCH  15  16
ENDBRANCH   8   9
ENDBRANCH   6   8
ENDBRANCH   5   6
ENDBRANCH   4   5
ENDBRANCH   3   4
ENDBRANCH   2   3
ENDBRANCH   1   2
BRANCH   1  26
ATOM     26  C   UNL     1      -4.112  -0.489  -4.337  1.00  0.00     0.188 C 
BRANCH  26  27
ATOM     27  O   UNL     1      -2.766  -0.484  -4.746  1.00  0.00    -0.376 OA
BRANCH  27  28
ATOM     28  C   UNL     1      -2.226  -1.790  -4.945  1.00  0.00     0.202 C 
BRANCH  28  29
ATOM     29  C   UNL     1      -2.609  -2.998  -3.965  1.00  0.00     0.261 C 
BRANCH  29  30
ATOM     30  O   UNL     1      -1.871  -3.123  -2.667  1.00  0.00    -0.460 OA
BRANCH  30  31
ATOM     31  C   UNL     1      -2.429  -3.175  -1.354  1.00  0.00     0.338 C 
ATOM     32  O   UNL     1      -3.055  -4.169  -1.035  1.00  0.00    -0.246 OA
BRANCH  31  33
ATOM     33  C   UNL     1      -1.979  -1.866  -0.368  1.00  0.00     0.060 A 
ATOM     34  C   UNL     1      -2.739  -0.667   0.977  1.00  0.00     0.016 A 
ATOM     35  C   UNL     1      -1.573  -1.027  -1.916  1.00  0.00     0.016 A 
ATOM     36  C   UNL     1      -3.172   1.111   0.476  1.00  0.00     0.010 A 
ATOM     37  C   UNL     1      -2.126   0.585  -2.276  1.00  0.00     0.010 A 
ATOM     38  C   UNL     1      -2.914   1.785  -1.207  1.00  0.00    -0.014 A 
BRANCH  38  39
ATOM     39  C   UNL     1      -2.981   3.508  -1.993  1.00  0.00     0.031 A 
ATOM     40  C   UNL     1      -1.518   4.676  -2.430  1.00  0.00     0.074 A 
ATOM     41  C   UNL     1      -4.068   3.973  -2.647  1.00  0.00     0.049 A 
ATOM     42  N   UNL     1      -1.270   5.894  -1.981  1.00  0.00    -0.248 NA
ATOM     43  C   UNL     1       0.007   4.259  -3.001  1.00  0.00     0.031 C 
ATOM     44  C   UNL     1      -4.103   5.053  -3.650  1.00  0.00     0.029 A 
ATOM     45  N   UNL     1      -5.373   3.511  -2.652  1.00  0.00    -0.354 N 
ATOM     46  C   UNL     1       0.087   6.221  -2.335  1.00  0.00     0.074 A 
ATOM     47  C   UNL     1       0.842   5.038  -2.353  1.00  0.00     0.031 C 
ATOM     48  C   UNL     1      -5.384   5.364  -3.928  1.00  0.00     0.029 A 
ATOM     49  C   UNL     1      -6.204   4.584  -3.018  1.00  0.00     0.049 A 
ATOM     50  H   UNL     1      -5.666   2.596  -2.438  1.00  0.00     0.167 HD
ATOM     51  C   UNL     1       0.423   7.229  -3.205  1.00  0.00     0.031 A 
ATOM     52  C   UNL     1      -7.005   5.065  -2.033  1.00  0.00     0.031 A 
ATOM     53  C   UNL     1      -0.813   7.870  -3.582  1.00  0.00     0.049 A 
ATOM     54  C   UNL     1      -6.398   6.377  -1.545  1.00  0.00     0.074 A 
ATOM     55  C   UNL     1      -1.629   7.810  -4.695  1.00  0.00     0.029 A 
ATOM     56  N   UNL     1      -1.612   8.270  -2.531  1.00  0.00    -0.354 N 
ATOM     57  N   UNL     1      -5.142   6.716  -1.737  1.00  0.00    -0.248 NA
ATOM     58  C   UNL     1      -7.183   7.495  -1.034  1.00  0.00     0.031 C 
ATOM     59  C   UNL     1      -2.961   8.122  -4.255  1.00  0.00     0.029 A 
ATOM     60  C   UNL     1      -2.939   8.345  -2.885  1.00  0.00     0.049 A 
ATOM     61  H   UNL     1      -1.271   8.478  -1.631  1.00  0.00     0.167 HD
ATOM     62  C   UNL     1      -4.976   8.053  -1.533  1.00  0.00     0.074 A 
ATOM     63  C   UNL     1      -6.274   8.488  -1.043  1.00  0.00     0.031 C 
ATOM     64  C   UNL     1      -3.857   8.779  -1.839  1.00  0.00     0.031 A 
BRANCH  51  65
ATOM     65  C   UNL     1       1.779   7.360  -3.948  1.00  0.00    -0.014 A 
ATOM     66  C   UNL     1       1.853   8.177  -5.091  1.00  0.00     0.010 A 
ATOM     67  C   UNL     1       3.015   6.758  -3.575  1.00  0.00     0.010 A 
ATOM     68  C   UNL     1       3.054   8.386  -5.803  1.00  0.00     0.020 A 
ATOM     69  C   UNL     1       4.213   6.907  -4.311  1.00  0.00     0.020 A 
ATOM     70  C   UNL     1       4.231   7.754  -5.408  1.00  0.00     0.054 A 
BRANCH  70  71
ATOM     71  S   UNL     1       5.782   8.129  -6.279  1.00  0.00     0.124 S 
ATOM     72  O   UNL     1       5.455   7.809  -7.666  1.00  0.00    -0.237 OA
ATOM     73  O   UNL     1       5.966   9.547  -5.986  1.00  0.00    -0.237 OA
ATOM     74  O   UNL     1       6.759   7.236  -5.656  1.00  0.00    -0.744 OA
ENDBRANCH  70  71
ENDBRANCH  51  65
BRANCH  52  75
ATOM     75  C   UNL     1      -7.670   3.886  -1.357  1.00  0.00    -0.014 A 
ATOM     76  C   UNL     1      -8.565   3.138  -2.180  1.00  0.00     0.010 A 
ATOM     77  C   UNL     1      -7.130   3.213  -0.242  1.00  0.00     0.010 A 
ATOM     78  C   UNL     1      -8.889   1.795  -1.924  1.00  0.00     0.020 A 
ATOM     79  C   UNL     1      -7.471   1.862   0.031  1.00  0.00     0.020 A 
ATOM     80  C   UNL     1      -8.374   1.174  -0.792  1.00  0.00     0.054 A 
BRANCH  80  81
ATOM     81  S   UNL     1      -8.904  -0.530  -0.406  1.00  0.00     0.124 S 
ATOM     82  O   UNL     1     -10.161  -0.304   0.299  1.00  0.00    -0.237 OA
ATOM     83  O   UNL     1      -9.053  -1.159  -1.719  1.00  0.00    -0.237 OA
ATOM     84  O   UNL     1      -7.817  -1.047   0.419  1.00  0.00    -0.744 OA
ENDBRANCH  80  81
ENDBRANCH  52  75
BRANCH  64  85
ATOM     85  C   UNL     1      -3.476  10.030  -1.072  1.00  0.00    -0.014 A 
ATOM     86  C   UNL     1      -4.067  10.377   0.147  1.00  0.00     0.010 A 
ATOM     87  C   UNL     1      -2.349  10.795  -1.476  1.00  0.00     0.010 A 
ATOM     88  C   UNL     1      -3.650  11.505   0.850  1.00  0.00     0.020 A 
ATOM     89  C   UNL     1      -1.844  11.844  -0.718  1.00  0.00     0.020 A 
ATOM     90  C   UNL     1      -2.548  12.234   0.407  1.00  0.00     0.054 A 
BRANCH  90  91
ATOM     91  S   UNL     1      -2.064  13.720   1.297  1.00  0.00     0.124 S 
ATOM     92  O   UNL     1      -3.044  14.684   0.801  1.00  0.00    -0.237 OA
ATOM     93  O   UNL     1      -2.222  13.326   2.694  1.00  0.00    -0.237 OA
ATOM     94  O   UNL     1      -0.687  13.950   0.869  1.00  0.00    -0.744 OA
ENDBRANCH  90  91
ENDBRANCH  64  85
ENDBRANCH  38  39
ENDBRANCH  31  33
ENDBRANCH  30  31
ENDBRANCH  29  30
ENDBRANCH  28  29
ENDBRANCH  27  28
ENDBRANCH  26  27
ENDBRANCH   1  26
TORSDOF 23
