REMARK SMILES O=C(OCCOCCOCCOC(=O)c1cncnc1N1CC[C@H]2[NH2+]CCC[C@]2(CO)C1)c1ccc(-c2c3nc(c(-c4ccc(S(=O)(=O)[O-])cc4)c4ccc([nH]4)c(-c4ccc(S(=O)(=O)[O-])cc4)c4nc(c(-c5ccc(S(=O)(=O)[O-])cc5)c5ccc2[nH]5)C=C4)C=C3)cc1
REMARK SMILES IDX 7 1 6 2 5 3 4 4 3 5 2 6 1 7 33 8 34 9 92 10 35 11 91 12
REMARK SMILES IDX 36 13 37 14 38 15 85 16 39 17 90 18 84 19 86 20 40 21 89 22
REMARK SMILES IDX 83 23 82 24 41 26 71 27 52 28 70 29 53 30 56 31 69 32 87 33
REMARK SMILES IDX 54 34 55 35 68 37 88 38 57 39 42 40 43 41 51 42 44 43 50 44
REMARK SMILES IDX 45 45 46 46 47 47 48 48 49 49 72 50 73 51 81 52 74 53 80 54
REMARK SMILES IDX 75 55 76 56 77 57 78 58 79 59 58 60 59 61 67 62 60 63 66 64
REMARK SMILES IDX 61 65 62 66 63 67 64 68 65 69 8 70 9 71 10 72 11 73 12 74
REMARK SMILES IDX 13 75 14 76 15 77 16 78 20 79 17 80 19 81 18 82 21 83 22 84
REMARK SMILES IDX 32 85 23 86 29 87 24 88 28 89 25 90 27 91 26 92 30 95 31 96
REMARK H PARENT 86 25 56 36 25 93 25 94 31 97
REMARK Flexibility Score: inf
ROOT
ATOM      1  C   UNL     1       3.976   1.806   0.245  1.00  0.00     0.188 C 
ENDROOT
BRANCH   1   2
ATOM      2  O   UNL     1       5.344   1.750  -0.141  1.00  0.00    -0.376 OA
BRANCH   2   3
ATOM      3  C   UNL     1       5.610   1.495  -1.513  1.00  0.00     0.202 C 
BRANCH   3   4
ATOM      4  C   UNL     1       5.457   0.026  -1.936  1.00  0.00     0.261 C 
BRANCH   4   5
ATOM      5  O   UNL     1       4.111  -0.434  -1.720  1.00  0.00    -0.460 OA
BRANCH   5   6
ATOM      6  C   UNL     1       3.810  -1.591  -1.078  1.00  0.00     0.338 C 
ATOM      7  O   UNL     1       3.003  -2.368  -1.581  1.00  0.00    -0.246 OA
BRANCH   6   8
ATOM      8  C   UNL     1       4.211  -1.779   0.360  1.00  0.00     0.060 A 
ATOM      9  C   UNL     1       5.313  -1.184   0.971  1.00  0.00     0.016 A 
ATOM     10  C   UNL     1       3.405  -2.624   1.149  1.00  0.00     0.016 A 
ATOM     11  C   UNL     1       5.655  -1.481   2.288  1.00  0.00     0.010 A 
ATOM     12  C   UNL     1       3.713  -2.887   2.492  1.00  0.00     0.010 A 
ATOM     13  C   UNL     1       4.886  -2.368   3.045  1.00  0.00    -0.014 A 
BRANCH  13  14
ATOM     14  C   UNL     1       5.504  -2.899   4.284  1.00  0.00     0.031 A 
ATOM     15  C   UNL     1       6.143  -4.262   4.218  1.00  0.00     0.074 A 
ATOM     16  C   UNL     1       5.701  -2.097   5.347  1.00  0.00     0.049 A 
ATOM     17  N   UNL     1       6.978  -4.821   5.054  1.00  0.00    -0.248 NA
ATOM     18  C   UNL     1       5.830  -5.089   3.039  1.00  0.00     0.031 C 
ATOM     19  C   UNL     1       5.178  -0.737   5.483  1.00  0.00     0.029 A 
ATOM     20  N   UNL     1       6.441  -2.285   6.487  1.00  0.00    -0.354 N 
ATOM     21  C   UNL     1       7.316  -6.042   4.480  1.00  0.00     0.074 A 
ATOM     22  C   UNL     1       6.553  -6.173   3.263  1.00  0.00     0.031 C 
ATOM     23  C   UNL     1       5.643  -0.200   6.625  1.00  0.00     0.029 A 
ATOM     24  C   UNL     1       6.485  -1.179   7.306  1.00  0.00     0.049 A 
ATOM     25  H   UNL     1       6.897  -3.131   6.699  1.00  0.00     0.167 HD
ATOM     26  C   UNL     1       8.207  -6.963   4.911  1.00  0.00     0.031 A 
ATOM     27  C   UNL     1       7.143  -0.978   8.466  1.00  0.00     0.031 A 
ATOM     28  C   UNL     1       8.933  -6.854   6.143  1.00  0.00     0.049 A 
ATOM     29  C   UNL     1       8.046  -2.072   8.981  1.00  0.00     0.074 A 
ATOM     30  C   UNL     1       9.798  -7.765   6.719  1.00  0.00     0.029 A 
ATOM     31  N   UNL     1       8.868  -5.761   6.994  1.00  0.00    -0.354 N 
ATOM     32  N   UNL     1       8.354  -3.219   8.420  1.00  0.00    -0.248 NA
ATOM     33  C   UNL     1       8.701  -1.839  10.275  1.00  0.00     0.031 C 
ATOM     34  C   UNL     1      10.223  -7.240   7.944  1.00  0.00     0.029 A 
ATOM     35  C   UNL     1       9.667  -5.980   8.101  1.00  0.00     0.049 A 
ATOM     36  H   UNL     1       8.334  -4.950   6.834  1.00  0.00     0.167 HD
ATOM     37  C   UNL     1       9.254  -3.834   9.285  1.00  0.00     0.074 A 
ATOM     38  C   UNL     1       9.461  -2.920  10.390  1.00  0.00     0.031 C 
ATOM     39  C   UNL     1       9.852  -5.047   9.183  1.00  0.00     0.031 A 
BRANCH  26  40
ATOM     40  C   UNL     1       8.403  -8.174   4.042  1.00  0.00    -0.014 A 
ATOM     41  C   UNL     1       9.105  -8.081   2.825  1.00  0.00     0.010 A 
ATOM     42  C   UNL     1       7.859  -9.411   4.428  1.00  0.00     0.010 A 
ATOM     43  C   UNL     1       9.222  -9.194   1.990  1.00  0.00     0.020 A 
ATOM     44  C   UNL     1       7.994 -10.533   3.606  1.00  0.00     0.020 A 
ATOM     45  C   UNL     1       8.659 -10.412   2.383  1.00  0.00     0.054 A 
BRANCH  45  46
ATOM     46  S   UNL     1       8.822 -11.841   1.279  1.00  0.00     0.124 S 
ATOM     47  O   UNL     1       7.896 -11.497   0.203  1.00  0.00    -0.237 OA
ATOM     48  O   UNL     1      10.238 -11.811   0.923  1.00  0.00    -0.237 OA
ATOM     49  O   UNL     1       8.416 -12.971   2.112  1.00  0.00    -0.744 OA
ENDBRANCH  45  46
ENDBRANCH  26  40
BRANCH  27  50
ATOM     50  C   UNL     1       6.959   0.288   9.234  1.00  0.00    -0.014 A 
ATOM     51  C   UNL     1       8.025   1.179   9.455  1.00  0.00     0.010 A 
ATOM     52  C   UNL     1       5.703   0.585   9.796  1.00  0.00     0.010 A 
ATOM     53  C   UNL     1       7.849   2.315  10.255  1.00  0.00     0.020 A 
ATOM     54  C   UNL     1       5.514   1.734  10.569  1.00  0.00     0.020 A 
ATOM     55  C   UNL     1       6.595   2.582  10.812  1.00  0.00     0.054 A 
BRANCH  55  56
ATOM     56  S   UNL     1       6.384   4.059  11.846  1.00  0.00     0.124 S 
ATOM     57  O   UNL     1       7.085   3.676  13.067  1.00  0.00    -0.237 OA
ATOM     58  O   UNL     1       7.027   5.098  11.046  1.00  0.00    -0.237 OA
ATOM     59  O   UNL     1       4.934   4.187  11.970  1.00  0.00    -0.744 OA
ENDBRANCH  55  56
ENDBRANCH  27  50
BRANCH  39  60
ATOM     60  C   UNL     1      10.800  -5.443  10.282  1.00  0.00    -0.014 A 
ATOM     61  C   UNL     1      10.327  -5.795  11.557  1.00  0.00     0.010 A 
ATOM     62  C   UNL     1      12.179  -5.520  10.013  1.00  0.00     0.010 A 
ATOM     63  C   UNL     1      11.220  -6.183  12.558  1.00  0.00     0.020 A 
ATOM     64  C   UNL     1      13.072  -5.935  11.002  1.00  0.00     0.020 A 
ATOM     65  C   UNL     1      12.588  -6.249  12.274  1.00  0.00     0.054 A 
BRANCH  65  66
ATOM     66  S   UNL     1      13.725  -6.793  13.577  1.00  0.00     0.124 S 
ATOM     67  O   UNL     1      13.796  -5.610  14.431  1.00  0.00    -0.237 OA
ATOM     68  O   UNL     1      13.030  -7.942  14.152  1.00  0.00    -0.237 OA
ATOM     69  O   UNL     1      14.953  -7.114  12.853  1.00  0.00    -0.744 OA
ENDBRANCH  65  66
ENDBRANCH  39  60
ENDBRANCH  13  14
ENDBRANCH   6   8
ENDBRANCH   5   6
ENDBRANCH   4   5
ENDBRANCH   3   4
ENDBRANCH   2   3
ENDBRANCH   1   2
BRANCH   1  70
ATOM     70  C   UNL     1       3.116   2.970  -0.269  1.00  0.00     0.188 C 
BRANCH  70  71
ATOM     71  O   UNL     1       3.647   4.286  -0.263  1.00  0.00    -0.376 OA
BRANCH  71  72
ATOM     72  C   UNL     1       4.630   4.613   0.708  1.00  0.00     0.202 C 
BRANCH  72  73
ATOM     73  C   UNL     1       4.162   4.767   2.158  1.00  0.00     0.261 C 
BRANCH  73  74
ATOM     74  O   UNL     1       3.686   3.562   2.788  1.00  0.00    -0.460 OA
BRANCH  74  75
ATOM     75  C   UNL     1       2.349   3.480   3.041  1.00  0.00     0.343 C 
ATOM     76  O   UNL     1       1.483   4.210   2.599  1.00  0.00    -0.246 OA
BRANCH  75  77
ATOM     77  C   UNL     1       2.128   2.437   4.053  1.00  0.00     0.120 A 
ATOM     78  C   UNL     1       2.846   2.540   5.233  1.00  0.00     0.132 A 
ATOM     79  C   UNL     1       1.179   1.419   3.988  1.00  0.00     0.146 A 
ATOM     80  N   UNL     1       2.688   1.716   6.285  1.00  0.00    -0.244 NA
ATOM     81  N   UNL     1       1.001   0.586   5.044  1.00  0.00    -0.219 NA
ATOM     82  C   UNL     1       1.755   0.774   6.138  1.00  0.00     0.224 A 
BRANCH  79  83
ATOM     83  N   UNL     1       0.487   1.060   2.807  1.00  0.00    -0.355 N 
ATOM     84  C   UNL     1       1.345   0.232   1.966  1.00  0.00     0.124 C 
ATOM     85  C   UNL     1      -0.927   0.695   3.023  1.00  0.00     0.133 C 
ATOM     86  C   UNL     1       0.619  -0.680   0.992  1.00  0.00     0.087 C 
ATOM     87  C   UNL     1      -1.643   0.028   1.805  1.00  0.00     0.063 C 
ATOM     88  C   UNL     1      -0.700  -0.057   0.587  1.00  0.00     0.194 C 
ATOM     89  C   UNL     1      -2.855   0.881   1.336  1.00  0.00     0.023 C 
ATOM     90  N   UNL     1      -1.338  -0.796  -0.514  1.00  0.00    -0.343 N 
ATOM     91  C   UNL     1      -3.489   0.345   0.039  1.00  0.00     0.062 C 
ATOM     92  C   UNL     1      -2.463  -0.019  -1.041  1.00  0.00     0.260 C 
ATOM     93  H   UNL     1      -1.678  -1.694  -0.168  1.00  0.00     0.346 HD
ATOM     94  H   UNL     1      -0.657  -0.953  -1.257  1.00  0.00     0.346 HD
BRANCH  87  95
ATOM     95  C   UNL     1      -2.148  -1.393   2.225  1.00  0.00     0.171 C 
BRANCH  95  96
ATOM     96  O   UNL     1      -2.803  -1.383   3.493  1.00  0.00    -0.395 OA
ATOM     97  H   UNL     1      -2.180  -1.091   4.177  1.00  0.00     0.210 HD
ENDBRANCH  95  96
ENDBRANCH  87  95
ENDBRANCH  79  83
ENDBRANCH  75  77
ENDBRANCH  74  75
ENDBRANCH  73  74
ENDBRANCH  72  73
ENDBRANCH  71  72
ENDBRANCH  70  71
ENDBRANCH   1  70
TORSDOF 23
