REMARK SMILES CS(=O)(=O)c1ccc(/C=C(/C(=O)OCCOCCOCCOC(=O)c2ccc(-c3c4nc(c(-c5ccc(S(=O)(=O)[O-])cc5)c5ccc([nH]5)c(-c5ccc(S(=O)(=O)[O-])cc5)c5nc(c(-c6ccc(S(=O)(=O)[O-])cc6)c6ccc3[nH]6)C=C5)C=C4)cc2)c2cccc(Br)c2)cc1
REMARK SMILES IDX 18 1 17 2 16 3 15 4 14 5 13 6 11 7 12 8 10 9 9 10 8 11 5 12
REMARK SMILES IDX 6 13 93 14 7 15 92 16 2 17 1 18 3 19 4 20 85 21 86 22 91 23
REMARK SMILES IDX 87 24 89 25 88 26 90 27 19 28 20 29 21 30 22 31 23 32 24 33
REMARK SMILES IDX 25 34 26 35 84 36 27 37 83 38 28 39 29 40 30 41 77 42 31 43
REMARK SMILES IDX 82 44 76 45 78 46 32 47 81 48 75 49 74 50 33 52 63 53 44 54
REMARK SMILES IDX 62 55 45 56 48 57 61 58 79 59 46 60 47 61 60 63 80 64 49 65
REMARK SMILES IDX 34 66 35 67 43 68 36 69 42 70 37 71 38 72 39 73 40 74 41 75
REMARK SMILES IDX 64 76 65 77 73 78 66 79 72 80 67 81 68 82 69 83 70 84 71 85
REMARK SMILES IDX 50 86 51 87 59 88 52 89 58 90 53 91 54 92 55 93 56 94 57 95
REMARK H PARENT 78 51 48 62
REMARK Flexibility Score: inf
ROOT
ATOM      1  C   UNL     1       5.572  -2.129  -8.191  1.00  0.00     0.188 C 
ENDROOT
BRANCH   1   2
ATOM      2  C   UNL     1       5.276  -3.045  -9.398  1.00  0.00     0.188 C 
BRANCH   2   3
ATOM      3  O   UNL     1       5.494  -2.403 -10.636  1.00  0.00    -0.376 OA
BRANCH   3   4
ATOM      4  C   UNL     1       4.353  -1.998 -11.369  1.00  0.00     0.202 C 
BRANCH   4   5
ATOM      5  C   UNL     1       3.222  -1.187 -10.701  1.00  0.00     0.261 C 
BRANCH   5   6
ATOM      6  O   UNL     1       2.989  -1.404  -9.300  1.00  0.00    -0.460 OA
BRANCH   6   7
ATOM      7  C   UNL     1       2.058  -2.328  -8.949  1.00  0.00     0.338 C 
ATOM      8  O   UNL     1       1.405  -2.993  -9.738  1.00  0.00    -0.246 OA
BRANCH   7   9
ATOM      9  C   UNL     1       2.011  -2.511  -7.454  1.00  0.00     0.067 C 
ATOM     10  C   UNL     1       2.161  -1.434  -6.641  1.00  0.00     0.024 C 
BRANCH  10  11
ATOM     11  C   UNL     1       1.990  -1.351  -5.167  1.00  0.00    -0.025 A 
ATOM     12  C   UNL     1       1.126  -1.251  -2.495  1.00  0.00     0.067 A 
ATOM     13  C   UNL     1       1.831  -2.361  -2.952  1.00  0.00     0.021 A 
ATOM     14  C   UNL     1       0.953  -0.138  -3.319  1.00  0.00     0.021 A 
ATOM     15  C   UNL     1       2.296  -2.386  -4.271  1.00  0.00     0.009 A 
ATOM     16  C   UNL     1       1.393  -0.191  -4.647  1.00  0.00     0.009 A 
BRANCH  12  17
ATOM     17  S   UNL     1       0.323  -1.300  -0.910  1.00  0.00     0.175 S 
ATOM     18  C   UNL     1       1.020   0.050  -0.006  1.00  0.00     0.163 C 
ATOM     19  O   UNL     1       0.728  -2.521  -0.240  1.00  0.00    -0.224 OA
ATOM     20  O   UNL     1      -1.079  -1.002  -1.142  1.00  0.00    -0.224 OA
ENDBRANCH  12  17
ENDBRANCH  10  11
BRANCH   9  21
ATOM     21  C   UNL     1       1.791  -3.880  -6.937  1.00  0.00    -0.010 A 
ATOM     22  C   UNL     1       2.846  -4.808  -6.981  1.00  0.00     0.009 A 
ATOM     23  C   UNL     1       0.605  -4.234  -6.284  1.00  0.00     0.024 A 
ATOM     24  C   UNL     1       2.728  -6.052  -6.363  1.00  0.00     0.002 A 
ATOM     25  C   UNL     1       0.503  -5.474  -5.650  1.00  0.00     0.018 A 
ATOM     26  C   UNL     1       1.557  -6.386  -5.690  1.00  0.00     0.016 A 
ATOM     27  Br  UNL     1      -1.050  -5.890  -4.659  1.00  0.00    -0.051 Br
ENDBRANCH   9  21
ENDBRANCH   7   9
ENDBRANCH   6   7
ENDBRANCH   5   6
ENDBRANCH   4   5
ENDBRANCH   3   4
ENDBRANCH   2   3
ENDBRANCH   1   2
BRANCH   1  28
ATOM     28  O   UNL     1       6.107  -0.828  -8.393  1.00  0.00    -0.376 OA
BRANCH  28  29
ATOM     29  C   UNL     1       7.146  -0.646  -9.344  1.00  0.00     0.202 C 
BRANCH  29  30
ATOM     30  C   UNL     1       8.400  -1.541  -9.323  1.00  0.00     0.261 C 
BRANCH  30  31
ATOM     31  O   UNL     1       8.204  -2.929  -9.009  1.00  0.00    -0.460 OA
BRANCH  31  32
ATOM     32  C   UNL     1       8.559  -3.298  -7.750  1.00  0.00     0.338 C 
ATOM     33  O   UNL     1       9.026  -2.587  -6.883  1.00  0.00    -0.246 OA
BRANCH  32  34
ATOM     34  C   UNL     1       8.110  -4.689  -7.499  1.00  0.00     0.060 A 
ATOM     35  C   UNL     1       7.198  -4.916  -6.459  1.00  0.00     0.016 A 
ATOM     36  C   UNL     1       8.615  -5.761  -8.237  1.00  0.00     0.016 A 
ATOM     37  C   UNL     1       6.798  -6.215  -6.144  1.00  0.00     0.010 A 
ATOM     38  C   UNL     1       8.236  -7.068  -7.900  1.00  0.00     0.010 A 
ATOM     39  C   UNL     1       7.344  -7.303  -6.837  1.00  0.00    -0.014 A 
BRANCH  39  40
ATOM     40  C   UNL     1       7.114  -8.678  -6.326  1.00  0.00     0.031 A 
ATOM     41  C   UNL     1       8.117  -9.272  -5.374  1.00  0.00     0.074 A 
ATOM     42  C   UNL     1       6.014  -9.376  -6.663  1.00  0.00     0.049 A 
ATOM     43  N   UNL     1       8.113 -10.442  -4.790  1.00  0.00    -0.248 NA
ATOM     44  C   UNL     1       9.282  -8.435  -5.043  1.00  0.00     0.031 C 
ATOM     45  C   UNL     1       4.957  -8.907  -7.555  1.00  0.00     0.029 A 
ATOM     46  N   UNL     1       5.600 -10.628  -6.281  1.00  0.00    -0.354 N 
ATOM     47  C   UNL     1       9.277 -10.488  -4.032  1.00  0.00     0.074 A 
ATOM     48  C   UNL     1       9.972  -9.237  -4.247  1.00  0.00     0.031 C 
ATOM     49  C   UNL     1       3.999  -9.848  -7.631  1.00  0.00     0.029 A 
ATOM     50  C   UNL     1       4.402 -11.010  -6.838  1.00  0.00     0.049 A 
ATOM     51  H   UNL     1       6.114 -11.200  -5.667  1.00  0.00     0.167 HD
ATOM     52  C   UNL     1       9.730 -11.483  -3.231  1.00  0.00     0.031 A 
ATOM     53  C   UNL     1       3.719 -12.169  -6.737  1.00  0.00     0.031 A 
ATOM     54  C   UNL     1       9.057 -12.741  -3.042  1.00  0.00     0.049 A 
ATOM     55  C   UNL     1       4.280 -13.288  -5.894  1.00  0.00     0.074 A 
ATOM     56  C   UNL     1       9.439 -13.809  -2.248  1.00  0.00     0.029 A 
ATOM     57  N   UNL     1       7.872 -13.108  -3.661  1.00  0.00    -0.354 N 
ATOM     58  N   UNL     1       5.369 -13.306  -5.161  1.00  0.00    -0.248 NA
ATOM     59  C   UNL     1       3.518 -14.545  -5.867  1.00  0.00     0.031 C 
ATOM     60  C   UNL     1       8.521 -14.846  -2.439  1.00  0.00     0.029 A 
ATOM     61  C   UNL     1       7.525 -14.398  -3.293  1.00  0.00     0.049 A 
ATOM     62  H   UNL     1       7.353 -12.537  -4.272  1.00  0.00     0.167 HD
ATOM     63  C   UNL     1       5.411 -14.568  -4.572  1.00  0.00     0.074 A 
ATOM     64  C   UNL     1       4.225 -15.273  -5.013  1.00  0.00     0.031 C 
ATOM     65  C   UNL     1       6.347 -15.097  -3.744  1.00  0.00     0.031 A 
BRANCH  52  66
ATOM     66  C   UNL     1      11.050 -11.265  -2.538  1.00  0.00    -0.014 A 
ATOM     67  C   UNL     1      11.183 -10.334  -1.492  1.00  0.00     0.010 A 
ATOM     68  C   UNL     1      12.169 -12.026  -2.922  1.00  0.00     0.010 A 
ATOM     69  C   UNL     1      12.420 -10.140  -0.872  1.00  0.00     0.020 A 
ATOM     70  C   UNL     1      13.401 -11.857  -2.284  1.00  0.00     0.020 A 
ATOM     71  C   UNL     1      13.522 -10.901  -1.273  1.00  0.00     0.054 A 
BRANCH  71  72
ATOM     72  S   UNL     1      15.111 -10.640  -0.439  1.00  0.00     0.124 S 
ATOM     73  O   UNL     1      15.501  -9.324  -0.941  1.00  0.00    -0.237 OA
ATOM     74  O   UNL     1      14.741 -10.688   0.973  1.00  0.00    -0.237 OA
ATOM     75  O   UNL     1      15.935 -11.752  -0.903  1.00  0.00    -0.744 OA
ENDBRANCH  71  72
ENDBRANCH  52  66
BRANCH  53  76
ATOM     76  C   UNL     1       2.440 -12.354  -7.481  1.00  0.00    -0.014 A 
ATOM     77  C   UNL     1       1.221 -12.506  -6.795  1.00  0.00     0.010 A 
ATOM     78  C   UNL     1       2.439 -12.403  -8.887  1.00  0.00     0.010 A 
ATOM     79  C   UNL     1       0.032 -12.722  -7.499  1.00  0.00     0.020 A 
ATOM     80  C   UNL     1       1.248 -12.585  -9.596  1.00  0.00     0.020 A 
ATOM     81  C   UNL     1       0.053 -12.756  -8.896  1.00  0.00     0.054 A 
BRANCH  81  82
ATOM     82  S   UNL     1      -1.508 -12.993  -9.792  1.00  0.00     0.124 S 
ATOM     83  O   UNL     1      -1.800 -14.398  -9.526  1.00  0.00    -0.237 OA
ATOM     84  O   UNL     1      -2.391 -12.027  -9.144  1.00  0.00    -0.237 OA
ATOM     85  O   UNL     1      -1.159 -12.678 -11.175  1.00  0.00    -0.744 OA
ENDBRANCH  81  82
ENDBRANCH  53  76
BRANCH  65  86
ATOM     86  C   UNL     1       6.116 -16.497  -3.232  1.00  0.00    -0.014 A 
ATOM     87  C   UNL     1       6.201 -17.614  -4.084  1.00  0.00     0.010 A 
ATOM     88  C   UNL     1       5.852 -16.703  -1.865  1.00  0.00     0.010 A 
ATOM     89  C   UNL     1       5.982 -18.903  -3.587  1.00  0.00     0.020 A 
ATOM     90  C   UNL     1       5.665 -17.992  -1.357  1.00  0.00     0.020 A 
ATOM     91  C   UNL     1       5.714 -19.083  -2.226  1.00  0.00     0.054 A 
BRANCH  91  92
ATOM     92  S   UNL     1       5.458 -20.767  -1.601  1.00  0.00     0.124 S 
ATOM     93  O   UNL     1       4.145 -21.099  -2.147  1.00  0.00    -0.237 OA
ATOM     94  O   UNL     1       6.583 -21.498  -2.182  1.00  0.00    -0.237 OA
ATOM     95  O   UNL     1       5.508 -20.611  -0.149  1.00  0.00    -0.744 OA
ENDBRANCH  91  92
ENDBRANCH  65  86
ENDBRANCH  39  40
ENDBRANCH  32  34
ENDBRANCH  31  32
ENDBRANCH  30  31
ENDBRANCH  29  30
ENDBRANCH  28  29
ENDBRANCH   1  28
TORSDOF 23
