REMARK SMILES COc1ccc(C(=O)/C=C(\Nc2cccc(C(F)(F)F)c2)C(=O)OCCOCCOCCOC(=O)c2ccc(-c3c4nc(c(-c5ccc(S(=O)(=O)[O-])cc5)c5ccc([nH]5)c(-c5ccc(S(=O)(=O)[O-])cc5)c5nc(c(-c6ccc(S(=O)(=O)[O-])cc6)c6ccc3[nH]6)C=C5)C=C4)cc2)cc1
REMARK SMILES IDX 28 1 27 2 26 3 25 4 24 5 22 6 23 7 10 8 9 9 7 10 8 11 6 12
REMARK SMILES IDX 3 13 4 14 97 15 5 16 96 17 2 18 1 19 11 20 12 22 13 23 21 24
REMARK SMILES IDX 14 25 16 26 15 27 17 28 18 29 19 30 20 31 29 32 30 33 31 34
REMARK SMILES IDX 32 35 33 36 34 37 35 38 36 39 37 40 95 41 38 42 94 43 39 44
REMARK SMILES IDX 40 45 41 46 88 47 42 48 93 49 87 50 89 51 43 52 92 53 86 54
REMARK SMILES IDX 85 55 44 57 74 58 55 59 73 60 56 61 59 62 72 63 90 64 57 65
REMARK SMILES IDX 58 66 71 68 91 69 60 70 45 71 46 72 54 73 47 74 53 75 48 76
REMARK SMILES IDX 49 77 50 78 51 79 52 80 75 81 76 82 84 83 77 84 83 85 78 86
REMARK SMILES IDX 79 87 80 88 81 89 82 90 61 91 62 92 70 93 63 94 69 95 64 96
REMARK SMILES IDX 65 97 66 98 67 99 68 100
REMARK H PARENT 11 21 89 56 59 67
REMARK Flexibility Score: inf
ROOT
ATOM      1  C   UNL     1       7.165   4.339   6.013  1.00  0.00     0.188 C 
ENDROOT
BRANCH   1   2
ATOM      2  O   UNL     1       8.386   3.780   6.468  1.00  0.00    -0.376 OA
BRANCH   2   3
ATOM      3  C   UNL     1       8.636   2.402   6.213  1.00  0.00     0.202 C 
BRANCH   3   4
ATOM      4  C   UNL     1       7.532   1.407   6.562  1.00  0.00     0.261 C 
BRANCH   4   5
ATOM      5  O   UNL     1       6.415   1.579   5.675  1.00  0.00    -0.459 OA
BRANCH   5   6
ATOM      6  C   UNL     1       5.187   1.415   6.222  1.00  0.00     0.354 C 
ATOM      7  O   UNL     1       4.953   1.107   7.382  1.00  0.00    -0.244 OA
BRANCH   6   8
ATOM      8  C   UNL     1       4.115   1.765   5.222  1.00  0.00     0.129 C 
ATOM      9  C   UNL     1       3.376   2.804   5.667  1.00  0.00     0.086 C 
BRANCH   9  10
ATOM     10  C   UNL     1       2.242   3.575   5.073  1.00  0.00     0.188 C 
ATOM     11  O   UNL     1       1.784   4.543   5.669  1.00  0.00    -0.289 OA
BRANCH  10  12
ATOM     12  C   UNL     1       1.623   3.175   3.802  1.00  0.00     0.022 A 
ATOM     13  C   UNL     1       0.514   2.101   1.500  1.00  0.00     0.118 A 
ATOM     14  C   UNL     1      -0.262   2.198   2.653  1.00  0.00     0.047 A 
ATOM     15  C   UNL     1       1.791   2.662   1.453  1.00  0.00     0.047 A 
ATOM     16  C   UNL     1       0.296   2.731   3.815  1.00  0.00     0.016 A 
ATOM     17  C   UNL     1       2.341   3.225   2.605  1.00  0.00     0.016 A 
BRANCH  13  18
ATOM     18  O   UNL     1      -0.022   1.480   0.405  1.00  0.00    -0.497 OA
ATOM     19  C   UNL     1       0.636   0.233   0.167  1.00  0.00     0.278 C 
ENDBRANCH  13  18
ENDBRANCH  10  12
ENDBRANCH   9  10
BRANCH   8  20
ATOM     20  N   UNL     1       3.993   1.059   4.034  1.00  0.00    -0.349 N 
ATOM     21  H   UNL     1       3.076   0.946   3.695  1.00  0.00     0.167 HD
BRANCH  20  22
ATOM     22  C   UNL     1       5.010   0.485   3.250  1.00  0.00     0.039 A 
ATOM     23  C   UNL     1       5.236   0.988   1.960  1.00  0.00     0.026 A 
ATOM     24  C   UNL     1       5.847  -0.529   3.720  1.00  0.00     0.039 A 
ATOM     25  C   UNL     1       6.260   0.493   1.154  1.00  0.00     0.003 A 
ATOM     26  C   UNL     1       6.899  -1.025   2.929  1.00  0.00     0.058 A 
ATOM     27  C   UNL     1       7.088  -0.514   1.636  1.00  0.00     0.013 A 
BRANCH  26  28
ATOM     28  C   UNL     1       7.811  -2.103   3.450  1.00  0.00     0.416 C 
ATOM     29  F   UNL     1       7.491  -3.333   2.959  1.00  0.00    -0.166 F 
ATOM     30  F   UNL     1       9.116  -1.898   3.111  1.00  0.00    -0.166 F 
ATOM     31  F   UNL     1       7.798  -2.223   4.806  1.00  0.00    -0.166 F 
ENDBRANCH  26  28
ENDBRANCH  20  22
ENDBRANCH   8  20
ENDBRANCH   6   8
ENDBRANCH   5   6
ENDBRANCH   4   5
ENDBRANCH   3   4
ENDBRANCH   2   3
ENDBRANCH   1   2
BRANCH   1  32
ATOM     32  C   UNL     1       6.854   4.345   4.500  1.00  0.00     0.188 C 
BRANCH  32  33
ATOM     33  O   UNL     1       7.796   3.908   3.542  1.00  0.00    -0.376 OA
BRANCH  33  34
ATOM     34  C   UNL     1       9.100   4.460   3.483  1.00  0.00     0.202 C 
BRANCH  34  35
ATOM     35  C   UNL     1       9.392   5.954   3.675  1.00  0.00     0.261 C 
BRANCH  35  36
ATOM     36  O   UNL     1       8.623   6.626   4.672  1.00  0.00    -0.460 OA
BRANCH  36  37
ATOM     37  C   UNL     1       7.703   7.498   4.190  1.00  0.00     0.338 C 
ATOM     38  O   UNL     1       7.459   7.742   3.021  1.00  0.00    -0.246 OA
BRANCH  37  39
ATOM     39  C   UNL     1       6.884   7.993   5.310  1.00  0.00     0.060 A 
ATOM     40  C   UNL     1       5.499   7.791   5.255  1.00  0.00     0.016 A 
ATOM     41  C   UNL     1       7.466   8.658   6.391  1.00  0.00     0.016 A 
ATOM     42  C   UNL     1       4.685   8.277   6.275  1.00  0.00     0.010 A 
ATOM     43  C   UNL     1       6.646   9.164   7.402  1.00  0.00     0.010 A 
ATOM     44  C   UNL     1       5.252   8.999   7.333  1.00  0.00    -0.014 A 
BRANCH  44  45
ATOM     45  C   UNL     1       4.369   9.716   8.282  1.00  0.00     0.031 A 
ATOM     46  C   UNL     1       4.069  11.167   8.035  1.00  0.00     0.074 A 
ATOM     47  C   UNL     1       3.836   9.085   9.342  1.00  0.00     0.049 A 
ATOM     48  N   UNL     1       3.321  11.988   8.726  1.00  0.00    -0.248 NA
ATOM     49  C   UNL     1       4.700  11.773   6.852  1.00  0.00     0.031 C 
ATOM     50  C   UNL     1       4.037   7.678   9.678  1.00  0.00     0.029 A 
ATOM     51  N   UNL     1       3.019   9.560  10.337  1.00  0.00    -0.354 N 
ATOM     52  C   UNL     1       3.387  13.206   8.061  1.00  0.00     0.074 A 
ATOM     53  C   UNL     1       4.279  13.026   6.935  1.00  0.00     0.031 C 
ATOM     54  C   UNL     1       3.374   7.405  10.815  1.00  0.00     0.029 A 
ATOM     55  C   UNL     1       2.720   8.623  11.294  1.00  0.00     0.049 A 
ATOM     56  H   UNL     1       2.680  10.484  10.362  1.00  0.00     0.167 HD
ATOM     57  C   UNL     1       2.759  14.369   8.356  1.00  0.00     0.031 A 
ATOM     58  C   UNL     1       2.014   8.737  12.436  1.00  0.00     0.031 A 
ATOM     59  C   UNL     1       1.904  14.559   9.497  1.00  0.00     0.049 A 
ATOM     60  C   UNL     1       1.372  10.054  12.782  1.00  0.00     0.074 A 
ATOM     61  C   UNL     1       1.210  15.694   9.875  1.00  0.00     0.029 A 
ATOM     62  N   UNL     1       1.643  13.592  10.457  1.00  0.00    -0.354 N 
ATOM     63  N   UNL     1       1.402  11.186  12.118  1.00  0.00    -0.248 NA
ATOM     64  C   UNL     1       0.588  10.104  14.024  1.00  0.00     0.031 C 
ATOM     65  C   UNL     1       0.574  15.431  11.095  1.00  0.00     0.029 A 
ATOM     66  C   UNL     1       0.825  14.113  11.446  1.00  0.00     0.049 A 
ATOM     67  H   UNL     1       1.989  12.670  10.439  1.00  0.00     0.167 HD
ATOM     68  C   UNL     1       0.630  12.080  12.855  1.00  0.00     0.074 A 
ATOM     69  C   UNL     1       0.133  11.350  14.004  1.00  0.00     0.031 C 
ATOM     70  C   UNL     1       0.356  13.384  12.599  1.00  0.00     0.031 A 
BRANCH  57  71
ATOM     71  C   UNL     1       3.026  15.534   7.441  1.00  0.00    -0.014 A 
ATOM     72  C   UNL     1       2.528  15.556   6.124  1.00  0.00     0.010 A 
ATOM     73  C   UNL     1       3.810  16.610   7.894  1.00  0.00     0.010 A 
ATOM     74  C   UNL     1       2.864  16.601   5.259  1.00  0.00     0.020 A 
ATOM     75  C   UNL     1       4.125  17.670   7.040  1.00  0.00     0.020 A 
ATOM     76  C   UNL     1       3.672  17.644   5.719  1.00  0.00     0.054 A 
BRANCH  76  77
ATOM     77  S   UNL     1       4.122  18.972   4.568  1.00  0.00     0.124 S 
ATOM     78  O   UNL     1       5.134  18.320   3.739  1.00  0.00    -0.237 OA
ATOM     79  O   UNL     1       2.857  19.263   3.899  1.00  0.00    -0.237 OA
ATOM     80  O   UNL     1       4.621  20.032   5.440  1.00  0.00    -0.744 OA
ENDBRANCH  76  77
ENDBRANCH  57  71
BRANCH  58  81
ATOM     81  C   UNL     1       1.898   7.561  13.339  1.00  0.00    -0.014 A 
ATOM     82  C   UNL     1       0.694   6.845  13.441  1.00  0.00     0.010 A 
ATOM     83  C   UNL     1       3.020   7.123  14.068  1.00  0.00     0.010 A 
ATOM     84  C   UNL     1       0.615   5.708  14.251  1.00  0.00     0.020 A 
ATOM     85  C   UNL     1       2.951   5.974  14.860  1.00  0.00     0.020 A 
ATOM     86  C   UNL     1       1.747   5.274  14.949  1.00  0.00     0.054 A 
BRANCH  86  87
ATOM     87  S   UNL     1       1.648   3.743  15.918  1.00  0.00     0.124 S 
ATOM     88  O   UNL     1       0.877   4.169  17.082  1.00  0.00    -0.237 OA
ATOM     89  O   UNL     1       0.962   2.833  15.003  1.00  0.00    -0.237 OA
ATOM     90  O   UNL     1       3.047   3.413  16.179  1.00  0.00    -0.744 OA
ENDBRANCH  86  87
ENDBRANCH  58  81
BRANCH  70  91
ATOM     91  C   UNL     1      -0.530  14.110  13.578  1.00  0.00    -0.014 A 
ATOM     92  C   UNL     1      -0.062  14.472  14.854  1.00  0.00     0.010 A 
ATOM     93  C   UNL     1      -1.835  14.475  13.200  1.00  0.00     0.010 A 
ATOM     94  C   UNL     1      -0.895  15.156  15.746  1.00  0.00     0.020 A 
ATOM     95  C   UNL     1      -2.662  15.182  14.078  1.00  0.00     0.020 A 
ATOM     96  C   UNL     1      -2.191  15.503  15.353  1.00  0.00     0.054 A 
BRANCH  96  97
ATOM     97  S   UNL     1      -3.243  16.417  16.515  1.00  0.00     0.124 S 
ATOM     98  O   UNL     1      -3.627  15.374  17.462  1.00  0.00    -0.237 OA
ATOM     99  O   UNL     1      -2.337  17.437  17.037  1.00  0.00    -0.237 OA
ATOM    100  O   UNL     1      -4.325  16.926  15.676  1.00  0.00    -0.744 OA
ENDBRANCH  96  97
ENDBRANCH  70  91
ENDBRANCH  44  45
ENDBRANCH  37  39
ENDBRANCH  36  37
ENDBRANCH  35  36
ENDBRANCH  34  35
ENDBRANCH  33  34
ENDBRANCH  32  33
ENDBRANCH   1  32
TORSDOF 26
