REMARK SMILES O=C(CCC(=O)OCCOCCOCCOC(=O)c1ccc(-c2c3nc(c(-c4ccc(S(=O)(=O)[O-])cc4)c4ccc([nH]4)c(-c4ccc(S(=O)(=O)[O-])cc4)c4nc(c(-c5ccc(S(=O)(=O)[O-])cc5)c5ccc2[nH]5)C=C4)C=C3)cc1)Nc1cc(Cl)cc(Cl)c1
REMARK SMILES IDX 11 1 10 2 9 3 8 4 7 5 5 6 6 7 4 8 3 9 2 10 1 11 79 12 80 14
REMARK SMILES IDX 81 15 87 16 82 17 85 18 83 19 84 20 86 21 12 22 13 23 14 24
REMARK SMILES IDX 15 25 16 26 17 27 18 28 19 29 20 30 78 31 21 32 77 33 22 34
REMARK SMILES IDX 23 35 24 36 71 37 25 38 76 39 70 40 72 41 26 42 75 43 69 44
REMARK SMILES IDX 68 45 27 47 57 48 38 49 56 50 39 51 42 52 55 53 73 54 40 55
REMARK SMILES IDX 41 56 54 58 74 59 43 60 28 61 29 62 37 63 30 64 36 65 31 66
REMARK SMILES IDX 32 67 33 68 34 69 35 70 58 71 59 72 67 73 60 74 66 75 61 76
REMARK SMILES IDX 62 77 63 78 64 79 65 80 44 81 45 82 53 83 46 84 52 85 47 86
REMARK SMILES IDX 48 87 49 88 50 89 51 90
REMARK H PARENT 79 13 72 46 42 57
REMARK Flexibility Score: inf
ROOT
ATOM      1  C   UNL     1       6.777   0.463   0.180  1.00  0.00     0.188 C 
ENDROOT
BRANCH   1   2
ATOM      2  O   UNL     1       7.544  -0.336   1.075  1.00  0.00    -0.376 OA
BRANCH   2   3
ATOM      3  C   UNL     1       6.847  -1.381   1.751  1.00  0.00     0.202 C 
BRANCH   3   4
ATOM      4  C   UNL     1       5.678  -0.920   2.635  1.00  0.00     0.261 C 
BRANCH   4   5
ATOM      5  O   UNL     1       4.635  -0.230   1.897  1.00  0.00    -0.463 OA
BRANCH   5   6
ATOM      6  C   UNL     1       4.204   0.946   2.431  1.00  0.00     0.306 C 
ATOM      7  O   UNL     1       4.544   1.360   3.533  1.00  0.00    -0.252 OA
BRANCH   6   8
ATOM      8  C   UNL     1       3.317   1.775   1.515  1.00  0.00     0.132 C 
BRANCH   8   9
ATOM      9  C   UNL     1       2.748   1.214   0.217  1.00  0.00     0.112 C 
BRANCH   9  10
ATOM     10  C   UNL     1       1.768   0.064   0.356  1.00  0.00     0.224 C 
ATOM     11  O   UNL     1       0.573   0.205   0.120  1.00  0.00    -0.275 OA
ATOM     12  N   UNL     1       2.373  -1.104   0.755  1.00  0.00    -0.326 N 
ATOM     13  H   UNL     1       3.327  -1.042   0.991  1.00  0.00     0.169 HD
BRANCH  12  14
ATOM     14  C   UNL     1       1.788  -2.372   0.866  1.00  0.00     0.044 A 
ATOM     15  C   UNL     1       2.396  -3.267   1.750  1.00  0.00     0.046 A 
ATOM     16  C   UNL     1       0.691  -2.780   0.109  1.00  0.00     0.046 A 
ATOM     17  C   UNL     1       1.891  -4.555   1.896  1.00  0.00     0.044 A 
ATOM     18  C   UNL     1       0.226  -4.091   0.230  1.00  0.00     0.044 A 
ATOM     19  Cl  UNL     1       2.611  -5.622   3.037  1.00  0.00    -0.084 Cl
ATOM     20  C   UNL     1       0.814  -4.980   1.128  1.00  0.00     0.041 A 
ATOM     21  Cl  UNL     1      -1.071  -4.634  -0.764  1.00  0.00    -0.084 Cl
ENDBRANCH  12  14
ENDBRANCH   9  10
ENDBRANCH   8   9
ENDBRANCH   6   8
ENDBRANCH   5   6
ENDBRANCH   4   5
ENDBRANCH   3   4
ENDBRANCH   2   3
ENDBRANCH   1   2
BRANCH   1  22
ATOM     22  C   UNL     1       6.139  -0.307  -0.974  1.00  0.00     0.188 C 
BRANCH  22  23
ATOM     23  O   UNL     1       5.392  -1.466  -0.624  1.00  0.00    -0.376 OA
BRANCH  23  24
ATOM     24  C   UNL     1       4.998  -2.308  -1.718  1.00  0.00     0.202 C 
BRANCH  24  25
ATOM     25  C   UNL     1       6.082  -2.745  -2.737  1.00  0.00     0.261 C 
BRANCH  25  26
ATOM     26  O   UNL     1       6.804  -1.700  -3.427  1.00  0.00    -0.460 OA
BRANCH  26  27
ATOM     27  C   UNL     1       6.093  -0.693  -3.997  1.00  0.00     0.338 C 
ATOM     28  O   UNL     1       4.897  -0.689  -4.196  1.00  0.00    -0.246 OA
BRANCH  27  29
ATOM     29  C   UNL     1       6.959   0.526  -4.050  1.00  0.00     0.060 A 
ATOM     30  C   UNL     1       6.375   1.763  -3.731  1.00  0.00     0.016 A 
ATOM     31  C   UNL     1       8.330   0.464  -4.319  1.00  0.00     0.016 A 
ATOM     32  C   UNL     1       7.141   2.935  -3.721  1.00  0.00     0.010 A 
ATOM     33  C   UNL     1       9.093   1.641  -4.330  1.00  0.00     0.010 A 
ATOM     34  C   UNL     1       8.497   2.889  -4.068  1.00  0.00    -0.014 A 
BRANCH  34  35
ATOM     35  C   UNL     1       9.227   4.143  -4.403  1.00  0.00     0.031 A 
ATOM     36  C   UNL     1       9.344   4.513  -5.861  1.00  0.00     0.074 A 
ATOM     37  C   UNL     1       9.766   4.949  -3.467  1.00  0.00     0.049 A 
ATOM     38  N   UNL     1      10.004   5.492  -6.422  1.00  0.00    -0.248 NA
ATOM     39  C   UNL     1       8.618   3.654  -6.814  1.00  0.00     0.031 C 
ATOM     40  C   UNL     1       9.677   4.756  -2.021  1.00  0.00     0.029 A 
ATOM     41  N   UNL     1      10.513   6.097  -3.606  1.00  0.00    -0.354 N 
ATOM     42  C   UNL     1       9.793   5.354  -7.790  1.00  0.00     0.074 A 
ATOM     43  C   UNL     1       8.961   4.186  -7.976  1.00  0.00     0.031 C 
ATOM     44  C   UNL     1      10.358   5.743  -1.407  1.00  0.00     0.029 A 
ATOM     45  C   UNL     1      10.967   6.614  -2.413  1.00  0.00     0.049 A 
ATOM     46  H   UNL     1      10.705   6.512  -4.478  1.00  0.00     0.167 HD
ATOM     47  C   UNL     1      10.247   6.127  -8.803  1.00  0.00     0.031 A 
ATOM     48  C   UNL     1      11.800   7.647  -2.163  1.00  0.00     0.031 A 
ATOM     49  C   UNL     1      11.078   7.286  -8.625  1.00  0.00     0.049 A 
ATOM     50  C   UNL     1      12.365   8.446  -3.316  1.00  0.00     0.074 A 
ATOM     51  C   UNL     1      11.577   8.139  -9.593  1.00  0.00     0.029 A 
ATOM     52  N   UNL     1      11.535   7.754  -7.404  1.00  0.00    -0.354 N 
ATOM     53  N   UNL     1      12.144   8.309  -4.603  1.00  0.00    -0.248 NA
ATOM     54  C   UNL     1      13.287   9.543  -2.983  1.00  0.00     0.031 C 
ATOM     55  C   UNL     1      12.391   9.084  -8.963  1.00  0.00     0.029 A 
ATOM     56  C   UNL     1      12.332   8.868  -7.596  1.00  0.00     0.049 A 
ATOM     57  H   UNL     1      11.324   7.353  -6.529  1.00  0.00     0.167 HD
ATOM     58  C   UNL     1      12.864   9.329  -5.223  1.00  0.00     0.074 A 
ATOM     59  C   UNL     1      13.522  10.077  -4.174  1.00  0.00     0.031 C 
ATOM     60  C   UNL     1      12.964   9.623  -6.544  1.00  0.00     0.031 A 
BRANCH  47  61
ATOM     61  C   UNL     1       9.890   5.722 -10.209  1.00  0.00    -0.014 A 
ATOM     62  C   UNL     1       8.580   5.857 -10.700  1.00  0.00     0.010 A 
ATOM     63  C   UNL     1      10.901   5.256 -11.070  1.00  0.00     0.010 A 
ATOM     64  C   UNL     1       8.282   5.511 -12.021  1.00  0.00     0.020 A 
ATOM     65  C   UNL     1      10.614   4.938 -12.400  1.00  0.00     0.020 A 
ATOM     66  C   UNL     1       9.303   5.057 -12.863  1.00  0.00     0.054 A 
BRANCH  66  67
ATOM     67  S   UNL     1       8.895   4.662 -14.586  1.00  0.00     0.124 S 
ATOM     68  O   UNL     1       8.102   3.445 -14.436  1.00  0.00    -0.237 OA
ATOM     69  O   UNL     1       8.155   5.845 -15.016  1.00  0.00    -0.237 OA
ATOM     70  O   UNL     1      10.199   4.481 -15.219  1.00  0.00    -0.744 OA
ENDBRANCH  66  67
ENDBRANCH  47  61
BRANCH  48  71
ATOM     71  C   UNL     1      12.197   7.980  -0.762  1.00  0.00    -0.014 A 
ATOM     72  C   UNL     1      11.824   9.203  -0.175  1.00  0.00     0.010 A 
ATOM     73  C   UNL     1      12.996   7.089  -0.021  1.00  0.00     0.010 A 
ATOM     74  C   UNL     1      12.268   9.542   1.109  1.00  0.00     0.020 A 
ATOM     75  C   UNL     1      13.413   7.409   1.275  1.00  0.00     0.020 A 
ATOM     76  C   UNL     1      13.060   8.641   1.826  1.00  0.00     0.054 A 
BRANCH  76  77
ATOM     77  S   UNL     1      13.602   9.089   3.499  1.00  0.00     0.124 S 
ATOM     78  O   UNL     1      14.592  10.127   3.230  1.00  0.00    -0.237 OA
ATOM     79  O   UNL     1      12.361   9.543   4.120  1.00  0.00    -0.237 OA
ATOM     80  O   UNL     1      14.136   7.838   4.032  1.00  0.00    -0.744 OA
ENDBRANCH  76  77
ENDBRANCH  48  71
BRANCH  60  81
ATOM     81  C   UNL     1      13.751  10.845  -6.945  1.00  0.00    -0.014 A 
ATOM     82  C   UNL     1      15.154  10.884  -6.860  1.00  0.00     0.010 A 
ATOM     83  C   UNL     1      13.070  11.944  -7.505  1.00  0.00     0.010 A 
ATOM     84  C   UNL     1      15.857  12.009  -7.306  1.00  0.00     0.020 A 
ATOM     85  C   UNL     1      13.771  13.055  -7.979  1.00  0.00     0.020 A 
ATOM     86  C   UNL     1      15.161  13.085  -7.867  1.00  0.00     0.054 A 
BRANCH  86  87
ATOM     87  S   UNL     1      16.102  14.504  -8.495  1.00  0.00     0.124 S 
ATOM     88  O   UNL     1      16.570  15.129  -7.261  1.00  0.00    -0.237 OA
ATOM     89  O   UNL     1      17.135  13.867  -9.308  1.00  0.00    -0.237 OA
ATOM     90  O   UNL     1      15.112  15.273  -9.245  1.00  0.00    -0.744 OA
ENDBRANCH  86  87
ENDBRANCH  60  81
ENDBRANCH  34  35
ENDBRANCH  27  29
ENDBRANCH  26  27
ENDBRANCH  25  26
ENDBRANCH  24  25
ENDBRANCH  23  24
ENDBRANCH  22  23
ENDBRANCH   1  22
TORSDOF 23
