REMARK SMILES CC(C)C[C@H](CNC(=O)N[C@@H](C)C1CCCCC1)C(=O)OCCOCCOCCOC(=O)c1ccc(-c2c3nc(c(-c4ccc(S(=O)(=O)[O-])cc4)c4ccc([nH]4)c(-c4ccc(S(=O)(=O)[O-])cc4)c4nc(c(-c5ccc(S(=O)(=O)[O-])cc5)c5ccc2[nH]5)C=C4)C=C3)cc1
REMARK SMILES IDX 25 1 24 2 23 3 22 4 21 5 19 6 20 7 5 8 4 9 2 10 1 11 3 12
REMARK SMILES IDX 6 13 7 14 8 15 9 17 10 18 11 20 12 21 13 22 14 23 18 24
REMARK SMILES IDX 15 25 17 26 16 27 26 28 27 29 28 30 29 31 30 32 31 33 32 34
REMARK SMILES IDX 33 35 34 36 92 37 35 38 91 39 36 40 37 41 38 42 85 43 39 44
REMARK SMILES IDX 90 45 84 46 86 47 40 48 89 49 83 50 82 51 41 53 71 54 52 55
REMARK SMILES IDX 70 56 53 57 56 58 69 59 87 60 54 61 55 62 68 64 88 65 57 66
REMARK SMILES IDX 42 67 43 68 51 69 44 70 50 71 45 72 46 73 47 74 48 75 49 76
REMARK SMILES IDX 72 77 73 78 81 79 74 80 80 81 75 82 76 83 77 84 78 85 79 86
REMARK SMILES IDX 58 87 59 88 67 89 60 90 66 91 61 92 62 93 63 94 64 95 65 96
REMARK H PARENT 7 16 10 19 86 52 56 63
REMARK Flexibility Score: inf
ROOT
ATOM      1  C   UNL     1      -4.701   0.136   0.356  1.00  0.00     0.188 C 
ENDROOT
BRANCH   1   2
ATOM      2  O   UNL     1      -5.959  -0.271  -0.140  1.00  0.00    -0.376 OA
BRANCH   2   3
ATOM      3  C   UNL     1      -6.054  -1.213  -1.196  1.00  0.00     0.202 C 
BRANCH   3   4
ATOM      4  C   UNL     1      -5.088  -1.225  -2.383  1.00  0.00     0.261 C 
BRANCH   4   5
ATOM      5  O   UNL     1      -3.707  -1.504  -2.072  1.00  0.00    -0.463 OA
BRANCH   5   6
ATOM      6  C   UNL     1      -2.862  -0.463  -2.287  1.00  0.00     0.310 C 
ATOM      7  O   UNL     1      -3.253   0.666  -2.567  1.00  0.00    -0.252 OA
BRANCH   6   8
ATOM      8  C   UNL     1      -1.377  -0.798  -2.202  1.00  0.00     0.119 C 
BRANCH   8   9
ATOM      9  C   UNL     1      -0.778  -0.863  -3.625  1.00  0.00     0.020 C 
BRANCH   9  10
ATOM     10  C   UNL     1      -1.102   0.314  -4.573  1.00  0.00    -0.017 C 
ATOM     11  C   UNL     1      -0.672   1.673  -4.015  1.00  0.00     0.007 C 
ATOM     12  C   UNL     1      -0.432   0.083  -5.929  1.00  0.00     0.007 C 
ENDBRANCH   9  10
ENDBRANCH   8   9
BRANCH   8  13
ATOM     13  C   UNL     1      -1.031  -2.049  -1.370  1.00  0.00     0.133 C 
BRANCH  13  14
ATOM     14  N   UNL     1       0.364  -2.463  -1.480  1.00  0.00    -0.337 N 
ATOM     15  C   UNL     1       1.512  -2.239  -0.843  1.00  0.00     0.315 C 
ATOM     16  H   UNL     1       0.492  -3.079  -2.236  1.00  0.00     0.165 HD
ATOM     17  O   UNL     1       2.506  -2.837  -1.267  1.00  0.00    -0.249 OA
ATOM     18  N   UNL     1       1.689  -1.433   0.200  1.00  0.00    -0.335 N 
ATOM     19  H   UNL     1       2.629  -1.430   0.493  1.00  0.00     0.165 HD
BRANCH  18  20
ATOM     20  C   UNL     1       0.873  -0.552   1.032  1.00  0.00     0.083 C 
ATOM     21  C   UNL     1       0.819  -1.147   2.445  1.00  0.00     0.031 C 
BRANCH  20  22
ATOM     22  C   UNL     1       1.473   0.893   1.004  1.00  0.00     0.011 C 
ATOM     23  C   UNL     1       1.269   1.513  -0.393  1.00  0.00     0.006 C 
ATOM     24  C   UNL     1       0.857   1.789   2.089  1.00  0.00     0.006 C 
ATOM     25  C   UNL     1       1.632   2.991  -0.478  1.00  0.00     0.000 C 
ATOM     26  C   UNL     1       1.216   3.268   1.961  1.00  0.00     0.000 C 
ATOM     27  C   UNL     1       0.884   3.797   0.575  1.00  0.00     0.000 C 
ENDBRANCH  20  22
ENDBRANCH  18  20
ENDBRANCH  13  14
ENDBRANCH   8  13
ENDBRANCH   6   8
ENDBRANCH   5   6
ENDBRANCH   4   5
ENDBRANCH   3   4
ENDBRANCH   2   3
ENDBRANCH   1   2
BRANCH   1  28
ATOM     28  C   UNL     1      -3.726  -0.912   0.909  1.00  0.00     0.188 C 
BRANCH  28  29
ATOM     29  O   UNL     1      -4.064  -2.282   0.942  1.00  0.00    -0.376 OA
BRANCH  29  30
ATOM     30  C   UNL     1      -5.177  -2.688   1.729  1.00  0.00     0.202 C 
BRANCH  30  31
ATOM     31  C   UNL     1      -5.440  -2.126   3.134  1.00  0.00     0.261 C 
BRANCH  31  32
ATOM     32  O   UNL     1      -5.216  -0.718   3.288  1.00  0.00    -0.460 OA
BRANCH  32  33
ATOM     33  C   UNL     1      -4.312  -0.388   4.241  1.00  0.00     0.338 C 
ATOM     34  O   UNL     1      -3.720  -1.151   4.998  1.00  0.00    -0.246 OA
BRANCH  33  35
ATOM     35  C   UNL     1      -3.980   1.040   4.152  1.00  0.00     0.060 A 
ATOM     36  C   UNL     1      -2.820   1.404   3.465  1.00  0.00     0.016 A 
ATOM     37  C   UNL     1      -4.709   1.995   4.861  1.00  0.00     0.016 A 
ATOM     38  C   UNL     1      -2.384   2.721   3.492  1.00  0.00     0.010 A 
ATOM     39  C   UNL     1      -4.237   3.314   4.920  1.00  0.00     0.010 A 
ATOM     40  C   UNL     1      -3.046   3.672   4.267  1.00  0.00    -0.014 A 
BRANCH  40  41
ATOM     41  C   UNL     1      -2.301   4.915   4.591  1.00  0.00     0.031 A 
ATOM     42  C   UNL     1      -1.627   5.005   5.935  1.00  0.00     0.074 A 
ATOM     43  C   UNL     1      -2.059   5.864   3.667  1.00  0.00     0.049 A 
ATOM     44  N   UNL     1      -0.988   6.007   6.479  1.00  0.00    -0.248 NA
ATOM     45  C   UNL     1      -1.664   3.790   6.767  1.00  0.00     0.031 C 
ATOM     46  C   UNL     1      -2.479   5.817   2.267  1.00  0.00     0.029 A 
ATOM     47  N   UNL     1      -1.364   7.044   3.770  1.00  0.00    -0.354 N 
ATOM     48  C   UNL     1      -0.603   5.565   7.740  1.00  0.00     0.074 A 
ATOM     49  C   UNL     1      -1.062   4.200   7.872  1.00  0.00     0.031 C 
ATOM     50  C   UNL     1      -2.017   6.912   1.637  1.00  0.00     0.029 A 
ATOM     51  C   UNL     1      -1.331   7.769   2.603  1.00  0.00     0.049 A 
ATOM     52  H   UNL     1      -0.930   7.342   4.602  1.00  0.00     0.167 HD
ATOM     53  C   UNL     1       0.059   6.240   8.709  1.00  0.00     0.031 A 
ATOM     54  C   UNL     1      -0.838   8.998   2.354  1.00  0.00     0.031 A 
ATOM     55  C   UNL     1       0.536   7.588   8.568  1.00  0.00     0.049 A 
ATOM     56  C   UNL     1      -0.206   9.781   3.476  1.00  0.00     0.074 A 
ATOM     57  C   UNL     1       1.168   8.382   9.508  1.00  0.00     0.029 A 
ATOM     58  N   UNL     1       0.447   8.336   7.405  1.00  0.00    -0.354 N 
ATOM     59  N   UNL     1       0.038   9.405   4.710  1.00  0.00    -0.248 NA
ATOM     60  C   UNL     1       0.201  11.161   3.176  1.00  0.00     0.031 C 
ATOM     61  C   UNL     1       1.421   9.629   8.925  1.00  0.00     0.029 A 
ATOM     62  C   UNL     1       0.998   9.589   7.606  1.00  0.00     0.049 A 
ATOM     63  H   UNL     1       0.050   8.022   6.560  1.00  0.00     0.167 HD
ATOM     64  C   UNL     1       0.647  10.495   5.325  1.00  0.00     0.074 A 
ATOM     65  C   UNL     1       0.744  11.539   4.325  1.00  0.00     0.031 C 
ATOM     66  C   UNL     1       1.089  10.619   6.602  1.00  0.00     0.031 A 
BRANCH  53  67
ATOM     67  C   UNL     1       0.202   5.553  10.038  1.00  0.00    -0.014 A 
ATOM     68  C   UNL     1       1.099   4.489  10.236  1.00  0.00     0.010 A 
ATOM     69  C   UNL     1      -0.615   5.971  11.105  1.00  0.00     0.010 A 
ATOM     70  C   UNL     1       1.136   3.819  11.463  1.00  0.00     0.020 A 
ATOM     71  C   UNL     1      -0.561   5.323  12.340  1.00  0.00     0.020 A 
ATOM     72  C   UNL     1       0.296   4.233  12.503  1.00  0.00     0.054 A 
BRANCH  72  73
ATOM     73  S   UNL     1       0.342   3.338  14.079  1.00  0.00     0.124 S 
ATOM     74  O   UNL     1      -0.399   2.122  13.754  1.00  0.00    -0.237 OA
ATOM     75  O   UNL     1       1.774   3.158  14.307  1.00  0.00    -0.237 OA
ATOM     76  O   UNL     1      -0.325   4.244  15.011  1.00  0.00    -0.744 OA
ENDBRANCH  72  73
ENDBRANCH  53  67
BRANCH  54  77
ATOM     77  C   UNL     1      -0.975   9.596   0.997  1.00  0.00    -0.014 A 
ATOM     78  C   UNL     1       0.156   9.829   0.196  1.00  0.00     0.010 A 
ATOM     79  C   UNL     1      -2.246   9.943   0.501  1.00  0.00     0.010 A 
ATOM     80  C   UNL     1       0.020  10.403  -1.073  1.00  0.00     0.020 A 
ATOM     81  C   UNL     1      -2.389  10.491  -0.776  1.00  0.00     0.020 A 
ATOM     82  C   UNL     1      -1.253  10.725  -1.553  1.00  0.00     0.054 A 
BRANCH  82  83
ATOM     83  S   UNL     1      -1.416  11.409  -3.226  1.00  0.00     0.124 S 
ATOM     84  O   UNL     1      -0.958  12.782  -3.039  1.00  0.00    -0.237 OA
ATOM     85  O   UNL     1      -0.532  10.547  -4.007  1.00  0.00    -0.237 OA
ATOM     86  O   UNL     1      -2.840  11.257  -3.519  1.00  0.00    -0.744 OA
ENDBRANCH  82  83
ENDBRANCH  54  77
BRANCH  66  87
ATOM     87  C   UNL     1       1.759  11.911   6.985  1.00  0.00    -0.014 A 
ATOM     88  C   UNL     1       1.020  13.092   7.173  1.00  0.00     0.010 A 
ATOM     89  C   UNL     1       3.147  11.927   7.215  1.00  0.00     0.010 A 
ATOM     90  C   UNL     1       1.663  14.274   7.551  1.00  0.00     0.020 A 
ATOM     91  C   UNL     1       3.789  13.100   7.619  1.00  0.00     0.020 A 
ATOM     92  C   UNL     1       3.045  14.271   7.769  1.00  0.00     0.054 A 
BRANCH  92  93
ATOM     93  S   UNL     1       3.853  15.807   8.296  1.00  0.00     0.124 S 
ATOM     94  O   UNL     1       3.895  16.570   7.052  1.00  0.00    -0.237 OA
ATOM     95  O   UNL     1       2.941  16.319   9.316  1.00  0.00    -0.237 OA
ATOM     96  O   UNL     1       5.151  15.361   8.798  1.00  0.00    -0.744 OA
ENDBRANCH  92  93
ENDBRANCH  66  87
ENDBRANCH  40  41
ENDBRANCH  33  35
ENDBRANCH  32  33
ENDBRANCH  31  32
ENDBRANCH  30  31
ENDBRANCH  29  30
ENDBRANCH  28  29
ENDBRANCH   1  28
TORSDOF 26
