REMARK SMILES O=C(OCCOCCOCCOC(=O)[C@H](Cc1ccc(O)cc1)NC(=O)c1ccc(Cl)s1)c1ccc(-c2c3nc(c(-c4ccc(S(=O)(=O)[O-])cc4)c4ccc([nH]4)c(-c4ccc(S(=O)(=O)[O-])cc4)c4nc(c(-c5ccc(S(=O)(=O)[O-])cc5)c5ccc2[nH]5)C=C4)C=C3)cc1
REMARK SMILES IDX 7 1 6 2 5 3 4 4 3 5 2 6 1 7 33 8 34 9 92 10 35 11 91 12
REMARK SMILES IDX 36 13 37 14 38 15 85 16 39 17 90 18 84 19 86 20 40 21 89 22
REMARK SMILES IDX 83 23 82 24 41 26 71 27 52 28 70 29 53 30 56 31 69 32 87 33
REMARK SMILES IDX 54 34 55 35 68 37 88 38 57 39 42 40 43 41 51 42 44 43 50 44
REMARK SMILES IDX 45 45 46 46 47 47 48 48 49 49 72 50 73 51 81 52 74 53 80 54
REMARK SMILES IDX 75 55 76 56 77 57 78 58 79 59 58 60 59 61 67 62 60 63 66 64
REMARK SMILES IDX 61 65 62 66 63 67 64 68 65 69 8 70 9 71 10 72 11 73 12 74
REMARK SMILES IDX 13 75 14 76 15 77 24 78 25 79 26 81 27 82 28 83 32 84 29 85
REMARK SMILES IDX 30 86 31 87 16 88 17 89 18 90 23 91 19 92 22 93 20 94 21 95
REMARK H PARENT 86 25 56 36 24 80 21 96
REMARK Flexibility Score: inf
ROOT
ATOM      1  C   UNL     1       6.436  -2.066  -4.463  1.00  0.00     0.188 C 
ENDROOT
BRANCH   1   2
ATOM      2  O   UNL     1       6.208  -1.669  -3.106  1.00  0.00    -0.376 OA
BRANCH   2   3
ATOM      3  C   UNL     1       7.412  -1.350  -2.396  1.00  0.00     0.202 C 
BRANCH   3   4
ATOM      4  C   UNL     1       8.100  -2.562  -1.756  1.00  0.00     0.261 C 
BRANCH   4   5
ATOM      5  O   UNL     1       7.871  -3.765  -2.498  1.00  0.00    -0.460 OA
BRANCH   5   6
ATOM      6  C   UNL     1       6.829  -4.619  -2.354  1.00  0.00     0.338 C 
ATOM      7  O   UNL     1       6.728  -5.548  -3.156  1.00  0.00    -0.246 OA
BRANCH   6   8
ATOM      8  C   UNL     1       5.806  -4.520  -1.263  1.00  0.00     0.060 A 
ATOM      9  C   UNL     1       5.332  -3.342  -0.666  1.00  0.00     0.016 A 
ATOM     10  C   UNL     1       5.181  -5.719  -0.908  1.00  0.00     0.016 A 
ATOM     11  C   UNL     1       4.295  -3.348   0.273  1.00  0.00     0.010 A 
ATOM     12  C   UNL     1       4.106  -5.724  -0.019  1.00  0.00     0.010 A 
ATOM     13  C   UNL     1       3.656  -4.538   0.589  1.00  0.00    -0.014 A 
BRANCH  13  14
ATOM     14  C   UNL     1       2.604  -4.614   1.633  1.00  0.00     0.031 A 
ATOM     15  C   UNL     1       2.905  -5.475   2.824  1.00  0.00     0.074 A 
ATOM     16  C   UNL     1       1.399  -4.024   1.495  1.00  0.00     0.049 A 
ATOM     17  N   UNL     1       2.110  -5.902   3.764  1.00  0.00    -0.248 NA
ATOM     18  C   UNL     1       4.301  -5.934   2.955  1.00  0.00     0.031 C 
ATOM     19  C   UNL     1       1.004  -3.103   0.429  1.00  0.00     0.029 A 
ATOM     20  N   UNL     1       0.247  -4.171   2.229  1.00  0.00    -0.354 N 
ATOM     21  C   UNL     1       2.906  -6.693   4.581  1.00  0.00     0.074 A 
ATOM     22  C   UNL     1       4.210  -6.777   3.968  1.00  0.00     0.031 C 
ATOM     23  C   UNL     1      -0.319  -2.879   0.493  1.00  0.00     0.029 A 
ATOM     24  C   UNL     1      -0.860  -3.604   1.634  1.00  0.00     0.049 A 
ATOM     25  H   UNL     1       0.215  -4.636   3.096  1.00  0.00     0.167 HD
ATOM     26  C   UNL     1       2.598  -7.247   5.774  1.00  0.00     0.031 A 
ATOM     27  C   UNL     1      -2.164  -3.671   1.967  1.00  0.00     0.031 A 
ATOM     28  C   UNL     1       1.303  -7.126   6.376  1.00  0.00     0.049 A 
ATOM     29  C   UNL     1      -2.523  -4.355   3.256  1.00  0.00     0.074 A 
ATOM     30  C   UNL     1       0.877  -7.574   7.610  1.00  0.00     0.029 A 
ATOM     31  N   UNL     1       0.220  -6.503   5.770  1.00  0.00    -0.354 N 
ATOM     32  N   UNL     1      -1.741  -5.024   4.071  1.00  0.00    -0.248 NA
ATOM     33  C   UNL     1      -3.913  -4.237   3.710  1.00  0.00     0.031 C 
ATOM     34  C   UNL     1      -0.481  -7.259   7.731  1.00  0.00     0.029 A 
ATOM     35  C   UNL     1      -0.884  -6.567   6.597  1.00  0.00     0.049 A 
ATOM     36  H   UNL     1       0.236  -6.078   4.882  1.00  0.00     0.167 HD
ATOM     37  C   UNL     1      -2.529  -5.356   5.165  1.00  0.00     0.074 A 
ATOM     38  C   UNL     1      -3.853  -4.825   4.898  1.00  0.00     0.031 C 
ATOM     39  C   UNL     1      -2.183  -6.015   6.299  1.00  0.00     0.031 A 
BRANCH  26  40
ATOM     40  C   UNL     1       3.697  -8.008   6.465  1.00  0.00    -0.014 A 
ATOM     41  C   UNL     1       4.859  -7.349   6.916  1.00  0.00     0.010 A 
ATOM     42  C   UNL     1       3.612  -9.404   6.589  1.00  0.00     0.010 A 
ATOM     43  C   UNL     1       5.951  -8.080   7.386  1.00  0.00     0.020 A 
ATOM     44  C   UNL     1       4.690 -10.137   7.097  1.00  0.00     0.020 A 
ATOM     45  C   UNL     1       5.864  -9.472   7.460  1.00  0.00     0.054 A 
BRANCH  45  46
ATOM     46  S   UNL     1       7.313 -10.400   8.031  1.00  0.00     0.124 S 
ATOM     47  O   UNL     1       8.201 -10.311   6.874  1.00  0.00    -0.237 OA
ATOM     48  O   UNL     1       7.737  -9.642   9.205  1.00  0.00    -0.237 OA
ATOM     49  O   UNL     1       6.783 -11.732   8.310  1.00  0.00    -0.744 OA
ENDBRANCH  45  46
ENDBRANCH  26  40
BRANCH  27  50
ATOM     50  C   UNL     1      -3.195  -3.033   1.100  1.00  0.00    -0.014 A 
ATOM     51  C   UNL     1      -3.790  -1.813   1.465  1.00  0.00     0.010 A 
ATOM     52  C   UNL     1      -3.561  -3.626  -0.124  1.00  0.00     0.010 A 
ATOM     53  C   UNL     1      -4.735  -1.203   0.631  1.00  0.00     0.020 A 
ATOM     54  C   UNL     1      -4.494  -3.011  -0.970  1.00  0.00     0.020 A 
ATOM     55  C   UNL     1      -5.077  -1.803  -0.584  1.00  0.00     0.054 A 
BRANCH  55  56
ATOM     56  S   UNL     1      -6.248  -0.949  -1.679  1.00  0.00     0.124 S 
ATOM     57  O   UNL     1      -7.506  -1.092  -0.955  1.00  0.00    -0.237 OA
ATOM     58  O   UNL     1      -5.697   0.404  -1.728  1.00  0.00    -0.237 OA
ATOM     59  O   UNL     1      -6.153  -1.695  -2.932  1.00  0.00    -0.744 OA
ENDBRANCH  55  56
ENDBRANCH  27  50
BRANCH  39  60
ATOM     60  C   UNL     1      -3.233  -6.155   7.362  1.00  0.00    -0.014 A 
ATOM     61  C   UNL     1      -4.291  -7.069   7.225  1.00  0.00     0.010 A 
ATOM     62  C   UNL     1      -3.087  -5.437   8.563  1.00  0.00     0.010 A 
ATOM     63  C   UNL     1      -5.191  -7.258   8.275  1.00  0.00     0.020 A 
ATOM     64  C   UNL     1      -3.967  -5.646   9.625  1.00  0.00     0.020 A 
ATOM     65  C   UNL     1      -5.016  -6.553   9.471  1.00  0.00     0.054 A 
BRANCH  65  66
ATOM     66  S   UNL     1      -6.140  -6.891  10.852  1.00  0.00     0.124 S 
ATOM     67  O   UNL     1      -7.370  -6.241  10.408  1.00  0.00    -0.237 OA
ATOM     68  O   UNL     1      -6.176  -8.351  10.884  1.00  0.00    -0.237 OA
ATOM     69  O   UNL     1      -5.482  -6.265  11.996  1.00  0.00    -0.744 OA
ENDBRANCH  65  66
ENDBRANCH  39  60
ENDBRANCH  13  14
ENDBRANCH   6   8
ENDBRANCH   5   6
ENDBRANCH   4   5
ENDBRANCH   3   4
ENDBRANCH   2   3
ENDBRANCH   1   2
BRANCH   1  70
ATOM     70  C   UNL     1       5.451  -1.412  -5.438  1.00  0.00     0.188 C 
BRANCH  70  71
ATOM     71  O   UNL     1       5.418   0.011  -5.463  1.00  0.00    -0.376 OA
BRANCH  71  72
ATOM     72  C   UNL     1       5.083   0.680  -4.248  1.00  0.00     0.202 C 
BRANCH  72  73
ATOM     73  C   UNL     1       3.684   0.446  -3.644  1.00  0.00     0.261 C 
BRANCH  73  74
ATOM     74  O   UNL     1       3.313  -0.938  -3.454  1.00  0.00    -0.462 OA
BRANCH  74  75
ATOM     75  C   UNL     1       2.190  -1.344  -4.117  1.00  0.00     0.329 C 
ATOM     76  O   UNL     1       1.503  -0.601  -4.814  1.00  0.00    -0.250 OA
BRANCH  75  77
ATOM     77  C   UNL     1       1.928  -2.863  -4.048  1.00  0.00     0.197 C 
BRANCH  77  78
ATOM     78  N   UNL     1       2.148  -3.413  -5.393  1.00  0.00    -0.338 N 
ATOM     79  C   UNL     1       1.263  -4.117  -6.165  1.00  0.00     0.262 C 
ATOM     80  H   UNL     1       3.038  -3.258  -5.785  1.00  0.00     0.164 HD
ATOM     81  O   UNL     1       1.715  -4.743  -7.127  1.00  0.00    -0.268 OA
BRANCH  79  82
ATOM     82  C   UNL     1      -0.130  -4.073  -5.796  1.00  0.00     0.093 A 
ATOM     83  C   UNL     1      -0.941  -2.966  -5.614  1.00  0.00     0.027 A 
ATOM     84  S   UNL     1      -0.968  -5.533  -5.492  1.00  0.00    -0.118 S 
ATOM     85  C   UNL     1      -2.240  -3.324  -5.149  1.00  0.00     0.033 A 
ATOM     86  C   UNL     1      -2.362  -4.685  -5.039  1.00  0.00     0.094 A 
ATOM     87  Cl  UNL     1      -3.745  -5.551  -4.508  1.00  0.00    -0.072 Cl
ENDBRANCH  79  82
ENDBRANCH  77  78
BRANCH  77  88
ATOM     88  C   UNL     1       2.740  -3.649  -3.026  1.00  0.00     0.072 C 
BRANCH  88  89
ATOM     89  C   UNL     1       2.428  -5.136  -2.949  1.00  0.00    -0.045 A 
ATOM     90  C   UNL     1       3.139  -6.041  -3.750  1.00  0.00     0.007 A 
ATOM     91  C   UNL     1       1.513  -5.653  -2.019  1.00  0.00     0.007 A 
ATOM     92  C   UNL     1       3.014  -7.421  -3.562  1.00  0.00     0.046 A 
ATOM     93  C   UNL     1       1.409  -7.032  -1.806  1.00  0.00     0.046 A 
ATOM     94  C   UNL     1       2.181  -7.904  -2.561  1.00  0.00     0.115 A 
BRANCH  94  95
ATOM     95  O   UNL     1       2.118  -9.234  -2.271  1.00  0.00    -0.508 OA
ATOM     96  H   UNL     1       2.628  -9.846  -2.764  1.00  0.00     0.293 HD
ENDBRANCH  94  95
ENDBRANCH  88  89
ENDBRANCH  77  88
ENDBRANCH  75  77
ENDBRANCH  74  75
ENDBRANCH  73  74
ENDBRANCH  72  73
ENDBRANCH  71  72
ENDBRANCH  70  71
ENDBRANCH   1  70
TORSDOF 25
