REMARK SMILES Cc1ccc(-c2cc(Cl)cc3c2O[C@H](C(F)(F)F)C(C(=O)OCCOCCOCCOC(=O)c2ccc(-c4c5nc(c(-c6ccc(S(=O)(=O)[O-])cc6)c6ccc([nH]6)c(-c6ccc(S(=O)(=O)[O-])cc6)c6nc(c(-c7ccc(S(=O)(=O)[O-])cc7)c7ccc4[nH]7)C=C6)C=C5)cc2)=C3)cc1F
REMARK SMILES IDX 27 1 26 2 25 3 24 4 23 5 22 6 20 7 21 8 19 9 6 10 7 11 12 12
REMARK SMILES IDX 8 13 11 14 13 15 9 16 10 17 94 18 14 19 5 20 1 21 2 22 3 23
REMARK SMILES IDX 96 24 4 25 95 26 97 27 15 28 16 29 17 30 18 31 28 32 29 33
REMARK SMILES IDX 30 34 31 35 32 36 33 37 34 38 35 39 93 40 36 41 92 42 37 43
REMARK SMILES IDX 38 44 39 45 86 46 40 47 91 48 85 49 87 50 41 51 90 52 84 53
REMARK SMILES IDX 83 54 42 56 72 57 53 58 71 59 54 60 57 61 70 62 88 63 55 64
REMARK SMILES IDX 56 65 69 67 89 68 58 69 43 70 44 71 52 72 45 73 51 74 46 75
REMARK SMILES IDX 47 76 48 77 49 78 50 79 73 80 74 81 82 82 75 83 81 84 76 85
REMARK SMILES IDX 77 86 78 87 79 88 80 89 59 90 60 91 68 92 61 93 67 94 62 95
REMARK SMILES IDX 63 96 64 97 65 98 66 99
REMARK H PARENT 87 55 57 66
REMARK Flexibility Score: inf
ROOT
ATOM      1  C   UNL     1      -4.823  -3.996   5.748  1.00  0.00     0.188 C 
ENDROOT
BRANCH   1   2
ATOM      2  C   UNL     1      -5.353  -5.446   5.751  1.00  0.00     0.188 C 
BRANCH   2   3
ATOM      3  O   UNL     1      -4.908  -6.180   6.873  1.00  0.00    -0.376 OA
BRANCH   3   4
ATOM      4  C   UNL     1      -3.952  -7.205   6.686  1.00  0.00     0.202 C 
BRANCH   4   5
ATOM      5  C   UNL     1      -2.626  -6.915   5.964  1.00  0.00     0.261 C 
BRANCH   5   6
ATOM      6  O   UNL     1      -2.657  -5.908   4.945  1.00  0.00    -0.460 OA
BRANCH   6   7
ATOM      7  C   UNL     1      -2.897  -6.318   3.681  1.00  0.00     0.338 C 
ATOM      8  O   UNL     1      -3.131  -7.458   3.319  1.00  0.00    -0.246 OA
BRANCH   7   9
ATOM      9  C   UNL     1      -2.943  -5.129   2.802  1.00  0.00     0.087 C 
ATOM     10  C   UNL     1      -2.944  -1.865   0.161  1.00  0.00     0.026 A 
ATOM     11  C   UNL     1      -3.982  -1.772  -0.783  1.00  0.00     0.033 A 
ATOM     12  C   UNL     1      -2.991  -2.922   1.100  1.00  0.00     0.135 A 
ATOM     13  C   UNL     1      -5.016  -2.708  -0.798  1.00  0.00     0.042 A 
ATOM     14  C   UNL     1      -4.003  -3.891   1.045  1.00  0.00     0.019 A 
ATOM     15  O   UNL     1      -2.019  -2.934   2.065  1.00  0.00    -0.475 OA
ATOM     16  Cl  UNL     1      -6.271  -2.565  -1.966  1.00  0.00    -0.084 Cl
ATOM     17  C   UNL     1      -5.027  -3.770   0.102  1.00  0.00     0.032 A 
ATOM     18  C   UNL     1      -3.957  -5.045   1.931  1.00  0.00     0.027 C 
ATOM     19  C   UNL     1      -1.886  -4.069   2.955  1.00  0.00     0.316 C 
BRANCH  10  20
ATOM     20  C   UNL     1      -1.815  -0.911   0.108  1.00  0.00    -0.012 A 
ATOM     21  C   UNL     1       1.546   1.821  -0.035  1.00  0.00     0.047 C 
ATOM     22  C   UNL     1       0.371   0.894   0.001  1.00  0.00    -0.015 A 
ATOM     23  C   UNL     1      -0.942   1.372   0.057  1.00  0.00     0.007 A 
ATOM     24  C   UNL     1       0.576  -0.485  -0.011  1.00  0.00     0.126 A 
ATOM     25  C   UNL     1      -2.021   0.479   0.110  1.00  0.00     0.009 A 
ATOM     26  C   UNL     1      -0.491  -1.376   0.033  1.00  0.00     0.048 A 
ATOM     27  F   UNL     1       1.824  -0.972  -0.067  1.00  0.00    -0.207 F 
ENDBRANCH  10  20
BRANCH  19  28
ATOM     28  C   UNL     1      -0.462  -4.622   2.803  1.00  0.00     0.430 C 
ATOM     29  F   UNL     1       0.462  -3.640   2.948  1.00  0.00    -0.167 F 
ATOM     30  F   UNL     1      -0.178  -5.559   3.736  1.00  0.00    -0.167 F 
ATOM     31  F   UNL     1      -0.265  -5.183   1.589  1.00  0.00    -0.167 F 
ENDBRANCH  19  28
ENDBRANCH   7   9
ENDBRANCH   6   7
ENDBRANCH   5   6
ENDBRANCH   4   5
ENDBRANCH   3   4
ENDBRANCH   2   3
ENDBRANCH   1   2
BRANCH   1  32
ATOM     32  O   UNL     1      -4.079  -3.517   6.865  1.00  0.00    -0.376 OA
BRANCH  32  33
ATOM     33  C   UNL     1      -4.573  -3.759   8.180  1.00  0.00     0.202 C 
BRANCH  33  34
ATOM     34  C   UNL     1      -5.983  -3.273   8.545  1.00  0.00     0.261 C 
BRANCH  34  35
ATOM     35  O   UNL     1      -7.022  -3.745   7.672  1.00  0.00    -0.460 OA
BRANCH  35  36
ATOM     36  C   UNL     1      -7.642  -2.791   6.930  1.00  0.00     0.338 C 
ATOM     37  O   UNL     1      -7.431  -1.591   6.949  1.00  0.00    -0.246 OA
BRANCH  36  38
ATOM     38  C   UNL     1      -8.490  -3.445   5.911  1.00  0.00     0.060 A 
ATOM     39  C   UNL     1      -9.497  -4.342   6.271  1.00  0.00     0.016 A 
ATOM     40  C   UNL     1      -8.265  -3.135   4.563  1.00  0.00     0.016 A 
ATOM     41  C   UNL     1     -10.297  -4.911   5.274  1.00  0.00     0.010 A 
ATOM     42  C   UNL     1      -9.050  -3.719   3.568  1.00  0.00     0.010 A 
ATOM     43  C   UNL     1     -10.086  -4.596   3.919  1.00  0.00    -0.014 A 
BRANCH  43  44
ATOM     44  C   UNL     1     -11.049  -5.052   2.887  1.00  0.00     0.031 A 
ATOM     45  C   UNL     1     -10.776  -6.245   2.022  1.00  0.00     0.074 A 
ATOM     46  C   UNL     1     -12.192  -4.355   2.738  1.00  0.00     0.049 A 
ATOM     47  N   UNL     1     -11.561  -6.807   1.140  1.00  0.00    -0.248 NA
ATOM     48  C   UNL     1      -9.462  -6.890   2.160  1.00  0.00     0.031 C 
ATOM     49  C   UNL     1     -12.553  -3.171   3.520  1.00  0.00     0.029 A 
ATOM     50  N   UNL     1     -13.260  -4.541   1.897  1.00  0.00    -0.354 N 
ATOM     51  C   UNL     1     -10.856  -7.893   0.638  1.00  0.00     0.074 A 
ATOM     52  C   UNL     1      -9.556  -7.880   1.277  1.00  0.00     0.031 C 
ATOM     53  C   UNL     1     -13.772  -2.756   3.145  1.00  0.00     0.029 A 
ATOM     54  C   UNL     1     -14.268  -3.624   2.080  1.00  0.00     0.049 A 
ATOM     55  H   UNL     1     -13.300  -5.262   1.228  1.00  0.00     0.167 HD
ATOM     56  C   UNL     1     -11.271  -8.824  -0.254  1.00  0.00     0.031 A 
ATOM     57  C   UNL     1     -15.465  -3.499   1.472  1.00  0.00     0.031 A 
ATOM     58  C   UNL     1     -12.560  -8.809  -0.901  1.00  0.00     0.049 A 
ATOM     59  C   UNL     1     -15.873  -4.506   0.435  1.00  0.00     0.074 A 
ATOM     60  C   UNL     1     -13.075  -9.730  -1.798  1.00  0.00     0.029 A 
ATOM     61  N   UNL     1     -13.530  -7.832  -0.735  1.00  0.00    -0.354 N 
ATOM     62  N   UNL     1     -15.221  -5.567   0.024  1.00  0.00    -0.248 NA
ATOM     63  C   UNL     1     -17.178  -4.312  -0.211  1.00  0.00     0.031 C 
ATOM     64  C   UNL     1     -14.323  -9.274  -2.227  1.00  0.00     0.029 A 
ATOM     65  C   UNL     1     -14.624  -8.109  -1.540  1.00  0.00     0.049 A 
ATOM     66  H   UNL     1     -13.453  -7.056  -0.135  1.00  0.00     0.167 HD
ATOM     67  C   UNL     1     -16.047  -6.181  -0.911  1.00  0.00     0.074 A 
ATOM     68  C   UNL     1     -17.250  -5.379  -0.998  1.00  0.00     0.031 C 
ATOM     69  C   UNL     1     -15.822  -7.309  -1.627  1.00  0.00     0.031 A 
BRANCH  56  70
ATOM     70  C   UNL     1     -10.348  -9.970  -0.581  1.00  0.00    -0.014 A 
ATOM     71  C   UNL     1      -9.830 -10.112  -1.882  1.00  0.00     0.010 A 
ATOM     72  C   UNL     1     -10.124 -10.993   0.358  1.00  0.00     0.010 A 
ATOM     73  C   UNL     1      -9.140 -11.271  -2.250  1.00  0.00     0.020 A 
ATOM     74  C   UNL     1      -9.412 -12.142   0.002  1.00  0.00     0.020 A 
ATOM     75  C   UNL     1      -8.946 -12.285  -1.307  1.00  0.00     0.054 A 
BRANCH  75  76
ATOM     76  S   UNL     1      -8.088 -13.801  -1.813  1.00  0.00     0.124 S 
ATOM     77  O   UNL     1      -9.101 -14.476  -2.619  1.00  0.00    -0.237 OA
ATOM     78  O   UNL     1      -6.936 -13.284  -2.549  1.00  0.00    -0.237 OA
ATOM     79  O   UNL     1      -7.764 -14.450  -0.544  1.00  0.00    -0.744 OA
ENDBRANCH  75  76
ENDBRANCH  56  70
BRANCH  57  80
ATOM     80  C   UNL     1     -16.376  -2.401   1.896  1.00  0.00    -0.014 A 
ATOM     81  C   UNL     1     -16.045  -1.058   1.635  1.00  0.00     0.010 A 
ATOM     82  C   UNL     1     -17.529  -2.688   2.646  1.00  0.00     0.010 A 
ATOM     83  C   UNL     1     -16.817  -0.022   2.165  1.00  0.00     0.020 A 
ATOM     84  C   UNL     1     -18.322  -1.654   3.153  1.00  0.00     0.020 A 
ATOM     85  C   UNL     1     -17.943  -0.328   2.934  1.00  0.00     0.054 A 
BRANCH  85  86
ATOM     86  S   UNL     1     -18.897   1.033   3.661  1.00  0.00     0.124 S 
ATOM     87  O   UNL     1     -18.035   1.446   4.765  1.00  0.00    -0.237 OA
ATOM     88  O   UNL     1     -18.998   1.979   2.553  1.00  0.00    -0.237 OA
ATOM     89  O   UNL     1     -20.154   0.399   4.052  1.00  0.00    -0.744 OA
ENDBRANCH  85  86
ENDBRANCH  57  80
BRANCH  69  90
ATOM     90  C   UNL     1     -16.887  -7.775  -2.587  1.00  0.00    -0.014 A 
ATOM     91  C   UNL     1     -17.565  -8.984  -2.342  1.00  0.00     0.010 A 
ATOM     92  C   UNL     1     -17.105  -7.102  -3.802  1.00  0.00     0.010 A 
ATOM     93  C   UNL     1     -18.401  -9.539  -3.315  1.00  0.00     0.020 A 
ATOM     94  C   UNL     1     -17.964  -7.640  -4.766  1.00  0.00     0.020 A 
ATOM     95  C   UNL     1     -18.582  -8.871  -4.528  1.00  0.00     0.054 A 
BRANCH  95  96
ATOM     96  S   UNL     1     -19.617  -9.639  -5.804  1.00  0.00     0.124 S 
ATOM     97  O   UNL     1     -18.749 -10.700  -6.307  1.00  0.00    -0.237 OA
ATOM     98  O   UNL     1     -20.784 -10.086  -5.046  1.00  0.00    -0.237 OA
ATOM     99  O   UNL     1     -19.875  -8.547  -6.741  1.00  0.00    -0.744 OA
ENDBRANCH  95  96
ENDBRANCH  69  90
ENDBRANCH  43  44
ENDBRANCH  36  38
ENDBRANCH  35  36
ENDBRANCH  34  35
ENDBRANCH  33  34
ENDBRANCH  32  33
ENDBRANCH   1  32
TORSDOF 22
