REMARK SMILES O=C(OCCOCCOCCOC(=O)[C@@H]1CN(c2nccc(N3CCC(O)CC3)n2)CC[NH2+]1)c1ccc(-c2c3nc(c(-c4ccc(S(=O)(=O)[O-])cc4)c4ccc([nH]4)c(-c4ccc(S(=O)(=O)[O-])cc4)c4nc(c(-c5ccc(S(=O)(=O)[O-])cc5)c5ccc2[nH]5)C=C4)C=C3)cc1
REMARK SMILES IDX 7 1 6 2 5 3 4 4 3 5 2 6 1 7 34 8 35 9 93 10 36 11 92 12
REMARK SMILES IDX 37 13 38 14 39 15 86 16 40 17 91 18 85 19 87 20 41 21 90 22
REMARK SMILES IDX 84 23 83 24 42 26 72 27 53 28 71 29 54 30 57 31 70 32 88 33
REMARK SMILES IDX 55 34 56 35 69 37 89 38 58 39 43 40 44 41 52 42 45 43 51 44
REMARK SMILES IDX 46 45 47 46 48 47 49 48 50 49 73 50 74 51 82 52 75 53 81 54
REMARK SMILES IDX 76 55 77 56 78 57 79 58 80 59 59 60 60 61 68 62 61 63 67 64
REMARK SMILES IDX 62 65 63 66 64 67 65 68 66 69 8 70 9 71 10 72 11 73 12 74
REMARK SMILES IDX 13 75 14 76 15 77 16 78 33 79 17 80 32 81 31 84 18 85 19 86
REMARK SMILES IDX 30 87 20 88 22 89 21 90 23 91 24 92 29 93 25 94 28 95 26 96
REMARK SMILES IDX 27 97
REMARK H PARENT 87 25 57 36 33 82 33 83 27 98
REMARK Flexibility Score: inf
ROOT
ATOM      1  C   UNL     1       2.608  -1.878   0.780  1.00  0.00     0.188 C 
ENDROOT
BRANCH   1   2
ATOM      2  O   UNL     1       3.945  -1.614   0.331  1.00  0.00    -0.376 OA
BRANCH   2   3
ATOM      3  C   UNL     1       4.791  -1.057   1.340  1.00  0.00     0.202 C 
BRANCH   3   4
ATOM      4  C   UNL     1       4.650   0.456   1.550  1.00  0.00     0.261 C 
BRANCH   4   5
ATOM      5  O   UNL     1       3.306   0.919   1.368  1.00  0.00    -0.460 OA
BRANCH   5   6
ATOM      6  C   UNL     1       2.722   1.393   0.238  1.00  0.00     0.338 C 
ATOM      7  O   UNL     1       1.565   1.806   0.331  1.00  0.00    -0.246 OA
BRANCH   6   8
ATOM      8  C   UNL     1       3.386   1.464  -1.109  1.00  0.00     0.060 A 
ATOM      9  C   UNL     1       4.579   0.837  -1.483  1.00  0.00     0.016 A 
ATOM     10  C   UNL     1       2.725   2.226  -2.090  1.00  0.00     0.016 A 
ATOM     11  C   UNL     1       5.164   1.054  -2.731  1.00  0.00     0.010 A 
ATOM     12  C   UNL     1       3.277   2.407  -3.362  1.00  0.00     0.010 A 
ATOM     13  C   UNL     1       4.529   1.858  -3.669  1.00  0.00    -0.014 A 
BRANCH  13  14
ATOM     14  C   UNL     1       5.238   2.256  -4.902  1.00  0.00     0.031 A 
ATOM     15  C   UNL     1       5.769   3.654  -4.982  1.00  0.00     0.074 A 
ATOM     16  C   UNL     1       5.447   1.385  -5.905  1.00  0.00     0.049 A 
ATOM     17  N   UNL     1       6.355   4.253  -5.981  1.00  0.00    -0.248 NA
ATOM     18  C   UNL     1       5.668   4.469  -3.759  1.00  0.00     0.031 C 
ATOM     19  C   UNL     1       5.137  -0.040  -5.868  1.00  0.00     0.029 A 
ATOM     20  N   UNL     1       5.930   1.580  -7.173  1.00  0.00    -0.354 N 
ATOM     21  C   UNL     1       6.732   5.497  -5.496  1.00  0.00     0.074 A 
ATOM     22  C   UNL     1       6.249   5.596  -4.137  1.00  0.00     0.031 C 
ATOM     23  C   UNL     1       5.310  -0.566  -7.093  1.00  0.00     0.029 A 
ATOM     24  C   UNL     1       5.737   0.490  -7.993  1.00  0.00     0.049 A 
ATOM     25  H   UNL     1       6.368   2.411  -7.467  1.00  0.00     0.167 HD
ATOM     26  C   UNL     1       7.448   6.456  -6.124  1.00  0.00     0.031 A 
ATOM     27  C   UNL     1       5.840   0.382  -9.329  1.00  0.00     0.031 A 
ATOM     28  C   UNL     1       7.863   6.355  -7.494  1.00  0.00     0.049 A 
ATOM     29  C   UNL     1       6.386   1.556 -10.085  1.00  0.00     0.074 A 
ATOM     30  C   UNL     1       8.580   7.259  -8.253  1.00  0.00     0.029 A 
ATOM     31  N   UNL     1       7.561   5.280  -8.322  1.00  0.00    -0.354 N 
ATOM     32  N   UNL     1       6.759   2.723  -9.616  1.00  0.00    -0.248 NA
ATOM     33  C   UNL     1       6.575   1.387 -11.529  1.00  0.00     0.031 C 
ATOM     34  C   UNL     1       8.658   6.758  -9.558  1.00  0.00     0.029 A 
ATOM     35  C   UNL     1       8.039   5.516  -9.596  1.00  0.00     0.049 A 
ATOM     36  H   UNL     1       7.078   4.470  -8.041  1.00  0.00     0.167 HD
ATOM     37  C   UNL     1       7.297   3.406 -10.696  1.00  0.00     0.074 A 
ATOM     38  C   UNL     1       7.162   2.534 -11.849  1.00  0.00     0.031 C 
ATOM     39  C   UNL     1       7.887   4.626 -10.721  1.00  0.00     0.031 A 
BRANCH  26  40
ATOM     40  C   UNL     1       7.760   7.691  -5.327  1.00  0.00    -0.014 A 
ATOM     41  C   UNL     1       8.679   7.653  -4.261  1.00  0.00     0.010 A 
ATOM     42  C   UNL     1       7.071   8.885  -5.598  1.00  0.00     0.010 A 
ATOM     43  C   UNL     1       8.851   8.768  -3.437  1.00  0.00     0.020 A 
ATOM     44  C   UNL     1       7.259  10.010  -4.790  1.00  0.00     0.020 A 
ATOM     45  C   UNL     1       8.126   9.934  -3.697  1.00  0.00     0.054 A 
BRANCH  45  46
ATOM     46  S   UNL     1       8.322  11.350  -2.580  1.00  0.00     0.124 S 
ATOM     47  O   UNL     1       7.575  10.908  -1.404  1.00  0.00    -0.237 OA
ATOM     48  O   UNL     1       9.771  11.428  -2.410  1.00  0.00    -0.237 OA
ATOM     49  O   UNL     1       7.723  12.459  -3.318  1.00  0.00    -0.744 OA
ENDBRANCH  45  46
ENDBRANCH  26  40
BRANCH  27  50
ATOM     50  C   UNL     1       5.370  -0.842 -10.031  1.00  0.00    -0.014 A 
ATOM     51  C   UNL     1       6.272  -1.809 -10.501  1.00  0.00     0.010 A 
ATOM     52  C   UNL     1       3.991  -1.030 -10.251  1.00  0.00     0.010 A 
ATOM     53  C   UNL     1       5.807  -2.925 -11.209  1.00  0.00     0.020 A 
ATOM     54  C   UNL     1       3.522  -2.146 -10.952  1.00  0.00     0.020 A 
ATOM     55  C   UNL     1       4.436  -3.081 -11.441  1.00  0.00     0.054 A 
BRANCH  55  56
ATOM     56  S   UNL     1       3.867  -4.537 -12.365  1.00  0.00     0.124 S 
ATOM     57  O   UNL     1       4.375  -4.272 -13.708  1.00  0.00    -0.237 OA
ATOM     58  O   UNL     1       4.511  -5.635 -11.648  1.00  0.00    -0.237 OA
ATOM     59  O   UNL     1       2.414  -4.496 -12.223  1.00  0.00    -0.744 OA
ENDBRANCH  55  56
ENDBRANCH  27  50
BRANCH  39  60
ATOM     60  C   UNL     1       8.493   5.059 -12.022  1.00  0.00    -0.014 A 
ATOM     61  C   UNL     1       7.697   5.524 -13.081  1.00  0.00     0.010 A 
ATOM     62  C   UNL     1       9.894   5.069 -12.146  1.00  0.00     0.010 A 
ATOM     63  C   UNL     1       8.297   5.990 -14.251  1.00  0.00     0.020 A 
ATOM     64  C   UNL     1      10.497   5.558 -13.304  1.00  0.00     0.020 A 
ATOM     65  C   UNL     1       9.693   6.011 -14.352  1.00  0.00     0.054 A 
BRANCH  65  66
ATOM     66  S   UNL     1      10.451   6.706 -15.844  1.00  0.00     0.124 S 
ATOM     67  O   UNL     1      10.246   5.635 -16.815  1.00  0.00    -0.237 OA
ATOM     68  O   UNL     1       9.666   7.918 -16.067  1.00  0.00    -0.237 OA
ATOM     69  O   UNL     1      11.839   6.936 -15.451  1.00  0.00    -0.744 OA
ENDBRANCH  65  66
ENDBRANCH  39  60
ENDBRANCH  13  14
ENDBRANCH   6   8
ENDBRANCH   5   6
ENDBRANCH   4   5
ENDBRANCH   3   4
ENDBRANCH   2   3
ENDBRANCH   1   2
BRANCH   1  70
ATOM     70  C   UNL     1       2.042  -3.169   0.184  1.00  0.00     0.188 C 
BRANCH  70  71
ATOM     71  O   UNL     1       2.624  -4.399   0.625  1.00  0.00    -0.376 OA
BRANCH  71  72
ATOM     72  C   UNL     1       4.041  -4.523   0.553  1.00  0.00     0.202 C 
BRANCH  72  73
ATOM     73  C   UNL     1       4.687  -4.689  -0.831  1.00  0.00     0.261 C 
BRANCH  73  74
ATOM     74  O   UNL     1       4.126  -3.853  -1.847  1.00  0.00    -0.459 OA
BRANCH  74  75
ATOM     75  C   UNL     1       3.207  -4.473  -2.640  1.00  0.00     0.366 C 
ATOM     76  O   UNL     1       2.965  -5.676  -2.604  1.00  0.00    -0.245 OA
BRANCH  75  77
ATOM     77  C   UNL     1       2.459  -3.519  -3.563  1.00  0.00     0.313 C 
ATOM     78  C   UNL     1       2.651  -4.033  -4.993  1.00  0.00     0.197 C 
ATOM     79  N   UNL     1       2.836  -2.070  -3.425  1.00  0.00    -0.332 N 
ATOM     80  N   UNL     1       1.797  -3.235  -5.852  1.00  0.00    -0.328 N 
ATOM     81  C   UNL     1       2.053  -1.277  -4.413  1.00  0.00     0.283 C 
ATOM     82  H   UNL     1       3.833  -1.956  -3.606  1.00  0.00     0.347 HD
ATOM     83  H   UNL     1       2.633  -1.746  -2.479  1.00  0.00     0.347 HD
ATOM     84  C   UNL     1       2.050  -1.810  -5.871  1.00  0.00     0.181 C 
BRANCH  80  85
ATOM     85  C   UNL     1       1.519  -3.829  -7.055  1.00  0.00     0.227 A 
ATOM     86  N   UNL     1       2.521  -4.201  -7.852  1.00  0.00    -0.221 NA
ATOM     87  N   UNL     1       0.239  -4.164  -7.233  1.00  0.00    -0.196 NA
ATOM     88  C   UNL     1       2.174  -4.937  -8.920  1.00  0.00     0.119 A 
ATOM     89  C   UNL     1      -0.078  -4.953  -8.266  1.00  0.00     0.134 A 
ATOM     90  C   UNL     1       0.886  -5.347  -9.170  1.00  0.00     0.067 A 
BRANCH  89  91
ATOM     91  N   UNL     1      -1.400  -5.383  -8.367  1.00  0.00    -0.356 N 
ATOM     92  C   UNL     1      -1.623  -6.825  -8.412  1.00  0.00     0.121 C 
ATOM     93  C   UNL     1      -2.401  -4.577  -7.664  1.00  0.00     0.121 C 
ATOM     94  C   UNL     1      -1.833  -7.375  -6.998  1.00  0.00     0.053 C 
ATOM     95  C   UNL     1      -2.647  -5.099  -6.248  1.00  0.00     0.053 C 
ATOM     96  C   UNL     1      -2.912  -6.603  -6.239  1.00  0.00     0.118 C 
BRANCH  96  97
ATOM     97  O   UNL     1      -4.206  -6.892  -6.777  1.00  0.00    -0.393 OA
ATOM     98  H   UNL     1      -4.243  -6.603  -7.702  1.00  0.00     0.210 HD
ENDBRANCH  96  97
ENDBRANCH  89  91
ENDBRANCH  80  85
ENDBRANCH  75  77
ENDBRANCH  74  75
ENDBRANCH  73  74
ENDBRANCH  72  73
ENDBRANCH  71  72
ENDBRANCH  70  71
ENDBRANCH   1  70
TORSDOF 23
