REMARK SMILES C[C@H](CC(=O)OCCOCCOCCOC(=O)c1ccc(-c2c3nc(c(-c4ccc(S(=O)(=O)[O-])cc4)c4ccc([nH]4)c(-c4ccc(S(=O)(=O)[O-])cc4)c4nc(c(-c5ccc(S(=O)(=O)[O-])cc5)c5ccc2[nH]5)C=C4)C=C3)cc1)N1C(=O)S/C(=C\c2ccc(Cl)cc2)C1=O
REMARK SMILES IDX 10 1 9 2 8 3 7 4 6 5 4 6 5 7 3 8 2 9 1 10 78 11 79 12 91 13
REMARK SMILES IDX 80 14 81 15 82 16 92 17 83 18 84 19 85 20 90 21 86 22 89 23
REMARK SMILES IDX 87 24 88 25 11 26 12 27 13 28 14 29 15 30 16 31 17 32 18 33
REMARK SMILES IDX 19 34 77 35 20 36 76 37 21 38 22 39 23 40 70 41 24 42 75 43
REMARK SMILES IDX 69 44 71 45 25 46 74 47 68 48 67 49 26 51 56 52 37 53 55 54
REMARK SMILES IDX 38 55 41 56 54 57 72 58 39 59 40 60 53 62 73 63 42 64 27 65
REMARK SMILES IDX 28 66 36 67 29 68 35 69 30 70 31 71 32 72 33 73 34 74 57 75
REMARK SMILES IDX 58 76 66 77 59 78 65 79 60 80 61 81 62 82 63 83 64 84 43 85
REMARK SMILES IDX 44 86 52 87 45 88 51 89 46 90 47 91 48 92 49 93 50 94
REMARK H PARENT 71 50 41 61
REMARK Flexibility Score: inf
ROOT
ATOM      1  C   UNL     1       3.847   1.395  -1.848  1.00  0.00     0.188 C 
ENDROOT
BRANCH   1   2
ATOM      2  O   UNL     1       4.100   0.703  -3.059  1.00  0.00    -0.376 OA
BRANCH   2   3
ATOM      3  C   UNL     1       3.041   0.703  -4.009  1.00  0.00     0.202 C 
BRANCH   3   4
ATOM      4  C   UNL     1       1.762  -0.085  -3.666  1.00  0.00     0.261 C 
BRANCH   4   5
ATOM      5  O   UNL     1       1.151   0.182  -2.377  1.00  0.00    -0.463 OA
BRANCH   5   6
ATOM      6  C   UNL     1       1.176  -0.856  -1.503  1.00  0.00     0.307 C 
ATOM      7  O   UNL     1       1.681  -1.947  -1.760  1.00  0.00    -0.252 OA
BRANCH   6   8
ATOM      8  C   UNL     1       0.612  -0.601  -0.114  1.00  0.00     0.148 C 
BRANCH   8   9
ATOM      9  C   UNL     1      -0.078   0.704   0.359  1.00  0.00     0.102 C 
ATOM     10  C   UNL     1       0.729   1.927  -0.082  1.00  0.00     0.032 C 
BRANCH   9  11
ATOM     11  N   UNL     1      -1.542   0.868   0.170  1.00  0.00    -0.265 N 
ATOM     12  C   UNL     1      -2.421  -0.191   0.140  1.00  0.00     0.293 C 
ATOM     13  C   UNL     1      -2.148   2.069   0.507  1.00  0.00     0.268 C 
ATOM     14  O   UNL     1      -2.186  -1.378   0.249  1.00  0.00    -0.261 OA
ATOM     15  S   UNL     1      -4.083   0.376   0.044  1.00  0.00    -0.022 SA
ATOM     16  C   UNL     1      -3.624   1.980   0.405  1.00  0.00     0.083 C 
ATOM     17  O   UNL     1      -1.613   3.072   0.959  1.00  0.00    -0.268 OA
ATOM     18  C   UNL     1      -4.403   3.040   0.661  1.00  0.00     0.029 C 
BRANCH  18  19
ATOM     19  C   UNL     1      -5.860   2.995   0.766  1.00  0.00    -0.024 A 
ATOM     20  C   UNL     1      -6.667   3.593  -0.205  1.00  0.00     0.009 A 
ATOM     21  C   UNL     1      -6.450   2.347   1.859  1.00  0.00     0.009 A 
ATOM     22  C   UNL     1      -8.059   3.508  -0.101  1.00  0.00     0.021 A 
ATOM     23  C   UNL     1      -7.838   2.259   1.960  1.00  0.00     0.021 A 
ATOM     24  C   UNL     1      -8.636   2.833   0.975  1.00  0.00     0.041 A 
ATOM     25  Cl  UNL     1     -10.348   2.703   1.085  1.00  0.00    -0.084 Cl
ENDBRANCH  18  19
ENDBRANCH   9  11
ENDBRANCH   8   9
ENDBRANCH   6   8
ENDBRANCH   5   6
ENDBRANCH   4   5
ENDBRANCH   3   4
ENDBRANCH   2   3
ENDBRANCH   1   2
BRANCH   1  26
ATOM     26  C   UNL     1       3.524   2.888  -1.959  1.00  0.00     0.188 C 
BRANCH  26  27
ATOM     27  O   UNL     1       2.431   3.231  -2.804  1.00  0.00    -0.376 OA
BRANCH  27  28
ATOM     28  C   UNL     1       1.922   4.566  -2.667  1.00  0.00     0.202 C 
BRANCH  28  29
ATOM     29  C   UNL     1       2.939   5.710  -2.475  1.00  0.00     0.261 C 
BRANCH  29  30
ATOM     30  O   UNL     1       3.785   5.584  -1.310  1.00  0.00    -0.460 OA
BRANCH  30  31
ATOM     31  C   UNL     1       3.169   5.527  -0.102  1.00  0.00     0.338 C 
ATOM     32  O   UNL     1       1.993   5.764   0.112  1.00  0.00    -0.246 OA
BRANCH  31  33
ATOM     33  C   UNL     1       4.086   4.872   0.876  1.00  0.00     0.060 A 
ATOM     34  C   UNL     1       3.538   3.957   1.787  1.00  0.00     0.016 A 
ATOM     35  C   UNL     1       5.467   5.089   0.869  1.00  0.00     0.016 A 
ATOM     36  C   UNL     1       4.354   3.302   2.717  1.00  0.00     0.010 A 
ATOM     37  C   UNL     1       6.283   4.438   1.808  1.00  0.00     0.010 A 
ATOM     38  C   UNL     1       5.729   3.568   2.765  1.00  0.00    -0.014 A 
BRANCH  38  39
ATOM     39  C   UNL     1       6.544   3.080   3.915  1.00  0.00     0.031 A 
ATOM     40  C   UNL     1       6.890   4.046   5.023  1.00  0.00     0.074 A 
ATOM     41  C   UNL     1       6.951   1.799   4.015  1.00  0.00     0.049 A 
ATOM     42  N   UNL     1       7.581   3.845   6.117  1.00  0.00    -0.248 NA
ATOM     43  C   UNL     1       6.389   5.421   4.873  1.00  0.00     0.031 C 
ATOM     44  C   UNL     1       6.668   0.739   3.049  1.00  0.00     0.029 A 
ATOM     45  N   UNL     1       7.697   1.174   4.988  1.00  0.00    -0.354 N 
ATOM     46  C   UNL     1       7.606   5.068   6.780  1.00  0.00     0.074 A 
ATOM     47  C   UNL     1       6.890   6.011   5.947  1.00  0.00     0.031 C 
ATOM     48  C   UNL     1       7.235  -0.403   3.476  1.00  0.00     0.029 A 
ATOM     49  C   UNL     1       7.950  -0.153   4.729  1.00  0.00     0.049 A 
ATOM     50  H   UNL     1       8.021   1.635   5.796  1.00  0.00     0.167 HD
ATOM     51  C   UNL     1       8.166   5.384   7.973  1.00  0.00     0.031 A 
ATOM     52  C   UNL     1       8.685  -1.061   5.407  1.00  0.00     0.031 A 
ATOM     53  C   UNL     1       8.895   4.460   8.804  1.00  0.00     0.049 A 
ATOM     54  C   UNL     1       9.359  -0.671   6.700  1.00  0.00     0.074 A 
ATOM     55  C   UNL     1       9.473   4.691  10.042  1.00  0.00     0.029 A 
ATOM     56  N   UNL     1       9.162   3.139   8.483  1.00  0.00    -0.354 N 
ATOM     57  N   UNL     1       9.341   0.481   7.328  1.00  0.00    -0.248 NA
ATOM     58  C   UNL     1      10.143  -1.712   7.381  1.00  0.00     0.031 C 
ATOM     59  C   UNL     1      10.150   3.532  10.434  1.00  0.00     0.029 A 
ATOM     60  C   UNL     1       9.927   2.553   9.480  1.00  0.00     0.049 A 
ATOM     61  H   UNL     1       8.853   2.683   7.666  1.00  0.00     0.167 HD
ATOM     62  C   UNL     1      10.086   0.292   8.491  1.00  0.00     0.074 A 
ATOM     63  C   UNL     1      10.523  -1.088   8.487  1.00  0.00     0.031 C 
ATOM     64  C   UNL     1      10.377   1.183   9.473  1.00  0.00     0.031 A 
BRANCH  51  65
ATOM     65  C   UNL     1       8.050   6.816   8.436  1.00  0.00    -0.014 A 
ATOM     66  C   UNL     1       6.816   7.364   8.830  1.00  0.00     0.010 A 
ATOM     67  C   UNL     1       9.206   7.615   8.507  1.00  0.00     0.010 A 
ATOM     68  C   UNL     1       6.733   8.698   9.240  1.00  0.00     0.020 A 
ATOM     69  C   UNL     1       9.133   8.939   8.948  1.00  0.00     0.020 A 
ATOM     70  C   UNL     1       7.892   9.478   9.293  1.00  0.00     0.054 A 
BRANCH  70  71
ATOM     71  S   UNL     1       7.756  11.203   9.837  1.00  0.00     0.124 S 
ATOM     72  O   UNL     1       7.071  11.822   8.704  1.00  0.00    -0.237 OA
ATOM     73  O   UNL     1       6.969  11.091  11.062  1.00  0.00    -0.237 OA
ATOM     74  O   UNL     1       9.144  11.619  10.026  1.00  0.00    -0.744 OA
ENDBRANCH  70  71
ENDBRANCH  51  65
BRANCH  52  75
ATOM     75  C   UNL     1       8.842  -2.442   4.865  1.00  0.00    -0.014 A 
ATOM     76  C   UNL     1       8.268  -3.547   5.519  1.00  0.00     0.010 A 
ATOM     77  C   UNL     1       9.582  -2.658   3.687  1.00  0.00     0.010 A 
ATOM     78  C   UNL     1       8.435  -4.839   5.010  1.00  0.00     0.020 A 
ATOM     79  C   UNL     1       9.724  -3.944   3.158  1.00  0.00     0.020 A 
ATOM     80  C   UNL     1       9.155  -5.029   3.827  1.00  0.00     0.054 A 
BRANCH  80  81
ATOM     81  S   UNL     1       9.297  -6.705   3.148  1.00  0.00     0.124 S 
ATOM     82  O   UNL     1      10.204  -7.343   4.096  1.00  0.00    -0.237 OA
ATOM     83  O   UNL     1       7.914  -7.174   3.180  1.00  0.00    -0.237 OA
ATOM     84  O   UNL     1       9.842  -6.487   1.810  1.00  0.00    -0.744 OA
ENDBRANCH  80  81
ENDBRANCH  52  75
BRANCH  64  85
ATOM     85  C   UNL     1      11.180   0.689  10.654  1.00  0.00    -0.014 A 
ATOM     86  C   UNL     1      12.533   0.324  10.527  1.00  0.00     0.010 A 
ATOM     87  C   UNL     1      10.575   0.614  11.923  1.00  0.00     0.010 A 
ATOM     88  C   UNL     1      13.247  -0.155  11.631  1.00  0.00     0.020 A 
ATOM     89  C   UNL     1      11.294   0.168  13.036  1.00  0.00     0.020 A 
ATOM     90  C   UNL     1      12.620  -0.235  12.879  1.00  0.00     0.054 A 
BRANCH  90  91
ATOM     91  S   UNL     1      13.569  -0.855  14.296  1.00  0.00     0.124 S 
ATOM     92  O   UNL     1      13.675  -2.279  13.992  1.00  0.00    -0.237 OA
ATOM     93  O   UNL     1      14.814  -0.097  14.205  1.00  0.00    -0.237 OA
ATOM     94  O   UNL     1      12.729  -0.525  15.446  1.00  0.00    -0.744 OA
ENDBRANCH  90  91
ENDBRANCH  64  85
ENDBRANCH  38  39
ENDBRANCH  31  33
ENDBRANCH  30  31
ENDBRANCH  29  30
ENDBRANCH  28  29
ENDBRANCH  27  28
ENDBRANCH  26  27
ENDBRANCH   1  26
TORSDOF 23
