REMARK SMILES CC(C)[NH2+][C@]1(C(=O)OCCOCCOCCOC(=O)c2ccc(-c3c4nc(c(-c5ccc(S(=O)(=O)[O-])cc5)c5ccc([nH]5)c(-c5ccc(S(=O)(=O)[O-])cc5)c5nc(c(-c6ccc(S(=O)(=O)[O-])cc6)c6ccc3[nH]6)C=C5)C=C4)cc2)CC[C@H](Oc2cccc(CO)c2)C1
REMARK SMILES IDX 12 1 11 2 10 3 9 4 8 5 6 6 7 7 5 8 80 9 92 10 81 11 82 12
REMARK SMILES IDX 4 13 2 16 1 17 3 18 83 19 84 20 85 21 91 22 86 23 88 24
REMARK SMILES IDX 87 25 89 26 90 27 13 29 14 30 15 31 16 32 17 33 18 34 19 35
REMARK SMILES IDX 20 36 21 37 79 38 22 39 78 40 23 41 24 42 25 43 72 44 26 45
REMARK SMILES IDX 77 46 71 47 73 48 27 49 76 50 70 51 69 52 28 54 58 55 39 56
REMARK SMILES IDX 57 57 40 58 43 59 56 60 74 61 41 62 42 63 55 65 75 66 44 67
REMARK SMILES IDX 29 68 30 69 38 70 31 71 37 72 32 73 33 74 34 75 35 76 36 77
REMARK SMILES IDX 59 78 60 79 68 80 61 81 67 82 62 83 63 84 64 85 65 86 66 87
REMARK SMILES IDX 45 88 46 89 54 90 47 91 53 92 48 93 49 94 50 95 51 96 52 97
REMARK H PARENT 4 14 4 15 90 28 73 53 43 64
REMARK Flexibility Score: inf
ROOT
ATOM      1  C   UNL     1      -0.571  -0.661  -0.483  1.00  0.00     0.188 C 
ENDROOT
BRANCH   1   2
ATOM      2  O   UNL     1       0.776  -0.624  -0.932  1.00  0.00    -0.376 OA
BRANCH   2   3
ATOM      3  C   UNL     1       1.780  -0.365   0.038  1.00  0.00     0.202 C 
BRANCH   3   4
ATOM      4  C   UNL     1       1.890   1.060   0.597  1.00  0.00     0.261 C 
BRANCH   4   5
ATOM      5  O   UNL     1       0.679   1.670   1.072  1.00  0.00    -0.459 OA
BRANCH   5   6
ATOM      6  C   UNL     1       0.016   2.406   0.138  1.00  0.00     0.368 C 
ATOM      7  O   UNL     1       0.338   2.436  -1.048  1.00  0.00    -0.245 OA
BRANCH   6   8
ATOM      8  C   UNL     1      -1.095   3.316   0.695  1.00  0.00     0.198 C 
ATOM      9  C   UNL     1      -0.405   4.700   0.682  1.00  0.00     0.085 C 
ATOM     10  C   UNL     1      -2.254   3.530  -0.309  1.00  0.00     0.126 C 
ATOM     11  C   UNL     1      -1.521   5.706   0.558  1.00  0.00     0.052 C 
ATOM     12  C   UNL     1      -2.588   5.034  -0.314  1.00  0.00     0.180 C 
BRANCH   8  13
ATOM     13  N   UNL     1      -1.576   3.096   2.085  1.00  0.00    -0.330 N 
ATOM     14  H   UNL     1      -0.818   3.381   2.705  1.00  0.00     0.347 HD
ATOM     15  H   UNL     1      -2.443   3.633   2.115  1.00  0.00     0.347 HD
BRANCH  13  16
ATOM     16  C   UNL     1      -2.000   1.763   2.525  1.00  0.00     0.176 C 
ATOM     17  C   UNL     1      -2.183   1.852   4.049  1.00  0.00     0.075 C 
ATOM     18  C   UNL     1      -3.305   1.254   1.914  1.00  0.00     0.075 C 
ENDBRANCH  13  16
ENDBRANCH   8  13
BRANCH  12  19
ATOM     19  O   UNL     1      -3.909   5.219   0.216  1.00  0.00    -0.490 OA
BRANCH  19  20
ATOM     20  C   UNL     1      -4.340   6.509   0.388  1.00  0.00     0.120 A 
ATOM     21  C   UNL     1      -3.780   7.636  -0.214  1.00  0.00     0.046 A 
ATOM     22  C   UNL     1      -5.402   6.666   1.282  1.00  0.00     0.052 A 
ATOM     23  C   UNL     1      -4.201   8.913   0.154  1.00  0.00     0.004 A 
ATOM     24  C   UNL     1      -5.861   7.945   1.631  1.00  0.00    -0.019 A 
ATOM     25  C   UNL     1      -5.227   9.068   1.083  1.00  0.00     0.006 A 
BRANCH  24  26
ATOM     26  C   UNL     1      -6.998   8.122   2.599  1.00  0.00     0.191 C 
BRANCH  26  27
ATOM     27  O   UNL     1      -6.521   8.626   3.840  1.00  0.00    -0.392 OA
ATOM     28  H   UNL     1      -5.886   8.000   4.221  1.00  0.00     0.211 HD
ENDBRANCH  26  27
ENDBRANCH  24  26
ENDBRANCH  19  20
ENDBRANCH  12  19
ENDBRANCH   6   8
ENDBRANCH   5   6
ENDBRANCH   4   5
ENDBRANCH   3   4
ENDBRANCH   2   3
ENDBRANCH   1   2
BRANCH   1  29
ATOM     29  C   UNL     1      -0.895  -1.647   0.631  1.00  0.00     0.188 C 
BRANCH  29  30
ATOM     30  O   UNL     1      -0.166  -1.453   1.840  1.00  0.00    -0.376 OA
BRANCH  30  31
ATOM     31  C   UNL     1      -0.677  -2.169   2.970  1.00  0.00     0.202 C 
BRANCH  31  32
ATOM     32  C   UNL     1      -0.881  -3.685   2.774  1.00  0.00     0.261 C 
BRANCH  32  33
ATOM     33  O   UNL     1      -1.848  -4.044   1.762  1.00  0.00    -0.460 OA
BRANCH  33  34
ATOM     34  C   UNL     1      -3.100  -3.538   1.877  1.00  0.00     0.338 C 
ATOM     35  O   UNL     1      -3.565  -2.982   2.858  1.00  0.00    -0.246 OA
BRANCH  34  36
ATOM     36  C   UNL     1      -3.723  -3.514   0.523  1.00  0.00     0.060 A 
ATOM     37  C   UNL     1      -4.504  -2.404   0.167  1.00  0.00     0.016 A 
ATOM     38  C   UNL     1      -3.476  -4.516  -0.422  1.00  0.00     0.016 A 
ATOM     39  C   UNL     1      -5.061  -2.310  -1.113  1.00  0.00     0.010 A 
ATOM     40  C   UNL     1      -4.044  -4.426  -1.699  1.00  0.00     0.010 A 
ATOM     41  C   UNL     1      -4.861  -3.336  -2.046  1.00  0.00    -0.014 A 
BRANCH  41  42
ATOM     42  C   UNL     1      -5.633  -3.361  -3.317  1.00  0.00     0.031 A 
ATOM     43  C   UNL     1      -6.875  -4.211  -3.387  1.00  0.00     0.074 A 
ATOM     44  C   UNL     1      -5.254  -2.648  -4.395  1.00  0.00     0.049 A 
ATOM     45  N   UNL     1      -7.675  -4.429  -4.398  1.00  0.00    -0.248 NA
ATOM     46  C   UNL     1      -7.264  -4.905  -2.148  1.00  0.00     0.031 C 
ATOM     47  C   UNL     1      -4.102  -1.751  -4.460  1.00  0.00     0.029 A 
ATOM     48  N   UNL     1      -5.805  -2.579  -5.654  1.00  0.00    -0.354 N 
ATOM     49  C   UNL     1      -8.658  -5.290  -3.922  1.00  0.00     0.074 A 
ATOM     50  C   UNL     1      -8.339  -5.573  -2.539  1.00  0.00     0.031 C 
ATOM     51  C   UNL     1      -4.026  -1.229  -5.698  1.00  0.00     0.029 A 
ATOM     52  C   UNL     1      -5.101  -1.781  -6.524  1.00  0.00     0.049 A 
ATOM     53  H   UNL     1      -6.627  -3.057  -5.907  1.00  0.00     0.167 HD
ATOM     54  C   UNL     1      -9.731  -5.799  -4.572  1.00  0.00     0.031 A 
ATOM     55  C   UNL     1      -5.284  -1.542  -7.840  1.00  0.00     0.031 A 
ATOM     56  C   UNL     1     -10.046  -5.539  -5.951  1.00  0.00     0.049 A 
ATOM     57  C   UNL     1      -6.436  -2.193  -8.567  1.00  0.00     0.074 A 
ATOM     58  C   UNL     1     -11.124  -6.001  -6.686  1.00  0.00     0.029 A 
ATOM     59  N   UNL     1      -9.283  -4.761  -6.807  1.00  0.00    -0.354 N 
ATOM     60  N   UNL     1      -7.373  -2.979  -8.094  1.00  0.00    -0.248 NA
ATOM     61  C   UNL     1      -6.554  -1.920 -10.008  1.00  0.00     0.031 C 
ATOM     62  C   UNL     1     -10.979  -5.554  -8.004  1.00  0.00     0.029 A 
ATOM     63  C   UNL     1      -9.847  -4.760  -8.072  1.00  0.00     0.049 A 
ATOM     64  H   UNL     1      -8.462  -4.281  -6.554  1.00  0.00     0.167 HD
ATOM     65  C   UNL     1      -8.202  -3.275  -9.174  1.00  0.00     0.074 A 
ATOM     66  C   UNL     1      -7.668  -2.570 -10.319  1.00  0.00     0.031 C 
ATOM     67  C   UNL     1      -9.308  -4.059  -9.211  1.00  0.00     0.031 A 
BRANCH  54  68
ATOM     68  C   UNL     1     -10.630  -6.728  -3.802  1.00  0.00    -0.014 A 
ATOM     69  C   UNL     1     -11.488  -6.247  -2.797  1.00  0.00     0.010 A 
ATOM     70  C   UNL     1     -10.647  -8.098  -4.122  1.00  0.00     0.010 A 
ATOM     71  C   UNL     1     -12.323  -7.125  -2.102  1.00  0.00     0.020 A 
ATOM     72  C   UNL     1     -11.500  -8.975  -3.447  1.00  0.00     0.020 A 
ATOM     73  C   UNL     1     -12.322  -8.485  -2.431  1.00  0.00     0.054 A 
BRANCH  73  74
ATOM     74  S   UNL     1     -13.435  -9.597  -1.530  1.00  0.00     0.124 S 
ATOM     75  O   UNL     1     -12.791  -9.670  -0.220  1.00  0.00    -0.237 OA
ATOM     76  O   UNL     1     -14.705  -8.877  -1.565  1.00  0.00    -0.237 OA
ATOM     77  O   UNL     1     -13.399 -10.832  -2.310  1.00  0.00    -0.744 OA
ENDBRANCH  73  74
ENDBRANCH  54  68
BRANCH  55  78
ATOM     78  C   UNL     1      -4.330  -0.667  -8.582  1.00  0.00    -0.014 A 
ATOM     79  C   UNL     1      -4.738   0.580  -9.086  1.00  0.00     0.010 A 
ATOM     80  C   UNL     1      -3.010  -1.097  -8.812  1.00  0.00     0.010 A 
ATOM     81  C   UNL     1      -3.850   1.373  -9.822  1.00  0.00     0.020 A 
ATOM     82  C   UNL     1      -2.111  -0.295  -9.521  1.00  0.00     0.020 A 
ATOM     83  C   UNL     1      -2.541   0.930 -10.033  1.00  0.00     0.054 A 
BRANCH  83  84
ATOM     84  S   UNL     1      -1.393   1.994 -10.953  1.00  0.00     0.124 S 
ATOM     85  O   UNL     1      -1.881   1.857 -12.321  1.00  0.00    -0.237 OA
ATOM     86  O   UNL     1      -1.608   3.300 -10.332  1.00  0.00    -0.237 OA
ATOM     87  O   UNL     1      -0.086   1.395 -10.690  1.00  0.00    -0.744 OA
ENDBRANCH  83  84
ENDBRANCH  55  78
BRANCH  67  88
ATOM     88  C   UNL     1     -10.040  -4.183 -10.524  1.00  0.00    -0.014 A 
ATOM     89  C   UNL     1      -9.502  -4.920 -11.594  1.00  0.00     0.010 A 
ATOM     90  C   UNL     1     -11.316  -3.605 -10.667  1.00  0.00     0.010 A 
ATOM     91  C   UNL     1     -10.213  -5.050 -12.792  1.00  0.00     0.020 A 
ATOM     92  C   UNL     1     -12.041  -3.757 -11.852  1.00  0.00     0.020 A 
ATOM     93  C   UNL     1     -11.478  -4.468 -12.914  1.00  0.00     0.054 A 
BRANCH  93  94
ATOM     94  S   UNL     1     -12.398  -4.689 -14.462  1.00  0.00     0.124 S 
ATOM     95  O   UNL     1     -11.675  -3.806 -15.374  1.00  0.00    -0.237 OA
ATOM     96  O   UNL     1     -12.250  -6.119 -14.723  1.00  0.00    -0.237 OA
ATOM     97  O   UNL     1     -13.754  -4.260 -14.125  1.00  0.00    -0.744 OA
ENDBRANCH  93  94
ENDBRANCH  67  88
ENDBRANCH  41  42
ENDBRANCH  34  36
ENDBRANCH  33  34
ENDBRANCH  32  33
ENDBRANCH  31  32
ENDBRANCH  30  31
ENDBRANCH  29  30
ENDBRANCH   1  29
TORSDOF 26
