REMARK SMILES O=C(Cn1ncc2ccccc2c1=O)N[C@@H]1C[NH2+][C@H](C(=O)OCCOCCOCCOC(=O)c2ccc(-c3c4nc(c(-c5ccc(S(=O)(=O)[O-])cc5)c5ccc([nH]5)c(-c5ccc(S(=O)(=O)[O-])cc5)c5nc(c(-c6ccc(S(=O)(=O)[O-])cc6)c6ccc3[nH]6)C=C5)C=C4)cc2)C1
REMARK SMILES IDX 26 1 25 2 24 3 23 4 22 5 20 6 21 7 19 8 16 9 17 10 94 11
REMARK SMILES IDX 18 12 15 15 1 16 2 17 3 19 4 20 5 21 13 22 6 23 12 24 14 25
REMARK SMILES IDX 7 26 11 27 8 28 10 29 9 30 27 31 28 32 29 33 30 34 31 35
REMARK SMILES IDX 32 36 33 37 34 38 35 39 93 40 36 41 92 42 37 43 38 44 39 45
REMARK SMILES IDX 86 46 40 47 91 48 85 49 87 50 41 51 90 52 84 53 83 54 42 56
REMARK SMILES IDX 72 57 53 58 71 59 54 60 57 61 70 62 88 63 55 64 56 65 69 67
REMARK SMILES IDX 89 68 58 69 43 70 44 71 52 72 45 73 51 74 46 75 47 76 48 77
REMARK SMILES IDX 49 78 50 79 73 80 74 81 82 82 75 83 81 84 76 85 77 86 78 87
REMARK SMILES IDX 79 88 80 89 59 90 60 91 68 92 61 93 67 94 62 95 63 96 64 97
REMARK SMILES IDX 65 98 66 99
REMARK H PARENT 18 13 18 14 15 18 87 55 57 66
REMARK Flexibility Score: inf
ROOT
ATOM      1  C   UNL     1       5.992   3.544  -3.732  1.00  0.00     0.188 C 
ENDROOT
BRANCH   1   2
ATOM      2  O   UNL     1       6.668   4.698  -4.174  1.00  0.00    -0.376 OA
BRANCH   2   3
ATOM      3  C   UNL     1       5.920   5.894  -4.337  1.00  0.00     0.202 C 
BRANCH   3   4
ATOM      4  C   UNL     1       4.402   5.903  -4.599  1.00  0.00     0.261 C 
BRANCH   4   5
ATOM      5  O   UNL     1       3.589   5.026  -3.783  1.00  0.00    -0.459 OA
BRANCH   5   6
ATOM      6  C   UNL     1       2.636   4.337  -4.469  1.00  0.00     0.365 C 
ATOM      7  O   UNL     1       2.422   4.510  -5.669  1.00  0.00    -0.245 OA
BRANCH   6   8
ATOM      8  C   UNL     1       1.831   3.281  -3.667  1.00  0.00     0.295 C 
ATOM      9  C   UNL     1       1.819   1.569  -1.949  1.00  0.00     0.143 C 
ATOM     10  C   UNL     1       2.492   1.029  -3.205  1.00  0.00     0.286 C 
ATOM     11  C   UNL     1       1.898   3.092  -2.143  1.00  0.00     0.108 C 
ATOM     12  N   UNL     1       2.104   1.946  -4.275  1.00  0.00    -0.333 N 
ATOM     13  H   UNL     1       1.265   1.600  -4.740  1.00  0.00     0.347 HD
ATOM     14  H   UNL     1       2.852   2.019  -4.965  1.00  0.00     0.347 HD
BRANCH   9  15
ATOM     15  N   UNL     1       2.391   1.038  -0.711  1.00  0.00    -0.346 N 
ATOM     16  O   UNL     1       0.535  -0.196  -0.171  1.00  0.00    -0.273 OA
ATOM     17  C   UNL     1       1.681   0.162   0.103  1.00  0.00     0.242 C 
ATOM     18  H   UNL     1       3.301   1.307  -0.449  1.00  0.00     0.164 HD
BRANCH  17  19
ATOM     19  C   UNL     1       2.423  -0.374   1.344  1.00  0.00     0.248 C 
BRANCH  19  20
ATOM     20  N   UNL     1       3.084  -1.641   1.057  1.00  0.00    -0.220 N 
ATOM     21  N   UNL     1       2.466  -2.806   1.474  1.00  0.00    -0.177 NA
ATOM     22  C   UNL     1       4.307  -1.607   0.399  1.00  0.00     0.275 A 
ATOM     23  C   UNL     1       2.950  -3.937   1.058  1.00  0.00     0.142 A 
ATOM     24  C   UNL     1       4.794  -2.898  -0.112  1.00  0.00     0.050 A 
ATOM     25  O   UNL     1       4.899  -0.562   0.138  1.00  0.00    -0.267 OA
ATOM     26  C   UNL     1       4.074  -4.051   0.141  1.00  0.00     0.007 A 
ATOM     27  C   UNL     1       5.850  -2.941  -1.005  1.00  0.00     0.014 A 
ATOM     28  C   UNL     1       4.356  -5.246  -0.526  1.00  0.00     0.010 A 
ATOM     29  C   UNL     1       6.044  -4.083  -1.771  1.00  0.00     0.001 A 
ATOM     30  C   UNL     1       5.318  -5.242  -1.529  1.00  0.00     0.001 A 
ENDBRANCH  19  20
ENDBRANCH  17  19
ENDBRANCH   9  15
ENDBRANCH   6   8
ENDBRANCH   5   6
ENDBRANCH   4   5
ENDBRANCH   3   4
ENDBRANCH   2   3
ENDBRANCH   1   2
BRANCH   1  31
ATOM     31  C   UNL     1       5.463   3.530  -2.292  1.00  0.00     0.188 C 
BRANCH  31  32
ATOM     32  O   UNL     1       5.357   4.705  -1.516  1.00  0.00    -0.376 OA
BRANCH  32  33
ATOM     33  C   UNL     1       6.547   5.329  -1.051  1.00  0.00     0.202 C 
BRANCH  33  34
ATOM     34  C   UNL     1       7.741   4.538  -0.488  1.00  0.00     0.261 C 
BRANCH  34  35
ATOM     35  O   UNL     1       8.118   3.368  -1.224  1.00  0.00    -0.460 OA
BRANCH  35  36
ATOM     36  C   UNL     1       7.876   2.188  -0.592  1.00  0.00     0.338 C 
ATOM     37  O   UNL     1       7.408   2.034   0.525  1.00  0.00    -0.246 OA
BRANCH  36  38
ATOM     38  C   UNL     1       8.053   1.101  -1.574  1.00  0.00     0.060 A 
ATOM     39  C   UNL     1       9.322   0.726  -2.003  1.00  0.00     0.016 A 
ATOM     40  C   UNL     1       6.924   0.448  -2.073  1.00  0.00     0.016 A 
ATOM     41  C   UNL     1       9.458  -0.337  -2.909  1.00  0.00     0.010 A 
ATOM     42  C   UNL     1       7.061  -0.578  -3.003  1.00  0.00     0.010 A 
ATOM     43  C   UNL     1       8.331  -1.027  -3.390  1.00  0.00    -0.014 A 
BRANCH  43  44
ATOM     44  C   UNL     1       8.431  -2.312  -4.144  1.00  0.00     0.031 A 
ATOM     45  C   UNL     1       7.709  -2.497  -5.459  1.00  0.00     0.074 A 
ATOM     46  C   UNL     1       8.943  -3.398  -3.517  1.00  0.00     0.049 A 
ATOM     47  N   UNL     1       7.541  -3.596  -6.152  1.00  0.00    -0.248 NA
ATOM     48  C   UNL     1       7.061  -1.314  -6.053  1.00  0.00     0.031 C 
ATOM     49  C   UNL     1       9.471  -3.417  -2.146  1.00  0.00     0.029 A 
ATOM     50  N   UNL     1       8.935  -4.731  -3.878  1.00  0.00    -0.354 N 
ATOM     51  C   UNL     1       6.839  -3.222  -7.292  1.00  0.00     0.074 A 
ATOM     52  C   UNL     1       6.486  -1.830  -7.132  1.00  0.00     0.031 C 
ATOM     53  C   UNL     1       9.622  -4.690  -1.747  1.00  0.00     0.029 A 
ATOM     54  C   UNL     1       9.226  -5.583  -2.832  1.00  0.00     0.049 A 
ATOM     55  H   UNL     1       8.740  -5.043  -4.791  1.00  0.00     0.167 HD
ATOM     56  C   UNL     1       6.592  -3.948  -8.409  1.00  0.00     0.031 A 
ATOM     57  C   UNL     1       9.149  -6.926  -2.724  1.00  0.00     0.031 A 
ATOM     58  C   UNL     1       6.951  -5.335  -8.559  1.00  0.00     0.049 A 
ATOM     59  C   UNL     1       8.815  -7.748  -3.936  1.00  0.00     0.074 A 
ATOM     60  C   UNL     1       6.923  -6.108  -9.708  1.00  0.00     0.029 A 
ATOM     61  N   UNL     1       7.384  -6.159  -7.535  1.00  0.00    -0.354 N 
ATOM     62  N   UNL     1       8.379  -7.341  -5.102  1.00  0.00    -0.248 NA
ATOM     63  C   UNL     1       9.030  -9.200  -3.847  1.00  0.00     0.031 C 
ATOM     64  C   UNL     1       7.268  -7.415  -9.364  1.00  0.00     0.029 A 
ATOM     65  C   UNL     1       7.597  -7.438  -8.018  1.00  0.00     0.049 A 
ATOM     66  H   UNL     1       7.520  -5.877  -6.602  1.00  0.00     0.167 HD
ATOM     67  C   UNL     1       8.362  -8.472  -5.913  1.00  0.00     0.074 A 
ATOM     68  C   UNL     1       8.787  -9.586  -5.095  1.00  0.00     0.031 C 
ATOM     69  C   UNL     1       8.055  -8.554  -7.229  1.00  0.00     0.031 A 
BRANCH  56  70
ATOM     70  C   UNL     1       6.045  -3.242  -9.628  1.00  0.00    -0.014 A 
ATOM     71  C   UNL     1       4.864  -3.683 -10.255  1.00  0.00     0.010 A 
ATOM     72  C   UNL     1       6.835  -2.272 -10.274  1.00  0.00     0.010 A 
ATOM     73  C   UNL     1       4.516  -3.208 -11.524  1.00  0.00     0.020 A 
ATOM     74  C   UNL     1       6.474  -1.770 -11.525  1.00  0.00     0.020 A 
ATOM     75  C   UNL     1       5.334  -2.267 -12.158  1.00  0.00     0.054 A 
BRANCH  75  76
ATOM     76  S   UNL     1       4.924  -1.731 -13.842  1.00  0.00     0.124 S 
ATOM     77  O   UNL     1       5.221  -2.925 -14.627  1.00  0.00    -0.237 OA
ATOM     78  O   UNL     1       3.509  -1.384 -13.729  1.00  0.00    -0.237 OA
ATOM     79  O   UNL     1       5.818  -0.598 -14.069  1.00  0.00    -0.744 OA
ENDBRANCH  75  76
ENDBRANCH  56  70
BRANCH  57  80
ATOM     80  C   UNL     1       9.489  -7.580  -1.431  1.00  0.00    -0.014 A 
ATOM     81  C   UNL     1       8.591  -7.560  -0.348  1.00  0.00     0.010 A 
ATOM     82  C   UNL     1      10.749  -8.180  -1.262  1.00  0.00     0.010 A 
ATOM     83  C   UNL     1       8.957  -8.109   0.886  1.00  0.00     0.020 A 
ATOM     84  C   UNL     1      11.110  -8.749  -0.039  1.00  0.00     0.020 A 
ATOM     85  C   UNL     1      10.219  -8.691   1.034  1.00  0.00     0.054 A 
BRANCH  85  86
ATOM     86  S   UNL     1      10.692  -9.352   2.657  1.00  0.00     0.124 S 
ATOM     87  O   UNL     1      10.814  -8.133   3.452  1.00  0.00    -0.237 OA
ATOM     88  O   UNL     1       9.559 -10.211   2.989  1.00  0.00    -0.237 OA
ATOM     89  O   UNL     1      11.946 -10.052   2.391  1.00  0.00    -0.744 OA
ENDBRANCH  85  86
ENDBRANCH  57  80
BRANCH  69  90
ATOM     90  C   UNL     1       8.230  -9.868  -7.944  1.00  0.00    -0.014 A 
ATOM     91  C   UNL     1       9.197  -9.962  -8.965  1.00  0.00     0.010 A 
ATOM     92  C   UNL     1       7.343 -10.939  -7.744  1.00  0.00     0.010 A 
ATOM     93  C   UNL     1       9.229 -11.067  -9.818  1.00  0.00     0.020 A 
ATOM     94  C   UNL     1       7.395 -12.064  -8.574  1.00  0.00     0.020 A 
ATOM     95  C   UNL     1       8.312 -12.103  -9.629  1.00  0.00     0.054 A 
BRANCH  95  96
ATOM     96  S   UNL     1       8.305 -13.482 -10.806  1.00  0.00     0.124 S 
ATOM     97  O   UNL     1       7.725 -12.867 -11.996  1.00  0.00    -0.237 OA
ATOM     98  O   UNL     1       9.722 -13.828 -10.903  1.00  0.00    -0.237 OA
ATOM     99  O   UNL     1       7.470 -14.488 -10.153  1.00  0.00    -0.744 OA
ENDBRANCH  95  96
ENDBRANCH  69  90
ENDBRANCH  43  44
ENDBRANCH  36  38
ENDBRANCH  35  36
ENDBRANCH  34  35
ENDBRANCH  33  34
ENDBRANCH  32  33
ENDBRANCH  31  32
ENDBRANCH   1  31
TORSDOF 23
