REMARK SMILES COc1ccc2c(c1)C(=O)N(c1ccccc1C(=O)OCCOCCOCCOC(=O)c1ccc(-c3c4nc(c(-c5ccc(S(=O)(=O)[O-])cc5)c5ccc([nH]5)c(-c5ccc(S(=O)(=O)[O-])cc5)c5nc(c(-c6ccc(S(=O)(=O)[O-])cc6)c6ccc3[nH]6)C=C5)C=C4)cc1)C2=O
REMARK SMILES IDX 25 1 24 2 23 3 22 4 21 5 20 6 18 7 19 8 17 9 12 10 13 11
REMARK SMILES IDX 14 12 16 13 15 14 11 15 3 16 4 17 8 18 5 19 7 20 6 21 9 22
REMARK SMILES IDX 92 23 10 24 93 25 2 26 1 27 26 28 27 29 28 30 29 31 30 32
REMARK SMILES IDX 31 33 32 34 33 35 91 36 34 37 90 38 35 39 36 40 37 41 84 42
REMARK SMILES IDX 38 43 89 44 83 45 85 46 39 47 88 48 82 49 81 50 40 52 70 53
REMARK SMILES IDX 51 54 69 55 52 56 55 57 68 58 86 59 53 60 54 61 67 63 87 64
REMARK SMILES IDX 56 65 41 66 42 67 50 68 43 69 49 70 44 71 45 72 46 73 47 74
REMARK SMILES IDX 48 75 71 76 72 77 80 78 73 79 79 80 74 81 75 82 76 83 77 84
REMARK SMILES IDX 78 85 57 86 58 87 66 88 59 89 65 90 60 91 61 92 62 93 63 94
REMARK SMILES IDX 64 95
REMARK H PARENT 85 51 55 62
REMARK Flexibility Score: inf
ROOT
ATOM      1  C   UNL     1       4.727  -1.185   7.592  1.00  0.00     0.188 C 
ENDROOT
BRANCH   1   2
ATOM      2  C   UNL     1       6.254  -0.966   7.598  1.00  0.00     0.188 C 
BRANCH   2   3
ATOM      3  O   UNL     1       6.782   0.188   6.949  1.00  0.00    -0.376 OA
BRANCH   3   4
ATOM      4  C   UNL     1       6.394   0.451   5.602  1.00  0.00     0.202 C 
BRANCH   4   5
ATOM      5  C   UNL     1       6.559  -0.683   4.586  1.00  0.00     0.261 C 
BRANCH   5   6
ATOM      6  O   UNL     1       5.800  -1.849   4.948  1.00  0.00    -0.460 OA
BRANCH   6   7
ATOM      7  C   UNL     1       6.409  -3.037   4.694  1.00  0.00     0.340 C 
ATOM      8  O   UNL     1       7.481  -3.191   4.132  1.00  0.00    -0.246 OA
BRANCH   7   9
ATOM      9  C   UNL     1       5.711  -4.135   5.412  1.00  0.00     0.084 A 
ATOM     10  C   UNL     1       4.316  -4.354   5.457  1.00  0.00     0.067 A 
ATOM     11  C   UNL     1       3.851  -5.394   6.294  1.00  0.00     0.028 A 
ATOM     12  C   UNL     1       4.716  -6.165   7.075  1.00  0.00     0.002 A 
ATOM     13  C   UNL     1       6.573  -4.915   6.215  1.00  0.00     0.018 A 
ATOM     14  C   UNL     1       6.079  -5.917   7.047  1.00  0.00     0.001 A 
BRANCH  10  15
ATOM     15  N   UNL     1       3.353  -3.564   4.765  1.00  0.00    -0.241 N 
ATOM     16  C   UNL     1       0.818  -0.670   2.238  1.00  0.00     0.119 A 
ATOM     17  C   UNL     1      -0.088  -0.896   3.298  1.00  0.00     0.047 A 
ATOM     18  C   UNL     1       2.064  -1.304   2.227  1.00  0.00     0.061 A 
ATOM     19  C   UNL     1       0.223  -1.768   4.345  1.00  0.00     0.018 A 
ATOM     20  C   UNL     1       2.351  -2.155   3.279  1.00  0.00     0.057 A 
ATOM     21  C   UNL     1       1.458  -2.382   4.302  1.00  0.00     0.053 A 
ATOM     22  C   UNL     1       3.541  -2.958   3.543  1.00  0.00     0.266 C 
ATOM     23  C   UNL     1       2.082  -3.307   5.238  1.00  0.00     0.266 C 
ATOM     24  O   UNL     1       4.427  -3.076   2.718  1.00  0.00    -0.268 OA
ATOM     25  O   UNL     1       1.493  -3.691   6.235  1.00  0.00    -0.268 OA
BRANCH  16  26
ATOM     26  O   UNL     1       0.371   0.209   1.289  1.00  0.00    -0.497 OA
ATOM     27  C   UNL     1       1.021   0.145   0.024  1.00  0.00     0.278 C 
ENDBRANCH  16  26
ENDBRANCH  10  15
ENDBRANCH   7   9
ENDBRANCH   6   7
ENDBRANCH   5   6
ENDBRANCH   4   5
ENDBRANCH   3   4
ENDBRANCH   2   3
ENDBRANCH   1   2
BRANCH   1  28
ATOM     28  O   UNL     1       3.988  -0.156   6.951  1.00  0.00    -0.376 OA
BRANCH  28  29
ATOM     29  C   UNL     1       3.209   0.668   7.810  1.00  0.00     0.202 C 
BRANCH  29  30
ATOM     30  C   UNL     1       3.981   1.542   8.812  1.00  0.00     0.261 C 
BRANCH  30  31
ATOM     31  O   UNL     1       4.882   0.845   9.689  1.00  0.00    -0.460 OA
BRANCH  31  32
ATOM     32  C   UNL     1       4.335   0.059  10.644  1.00  0.00     0.338 C 
ATOM     33  O   UNL     1       3.149  -0.126  10.845  1.00  0.00    -0.246 OA
BRANCH  32  34
ATOM     34  C   UNL     1       5.434  -0.693  11.293  1.00  0.00     0.060 A 
ATOM     35  C   UNL     1       5.403  -2.093  11.270  1.00  0.00     0.016 A 
ATOM     36  C   UNL     1       6.496  -0.022  11.906  1.00  0.00     0.016 A 
ATOM     37  C   UNL     1       6.425  -2.823  11.883  1.00  0.00     0.010 A 
ATOM     38  C   UNL     1       7.510  -0.756  12.533  1.00  0.00     0.010 A 
ATOM     39  C   UNL     1       7.468  -2.160  12.547  1.00  0.00    -0.014 A 
BRANCH  39  40
ATOM     40  C   UNL     1       8.423  -2.934  13.381  1.00  0.00     0.031 A 
ATOM     41  C   UNL     1       8.157  -3.064  14.858  1.00  0.00     0.074 A 
ATOM     42  C   UNL     1       9.498  -3.535  12.840  1.00  0.00     0.049 A 
ATOM     43  N   UNL     1       8.830  -3.721  15.767  1.00  0.00    -0.248 NA
ATOM     44  C   UNL     1       6.971  -2.362  15.374  1.00  0.00     0.031 C 
ATOM     45  C   UNL     1       9.864  -3.506  11.425  1.00  0.00     0.029 A 
ATOM     46  N   UNL     1      10.483  -4.292  13.427  1.00  0.00    -0.354 N 
ATOM     47  C   UNL     1       8.148  -3.517  16.962  1.00  0.00     0.074 A 
ATOM     48  C   UNL     1       7.029  -2.648  16.666  1.00  0.00     0.031 C 
ATOM     49  C   UNL     1      10.994  -4.215  11.253  1.00  0.00     0.029 A 
ATOM     50  C   UNL     1      11.443  -4.731  12.546  1.00  0.00     0.049 A 
ATOM     51  H   UNL     1      10.500  -4.501  14.389  1.00  0.00     0.167 HD
ATOM     52  C   UNL     1       8.420  -4.014  18.193  1.00  0.00     0.031 A 
ATOM     53  C   UNL     1      12.559  -5.458  12.758  1.00  0.00     0.031 A 
ATOM     54  C   UNL     1       9.548  -4.852  18.500  1.00  0.00     0.049 A 
ATOM     55  C   UNL     1      12.879  -5.942  14.149  1.00  0.00     0.074 A 
ATOM     56  C   UNL     1       9.898  -5.414  19.716  1.00  0.00     0.029 A 
ATOM     57  N   UNL     1      10.518  -5.237  17.588  1.00  0.00    -0.354 N 
ATOM     58  N   UNL     1      12.199  -5.777  15.259  1.00  0.00    -0.248 NA
ATOM     59  C   UNL     1      14.114  -6.724  14.310  1.00  0.00     0.031 C 
ATOM     60  C   UNL     1      11.109  -6.097  19.550  1.00  0.00     0.029 A 
ATOM     61  C   UNL     1      11.482  -6.007  18.219  1.00  0.00     0.049 A 
ATOM     62  H   UNL     1      10.522  -4.999  16.633  1.00  0.00     0.167 HD
ATOM     63  C   UNL     1      12.912  -6.452  16.245  1.00  0.00     0.074 A 
ATOM     64  C   UNL     1      14.066  -7.042  15.597  1.00  0.00     0.031 C 
ATOM     65  C   UNL     1      12.635  -6.577  17.567  1.00  0.00     0.031 A 
BRANCH  52  66
ATOM     66  C   UNL     1       7.485  -3.629  19.308  1.00  0.00    -0.014 A 
ATOM     67  C   UNL     1       6.184  -4.160  19.381  1.00  0.00     0.010 A 
ATOM     68  C   UNL     1       7.917  -2.735  20.304  1.00  0.00     0.010 A 
ATOM     69  C   UNL     1       5.317  -3.769  20.404  1.00  0.00     0.020 A 
ATOM     70  C   UNL     1       7.061  -2.361  21.344  1.00  0.00     0.020 A 
ATOM     71  C   UNL     1       5.759  -2.866  21.375  1.00  0.00     0.054 A 
BRANCH  71  72
ATOM     72  S   UNL     1       4.616  -2.377  22.696  1.00  0.00     0.124 S 
ATOM     73  O   UNL     1       3.712  -1.472  21.991  1.00  0.00    -0.237 OA
ATOM     74  O   UNL     1       4.033  -3.652  23.105  1.00  0.00    -0.237 OA
ATOM     75  O   UNL     1       5.482  -1.745  23.688  1.00  0.00    -0.744 OA
ENDBRANCH  71  72
ENDBRANCH  52  66
BRANCH  53  76
ATOM     76  C   UNL     1      13.466  -5.776  11.621  1.00  0.00    -0.014 A 
ATOM     77  C   UNL     1      13.559  -7.087  11.123  1.00  0.00     0.010 A 
ATOM     78  C   UNL     1      14.247  -4.764  11.033  1.00  0.00     0.010 A 
ATOM     79  C   UNL     1      14.425  -7.384  10.066  1.00  0.00     0.020 A 
ATOM     80  C   UNL     1      15.096  -5.052   9.961  1.00  0.00     0.020 A 
ATOM     81  C   UNL     1      15.187  -6.363   9.490  1.00  0.00     0.054 A 
BRANCH  81  82
ATOM     82  S   UNL     1      16.261  -6.759   8.082  1.00  0.00     0.124 S 
ATOM     83  O   UNL     1      17.368  -7.454   8.731  1.00  0.00    -0.237 OA
ATOM     84  O   UNL     1      15.395  -7.589   7.248  1.00  0.00    -0.237 OA
ATOM     85  O   UNL     1      16.585  -5.449   7.521  1.00  0.00    -0.744 OA
ENDBRANCH  81  82
ENDBRANCH  53  76
BRANCH  65  86
ATOM     86  C   UNL     1      13.584  -7.401  18.399  1.00  0.00    -0.014 A 
ATOM     87  C   UNL     1      14.870  -6.931  18.719  1.00  0.00     0.010 A 
ATOM     88  C   UNL     1      13.171  -8.653  18.890  1.00  0.00     0.010 A 
ATOM     89  C   UNL     1      15.743  -7.718  19.477  1.00  0.00     0.020 A 
ATOM     90  C   UNL     1      14.031  -9.432  19.670  1.00  0.00     0.020 A 
ATOM     91  C   UNL     1      15.319  -8.967  19.942  1.00  0.00     0.054 A 
BRANCH  91  92
ATOM     92  S   UNL     1      16.462  -9.967  20.936  1.00  0.00     0.124 S 
ATOM     93  O   UNL     1      17.369 -10.492  19.919  1.00  0.00    -0.237 OA
ATOM     94  O   UNL     1      17.042  -8.985  21.848  1.00  0.00    -0.237 OA
ATOM     95  O   UNL     1      15.594 -10.958  21.568  1.00  0.00    -0.744 OA
ENDBRANCH  91  92
ENDBRANCH  65  86
ENDBRANCH  39  40
ENDBRANCH  32  34
ENDBRANCH  31  32
ENDBRANCH  30  31
ENDBRANCH  29  30
ENDBRANCH  28  29
ENDBRANCH   1  28
TORSDOF 22
