REMARK SMILES O=C(C[C@H]1N=NC(=O)c2ccccc21)N[C@@H](CC1=c2ccccc2=NC1)C(=O)OCCOCCOCCOC(=O)c1ccc(-c2c3nc(c(-c4ccc(S(=O)(=O)[O-])cc4)c4ccc([nH]4)c(-c4ccc(S(=O)(=O)[O-])cc4)c4nc(c(-c5ccc(S(=O)(=O)[O-])cc5)c5ccc2[nH]5)C=C4)C=C3)cc1
REMARK SMILES IDX 33 1 32 2 31 3 30 4 29 5 27 6 28 7 16 8 15 9 1 10 2 11 3 13
REMARK SMILES IDX 4 14 5 15 14 16 6 17 9 18 13 19 7 20 10 21 12 22 8 23 11 24
REMARK SMILES IDX 17 25 18 26 19 27 26 28 20 29 24 30 25 31 21 32 23 33 22 34
REMARK SMILES IDX 34 35 35 36 36 37 37 38 38 39 39 40 40 41 41 42 42 43 100 44
REMARK SMILES IDX 43 45 99 46 44 47 45 48 46 49 93 50 47 51 98 52 92 53 94 54
REMARK SMILES IDX 48 55 97 56 91 57 90 58 49 60 79 61 60 62 78 63 61 64 64 65
REMARK SMILES IDX 77 66 95 67 62 68 63 69 76 71 96 72 65 73 50 74 51 75 59 76
REMARK SMILES IDX 52 77 58 78 53 79 54 80 55 81 56 82 57 83 80 84 81 85 89 86
REMARK SMILES IDX 82 87 88 88 83 89 84 90 85 91 86 92 87 93 66 94 67 95 75 96
REMARK SMILES IDX 68 97 74 98 69 99 70 100 71 101 72 102 73 103
REMARK H PARENT 15 12 94 59 64 70
REMARK Flexibility Score: inf
ROOT
ATOM      1  C   UNL     1       5.493   3.147  -2.681  1.00  0.00     0.188 C 
ENDROOT
BRANCH   1   2
ATOM      2  O   UNL     1       5.901   4.391  -2.124  1.00  0.00    -0.376 OA
BRANCH   2   3
ATOM      3  C   UNL     1       5.137   5.540  -2.464  1.00  0.00     0.202 C 
BRANCH   3   4
ATOM      4  C   UNL     1       3.646   5.495  -2.101  1.00  0.00     0.261 C 
BRANCH   4   5
ATOM      5  O   UNL     1       2.935   4.339  -2.587  1.00  0.00    -0.462 OA
BRANCH   5   6
ATOM      6  C   UNL     1       2.793   4.222  -3.929  1.00  0.00     0.329 C 
ATOM      7  O   UNL     1       3.059   5.125  -4.713  1.00  0.00    -0.250 OA
BRANCH   6   8
ATOM      8  C   UNL     1       2.110   2.899  -4.344  1.00  0.00     0.196 C 
BRANCH   8   9
ATOM      9  N   UNL     1       2.215   1.622  -3.582  1.00  0.00    -0.342 N 
ATOM     10  O   UNL     1       3.839   0.576  -4.809  1.00  0.00    -0.275 OA
ATOM     11  C   UNL     1       2.970   0.522  -3.947  1.00  0.00     0.223 C 
ATOM     12  H   UNL     1       1.701   1.556  -2.745  1.00  0.00     0.164 HD
BRANCH  11  13
ATOM     13  C   UNL     1       2.626  -0.774  -3.193  1.00  0.00     0.134 C 
BRANCH  13  14
ATOM     14  C   UNL     1       3.346  -1.163  -1.869  1.00  0.00     0.169 C 
ATOM     15  N   UNL     1       4.352  -2.195  -2.231  1.00  0.00    -0.177 NA
ATOM     16  C   UNL     1       3.958  -0.040  -1.075  1.00  0.00    -0.008 A 
ATOM     17  N   UNL     1       5.389  -2.237  -1.522  1.00  0.00    -0.111 NA
ATOM     18  C   UNL     1       5.697   0.175  -1.417  1.00  0.00     0.049 A 
ATOM     19  C   UNL     1       3.051   1.174  -0.173  1.00  0.00     0.007 A 
ATOM     20  C   UNL     1       6.279  -1.185  -1.724  1.00  0.00     0.295 C 
ATOM     21  C   UNL     1       6.478   1.765  -0.964  1.00  0.00     0.014 A 
ATOM     22  C   UNL     1       3.817   2.695   0.377  1.00  0.00     0.000 A 
ATOM     23  O   UNL     1       7.421  -1.367  -2.005  1.00  0.00    -0.265 OA
ATOM     24  C   UNL     1       5.527   3.035  -0.027  1.00  0.00     0.001 A 
ENDBRANCH  13  14
ENDBRANCH  11  13
ENDBRANCH   8   9
BRANCH   8  25
ATOM     25  C   UNL     1       0.626   3.295  -4.493  1.00  0.00     0.070 C 
BRANCH  25  26
ATOM     26  C   UNL     1      -0.256   3.492  -3.229  1.00  0.00    -0.037 C 
ATOM     27  C   UNL     1      -0.200   2.645  -2.190  1.00  0.00     0.001 A 
ATOM     28  C   UNL     1      -1.706   3.511  -3.676  1.00  0.00     0.174 C 
ATOM     29  C   UNL     1      -0.033   2.861  -0.771  1.00  0.00     0.010 A 
ATOM     30  C   UNL     1      -1.332   1.741  -2.513  1.00  0.00     0.065 A 
ATOM     31  N   UNL     1      -2.198   2.144  -3.386  1.00  0.00    -0.280 NA
ATOM     32  C   UNL     1      -0.387   1.855   0.055  1.00  0.00     0.001 A 
ATOM     33  C   UNL     1      -1.337   0.486  -1.737  1.00  0.00     0.028 A 
ATOM     34  C   UNL     1      -0.851   0.579  -0.487  1.00  0.00     0.002 A 
ENDBRANCH  25  26
ENDBRANCH   8  25
ENDBRANCH   6   8
ENDBRANCH   5   6
ENDBRANCH   4   5
ENDBRANCH   3   4
ENDBRANCH   2   3
ENDBRANCH   1   2
BRANCH   1  35
ATOM     35  C   UNL     1       4.580   2.107  -1.656  1.00  0.00     0.188 C 
BRANCH  35  36
ATOM     36  O   UNL     1       5.011   1.160   0.059  1.00  0.00    -0.376 OA
BRANCH  36  37
ATOM     37  C   UNL     1       6.024   1.093   1.277  1.00  0.00     0.202 C 
BRANCH  37  38
ATOM     38  C   UNL     1       7.665   1.026   1.321  1.00  0.00     0.261 C 
BRANCH  38  39
ATOM     39  O   UNL     1       8.531   1.419   0.202  1.00  0.00    -0.460 OA
BRANCH  39  40
ATOM     40  C   UNL     1       9.239   0.484  -0.507  1.00  0.00     0.338 C 
ATOM     41  O   UNL     1       9.528  -0.618  -0.072  1.00  0.00    -0.246 OA
BRANCH  40  42
ATOM     42  C   UNL     1       9.570   0.946  -1.932  1.00  0.00     0.060 A 
ATOM     43  C   UNL     1      10.853   1.309  -2.315  1.00  0.00     0.016 A 
ATOM     44  C   UNL     1       8.622   0.876  -2.973  1.00  0.00     0.016 A 
ATOM     45  C   UNL     1      11.143   1.548  -3.686  1.00  0.00     0.010 A 
ATOM     46  C   UNL     1       8.884   1.086  -4.322  1.00  0.00     0.010 A 
ATOM     47  C   UNL     1      10.167   1.404  -4.702  1.00  0.00    -0.014 A 
BRANCH  47  48
ATOM     48  C   UNL     1      10.512   1.303  -6.139  1.00  0.00     0.031 A 
ATOM     49  C   UNL     1      10.102   2.316  -7.164  1.00  0.00     0.074 A 
ATOM     50  C   UNL     1      11.125   0.173  -6.542  1.00  0.00     0.049 A 
ATOM     51  N   UNL     1      10.618   2.515  -8.349  1.00  0.00    -0.248 NA
ATOM     52  C   UNL     1       8.961   3.193  -6.854  1.00  0.00     0.031 C 
ATOM     53  C   UNL     1      11.347  -1.001  -5.694  1.00  0.00     0.029 A 
ATOM     54  N   UNL     1      11.697  -0.164  -7.741  1.00  0.00    -0.354 N 
ATOM     55  C   UNL     1       9.921   3.584  -8.896  1.00  0.00     0.074 A 
ATOM     56  C   UNL     1       8.876   3.929  -7.958  1.00  0.00     0.031 C 
ATOM     57  C   UNL     1      12.101  -1.884  -6.362  1.00  0.00     0.029 A 
ATOM     58  C   UNL     1      12.416  -1.335  -7.678  1.00  0.00     0.049 A 
ATOM     59  H   UNL     1      11.602   0.374  -8.560  1.00  0.00     0.167 HD
ATOM     60  C   UNL     1      10.178   4.234 -10.057  1.00  0.00     0.031 A 
ATOM     61  C   UNL     1      13.298  -1.869  -8.546  1.00  0.00     0.031 A 
ATOM     62  C   UNL     1      11.202   3.818 -10.984  1.00  0.00     0.049 A 
ATOM     63  C   UNL     1      13.645  -1.096  -9.786  1.00  0.00     0.074 A 
ATOM     64  C   UNL     1      11.637   4.459 -12.131  1.00  0.00     0.029 A 
ATOM     65  N   UNL     1      11.934   2.643 -10.883  1.00  0.00    -0.354 N 
ATOM     66  N   UNL     1      13.173   0.059 -10.193  1.00  0.00    -0.248 NA
ATOM     67  C   UNL     1      14.670  -1.671 -10.666  1.00  0.00     0.031 C 
ATOM     68  C   UNL     1      12.574   3.635 -12.761  1.00  0.00     0.029 A 
ATOM     69  C   UNL     1      12.788   2.520 -11.965  1.00  0.00     0.049 A 
ATOM     70  H   UNL     1      11.857   1.991 -10.149  1.00  0.00     0.167 HD
ATOM     71  C   UNL     1      13.851   0.356 -11.369  1.00  0.00     0.074 A 
ATOM     72  C   UNL     1      14.786  -0.728 -11.593  1.00  0.00     0.031 C 
ATOM     73  C   UNL     1      13.706   1.427 -12.188  1.00  0.00     0.031 A 
BRANCH  60  74
ATOM     74  C   UNL     1       9.423   5.506 -10.367  1.00  0.00    -0.014 A 
ATOM     75  C   UNL     1       8.657   5.621 -11.543  1.00  0.00     0.010 A 
ATOM     76  C   UNL     1       9.628   6.654  -9.579  1.00  0.00     0.010 A 
ATOM     77  C   UNL     1       8.150   6.863 -11.945  1.00  0.00     0.020 A 
ATOM     78  C   UNL     1       9.100   7.891  -9.962  1.00  0.00     0.020 A 
ATOM     79  C   UNL     1       8.387   7.994 -11.158  1.00  0.00     0.054 A 
BRANCH  79  80
ATOM     80  S   UNL     1       7.777   9.607 -11.724  1.00  0.00     0.124 S 
ATOM     81  O   UNL     1       8.670   9.903 -12.839  1.00  0.00    -0.237 OA
ATOM     82  O   UNL     1       6.391   9.316 -12.084  1.00  0.00    -0.237 OA
ATOM     83  O   UNL     1       7.938  10.466 -10.551  1.00  0.00    -0.744 OA
ENDBRANCH  79  80
ENDBRANCH  60  74
BRANCH  61  84
ATOM     84  C   UNL     1      14.008  -3.119  -8.160  1.00  0.00    -0.014 A 
ATOM     85  C   UNL     1      13.305  -4.334  -8.054  1.00  0.00     0.010 A 
ATOM     86  C   UNL     1      15.356  -3.075  -7.763  1.00  0.00     0.010 A 
ATOM     87  C   UNL     1      13.919  -5.464  -7.509  1.00  0.00     0.020 A 
ATOM     88  C   UNL     1      15.984  -4.213  -7.247  1.00  0.00     0.020 A 
ATOM     89  C   UNL     1      15.252  -5.392  -7.096  1.00  0.00     0.054 A 
BRANCH  89  90
ATOM     90  S   UNL     1      16.009  -6.856  -6.337  1.00  0.00     0.124 S 
ATOM     91  O   UNL     1      15.384  -6.869  -5.017  1.00  0.00    -0.237 OA
ATOM     92  O   UNL     1      15.600  -7.930  -7.238  1.00  0.00    -0.237 OA
ATOM     93  O   UNL     1      17.437  -6.549  -6.349  1.00  0.00    -0.744 OA
ENDBRANCH  89  90
ENDBRANCH  61  84
BRANCH  73  94
ATOM     94  C   UNL     1      14.552   1.489 -13.435  1.00  0.00    -0.014 A 
ATOM     95  C   UNL     1      15.498   2.520 -13.590  1.00  0.00     0.010 A 
ATOM     96  C   UNL     1      14.307   0.618 -14.511  1.00  0.00     0.010 A 
ATOM     97  C   UNL     1      16.148   2.709 -14.812  1.00  0.00     0.020 A 
ATOM     98  C   UNL     1      14.981   0.783 -15.725  1.00  0.00     0.020 A 
ATOM     99  C   UNL     1      15.875   1.846 -15.876  1.00  0.00     0.054 A 
BRANCH  99 100
ATOM    100  S   UNL     1      16.688   2.140 -17.471  1.00  0.00     0.124 S 
ATOM    101  O   UNL     1      15.972   3.311 -17.970  1.00  0.00    -0.237 OA
ATOM    102  O   UNL     1      18.078   2.369 -17.085  1.00  0.00    -0.237 OA
ATOM    103  O   UNL     1      16.451   0.902 -18.211  1.00  0.00    -0.744 OA
ENDBRANCH  99 100
ENDBRANCH  73  94
ENDBRANCH  47  48
ENDBRANCH  40  42
ENDBRANCH  39  40
ENDBRANCH  38  39
ENDBRANCH  37  38
ENDBRANCH  36  37
ENDBRANCH  35  36
ENDBRANCH   1  35
TORSDOF 25
