REMARK SMILES O=C(Cc1ccc(-c2ccn(C(F)F)c(=O)c2)cc1)OCCOCCOCCOC(=O)c1ccc(-c2c3nc(c(-c4ccc(S(=O)(=O)[O-])cc4)c4ccc([nH]4)c(-c4ccc(S(=O)(=O)[O-])cc4)c4nc(c(-c5ccc(S(=O)(=O)[O-])cc5)c5ccc2[nH]5)C=C4)C=C3)cc1
REMARK SMILES IDX 24 1 23 2 22 3 21 4 20 5 2 6 1 7 3 8 4 9 5 10 19 11 6 12
REMARK SMILES IDX 18 13 7 14 8 15 9 16 17 17 10 18 15 19 11 20 16 21 12 22
REMARK SMILES IDX 13 23 14 24 25 25 26 26 27 27 28 28 29 29 30 30 31 31 32 32
REMARK SMILES IDX 33 33 91 34 34 35 90 36 35 37 36 38 37 39 84 40 38 41 89 42
REMARK SMILES IDX 83 43 85 44 39 45 88 46 82 47 81 48 40 50 70 51 51 52 69 53
REMARK SMILES IDX 52 54 55 55 68 56 86 57 53 58 54 59 67 61 87 62 56 63 41 64
REMARK SMILES IDX 42 65 50 66 43 67 49 68 44 69 45 70 46 71 47 72 48 73 71 74
REMARK SMILES IDX 72 75 80 76 73 77 79 78 74 79 75 80 76 81 77 82 78 83 57 84
REMARK SMILES IDX 58 85 66 86 59 87 65 88 60 89 61 90 62 91 63 92 64 93
REMARK H PARENT 85 49 55 60
REMARK Flexibility Score: inf
ROOT
ATOM      1  C   UNL     1       2.557   1.259   1.509  1.00  0.00     0.188 C 
ENDROOT
BRANCH   1   2
ATOM      2  O   UNL     1       3.963   1.119   1.545  1.00  0.00    -0.376 OA
BRANCH   2   3
ATOM      3  C   UNL     1       4.659   0.717   0.375  1.00  0.00     0.202 C 
BRANCH   3   4
ATOM      4  C   UNL     1       4.045   1.010  -0.994  1.00  0.00     0.261 C 
BRANCH   4   5
ATOM      5  O   UNL     1       2.878   0.274  -1.465  1.00  0.00    -0.463 OA
BRANCH   5   6
ATOM      6  C   UNL     1       2.260  -0.882  -1.151  1.00  0.00     0.310 C 
ATOM      7  O   UNL     1       1.183  -1.139  -1.690  1.00  0.00    -0.252 OA
BRANCH   6   8
ATOM      8  C   UNL     1       2.867  -1.851  -0.168  1.00  0.00     0.158 C 
BRANCH   8   9
ATOM      9  C   UNL     1       3.868  -2.786  -0.795  1.00  0.00    -0.037 A 
ATOM     10  C   UNL     1       3.609  -4.162  -0.862  1.00  0.00     0.005 A 
ATOM     11  C   UNL     1       5.043  -2.298  -1.372  1.00  0.00     0.005 A 
ATOM     12  C   UNL     1       4.459  -5.010  -1.577  1.00  0.00     0.009 A 
ATOM     13  C   UNL     1       5.896  -3.134  -2.070  1.00  0.00     0.009 A 
ATOM     14  C   UNL     1       5.583  -4.485  -2.221  1.00  0.00    -0.018 A 
BRANCH  14  15
ATOM     15  C   UNL     1       6.362  -5.219  -3.226  1.00  0.00    -0.011 A 
ATOM     16  C   UNL     1       7.801  -5.363  -3.167  1.00  0.00     0.027 A 
ATOM     17  C   UNL     1       5.710  -5.505  -4.367  1.00  0.00     0.080 A 
ATOM     18  C   UNL     1       8.488  -5.685  -4.269  1.00  0.00     0.095 A 
ATOM     19  C   UNL     1       6.457  -5.904  -5.586  1.00  0.00     0.255 A 
ATOM     20  N   UNL     1       7.837  -5.934  -5.463  1.00  0.00    -0.258 N 
ATOM     21  O   UNL     1       5.827  -6.119  -6.617  1.00  0.00    -0.269 OA
BRANCH  20  22
ATOM     22  C   UNL     1       8.583  -6.199  -6.662  1.00  0.00     0.451 C 
ATOM     23  F   UNL     1       8.238  -7.388  -7.210  1.00  0.00    -0.185 F 
ATOM     24  F   UNL     1       8.368  -5.231  -7.588  1.00  0.00    -0.185 F 
ENDBRANCH  20  22
ENDBRANCH  14  15
ENDBRANCH   8   9
ENDBRANCH   6   8
ENDBRANCH   5   6
ENDBRANCH   4   5
ENDBRANCH   3   4
ENDBRANCH   2   3
ENDBRANCH   1   2
BRANCH   1  25
ATOM     25  C   UNL     1       2.065   2.683   1.792  1.00  0.00     0.188 C 
BRANCH  25  26
ATOM     26  O   UNL     1       2.918   3.758   1.423  1.00  0.00    -0.376 OA
BRANCH  26  27
ATOM     27  C   UNL     1       4.196   3.853   2.057  1.00  0.00     0.202 C 
BRANCH  27  28
ATOM     28  C   UNL     1       4.299   3.695   3.585  1.00  0.00     0.261 C 
BRANCH  28  29
ATOM     29  O   UNL     1       3.973   2.377   4.077  1.00  0.00    -0.460 OA
BRANCH  29  30
ATOM     30  C   UNL     1       2.943   2.328   4.952  1.00  0.00     0.338 C 
ATOM     31  O   UNL     1       2.283   3.279   5.358  1.00  0.00    -0.246 OA
BRANCH  30  32
ATOM     32  C   UNL     1       2.567   0.942   5.287  1.00  0.00     0.060 A 
ATOM     33  C   UNL     1       1.261   0.530   4.986  1.00  0.00     0.016 A 
ATOM     34  C   UNL     1       3.393   0.143   6.079  1.00  0.00     0.016 A 
ATOM     35  C   UNL     1       0.749  -0.642   5.542  1.00  0.00     0.010 A 
ATOM     36  C   UNL     1       2.872  -1.027   6.650  1.00  0.00     0.010 A 
ATOM     37  C   UNL     1       1.528  -1.388   6.435  1.00  0.00    -0.014 A 
BRANCH  37  38
ATOM     38  C   UNL     1       0.849  -2.362   7.330  1.00  0.00     0.031 A 
ATOM     39  C   UNL     1       0.414  -1.894   8.699  1.00  0.00     0.074 A 
ATOM     40  C   UNL     1       0.552  -3.611   6.927  1.00  0.00     0.049 A 
ATOM     41  N   UNL     1      -0.240  -2.541   9.630  1.00  0.00    -0.248 NA
ATOM     42  C   UNL     1       0.762  -0.510   9.061  1.00  0.00     0.031 C 
ATOM     43  C   UNL     1       0.867  -4.178   5.618  1.00  0.00     0.029 A 
ATOM     44  N   UNL     1      -0.096  -4.626   7.588  1.00  0.00    -0.354 N 
ATOM     45  C   UNL     1      -0.376  -1.647  10.687  1.00  0.00     0.074 A 
ATOM     46  C   UNL     1       0.289  -0.424  10.295  1.00  0.00     0.031 C 
ATOM     47  C   UNL     1       0.409  -5.443   5.571  1.00  0.00     0.029 A 
ATOM     48  C   UNL     1      -0.214  -5.779   6.851  1.00  0.00     0.049 A 
ATOM     49  H   UNL     1      -0.444  -4.535   8.505  1.00  0.00     0.167 HD
ATOM     50  C   UNL     1      -1.003  -1.819  11.875  1.00  0.00     0.031 A 
ATOM     51  C   UNL     1      -0.760  -6.970   7.171  1.00  0.00     0.031 A 
ATOM     52  C   UNL     1      -1.660  -3.033  12.277  1.00  0.00     0.049 A 
ATOM     53  C   UNL     1      -1.405  -7.158   8.521  1.00  0.00     0.074 A 
ATOM     54  C   UNL     1      -2.333  -3.298  13.458  1.00  0.00     0.029 A 
ATOM     55  N   UNL     1      -1.724  -4.188  11.514  1.00  0.00    -0.354 N 
ATOM     56  N   UNL     1      -1.546  -6.293   9.498  1.00  0.00    -0.248 NA
ATOM     57  C   UNL     1      -1.982  -8.481   8.803  1.00  0.00     0.031 C 
ATOM     58  C   UNL     1      -2.762  -4.629  13.428  1.00  0.00     0.029 A 
ATOM     59  C   UNL     1      -2.407  -5.174  12.204  1.00  0.00     0.049 A 
ATOM     60  H   UNL     1      -1.339  -4.291  10.613  1.00  0.00     0.167 HD
ATOM     61  C   UNL     1      -2.263  -6.956  10.491  1.00  0.00     0.074 A 
ATOM     62  C   UNL     1      -2.529  -8.290   9.995  1.00  0.00     0.031 C 
ATOM     63  C   UNL     1      -2.672  -6.497  11.700  1.00  0.00     0.031 A 
BRANCH  50  64
ATOM     64  C   UNL     1      -0.972  -0.667  12.845  1.00  0.00    -0.014 A 
ATOM     65  C   UNL     1      -1.733   0.495  12.624  1.00  0.00     0.010 A 
ATOM     66  C   UNL     1      -0.182  -0.759  14.005  1.00  0.00     0.010 A 
ATOM     67  C   UNL     1      -1.670   1.562  13.524  1.00  0.00     0.020 A 
ATOM     68  C   UNL     1      -0.136   0.295  14.920  1.00  0.00     0.020 A 
ATOM     69  C   UNL     1      -0.867   1.458  14.664  1.00  0.00     0.054 A 
BRANCH  69  70
ATOM     70  S   UNL     1      -0.808   2.852  15.822  1.00  0.00     0.124 S 
ATOM     71  O   UNL     1       0.023   3.810  15.097  1.00  0.00    -0.237 OA
ATOM     72  O   UNL     1      -2.216   3.218  15.958  1.00  0.00    -0.237 OA
ATOM     73  O   UNL     1      -0.198   2.282  17.021  1.00  0.00    -0.744 OA
ENDBRANCH  69  70
ENDBRANCH  50  64
BRANCH  51  74
ATOM     74  C   UNL     1      -0.729  -8.091   6.192  1.00  0.00    -0.014 A 
ATOM     75  C   UNL     1      -1.909  -8.532   5.566  1.00  0.00     0.010 A 
ATOM     76  C   UNL     1       0.485  -8.735   5.893  1.00  0.00     0.010 A 
ATOM     77  C   UNL     1      -1.878  -9.608   4.675  1.00  0.00     0.020 A 
ATOM     78  C   UNL     1       0.524  -9.795   4.983  1.00  0.00     0.020 A 
ATOM     79  C   UNL     1      -0.661 -10.232   4.388  1.00  0.00     0.054 A 
BRANCH  79  80
ATOM     80  S   UNL     1      -0.633 -11.595   3.190  1.00  0.00     0.124 S 
ATOM     81  O   UNL     1      -1.203 -12.692   3.966  1.00  0.00    -0.237 OA
ATOM     82  O   UNL     1      -1.470 -11.082   2.108  1.00  0.00    -0.237 OA
ATOM     83  O   UNL     1       0.784 -11.729   2.861  1.00  0.00    -0.744 OA
ENDBRANCH  79  80
ENDBRANCH  51  74
BRANCH  63  84
ATOM     84  C   UNL     1      -3.502  -7.421  12.553  1.00  0.00    -0.014 A 
ATOM     85  C   UNL     1      -2.939  -8.540  13.191  1.00  0.00     0.010 A 
ATOM     86  C   UNL     1      -4.867  -7.137  12.749  1.00  0.00     0.010 A 
ATOM     87  C   UNL     1      -3.735  -9.383  13.973  1.00  0.00     0.020 A 
ATOM     88  C   UNL     1      -5.660  -7.961  13.552  1.00  0.00     0.020 A 
ATOM     89  C   UNL     1      -5.093  -9.091  14.144  1.00  0.00     0.054 A 
BRANCH  89  90
ATOM     90  S   UNL     1      -6.104 -10.185  15.179  1.00  0.00     0.124 S 
ATOM     91  O   UNL     1      -6.310 -11.331  14.298  1.00  0.00    -0.237 OA
ATOM     92  O   UNL     1      -5.240 -10.428  16.332  1.00  0.00    -0.237 OA
ATOM     93  O   UNL     1      -7.297  -9.391  15.459  1.00  0.00    -0.744 OA
ENDBRANCH  89  90
ENDBRANCH  63  84
ENDBRANCH  37  38
ENDBRANCH  30  32
ENDBRANCH  29  30
ENDBRANCH  28  29
ENDBRANCH  27  28
ENDBRANCH  26  27
ENDBRANCH  25  26
ENDBRANCH   1  25
TORSDOF 23
