REMARK SMILES C[C@H](C(=O)OCCOCCOCCOC(=O)c1ccc(-c2c3nc(c(-c4ccc(S(=O)(=O)[O-])cc4)c4ccc([nH]4)c(-c4ccc(S(=O)(=O)[O-])cc4)c4nc(c(-c5ccc(S(=O)(=O)[O-])cc5)c5ccc2[nH]5)C=C4)C=C3)cc1)c1ccc2c3cc(Cl)ccc3n(C(=O)c3ccc(Cl)cc3)c2c1
REMARK SMILES IDX 9 1 8 2 7 3 6 4 5 5 3 6 4 7 2 8 1 9 77 10 78 11 99 12 79 13
REMARK SMILES IDX 98 14 80 15 88 16 81 17 87 18 82 19 86 20 83 21 85 22 84 23
REMARK SMILES IDX 89 24 90 25 91 26 92 27 97 28 93 29 96 30 94 31 95 32 10 33
REMARK SMILES IDX 11 34 12 35 13 36 14 37 15 38 16 39 17 40 18 41 76 42 19 43
REMARK SMILES IDX 75 44 20 45 21 46 22 47 69 48 23 49 74 50 68 51 70 52 24 53
REMARK SMILES IDX 73 54 67 55 66 56 25 58 55 59 36 60 54 61 37 62 40 63 53 64
REMARK SMILES IDX 71 65 38 66 39 67 52 69 72 70 41 71 26 72 27 73 35 74 28 75
REMARK SMILES IDX 34 76 29 77 30 78 31 79 32 80 33 81 56 82 57 83 65 84 58 85
REMARK SMILES IDX 64 86 59 87 60 88 61 89 62 90 63 91 42 92 43 93 51 94 44 95
REMARK SMILES IDX 50 96 45 97 46 98 47 99 48 100 49 101
REMARK H PARENT 70 57 40 68
REMARK Flexibility Score: inf
ROOT
ATOM      1  C   UNL     1       0.326  -1.137   1.810  1.00  0.00     0.188 C 
ENDROOT
BRANCH   1   2
ATOM      2  O   UNL     1       1.454  -0.749   2.588  1.00  0.00    -0.376 OA
BRANCH   2   3
ATOM      3  C   UNL     1       1.832   0.615   2.619  1.00  0.00     0.202 C 
BRANCH   3   4
ATOM      4  C   UNL     1       2.231   1.268   1.289  1.00  0.00     0.261 C 
BRANCH   4   5
ATOM      5  O   UNL     1       1.329   1.043   0.179  1.00  0.00    -0.463 OA
BRANCH   5   6
ATOM      6  C   UNL     1       1.842   0.340  -0.864  1.00  0.00     0.313 C 
ATOM      7  O   UNL     1       3.022  -0.003  -0.908  1.00  0.00    -0.252 OA
BRANCH   6   8
ATOM      8  C   UNL     1       0.892   0.071  -2.041  1.00  0.00     0.126 C 
ATOM      9  C   UNL     1       1.336  -1.272  -2.659  1.00  0.00     0.025 C 
BRANCH   8  10
ATOM     10  C   UNL     1      -0.637   0.140  -1.867  1.00  0.00    -0.032 A 
ATOM     11  C   UNL     1      -1.305   1.366  -1.925  1.00  0.00     0.005 A 
ATOM     12  C   UNL     1      -1.431  -1.023  -1.771  1.00  0.00     0.032 A 
ATOM     13  C   UNL     1      -2.713   1.434  -1.938  1.00  0.00     0.011 A 
ATOM     14  C   UNL     1      -2.856  -0.968  -1.766  1.00  0.00     0.057 A 
ATOM     15  C   UNL     1      -3.500   0.259  -1.874  1.00  0.00     0.008 A 
ATOM     16  N   UNL     1      -3.846  -1.991  -1.739  1.00  0.00    -0.276 N 
ATOM     17  C   UNL     1      -4.901   0.003  -1.864  1.00  0.00     0.009 A 
ATOM     18  C   UNL     1      -5.087  -1.357  -1.570  1.00  0.00     0.057 A 
ATOM     19  C   UNL     1      -6.027   0.846  -2.007  1.00  0.00     0.031 A 
ATOM     20  C   UNL     1      -6.360  -1.822  -1.183  1.00  0.00     0.029 A 
ATOM     21  C   UNL     1      -7.300   0.340  -1.754  1.00  0.00     0.041 A 
ATOM     22  C   UNL     1      -7.462  -0.960  -1.298  1.00  0.00     0.023 A 
ATOM     23  Cl  UNL     1      -8.674   1.357  -1.969  1.00  0.00    -0.084 Cl
BRANCH  16  24
ATOM     24  C   UNL     1      -3.527  -3.378  -1.885  1.00  0.00     0.262 C 
ATOM     25  O   UNL     1      -2.316  -3.620  -1.914  1.00  0.00    -0.268 OA
BRANCH  24  26
ATOM     26  C   UNL     1      -4.350  -4.615  -2.085  1.00  0.00     0.040 A 
ATOM     27  C   UNL     1      -3.655  -5.840  -1.924  1.00  0.00     0.015 A 
ATOM     28  C   UNL     1      -5.645  -4.682  -2.596  1.00  0.00     0.015 A 
ATOM     29  C   UNL     1      -4.192  -7.069  -2.301  1.00  0.00     0.021 A 
ATOM     30  C   UNL     1      -6.203  -5.927  -2.953  1.00  0.00     0.021 A 
ATOM     31  C   UNL     1      -5.457  -7.102  -2.851  1.00  0.00     0.041 A 
ATOM     32  Cl  UNL     1      -6.039  -8.565  -3.537  1.00  0.00    -0.084 Cl
ENDBRANCH  24  26
ENDBRANCH  16  24
ENDBRANCH   8  10
ENDBRANCH   6   8
ENDBRANCH   5   6
ENDBRANCH   4   5
ENDBRANCH   3   4
ENDBRANCH   2   3
ENDBRANCH   1   2
BRANCH   1  33
ATOM     33  C   UNL     1      -0.843  -0.155   1.605  1.00  0.00     0.188 C 
BRANCH  33  34
ATOM     34  O   UNL     1      -0.936   0.824   2.624  1.00  0.00    -0.376 OA
BRANCH  34  35
ATOM     35  C   UNL     1      -2.220   0.955   3.200  1.00  0.00     0.202 C 
BRANCH  35  36
ATOM     36  C   UNL     1      -2.496  -0.136   4.238  1.00  0.00     0.261 C 
BRANCH  36  37
ATOM     37  O   UNL     1      -2.246  -1.486   3.797  1.00  0.00    -0.460 OA
BRANCH  37  38
ATOM     38  C   UNL     1      -3.184  -2.066   3.025  1.00  0.00     0.338 C 
ATOM     39  O   UNL     1      -4.224  -1.555   2.619  1.00  0.00    -0.246 OA
BRANCH  38  40
ATOM     40  C   UNL     1      -2.708  -3.401   2.621  1.00  0.00     0.060 A 
ATOM     41  C   UNL     1      -2.160  -3.572   1.353  1.00  0.00     0.016 A 
ATOM     42  C   UNL     1      -2.842  -4.502   3.468  1.00  0.00     0.016 A 
ATOM     43  C   UNL     1      -1.792  -4.843   0.912  1.00  0.00     0.010 A 
ATOM     44  C   UNL     1      -2.490  -5.783   3.008  1.00  0.00     0.010 A 
ATOM     45  C   UNL     1      -2.020  -5.979   1.697  1.00  0.00    -0.014 A 
BRANCH  45  46
ATOM     46  C   UNL     1      -1.948  -7.339   1.068  1.00  0.00     0.031 A 
ATOM     47  C   UNL     1      -3.217  -8.159   0.926  1.00  0.00     0.074 A 
ATOM     48  C   UNL     1      -0.822  -7.797   0.479  1.00  0.00     0.049 A 
ATOM     49  N   UNL     1      -3.382  -9.357   0.420  1.00  0.00    -0.248 NA
ATOM     50  C   UNL     1      -4.472  -7.529   1.371  1.00  0.00     0.031 C 
ATOM     51  C   UNL     1       0.450  -7.077   0.402  1.00  0.00     0.029 A 
ATOM     52  N   UNL     1      -0.572  -8.976  -0.190  1.00  0.00    -0.354 N 
ATOM     53  C   UNL     1      -4.750  -9.617   0.482  1.00  0.00     0.074 A 
ATOM     54  C   UNL     1      -5.365  -8.473   1.116  1.00  0.00     0.031 C 
ATOM     55  C   UNL     1       1.337  -7.820  -0.279  1.00  0.00     0.029 A 
ATOM     56  C   UNL     1       0.731  -9.105  -0.617  1.00  0.00     0.049 A 
ATOM     57  H   UNL     1      -1.261  -9.661  -0.348  1.00  0.00     0.167 HD
ATOM     58  C   UNL     1      -5.444 -10.690   0.027  1.00  0.00     0.031 A 
ATOM     59  C   UNL     1       1.389 -10.150  -1.165  1.00  0.00     0.031 A 
ATOM     60  C   UNL     1      -4.846 -11.833  -0.613  1.00  0.00     0.049 A 
ATOM     61  C   UNL     1       0.644 -11.430  -1.446  1.00  0.00     0.074 A 
ATOM     62  C   UNL     1      -5.470 -12.971  -1.097  1.00  0.00     0.029 A 
ATOM     63  N   UNL     1      -3.491 -11.989  -0.862  1.00  0.00    -0.354 N 
ATOM     64  N   UNL     1      -0.639 -11.675  -1.335  1.00  0.00    -0.248 NA
ATOM     65  C   UNL     1       1.437 -12.576  -1.916  1.00  0.00     0.031 C 
ATOM     66  C   UNL     1      -4.485 -13.847  -1.567  1.00  0.00     0.029 A 
ATOM     67  C   UNL     1      -3.254 -13.226  -1.442  1.00  0.00     0.049 A 
ATOM     68  H   UNL     1      -2.799 -11.320  -0.656  1.00  0.00     0.167 HD
ATOM     69  C   UNL     1      -0.809 -12.996  -1.742  1.00  0.00     0.074 A 
ATOM     70  C   UNL     1       0.498 -13.491  -2.117  1.00  0.00     0.031 C 
ATOM     71  C   UNL     1      -1.950 -13.727  -1.802  1.00  0.00     0.031 A 
BRANCH  58  72
ATOM     72  C   UNL     1      -6.942 -10.690   0.218  1.00  0.00    -0.014 A 
ATOM     73  C   UNL     1      -7.773  -9.854  -0.547  1.00  0.00     0.010 A 
ATOM     74  C   UNL     1      -7.539 -11.580   1.129  1.00  0.00     0.010 A 
ATOM     75  C   UNL     1      -9.162  -9.894  -0.408  1.00  0.00     0.020 A 
ATOM     76  C   UNL     1      -8.931 -11.636   1.266  1.00  0.00     0.020 A 
ATOM     77  C   UNL     1      -9.733 -10.786   0.501  1.00  0.00     0.054 A 
BRANCH  77  78
ATOM     78  S   UNL     1     -11.539 -10.813   0.656  1.00  0.00     0.124 S 
ATOM     79  O   UNL     1     -11.813  -9.492   1.216  1.00  0.00    -0.237 OA
ATOM     80  O   UNL     1     -11.974 -11.011  -0.724  1.00  0.00    -0.237 OA
ATOM     81  O   UNL     1     -11.794 -11.934   1.557  1.00  0.00    -0.744 OA
ENDBRANCH  77  78
ENDBRANCH  58  72
BRANCH  59  82
ATOM     82  C   UNL     1       2.865 -10.068  -1.378  1.00  0.00    -0.014 A 
ATOM     83  C   UNL     1       3.439 -10.150  -2.659  1.00  0.00     0.010 A 
ATOM     84  C   UNL     1       3.716  -9.919  -0.264  1.00  0.00     0.010 A 
ATOM     85  C   UNL     1       4.830 -10.086  -2.819  1.00  0.00     0.020 A 
ATOM     86  C   UNL     1       5.099  -9.819  -0.422  1.00  0.00     0.020 A 
ATOM     87  C   UNL     1       5.650  -9.913  -1.699  1.00  0.00     0.054 A 
BRANCH  87  88
ATOM     88  S   UNL     1       7.444  -9.770  -1.930  1.00  0.00     0.124 S 
ATOM     89  O   UNL     1       7.818 -11.139  -2.270  1.00  0.00    -0.237 OA
ATOM     90  O   UNL     1       7.546  -8.797  -3.015  1.00  0.00    -0.237 OA
ATOM     91  O   UNL     1       7.920  -9.296  -0.632  1.00  0.00    -0.744 OA
ENDBRANCH  87  88
ENDBRANCH  59  82
BRANCH  71  92
ATOM     92  C   UNL     1      -1.848 -15.143  -2.313  1.00  0.00    -0.014 A 
ATOM     93  C   UNL     1      -1.240 -16.152  -1.546  1.00  0.00     0.010 A 
ATOM     94  C   UNL     1      -2.407 -15.479  -3.561  1.00  0.00     0.010 A 
ATOM     95  C   UNL     1      -1.166 -17.463  -2.029  1.00  0.00     0.020 A 
ATOM     96  C   UNL     1      -2.363 -16.794  -4.033  1.00  0.00     0.020 A 
ATOM     97  C   UNL     1      -1.730 -17.776  -3.270  1.00  0.00     0.054 A 
BRANCH  97  98
ATOM     98  S   UNL     1      -1.655 -19.492  -3.854  1.00  0.00     0.124 S 
ATOM     99  O   UNL     1      -0.242 -19.639  -4.189  1.00  0.00    -0.237 OA
ATOM    100  O   UNL     1      -2.107 -20.247  -2.688  1.00  0.00    -0.237 OA
ATOM    101  O   UNL     1      -2.570 -19.512  -4.993  1.00  0.00    -0.744 OA
ENDBRANCH  97  98
ENDBRANCH  71  92
ENDBRANCH  45  46
ENDBRANCH  38  40
ENDBRANCH  37  38
ENDBRANCH  36  37
ENDBRANCH  35  36
ENDBRANCH  34  35
ENDBRANCH  33  34
ENDBRANCH   1  33
TORSDOF 23
