REMARK SMILES COC[C@H](O)CC1(C(=O)OCCOCCOCCOC(=O)c2ccc(-c3c4nc(c(-c5ccc(S(=O)(=O)[O-])cc5)c5ccc([nH]5)c(-c5ccc(S(=O)(=O)[O-])cc5)c5nc(c(-c6ccc(S(=O)(=O)[O-])cc6)c6ccc3[nH]6)C=C5)C=C4)cc2)CC1
REMARK SMILES IDX 14 1 13 2 12 3 11 4 10 5 8 6 9 7 7 8 82 9 83 10 6 11 4 12
REMARK SMILES IDX 3 13 2 14 1 15 5 16 15 18 16 19 17 20 18 21 19 22 20 23
REMARK SMILES IDX 21 24 22 25 23 26 81 27 24 28 80 29 25 30 26 31 27 32 74 33
REMARK SMILES IDX 28 34 79 35 73 36 75 37 29 38 78 39 72 40 71 41 30 43 60 44
REMARK SMILES IDX 41 45 59 46 42 47 45 48 58 49 76 50 43 51 44 52 57 54 77 55
REMARK SMILES IDX 46 56 31 57 32 58 40 59 33 60 39 61 34 62 35 63 36 64 37 65
REMARK SMILES IDX 38 66 61 67 62 68 70 69 63 70 69 71 64 72 65 73 66 74 67 75
REMARK SMILES IDX 68 76 47 77 48 78 56 79 49 80 55 81 50 82 51 83 52 84 53 85
REMARK SMILES IDX 54 86
REMARK H PARENT 5 17 75 42 45 53
REMARK Flexibility Score: inf
ROOT
ATOM      1  C   UNL     1      -1.714   0.269  -4.087  1.00  0.00     0.188 C 
ENDROOT
BRANCH   1   2
ATOM      2  O   UNL     1      -2.514   0.772  -5.147  1.00  0.00    -0.376 OA
BRANCH   2   3
ATOM      3  C   UNL     1      -1.975   0.616  -6.455  1.00  0.00     0.202 C 
BRANCH   3   4
ATOM      4  C   UNL     1      -1.903  -0.831  -6.951  1.00  0.00     0.261 C 
BRANCH   4   5
ATOM      5  O   UNL     1      -1.165  -1.685  -6.064  1.00  0.00    -0.463 OA
BRANCH   5   6
ATOM      6  C   UNL     1       0.176  -1.763  -6.228  1.00  0.00     0.312 C 
ATOM      7  O   UNL     1       0.822  -1.236  -7.122  1.00  0.00    -0.252 OA
BRANCH   6   8
ATOM      8  C   UNL     1       0.827  -2.510  -5.090  1.00  0.00     0.071 C 
ATOM      9  C   UNL     1       1.263  -3.942  -5.391  1.00  0.00     0.020 C 
ATOM     10  C   UNL     1       0.087  -3.719  -4.500  1.00  0.00     0.020 C 
BRANCH   8  11
ATOM     11  C   UNL     1       1.783  -1.672  -4.224  1.00  0.00     0.053 C 
BRANCH  11  12
ATOM     12  C   UNL     1       1.713  -1.912  -2.710  1.00  0.00     0.141 C 
BRANCH  12  13
ATOM     13  C   UNL     1       2.315  -0.741  -1.913  1.00  0.00     0.191 C 
BRANCH  13  14
ATOM     14  O   UNL     1       2.702  -1.138  -0.592  1.00  0.00    -0.382 OA
ATOM     15  C   UNL     1       1.664  -1.534   0.293  1.00  0.00     0.195 C 
ENDBRANCH  13  14
ENDBRANCH  12  13
BRANCH  12  16
ATOM     16  O   UNL     1       2.434  -3.109  -2.394  1.00  0.00    -0.391 OA
ATOM     17  H   UNL     1       3.364  -3.003  -2.649  1.00  0.00     0.211 HD
ENDBRANCH  12  16
ENDBRANCH  11  12
ENDBRANCH   8  11
ENDBRANCH   6   8
ENDBRANCH   5   6
ENDBRANCH   4   5
ENDBRANCH   3   4
ENDBRANCH   2   3
ENDBRANCH   1   2
BRANCH   1  18
ATOM     18  C   UNL     1      -2.287  -0.994  -3.401  1.00  0.00     0.188 C 
BRANCH  18  19
ATOM     19  O   UNL     1      -3.565  -1.474  -3.798  1.00  0.00    -0.376 OA
BRANCH  19  20
ATOM     20  C   UNL     1      -4.642  -0.541  -3.803  1.00  0.00     0.202 C 
BRANCH  20  21
ATOM     21  C   UNL     1      -4.893   0.259  -2.518  1.00  0.00     0.261 C 
BRANCH  21  22
ATOM     22  O   UNL     1      -3.747   1.013  -2.073  1.00  0.00    -0.460 OA
BRANCH  22  23
ATOM     23  C   UNL     1      -3.631   1.135  -0.727  1.00  0.00     0.338 C 
ATOM     24  O   UNL     1      -4.426   0.741   0.110  1.00  0.00    -0.246 OA
BRANCH  23  25
ATOM     25  C   UNL     1      -2.366   1.808  -0.355  1.00  0.00     0.060 A 
ATOM     26  C   UNL     1      -1.140   1.187  -0.585  1.00  0.00     0.016 A 
ATOM     27  C   UNL     1      -2.407   2.978   0.409  1.00  0.00     0.016 A 
ATOM     28  C   UNL     1       0.024   1.712  -0.025  1.00  0.00     0.010 A 
ATOM     29  C   UNL     1      -1.228   3.498   0.972  1.00  0.00     0.010 A 
ATOM     30  C   UNL     1      -0.002   2.834   0.805  1.00  0.00    -0.014 A 
BRANCH  30  31
ATOM     31  C   UNL     1       1.197   3.113   1.655  1.00  0.00     0.031 A 
ATOM     32  C   UNL     1       1.089   2.918   3.149  1.00  0.00     0.074 A 
ATOM     33  C   UNL     1       2.421   3.341   1.133  1.00  0.00     0.049 A 
ATOM     34  N   UNL     1       1.944   3.221   4.092  1.00  0.00    -0.248 NA
ATOM     35  C   UNL     1      -0.142   2.277   3.642  1.00  0.00     0.031 C 
ATOM     36  C   UNL     1       2.753   3.353  -0.292  1.00  0.00     0.029 A 
ATOM     37  N   UNL     1       3.631   3.557   1.753  1.00  0.00    -0.354 N 
ATOM     38  C   UNL     1       1.325   2.879   5.290  1.00  0.00     0.074 A 
ATOM     39  C   UNL     1       0.033   2.323   4.954  1.00  0.00     0.031 C 
ATOM     40  C   UNL     1       4.080   3.510  -0.434  1.00  0.00     0.029 A 
ATOM     41  C   UNL     1       4.682   3.723   0.880  1.00  0.00     0.049 A 
ATOM     42  H   UNL     1       3.735   3.589   2.731  1.00  0.00     0.167 HD
ATOM     43  C   UNL     1       1.781   3.033   6.556  1.00  0.00     0.031 A 
ATOM     44  C   UNL     1       5.970   4.062   1.101  1.00  0.00     0.031 A 
ATOM     45  C   UNL     1       3.084   3.540   6.892  1.00  0.00     0.049 A 
ATOM     46  C   UNL     1       6.428   4.345   2.510  1.00  0.00     0.074 A 
ATOM     47  C   UNL     1       3.608   3.807   8.146  1.00  0.00     0.029 A 
ATOM     48  N   UNL     1       4.079   3.832   5.973  1.00  0.00    -0.354 N 
ATOM     49  N   UNL     1       5.774   4.195   3.637  1.00  0.00    -0.248 NA
ATOM     50  C   UNL     1       7.790   4.876   2.673  1.00  0.00     0.031 C 
ATOM     51  C   UNL     1       4.904   4.307   7.981  1.00  0.00     0.029 A 
ATOM     52  C   UNL     1       5.209   4.291   6.629  1.00  0.00     0.049 A 
ATOM     53  H   UNL     1       3.995   3.728   4.998  1.00  0.00     0.167 HD
ATOM     54  C   UNL     1       6.647   4.605   4.641  1.00  0.00     0.074 A 
ATOM     55  C   UNL     1       7.885   4.983   3.992  1.00  0.00     0.031 C 
ATOM     56  C   UNL     1       6.438   4.668   5.979  1.00  0.00     0.031 A 
BRANCH  43  57
ATOM     57  C   UNL     1       0.814   2.750   7.674  1.00  0.00    -0.014 A 
ATOM     58  C   UNL     1       0.452   1.444   8.043  1.00  0.00     0.010 A 
ATOM     59  C   UNL     1       0.263   3.840   8.374  1.00  0.00     0.010 A 
ATOM     60  C   UNL     1      -0.479   1.236   9.066  1.00  0.00     0.020 A 
ATOM     61  C   UNL     1      -0.644   3.635   9.415  1.00  0.00     0.020 A 
ATOM     62  C   UNL     1      -1.025   2.334   9.742  1.00  0.00     0.054 A 
BRANCH  62  63
ATOM     63  S   UNL     1      -2.227   2.040  11.068  1.00  0.00     0.124 S 
ATOM     64  O   UNL     1      -3.413   1.642  10.314  1.00  0.00    -0.237 OA
ATOM     65  O   UNL     1      -1.592   0.979  11.846  1.00  0.00    -0.237 OA
ATOM     66  O   UNL     1      -2.322   3.332  11.742  1.00  0.00    -0.744 OA
ENDBRANCH  62  63
ENDBRANCH  43  57
BRANCH  44  67
ATOM     67  C   UNL     1       6.903   4.264  -0.047  1.00  0.00    -0.014 A 
ATOM     68  C   UNL     1       8.045   3.460  -0.213  1.00  0.00     0.010 A 
ATOM     69  C   UNL     1       6.661   5.297  -0.974  1.00  0.00     0.010 A 
ATOM     70  C   UNL     1       8.928   3.691  -1.275  1.00  0.00     0.020 A 
ATOM     71  C   UNL     1       7.518   5.507  -2.055  1.00  0.00     0.020 A 
ATOM     72  C   UNL     1       8.655   4.710  -2.192  1.00  0.00     0.054 A 
BRANCH  72  73
ATOM     73  S   UNL     1       9.778   4.963  -3.595  1.00  0.00     0.124 S 
ATOM     74  O   UNL     1      10.915   5.620  -2.959  1.00  0.00    -0.237 OA
ATOM     75  O   UNL     1      10.014   3.599  -4.062  1.00  0.00    -0.237 OA
ATOM     76  O   UNL     1       9.000   5.799  -4.507  1.00  0.00    -0.744 OA
ENDBRANCH  72  73
ENDBRANCH  44  67
BRANCH  56  77
ATOM     77  C   UNL     1       7.579   5.134   6.845  1.00  0.00    -0.014 A 
ATOM     78  C   UNL     1       7.981   6.481   6.864  1.00  0.00     0.010 A 
ATOM     79  C   UNL     1       8.225   4.216   7.694  1.00  0.00     0.010 A 
ATOM     80  C   UNL     1       9.030   6.895   7.691  1.00  0.00     0.020 A 
ATOM     81  C   UNL     1       9.256   4.631   8.542  1.00  0.00     0.020 A 
ATOM     82  C   UNL     1       9.662   5.966   8.524  1.00  0.00     0.054 A 
BRANCH  82  83
ATOM     83  S   UNL     1      10.997   6.534   9.613  1.00  0.00     0.124 S 
ATOM     84  O   UNL     1      12.095   6.734   8.670  1.00  0.00    -0.237 OA
ATOM     85  O   UNL     1      10.440   7.752  10.197  1.00  0.00    -0.237 OA
ATOM     86  O   UNL     1      11.175   5.427  10.550  1.00  0.00    -0.744 OA
ENDBRANCH  82  83
ENDBRANCH  56  77
ENDBRANCH  30  31
ENDBRANCH  23  25
ENDBRANCH  22  23
ENDBRANCH  21  22
ENDBRANCH  20  21
ENDBRANCH  19  20
ENDBRANCH  18  19
ENDBRANCH   1  18
TORSDOF 25
