REMARK SMILES CC1(C)CCC[C@@]1(CC(=O)OCCOCCOCCOC(=O)c1ccc(-c2c3nc(c(-c4ccc(S(=O)(=O)[O-])cc4)c4ccc([nH]4)c(-c4ccc(S(=O)(=O)[O-])cc4)c4nc(c(-c5ccc(S(=O)(=O)[O-])cc5)c5ccc2[nH]5)C=C4)C=C3)cc1)[NH+]1CCCCC1
REMARK SMILES IDX 16 1 15 2 14 3 13 4 12 5 11 6 9 7 10 8 8 9 7 10 1 11 2 12
REMARK SMILES IDX 3 13 4 14 5 15 6 16 83 17 84 18 88 19 85 21 87 22 86 23
REMARK SMILES IDX 17 24 18 25 19 26 20 27 21 28 22 29 23 30 24 31 82 32 25 33
REMARK SMILES IDX 81 34 26 35 27 36 28 37 75 38 29 39 80 40 74 41 76 42 30 43
REMARK SMILES IDX 79 44 73 45 72 46 31 48 61 49 42 50 60 51 43 52 46 53 59 54
REMARK SMILES IDX 77 55 44 56 45 57 58 59 78 60 47 61 32 62 33 63 41 64 34 65
REMARK SMILES IDX 40 66 35 67 36 68 37 69 38 70 39 71 62 72 63 73 71 74 64 75
REMARK SMILES IDX 70 76 65 77 66 78 67 79 68 80 69 81 48 82 49 83 57 84 50 85
REMARK SMILES IDX 56 86 51 87 52 88 53 89 54 90 55 91
REMARK H PARENT 83 20 76 47 46 58
REMARK Flexibility Score: inf
ROOT
ATOM      1  C   UNL     1      -3.279   3.671  -0.233  1.00  0.00     0.188 C 
ENDROOT
BRANCH   1   2
ATOM      2  C   UNL     1      -2.627   4.953  -0.766  1.00  0.00     0.188 C 
BRANCH   2   3
ATOM      3  O   UNL     1      -2.882   5.307  -2.124  1.00  0.00    -0.376 OA
BRANCH   3   4
ATOM      4  C   UNL     1      -2.831   4.268  -3.100  1.00  0.00     0.202 C 
BRANCH   4   5
ATOM      5  C   UNL     1      -1.451   3.632  -3.281  1.00  0.00     0.261 C 
BRANCH   5   6
ATOM      6  O   UNL     1      -1.125   2.873  -2.106  1.00  0.00    -0.463 OA
BRANCH   6   7
ATOM      7  C   UNL     1       0.166   2.478  -1.978  1.00  0.00     0.312 C 
ATOM      8  O   UNL     1       0.995   2.551  -2.874  1.00  0.00    -0.252 OA
BRANCH   7   9
ATOM      9  C   UNL     1       0.460   2.094  -0.532  1.00  0.00     0.191 C 
BRANCH   9  10
ATOM     10  C   UNL     1      -0.012   0.708   0.065  1.00  0.00     0.113 C 
ATOM     11  C   UNL     1       2.330  -0.517   0.221  1.00  0.00     0.018 C 
ATOM     12  C   UNL     1       0.961  -0.451  -0.483  1.00  0.00     0.020 C 
ATOM     13  C   UNL     1       1.293  -0.342  -1.998  1.00  0.00     0.018 C 
ATOM     14  C   UNL     1       0.131  -1.744  -0.345  1.00  0.00     0.013 C 
ATOM     15  C   UNL     1      -1.308  -1.322  -0.616  1.00  0.00     0.007 C 
ATOM     16  C   UNL     1      -1.375   0.205  -0.483  1.00  0.00     0.070 C 
BRANCH  10  17
ATOM     17  N   UNL     1      -0.062   0.840   1.576  1.00  0.00    -0.329 N 
ATOM     18  C   UNL     1      -0.060  -0.301   2.498  1.00  0.00     0.262 C 
ATOM     19  C   UNL     1      -0.832   1.934   2.194  1.00  0.00     0.262 C 
ATOM     20  H   UNL     1       0.922   1.085   1.470  1.00  0.00     0.348 HD
ATOM     21  C   UNL     1      -1.440  -0.778   2.952  1.00  0.00     0.062 C 
ATOM     22  C   UNL     1      -2.227   1.566   2.718  1.00  0.00     0.062 C 
ATOM     23  C   UNL     1      -2.212   0.346   3.616  1.00  0.00     0.012 C 
ENDBRANCH  10  17
ENDBRANCH   9  10
ENDBRANCH   7   9
ENDBRANCH   6   7
ENDBRANCH   5   6
ENDBRANCH   4   5
ENDBRANCH   3   4
ENDBRANCH   2   3
ENDBRANCH   1   2
BRANCH   1  24
ATOM     24  O   UNL     1      -4.641   3.544  -0.629  1.00  0.00    -0.376 OA
BRANCH  24  25
ATOM     25  C   UNL     1      -5.498   3.150   0.442  1.00  0.00     0.202 C 
BRANCH  25  26
ATOM     26  C   UNL     1      -6.050   4.397   1.129  1.00  0.00     0.261 C 
BRANCH  26  27
ATOM     27  O   UNL     1      -5.013   5.133   1.808  1.00  0.00    -0.460 OA
BRANCH  27  28
ATOM     28  C   UNL     1      -4.747   4.724   3.066  1.00  0.00     0.338 C 
ATOM     29  O   UNL     1      -5.290   3.814   3.674  1.00  0.00    -0.246 OA
BRANCH  28  30
ATOM     30  C   UNL     1      -3.626   5.510   3.605  1.00  0.00     0.060 A 
ATOM     31  C   UNL     1      -2.320   5.177   3.243  1.00  0.00     0.016 A 
ATOM     32  C   UNL     1      -3.857   6.492   4.563  1.00  0.00     0.016 A 
ATOM     33  C   UNL     1      -1.235   5.756   3.895  1.00  0.00     0.010 A 
ATOM     34  C   UNL     1      -2.767   7.128   5.166  1.00  0.00     0.010 A 
ATOM     35  C   UNL     1      -1.446   6.741   4.864  1.00  0.00    -0.014 A 
BRANCH  35  36
ATOM     36  C   UNL     1      -0.305   7.309   5.631  1.00  0.00     0.031 A 
ATOM     37  C   UNL     1      -0.260   7.121   7.124  1.00  0.00     0.074 A 
ATOM     38  C   UNL     1       0.692   7.974   5.016  1.00  0.00     0.049 A 
ATOM     39  N   UNL     1       0.464   7.745   8.014  1.00  0.00    -0.248 NA
ATOM     40  C   UNL     1      -1.161   6.100   7.686  1.00  0.00     0.031 C 
ATOM     41  C   UNL     1       0.842   8.146   3.569  1.00  0.00     0.029 A 
ATOM     42  N   UNL     1       1.772   8.640   5.541  1.00  0.00    -0.354 N 
ATOM     43  C   UNL     1       0.062   7.243   9.246  1.00  0.00     0.074 A 
ATOM     44  C   UNL     1      -0.960   6.251   8.988  1.00  0.00     0.031 C 
ATOM     45  C   UNL     1       1.953   8.859   3.324  1.00  0.00     0.029 A 
ATOM     46  C   UNL     1       2.540   9.274   4.593  1.00  0.00     0.049 A 
ATOM     47  H   UNL     1       1.977   8.662   6.504  1.00  0.00     0.167 HD
ATOM     48  C   UNL     1       0.496   7.591  10.481  1.00  0.00     0.031 A 
ATOM     49  C   UNL     1       3.560  10.145   4.728  1.00  0.00     0.031 A 
ATOM     50  C   UNL     1       1.537   8.552  10.726  1.00  0.00     0.049 A 
ATOM     51  C   UNL     1       3.984  10.569   6.108  1.00  0.00     0.074 A 
ATOM     52  C   UNL     1       2.029   9.002  11.939  1.00  0.00     0.029 A 
ATOM     53  N   UNL     1       2.264   9.195   9.736  1.00  0.00    -0.354 N 
ATOM     54  N   UNL     1       3.520  10.175   7.270  1.00  0.00    -0.248 NA
ATOM     55  C   UNL     1       5.051  11.575   6.192  1.00  0.00     0.031 C 
ATOM     56  C   UNL     1       3.033   9.941  11.681  1.00  0.00     0.029 A 
ATOM     57  C   UNL     1       3.196  10.042  10.309  1.00  0.00     0.049 A 
ATOM     58  H   UNL     1       2.135   9.069   8.768  1.00  0.00     0.167 HD
ATOM     59  C   UNL     1       4.245  10.880   8.224  1.00  0.00     0.074 A 
ATOM     60  C   UNL     1       5.192  11.708   7.505  1.00  0.00     0.031 C 
ATOM     61  C   UNL     1       4.131  10.854   9.574  1.00  0.00     0.031 A 
BRANCH  48  62
ATOM     62  C   UNL     1      -0.198   6.970  11.661  1.00  0.00    -0.014 A 
ATOM     63  C   UNL     1       0.041   5.639  12.040  1.00  0.00     0.010 A 
ATOM     64  C   UNL     1      -1.088   7.752  12.422  1.00  0.00     0.010 A 
ATOM     65  C   UNL     1      -0.622   5.089  13.141  1.00  0.00     0.020 A 
ATOM     66  C   UNL     1      -1.736   7.213  13.536  1.00  0.00     0.020 A 
ATOM     67  C   UNL     1      -1.510   5.879  13.879  1.00  0.00     0.054 A 
BRANCH  67  68
ATOM     68  S   UNL     1      -2.344   5.150  15.316  1.00  0.00     0.124 S 
ATOM     69  O   UNL     1      -3.361   4.315  14.682  1.00  0.00    -0.237 OA
ATOM     70  O   UNL     1      -1.264   4.426  15.983  1.00  0.00    -0.237 OA
ATOM     71  O   UNL     1      -2.855   6.308  16.045  1.00  0.00    -0.744 OA
ENDBRANCH  67  68
ENDBRANCH  48  62
BRANCH  49  72
ATOM     72  C   UNL     1       4.193  10.745   3.522  1.00  0.00    -0.014 A 
ATOM     73  C   UNL     1       5.513  10.422   3.167  1.00  0.00     0.010 A 
ATOM     74  C   UNL     1       3.472  11.652   2.723  1.00  0.00     0.010 A 
ATOM     75  C   UNL     1       6.107  11.008   2.044  1.00  0.00     0.020 A 
ATOM     76  C   UNL     1       4.051  12.216   1.584  1.00  0.00     0.020 A 
ATOM     77  C   UNL     1       5.372  11.901   1.260  1.00  0.00     0.054 A 
BRANCH  77  78
ATOM     78  S   UNL     1       6.139  12.616  -0.221  1.00  0.00     0.124 S 
ATOM     79  O   UNL     1       6.972  13.670   0.349  1.00  0.00    -0.237 OA
ATOM     80  O   UNL     1       6.858  11.478  -0.789  1.00  0.00    -0.237 OA
ATOM     81  O   UNL     1       4.996  13.074  -1.007  1.00  0.00    -0.744 OA
ENDBRANCH  77  78
ENDBRANCH  49  72
BRANCH  61  82
ATOM     82  C   UNL     1       5.077  11.717  10.361  1.00  0.00    -0.014 A 
ATOM     83  C   UNL     1       4.888  13.107  10.447  1.00  0.00     0.010 A 
ATOM     84  C   UNL     1       6.141  11.121  11.061  1.00  0.00     0.010 A 
ATOM     85  C   UNL     1       5.766  13.892  11.199  1.00  0.00     0.020 A 
ATOM     86  C   UNL     1       7.007  11.900  11.832  1.00  0.00     0.020 A 
ATOM     87  C   UNL     1       6.822  13.283  11.884  1.00  0.00     0.054 A 
BRANCH  87  88
ATOM     88  S   UNL     1       7.926  14.314  12.889  1.00  0.00     0.124 S 
ATOM     89  O   UNL     1       8.776  14.928  11.872  1.00  0.00    -0.237 OA
ATOM     90  O   UNL     1       6.998  15.220  13.562  1.00  0.00    -0.237 OA
ATOM     91  O   UNL     1       8.594  13.354  13.764  1.00  0.00    -0.744 OA
ENDBRANCH  87  88
ENDBRANCH  61  82
ENDBRANCH  35  36
ENDBRANCH  28  30
ENDBRANCH  27  28
ENDBRANCH  26  27
ENDBRANCH  25  26
ENDBRANCH  24  25
ENDBRANCH   1  24
TORSDOF 22
