REMARK SMILES CC(C)CC(=O)Nc1ccc(NC(=O)[C@@H]2CCCC[C@@H]2C(=O)OCCOCCOCCOC(=O)c2ccc(-c3c4nc(c(-c5ccc(S(=O)(=O)[O-])cc5)c5ccc([nH]5)c(-c5ccc(S(=O)(=O)[O-])cc5)c5nc(c(-c6ccc(S(=O)(=O)[O-])cc6)c6ccc3[nH]6)C=C5)C=C4)cc2)cc1
REMARK SMILES IDX 27 1 26 2 25 3 24 4 23 5 21 6 22 7 20 8 15 9 16 10 17 11
REMARK SMILES IDX 19 12 18 13 13 14 12 15 14 17 11 18 8 19 9 20 96 21 10 22
REMARK SMILES IDX 95 23 7 24 5 25 6 26 4 28 2 29 1 30 3 31 28 32 29 33 30 34
REMARK SMILES IDX 31 35 32 36 33 37 34 38 35 39 36 40 94 41 37 42 93 43 38 44
REMARK SMILES IDX 39 45 40 46 87 47 41 48 92 49 86 50 88 51 42 52 91 53 85 54
REMARK SMILES IDX 84 55 43 57 73 58 54 59 72 60 55 61 58 62 71 63 89 64 56 65
REMARK SMILES IDX 57 66 70 68 90 69 59 70 44 71 45 72 53 73 46 74 52 75 47 76
REMARK SMILES IDX 48 77 49 78 50 79 51 80 74 81 75 82 83 83 76 84 82 85 77 86
REMARK SMILES IDX 78 87 79 88 80 89 81 90 60 91 61 92 69 93 62 94 68 95 63 96
REMARK SMILES IDX 64 97 65 98 66 99 67 100
REMARK H PARENT 12 16 7 27 88 56 58 67
REMARK Flexibility Score: inf
ROOT
ATOM      1  C   UNL     1      -0.369   4.825   8.741  1.00  0.00     0.188 C 
ENDROOT
BRANCH   1   2
ATOM      2  O   UNL     1       0.060   3.739   9.554  1.00  0.00    -0.376 OA
BRANCH   2   3
ATOM      3  C   UNL     1       1.279   3.077   9.246  1.00  0.00     0.202 C 
BRANCH   3   4
ATOM      4  C   UNL     1       1.275   2.194   7.995  1.00  0.00     0.261 C 
BRANCH   4   5
ATOM      5  O   UNL     1       1.150   2.922   6.749  1.00  0.00    -0.463 OA
BRANCH   5   6
ATOM      6  C   UNL     1       0.013   2.689   6.061  1.00  0.00     0.309 C 
ATOM      7  O   UNL     1      -0.879   1.940   6.454  1.00  0.00    -0.252 OA
BRANCH   6   8
ATOM      8  C   UNL     1      -0.127   3.388   4.712  1.00  0.00     0.111 C 
ATOM      9  C   UNL     1       0.998   4.138   3.986  1.00  0.00     0.093 C 
ATOM     10  C   UNL     1       1.232   5.590   4.359  1.00  0.00     0.014 C 
ATOM     11  C   UNL     1      -0.069   6.338   4.071  1.00  0.00     0.001 C 
ATOM     12  C   UNL     1      -1.431   4.207   4.656  1.00  0.00     0.016 C 
ATOM     13  C   UNL     1      -1.267   5.721   4.794  1.00  0.00     0.001 C 
BRANCH   9  14
ATOM     14  C   UNL     1       2.217   3.311   3.707  1.00  0.00     0.228 C 
ATOM     15  N   UNL     1       2.280   2.603   2.533  1.00  0.00    -0.326 N 
ATOM     16  H   UNL     1       3.149   2.159   2.403  1.00  0.00     0.169 HD
ATOM     17  O   UNL     1       3.182   3.291   4.472  1.00  0.00    -0.274 OA
BRANCH  15  18
ATOM     18  C   UNL     1       1.378   2.366   1.464  1.00  0.00     0.041 A 
ATOM     19  C   UNL     1      -0.270   1.482  -0.635  1.00  0.00     0.041 A 
ATOM     20  C   UNL     1      -0.820   2.254   0.360  1.00  0.00     0.028 A 
ATOM     21  C   UNL     1       1.108   1.312  -0.694  1.00  0.00     0.028 A 
ATOM     22  C   UNL     1       0.006   2.665   1.410  1.00  0.00     0.028 A 
ATOM     23  C   UNL     1       1.926   1.728   0.355  1.00  0.00     0.028 A 
BRANCH  19  24
ATOM     24  N   UNL     1      -1.096   0.793  -1.519  1.00  0.00    -0.326 N 
ATOM     25  C   UNL     1      -1.018  -0.563  -1.753  1.00  0.00     0.224 C 
ATOM     26  O   UNL     1      -1.504  -1.046  -2.776  1.00  0.00    -0.275 OA
ATOM     27  H   UNL     1      -1.778   1.306  -2.008  1.00  0.00     0.169 HD
BRANCH  25  28
ATOM     28  C   UNL     1      -0.520  -1.451  -0.604  1.00  0.00     0.103 C 
BRANCH  28  29
ATOM     29  C   UNL     1       0.666  -2.380  -0.912  1.00  0.00    -0.008 C 
ATOM     30  C   UNL     1       2.023  -1.761  -0.567  1.00  0.00     0.008 C 
ATOM     31  C   UNL     1       0.523  -3.668  -0.093  1.00  0.00     0.008 C 
ENDBRANCH  28  29
ENDBRANCH  25  28
ENDBRANCH  19  24
ENDBRANCH  15  18
ENDBRANCH   9  14
ENDBRANCH   6   8
ENDBRANCH   5   6
ENDBRANCH   4   5
ENDBRANCH   3   4
ENDBRANCH   2   3
ENDBRANCH   1   2
BRANCH   1  32
ATOM     32  C   UNL     1       0.682   5.644   7.997  1.00  0.00     0.188 C 
BRANCH  32  33
ATOM     33  O   UNL     1       1.818   5.940   8.795  1.00  0.00    -0.376 OA
BRANCH  33  34
ATOM     34  C   UNL     1       2.557   7.063   8.321  1.00  0.00     0.202 C 
BRANCH  34  35
ATOM     35  C   UNL     1       2.202   8.249   9.218  1.00  0.00     0.261 C 
BRANCH  35  36
ATOM     36  O   UNL     1       0.800   8.587   9.158  1.00  0.00    -0.460 OA
BRANCH  36  37
ATOM     37  C   UNL     1       0.400   9.162   7.999  1.00  0.00     0.338 C 
ATOM     38  O   UNL     1       1.118   9.486   7.070  1.00  0.00    -0.246 OA
BRANCH  37  39
ATOM     39  C   UNL     1      -1.078   9.120   7.916  1.00  0.00     0.060 A 
ATOM     40  C   UNL     1      -1.633   8.591   6.749  1.00  0.00     0.016 A 
ATOM     41  C   UNL     1      -1.913   9.598   8.924  1.00  0.00     0.016 A 
ATOM     42  C   UNL     1      -3.013   8.521   6.573  1.00  0.00     0.010 A 
ATOM     43  C   UNL     1      -3.303   9.572   8.733  1.00  0.00     0.010 A 
ATOM     44  C   UNL     1      -3.861   9.047   7.550  1.00  0.00    -0.014 A 
BRANCH  44  45
ATOM     45  C   UNL     1      -5.298   9.244   7.232  1.00  0.00     0.031 A 
ATOM     46  C   UNL     1      -5.741  10.608   6.774  1.00  0.00     0.074 A 
ATOM     47  C   UNL     1      -6.188   8.236   7.279  1.00  0.00     0.049 A 
ATOM     48  N   UNL     1      -6.948  11.059   6.554  1.00  0.00    -0.248 NA
ATOM     49  C   UNL     1      -4.673  11.590   6.524  1.00  0.00     0.031 C 
ATOM     50  C   UNL     1      -5.879   6.840   7.588  1.00  0.00     0.029 A 
ATOM     51  N   UNL     1      -7.545   8.238   7.061  1.00  0.00    -0.354 N 
ATOM     52  C   UNL     1      -6.788  12.387   6.175  1.00  0.00     0.074 A 
ATOM     53  C   UNL     1      -5.369  12.667   6.194  1.00  0.00     0.031 C 
ATOM     54  C   UNL     1      -7.017   6.123   7.549  1.00  0.00     0.029 A 
ATOM     55  C   UNL     1      -8.141   7.016   7.267  1.00  0.00     0.049 A 
ATOM     56  H   UNL     1      -8.044   9.040   6.784  1.00  0.00     0.167 HD
ATOM     57  C   UNL     1      -7.737  13.296   5.849  1.00  0.00     0.031 A 
ATOM     58  C   UNL     1      -9.445   6.667   7.267  1.00  0.00     0.031 A 
ATOM     59  C   UNL     1      -9.148  13.020   5.833  1.00  0.00     0.049 A 
ATOM     60  C   UNL     1     -10.494   7.720   7.004  1.00  0.00     0.074 A 
ATOM     61  C   UNL     1     -10.190  13.884   5.547  1.00  0.00     0.029 A 
ATOM     62  N   UNL     1      -9.714  11.786   6.110  1.00  0.00    -0.354 N 
ATOM     63  N   UNL     1     -10.336   8.987   6.702  1.00  0.00    -0.248 NA
ATOM     64  C   UNL     1     -11.900   7.295   7.090  1.00  0.00     0.031 C 
ATOM     65  C   UNL     1     -11.391  13.183   5.699  1.00  0.00     0.029 A 
ATOM     66  C   UNL     1     -11.093  11.868   6.021  1.00  0.00     0.049 A 
ATOM     67  H   UNL     1      -9.210  10.971   6.337  1.00  0.00     0.167 HD
ATOM     68  C   UNL     1     -11.619   9.503   6.542  1.00  0.00     0.074 A 
ATOM     69  C   UNL     1     -12.541   8.410   6.764  1.00  0.00     0.031 C 
ATOM     70  C   UNL     1     -12.000  10.770   6.239  1.00  0.00     0.031 A 
BRANCH  57  71
ATOM     71  C   UNL     1      -7.274  14.696   5.552  1.00  0.00    -0.014 A 
ATOM     72  C   UNL     1      -6.605  15.011   4.357  1.00  0.00     0.010 A 
ATOM     73  C   UNL     1      -7.521  15.715   6.491  1.00  0.00     0.010 A 
ATOM     74  C   UNL     1      -6.153  16.313   4.125  1.00  0.00     0.020 A 
ATOM     75  C   UNL     1      -7.095  17.023   6.250  1.00  0.00     0.020 A 
ATOM     76  C   UNL     1      -6.395  17.309   5.077  1.00  0.00     0.054 A 
BRANCH  76  77
ATOM     77  S   UNL     1      -5.800  18.991   4.751  1.00  0.00     0.124 S 
ATOM     78  O   UNL     1      -4.362  18.846   4.962  1.00  0.00    -0.237 OA
ATOM     79  O   UNL     1      -6.212  19.214   3.367  1.00  0.00    -0.237 OA
ATOM     80  O   UNL     1      -6.497  19.804   5.744  1.00  0.00    -0.744 OA
ENDBRANCH  76  77
ENDBRANCH  57  71
BRANCH  58  81
ATOM     81  C   UNL     1      -9.848   5.267   7.585  1.00  0.00    -0.014 A 
ATOM     82  C   UNL     1     -10.445   4.448   6.609  1.00  0.00     0.010 A 
ATOM     83  C   UNL     1      -9.660   4.753   8.881  1.00  0.00     0.010 A 
ATOM     84  C   UNL     1     -10.858   3.150   6.928  1.00  0.00     0.020 A 
ATOM     85  C   UNL     1     -10.046   3.446   9.196  1.00  0.00     0.020 A 
ATOM     86  C   UNL     1     -10.654   2.657   8.219  1.00  0.00     0.054 A 
BRANCH  86  87
ATOM     87  S   UNL     1     -11.155   0.954   8.599  1.00  0.00     0.124 S 
ATOM     88  O   UNL     1     -12.608   1.074   8.669  1.00  0.00    -0.237 OA
ATOM     89  O   UNL     1     -10.636   0.210   7.454  1.00  0.00    -0.237 OA
ATOM     90  O   UNL     1     -10.487   0.676   9.868  1.00  0.00    -0.744 OA
ENDBRANCH  86  87
ENDBRANCH  58  81
BRANCH  70  91
ATOM     91  C   UNL     1     -13.474  11.041   6.085  1.00  0.00    -0.014 A 
ATOM     92  C   UNL     1     -14.328  11.096   7.199  1.00  0.00     0.010 A 
ATOM     93  C   UNL     1     -13.997  11.311   4.806  1.00  0.00     0.010 A 
ATOM     94  C   UNL     1     -15.686  11.389   7.035  1.00  0.00     0.020 A 
ATOM     95  C   UNL     1     -15.348  11.630   4.641  1.00  0.00     0.020 A 
ATOM     96  C   UNL     1     -16.187  11.654   5.756  1.00  0.00     0.054 A 
BRANCH  96  97
ATOM     97  S   UNL     1     -17.941  12.079   5.574  1.00  0.00     0.124 S 
ATOM     98  O   UNL     1     -18.589  10.783   5.755  1.00  0.00    -0.237 OA
ATOM     99  O   UNL     1     -18.153  13.043   6.650  1.00  0.00    -0.237 OA
ATOM    100  O   UNL     1     -18.025  12.633   4.224  1.00  0.00    -0.744 OA
ENDBRANCH  96  97
ENDBRANCH  70  91
ENDBRANCH  44  45
ENDBRANCH  37  39
ENDBRANCH  36  37
ENDBRANCH  35  36
ENDBRANCH  34  35
ENDBRANCH  33  34
ENDBRANCH  32  33
ENDBRANCH   1  32
TORSDOF 25
