REMARK SMILES CC[C@H]1CO[C@@H](C)CN1c1cccc(F)c1C(=O)OCCOCCOCCOC(=O)c1ccc(-c2c3nc(c(-c4ccc(S(=O)(=O)[O-])cc4)c4ccc([nH]4)c(-c4ccc(S(=O)(=O)[O-])cc4)c4nc(c(-c5ccc(S(=O)(=O)[O-])cc5)c5ccc2[nH]5)C=C4)C=C3)cc1
REMARK SMILES IDX 24 1 23 2 22 3 21 4 20 5 19 6 17 7 18 8 16 9 10 10 11 11
REMARK SMILES IDX 12 12 14 13 13 14 15 15 9 16 3 17 4 18 5 19 8 20 6 21 7 22
REMARK SMILES IDX 2 23 1 24 25 25 26 26 27 27 28 28 29 29 30 30 31 31 32 32
REMARK SMILES IDX 90 33 33 34 89 35 34 36 35 37 36 38 83 39 37 40 88 41 82 42
REMARK SMILES IDX 84 43 38 44 87 45 81 46 80 47 39 49 69 50 50 51 68 52 51 53
REMARK SMILES IDX 54 54 67 55 85 56 52 57 53 58 66 60 86 61 55 62 40 63 41 64
REMARK SMILES IDX 49 65 42 66 48 67 43 68 44 69 45 70 46 71 47 72 70 73 71 74
REMARK SMILES IDX 79 75 72 76 78 77 73 78 74 79 75 80 76 81 77 82 56 83 57 84
REMARK SMILES IDX 65 85 58 86 64 87 59 88 60 89 61 90 62 91 63 92
REMARK H PARENT 84 48 54 59
REMARK Flexibility Score: inf
ROOT
ATOM      1  C   UNL     1      -0.346  -8.171  -0.326  1.00  0.00     0.188 C 
ENDROOT
BRANCH   1   2
ATOM      2  C   UNL     1       1.121  -8.005  -0.750  1.00  0.00     0.188 C 
BRANCH   2   3
ATOM      3  O   UNL     1       1.959  -9.059  -0.269  1.00  0.00    -0.376 OA
BRANCH   3   4
ATOM      4  C   UNL     1       3.091  -8.590   0.467  1.00  0.00     0.202 C 
BRANCH   4   5
ATOM      5  C   UNL     1       2.744  -8.354   1.936  1.00  0.00     0.261 C 
BRANCH   5   6
ATOM      6  O   UNL     1       1.604  -7.486   2.069  1.00  0.00    -0.460 OA
BRANCH   6   7
ATOM      7  C   UNL     1       1.791  -6.216   2.502  1.00  0.00     0.343 C 
ATOM      8  O   UNL     1       2.857  -5.696   2.778  1.00  0.00    -0.246 OA
BRANCH   7   9
ATOM      9  C   UNL     1       0.455  -5.585   2.581  1.00  0.00     0.119 A 
ATOM     10  C   UNL     1       0.123  -4.401   1.885  1.00  0.00     0.055 A 
ATOM     11  C   UNL     1      -1.191  -3.914   2.027  1.00  0.00     0.027 A 
ATOM     12  C   UNL     1      -2.130  -4.554   2.844  1.00  0.00     0.005 A 
ATOM     13  C   UNL     1      -0.491  -6.215   3.400  1.00  0.00     0.139 A 
ATOM     14  C   UNL     1      -1.778  -5.708   3.532  1.00  0.00     0.040 A 
ATOM     15  F   UNL     1      -0.177  -7.325   4.086  1.00  0.00    -0.206 F 
BRANCH  10  16
ATOM     16  N   UNL     1       1.025  -3.755   1.046  1.00  0.00    -0.363 N 
ATOM     17  C   UNL     1       1.279  -2.285   1.095  1.00  0.00     0.108 C 
ATOM     18  C   UNL     1       2.661  -2.044   0.423  1.00  0.00     0.185 C 
ATOM     19  O   UNL     1       2.702  -2.536  -0.927  1.00  0.00    -0.375 OA
ATOM     20  C   UNL     1       0.993  -4.208  -0.359  1.00  0.00     0.148 C 
ATOM     21  C   UNL     1       2.342  -3.919  -1.047  1.00  0.00     0.134 C 
ATOM     22  C   UNL     1       3.491  -4.807  -0.602  1.00  0.00     0.040 C 
BRANCH  17  23
ATOM     23  C   UNL     1       1.255  -1.672   2.503  1.00  0.00     0.024 C 
ATOM     24  C   UNL     1       1.002  -0.167   2.438  1.00  0.00     0.006 C 
ENDBRANCH  17  23
ENDBRANCH  10  16
ENDBRANCH   7   9
ENDBRANCH   6   7
ENDBRANCH   5   6
ENDBRANCH   4   5
ENDBRANCH   3   4
ENDBRANCH   2   3
ENDBRANCH   1   2
BRANCH   1  25
ATOM     25  O   UNL     1      -1.062  -9.351  -0.690  1.00  0.00    -0.376 OA
BRANCH  25  26
ATOM     26  C   UNL     1      -0.502 -10.200  -1.676  1.00  0.00     0.202 C 
BRANCH  26  27
ATOM     27  C   UNL     1      -0.769  -9.794  -3.130  1.00  0.00     0.261 C 
BRANCH  27  28
ATOM     28  O   UNL     1      -0.565  -8.398  -3.409  1.00  0.00    -0.460 OA
BRANCH  28  29
ATOM     29  C   UNL     1      -1.687  -7.638  -3.338  1.00  0.00     0.338 C 
ATOM     30  O   UNL     1      -2.810  -8.016  -3.046  1.00  0.00    -0.246 OA
BRANCH  29  31
ATOM     31  C   UNL     1      -1.370  -6.215  -3.596  1.00  0.00     0.060 A 
ATOM     32  C   UNL     1      -1.996  -5.245  -2.802  1.00  0.00     0.016 A 
ATOM     33  C   UNL     1      -0.561  -5.823  -4.667  1.00  0.00     0.016 A 
ATOM     34  C   UNL     1      -1.847  -3.887  -3.100  1.00  0.00     0.010 A 
ATOM     35  C   UNL     1      -0.426  -4.461  -4.973  1.00  0.00     0.010 A 
ATOM     36  C   UNL     1      -1.092  -3.486  -4.211  1.00  0.00    -0.014 A 
BRANCH  36  37
ATOM     37  C   UNL     1      -1.109  -2.064  -4.651  1.00  0.00     0.031 A 
ATOM     38  C   UNL     1      -2.178  -1.597  -5.592  1.00  0.00     0.074 A 
ATOM     39  C   UNL     1      -0.189  -1.182  -4.220  1.00  0.00     0.049 A 
ATOM     40  N   UNL     1      -2.364  -0.404  -6.092  1.00  0.00    -0.248 NA
ATOM     41  C   UNL     1      -3.160  -2.601  -6.026  1.00  0.00     0.031 C 
ATOM     42  C   UNL     1       0.879  -1.503  -3.292  1.00  0.00     0.029 A 
ATOM     43  N   UNL     1       0.005   0.149  -4.498  1.00  0.00    -0.354 N 
ATOM     44  C   UNL     1      -3.488  -0.507  -6.898  1.00  0.00     0.074 A 
ATOM     45  C   UNL     1      -3.930  -1.886  -6.834  1.00  0.00     0.031 C 
ATOM     46  C   UNL     1       1.626  -0.411  -3.068  1.00  0.00     0.029 A 
ATOM     47  C   UNL     1       1.105   0.689  -3.869  1.00  0.00     0.049 A 
ATOM     48  H   UNL     1      -0.585   0.667  -5.090  1.00  0.00     0.167 HD
ATOM     49  C   UNL     1      -4.094   0.457  -7.628  1.00  0.00     0.031 A 
ATOM     50  C   UNL     1       1.651   1.919  -3.941  1.00  0.00     0.031 A 
ATOM     51  C   UNL     1      -3.628   1.814  -7.735  1.00  0.00     0.049 A 
ATOM     52  C   UNL     1       1.009   2.947  -4.830  1.00  0.00     0.074 A 
ATOM     53  C   UNL     1      -4.180   2.856  -8.460  1.00  0.00     0.029 A 
ATOM     54  N   UNL     1      -2.489   2.314  -7.122  1.00  0.00    -0.354 N 
ATOM     55  N   UNL     1      -0.079   2.841  -5.554  1.00  0.00    -0.248 NA
ATOM     56  C   UNL     1       1.667   4.258  -4.917  1.00  0.00     0.031 C 
ATOM     57  C   UNL     1      -3.346   3.971  -8.329  1.00  0.00     0.029 A 
ATOM     58  C   UNL     1      -2.305   3.641  -7.476  1.00  0.00     0.049 A 
ATOM     59  H   UNL     1      -1.899   1.802  -6.523  1.00  0.00     0.167 HD
ATOM     60  C   UNL     1      -0.247   4.077  -6.166  1.00  0.00     0.074 A 
ATOM     61  C   UNL     1       0.840   4.921  -5.715  1.00  0.00     0.031 C 
ATOM     62  C   UNL     1      -1.217   4.473  -7.026  1.00  0.00     0.031 A 
BRANCH  49  63
ATOM     63  C   UNL     1      -5.311   0.053  -8.410  1.00  0.00    -0.014 A 
ATOM     64  C   UNL     1      -6.536  -0.194  -7.764  1.00  0.00     0.010 A 
ATOM     65  C   UNL     1      -5.232  -0.065  -9.808  1.00  0.00     0.010 A 
ATOM     66  C   UNL     1      -7.653  -0.590  -8.502  1.00  0.00     0.020 A 
ATOM     67  C   UNL     1      -6.354  -0.438 -10.552  1.00  0.00     0.020 A 
ATOM     68  C   UNL     1      -7.553  -0.715  -9.892  1.00  0.00     0.054 A 
BRANCH  68  69
ATOM     69  S   UNL     1      -9.021  -1.220 -10.828  1.00  0.00     0.124 S 
ATOM     70  O   UNL     1      -9.112  -2.640 -10.499  1.00  0.00    -0.237 OA
ATOM     71  O   UNL     1     -10.069  -0.375 -10.260  1.00  0.00    -0.237 OA
ATOM     72  O   UNL     1      -8.668  -0.922 -12.213  1.00  0.00    -0.744 OA
ENDBRANCH  68  69
ENDBRANCH  49  63
BRANCH  50  73
ATOM     73  C   UNL     1       2.887   2.244  -3.175  1.00  0.00    -0.014 A 
ATOM     74  C   UNL     1       2.850   3.155  -2.104  1.00  0.00     0.010 A 
ATOM     75  C   UNL     1       4.117   1.657  -3.526  1.00  0.00     0.010 A 
ATOM     76  C   UNL     1       4.021   3.490  -1.416  1.00  0.00     0.020 A 
ATOM     77  C   UNL     1       5.285   1.968  -2.823  1.00  0.00     0.020 A 
ATOM     78  C   UNL     1       5.231   2.894  -1.781  1.00  0.00     0.054 A 
BRANCH  78  79
ATOM     79  S   UNL     1       6.732   3.319  -0.853  1.00  0.00     0.124 S 
ATOM     80  O   UNL     1       7.022   4.662  -1.344  1.00  0.00    -0.237 OA
ATOM     81  O   UNL     1       6.279   3.237   0.534  1.00  0.00    -0.237 OA
ATOM     82  O   UNL     1       7.685   2.286  -1.251  1.00  0.00    -0.744 OA
ENDBRANCH  78  79
ENDBRANCH  50  73
BRANCH  62  83
ATOM     83  C   UNL     1      -1.167   5.895  -7.517  1.00  0.00    -0.014 A 
ATOM     84  C   UNL     1      -0.206   6.309  -8.456  1.00  0.00     0.010 A 
ATOM     85  C   UNL     1      -2.131   6.817  -7.070  1.00  0.00     0.010 A 
ATOM     86  C   UNL     1      -0.193   7.627  -8.920  1.00  0.00     0.020 A 
ATOM     87  C   UNL     1      -2.138   8.129  -7.551  1.00  0.00     0.020 A 
ATOM     88  C   UNL     1      -1.160   8.529  -8.464  1.00  0.00     0.054 A 
BRANCH  88  89
ATOM     89  S   UNL     1      -1.156  10.221  -9.118  1.00  0.00     0.124 S 
ATOM     90  O   UNL     1      -0.027  10.818  -8.411  1.00  0.00    -0.237 OA
ATOM     91  O   UNL     1      -0.962  10.012 -10.551  1.00  0.00    -0.237 OA
ATOM     92  O   UNL     1      -2.470  10.740  -8.744  1.00  0.00    -0.744 OA
ENDBRANCH  88  89
ENDBRANCH  62  83
ENDBRANCH  36  37
ENDBRANCH  29  31
ENDBRANCH  28  29
ENDBRANCH  27  28
ENDBRANCH  26  27
ENDBRANCH  25  26
ENDBRANCH   1  25
TORSDOF 22
