REMARK SMILES Cc1nc2nc(CNC(=O)OC(C)(C)C)nn2c(C)c1CCC(=O)OCCOCCOCCOC(=O)c1ccc(-c2c3nc(c(-c4ccc(S(=O)(=O)[O-])cc4)c4ccc([nH]4)c(-c4ccc(S(=O)(=O)[O-])cc4)c4nc(c(-c5ccc(S(=O)(=O)[O-])cc5)c5ccc2[nH]5)C=C4)C=C3)cc1
REMARK SMILES IDX 28 1 27 2 26 3 25 4 23 5 24 6 22 7 21 8 20 9 1 10 2 11 3 12
REMARK SMILES IDX 4 13 18 14 5 15 17 16 19 17 6 18 16 19 7 20 8 21 9 22 10 24
REMARK SMILES IDX 11 25 12 26 13 27 14 28 15 29 29 30 30 31 31 32 32 33 33 34
REMARK SMILES IDX 34 35 35 36 36 37 37 38 38 39 96 40 39 41 95 42 40 43 41 44
REMARK SMILES IDX 42 45 89 46 43 47 94 48 88 49 90 50 44 51 93 52 87 53 86 54
REMARK SMILES IDX 45 56 75 57 56 58 74 59 57 60 60 61 73 62 91 63 58 64 59 65
REMARK SMILES IDX 72 67 92 68 61 69 46 70 47 71 55 72 48 73 54 74 49 75 50 76
REMARK SMILES IDX 51 77 52 78 53 79 76 80 77 81 85 82 78 83 84 84 79 85 80 86
REMARK SMILES IDX 81 87 82 88 83 89 62 90 63 91 71 92 64 93 70 94 65 95 66 96
REMARK SMILES IDX 67 97 68 98 69 99
REMARK H PARENT 8 23 90 55 60 66
REMARK Flexibility Score: inf
ROOT
ATOM      1  O   UNL     1      -3.981   2.821   5.270  1.00  0.00    -0.376 OA
ENDROOT
BRANCH   1   2
ATOM      2  C   UNL     1      -2.871   3.709   5.336  1.00  0.00     0.202 C 
BRANCH   2   3
ATOM      3  C   UNL     1      -1.546   3.112   5.879  1.00  0.00     0.261 C 
BRANCH   3   4
ATOM      4  O   UNL     1      -0.794   2.327   4.907  1.00  0.00    -0.463 OA
BRANCH   4   5
ATOM      5  C   UNL     1      -0.731   0.982   5.024  1.00  0.00     0.306 C 
ATOM      6  O   UNL     1      -1.135   0.375   6.010  1.00  0.00    -0.252 OA
BRANCH   5   7
ATOM      7  C   UNL     1      -0.068   0.266   3.836  1.00  0.00     0.127 C 
BRANCH   7   8
ATOM      8  C   UNL     1      -0.426   0.565   2.351  1.00  0.00     0.051 C 
BRANCH   8   9
ATOM      9  C   UNL     1       0.314   1.708   1.672  1.00  0.00    -0.005 A 
ATOM     10  C   UNL     1       1.546   0.244  -0.128  1.00  0.00     0.067 C 
ATOM     11  C   UNL     1       1.263   1.606   0.468  1.00  0.00     0.046 A 
ATOM     12  N   UNL     1       1.796   2.616  -0.184  1.00  0.00    -0.216 NA
ATOM     13  C   UNL     1       1.480   3.877   0.236  1.00  0.00     0.252 A 
ATOM     14  C   UNL     1       0.022   2.992   1.930  1.00  0.00     0.048 A 
ATOM     15  N   UNL     1       1.611   5.078  -0.317  1.00  0.00    -0.192 NA
ATOM     16  N   UNL     1       0.702   4.032   1.357  1.00  0.00    -0.201 N 
ATOM     17  C   UNL     1      -1.174   3.490   2.616  1.00  0.00     0.067 C 
ATOM     18  C   UNL     1       0.959   5.911   0.568  1.00  0.00     0.172 A 
ATOM     19  N   UNL     1       0.572   5.322   1.689  1.00  0.00    -0.148 NA
BRANCH  18  20
ATOM     20  C   UNL     1       0.652   7.351   0.424  1.00  0.00     0.199 C 
BRANCH  20  21
ATOM     21  N   UNL     1       1.483   8.076   1.363  1.00  0.00    -0.314 N 
ATOM     22  C   UNL     1       2.043   9.272   1.098  1.00  0.00     0.408 C 
ATOM     23  H   UNL     1       1.647   7.672   2.246  1.00  0.00     0.167 HD
ATOM     24  O   UNL     1       2.896   9.774   1.826  1.00  0.00    -0.225 OA
BRANCH  22  25
ATOM     25  O   UNL     1       1.564   9.781  -0.049  1.00  0.00    -0.444 OA
BRANCH  25  26
ATOM     26  C   UNL     1       2.216  10.873  -0.722  1.00  0.00     0.106 C 
ATOM     27  C   UNL     1       2.231  12.140   0.133  1.00  0.00     0.056 C 
ATOM     28  C   UNL     1       3.614  10.435  -1.164  1.00  0.00     0.056 C 
ATOM     29  C   UNL     1       1.345  11.113  -1.963  1.00  0.00     0.056 C 
ENDBRANCH  25  26
ENDBRANCH  22  25
ENDBRANCH  20  21
ENDBRANCH  18  20
ENDBRANCH   8   9
ENDBRANCH   7   8
ENDBRANCH   5   7
ENDBRANCH   4   5
ENDBRANCH   3   4
ENDBRANCH   2   3
ENDBRANCH   1   2
BRANCH   1  30
ATOM     30  C   UNL     1      -3.894   1.741   4.350  1.00  0.00     0.188 C 
BRANCH  30  31
ATOM     31  C   UNL     1      -4.580   1.985   3.010  1.00  0.00     0.188 C 
BRANCH  31  32
ATOM     32  O   UNL     1      -3.876   2.804   2.066  1.00  0.00    -0.376 OA
BRANCH  32  33
ATOM     33  C   UNL     1      -4.305   4.167   1.950  1.00  0.00     0.202 C 
BRANCH  33  34
ATOM     34  C   UNL     1      -5.438   4.457   0.969  1.00  0.00     0.261 C 
BRANCH  34  35
ATOM     35  O   UNL     1      -6.491   3.550   1.160  1.00  0.00    -0.460 OA
BRANCH  35  36
ATOM     36  C   UNL     1      -6.270   2.329   0.619  1.00  0.00     0.338 C 
ATOM     37  O   UNL     1      -5.461   2.017  -0.233  1.00  0.00    -0.246 OA
BRANCH  36  38
ATOM     38  C   UNL     1      -7.209   1.426   1.291  1.00  0.00     0.060 A 
ATOM     39  C   UNL     1      -7.397   0.175   0.717  1.00  0.00     0.016 A 
ATOM     40  C   UNL     1      -8.047   1.940   2.299  1.00  0.00     0.016 A 
ATOM     41  C   UNL     1      -8.646  -0.367   0.846  1.00  0.00     0.010 A 
ATOM     42  C   UNL     1      -9.289   1.409   2.420  1.00  0.00     0.010 A 
ATOM     43  C   UNL     1      -9.596   0.371   1.557  1.00  0.00    -0.014 A 
BRANCH  43  44
ATOM     44  C   UNL     1     -10.983   0.095   1.331  1.00  0.00     0.031 A 
ATOM     45  C   UNL     1     -11.456  -0.975   2.209  1.00  0.00     0.074 A 
ATOM     46  C   UNL     1     -11.708   0.828   0.470  1.00  0.00     0.049 A 
ATOM     47  N   UNL     1     -11.495  -2.231   1.919  1.00  0.00    -0.248 NA
ATOM     48  C   UNL     1     -11.590  -0.670   3.644  1.00  0.00     0.031 C 
ATOM     49  C   UNL     1     -11.369   2.085  -0.206  1.00  0.00     0.029 A 
ATOM     50  N   UNL     1     -12.986   0.622   0.089  1.00  0.00    -0.354 N 
ATOM     51  C   UNL     1     -11.945  -2.831   3.079  1.00  0.00     0.074 A 
ATOM     52  C   UNL     1     -11.665  -1.904   4.144  1.00  0.00     0.031 C 
ATOM     53  C   UNL     1     -12.503   2.638  -0.706  1.00  0.00     0.029 A 
ATOM     54  C   UNL     1     -13.605   1.710  -0.505  1.00  0.00     0.049 A 
ATOM     55  H   UNL     1     -13.445  -0.239   0.222  1.00  0.00     0.167 HD
ATOM     56  C   UNL     1     -12.848  -3.845   3.027  1.00  0.00     0.031 A 
ATOM     57  C   UNL     1     -14.945   1.831  -0.705  1.00  0.00     0.031 A 
ATOM     58  C   UNL     1     -12.977  -4.373   1.690  1.00  0.00     0.049 A 
ATOM     59  C   UNL     1     -15.505   0.449  -0.645  1.00  0.00     0.074 A 
ATOM     60  C   UNL     1     -12.103  -4.955   0.792  1.00  0.00     0.029 A 
ATOM     61  N   UNL     1     -14.048  -3.924   0.949  1.00  0.00    -0.354 N 
ATOM     62  N   UNL     1     -15.217  -0.479  -1.517  1.00  0.00    -0.248 NA
ATOM     63  C   UNL     1     -15.973  -0.042   0.645  1.00  0.00     0.031 C 
ATOM     64  C   UNL     1     -12.482  -4.443  -0.484  1.00  0.00     0.029 A 
ATOM     65  C   UNL     1     -13.609  -3.635  -0.320  1.00  0.00     0.049 A 
ATOM     66  H   UNL     1     -14.973  -3.827   1.274  1.00  0.00     0.167 HD
ATOM     67  C   UNL     1     -15.046  -1.638  -0.769  1.00  0.00     0.074 A 
ATOM     68  C   UNL     1     -15.611  -1.325   0.544  1.00  0.00     0.031 C 
ATOM     69  C   UNL     1     -14.201  -2.630  -1.184  1.00  0.00     0.031 A 
BRANCH  56  70
ATOM     70  C   UNL     1     -13.910  -4.024   4.077  1.00  0.00    -0.014 A 
ATOM     71  C   UNL     1     -14.716  -5.173   4.031  1.00  0.00     0.010 A 
ATOM     72  C   UNL     1     -14.306  -2.996   4.963  1.00  0.00     0.010 A 
ATOM     73  C   UNL     1     -15.879  -5.267   4.804  1.00  0.00     0.020 A 
ATOM     74  C   UNL     1     -15.432  -3.099   5.773  1.00  0.00     0.020 A 
ATOM     75  C   UNL     1     -16.229  -4.225   5.667  1.00  0.00     0.054 A 
BRANCH  75  76
ATOM     76  S   UNL     1     -17.770  -4.324   6.601  1.00  0.00     0.124 S 
ATOM     77  O   UNL     1     -18.767  -4.313   5.535  1.00  0.00    -0.237 OA
ATOM     78  O   UNL     1     -17.613  -5.589   7.314  1.00  0.00    -0.237 OA
ATOM     79  O   UNL     1     -17.737  -3.131   7.444  1.00  0.00    -0.744 OA
ENDBRANCH  75  76
ENDBRANCH  56  70
BRANCH  57  80
ATOM     80  C   UNL     1     -15.783   3.037  -0.447  1.00  0.00    -0.014 A 
ATOM     81  C   UNL     1     -17.161   3.021  -0.742  1.00  0.00     0.010 A 
ATOM     82  C   UNL     1     -15.306   4.079   0.374  1.00  0.00     0.010 A 
ATOM     83  C   UNL     1     -18.040   3.950  -0.158  1.00  0.00     0.020 A 
ATOM     84  C   UNL     1     -16.175   5.014   0.953  1.00  0.00     0.020 A 
ATOM     85  C   UNL     1     -17.543   4.923   0.712  1.00  0.00     0.054 A 
BRANCH  85  86
ATOM     86  S   UNL     1     -18.703   5.975   1.637  1.00  0.00     0.124 S 
ATOM     87  O   UNL     1     -19.264   6.819   0.586  1.00  0.00    -0.237 OA
ATOM     88  O   UNL     1     -19.619   4.999   2.220  1.00  0.00    -0.237 OA
ATOM     89  O   UNL     1     -17.848   6.669   2.598  1.00  0.00    -0.744 OA
ENDBRANCH  85  86
ENDBRANCH  57  80
BRANCH  69  90
ATOM     90  C   UNL     1     -13.680  -2.574  -2.607  1.00  0.00    -0.014 A 
ATOM     91  C   UNL     1     -12.864  -1.542  -3.116  1.00  0.00     0.010 A 
ATOM     92  C   UNL     1     -13.922  -3.693  -3.420  1.00  0.00     0.010 A 
ATOM     93  C   UNL     1     -12.335  -1.620  -4.417  1.00  0.00     0.020 A 
ATOM     94  C   UNL     1     -13.384  -3.786  -4.706  1.00  0.00     0.020 A 
ATOM     95  C   UNL     1     -12.602  -2.744  -5.204  1.00  0.00     0.054 A 
BRANCH  95  96
ATOM     96  S   UNL     1     -11.907  -2.856  -6.879  1.00  0.00     0.124 S 
ATOM     97  O   UNL     1     -12.584  -1.766  -7.578  1.00  0.00    -0.237 OA
ATOM     98  O   UNL     1     -10.477  -2.665  -6.649  1.00  0.00    -0.237 OA
ATOM     99  O   UNL     1     -12.281  -4.199  -7.322  1.00  0.00    -0.744 OA
ENDBRANCH  95  96
ENDBRANCH  69  90
ENDBRANCH  43  44
ENDBRANCH  36  38
ENDBRANCH  35  36
ENDBRANCH  34  35
ENDBRANCH  33  34
ENDBRANCH  32  33
ENDBRANCH  31  32
ENDBRANCH  30  31
ENDBRANCH   1  30
TORSDOF 26
