REMARK SMILES O=C(OCCOCCOCCOC(=O)c1cc(SCc2csc(-c3ccsc3)n2)ccn1)c1ccc(-c2c3nc(c(-c4ccc(S(=O)(=O)[O-])cc4)c4ccc([nH]4)c(-c4ccc(S(=O)(=O)[O-])cc4)c4nc(c(-c5ccc(S(=O)(=O)[O-])cc5)c5ccc2[nH]5)C=C4)C=C3)cc1
REMARK SMILES IDX 8 1 7 2 6 3 5 4 4 5 3 6 2 7 1 8 33 9 34 10 92 11 35 12 91 13
REMARK SMILES IDX 36 14 37 15 38 16 85 17 39 18 90 19 84 20 86 21 40 22 89 23
REMARK SMILES IDX 83 24 82 25 41 27 71 28 52 29 70 30 53 31 56 32 69 33 87 34
REMARK SMILES IDX 54 35 55 36 68 38 88 39 57 40 42 41 43 42 51 43 44 44 50 45
REMARK SMILES IDX 45 46 46 47 47 48 48 49 49 50 72 51 73 52 81 53 74 54 80 55
REMARK SMILES IDX 75 56 76 57 77 58 78 59 79 60 58 61 59 62 67 63 60 64 66 65
REMARK SMILES IDX 61 66 62 67 63 68 64 69 65 70 9 71 10 72 11 73 12 74 13 75
REMARK SMILES IDX 14 76 15 77 16 78 32 79 17 80 31 81 30 82 18 83 19 84 20 85
REMARK SMILES IDX 21 86 29 87 22 88 23 89 24 90 25 91 28 92 26 93 27 94
REMARK H PARENT 86 26 56 37
REMARK Flexibility Score: inf
ROOT
ATOM      1  C   UNL     1       2.030  -2.778  -1.157  1.00  0.00     0.188 C 
ENDROOT
BRANCH   1   2
ATOM      2  C   UNL     1       2.833  -1.698  -0.415  1.00  0.00     0.188 C 
BRANCH   2   3
ATOM      3  O   UNL     1       4.240  -1.832  -0.507  1.00  0.00    -0.376 OA
BRANCH   3   4
ATOM      4  C   UNL     1       5.100  -1.119   0.368  1.00  0.00     0.202 C 
BRANCH   4   5
ATOM      5  C   UNL     1       4.599  -0.125   1.435  1.00  0.00     0.261 C 
BRANCH   5   6
ATOM      6  O   UNL     1       3.219   0.288   1.401  1.00  0.00    -0.460 OA
BRANCH   6   7
ATOM      7  C   UNL     1       2.552   1.287   0.789  1.00  0.00     0.338 C 
ATOM      8  O   UNL     1       1.416   1.551   1.182  1.00  0.00    -0.246 OA
BRANCH   7   9
ATOM      9  C   UNL     1       3.077   2.045  -0.382  1.00  0.00     0.060 A 
ATOM     10  C   UNL     1       4.135   1.633  -1.187  1.00  0.00     0.016 A 
ATOM     11  C   UNL     1       2.384   3.209  -0.755  1.00  0.00     0.016 A 
ATOM     12  C   UNL     1       4.583   2.401  -2.256  1.00  0.00     0.010 A 
ATOM     13  C   UNL     1       2.792   3.966  -1.855  1.00  0.00     0.010 A 
ATOM     14  C   UNL     1       3.929   3.586  -2.576  1.00  0.00    -0.014 A 
BRANCH  14  15
ATOM     15  C   UNL     1       4.546   4.517  -3.537  1.00  0.00     0.031 A 
ATOM     16  C   UNL     1       5.309   5.674  -2.988  1.00  0.00     0.074 A 
ATOM     17  C   UNL     1       4.519   4.282  -4.857  1.00  0.00     0.049 A 
ATOM     18  N   UNL     1       5.899   6.644  -3.627  1.00  0.00    -0.248 NA
ATOM     19  C   UNL     1       5.448   5.730  -1.524  1.00  0.00     0.031 C 
ATOM     20  C   UNL     1       3.999   3.061  -5.458  1.00  0.00     0.029 A 
ATOM     21  N   UNL     1       5.003   5.002  -5.918  1.00  0.00    -0.354 N 
ATOM     22  C   UNL     1       6.429   7.462  -2.641  1.00  0.00     0.074 A 
ATOM     23  C   UNL     1       6.114   6.861  -1.365  1.00  0.00     0.031 C 
ATOM     24  C   UNL     1       4.205   3.116  -6.781  1.00  0.00     0.029 A 
ATOM     25  C   UNL     1       4.795   4.391  -7.132  1.00  0.00     0.049 A 
ATOM     26  H   UNL     1       5.454   5.871  -5.821  1.00  0.00     0.167 HD
ATOM     27  C   UNL     1       7.087   8.630  -2.801  1.00  0.00     0.031 A 
ATOM     28  C   UNL     1       5.032   4.807  -8.390  1.00  0.00     0.031 A 
ATOM     29  C   UNL     1       7.338   9.218  -4.087  1.00  0.00     0.049 A 
ATOM     30  C   UNL     1       5.669   6.150  -8.553  1.00  0.00     0.074 A 
ATOM     31  C   UNL     1       7.917  10.438  -4.379  1.00  0.00     0.029 A 
ATOM     32  N   UNL     1       7.007   8.626  -5.301  1.00  0.00    -0.354 N 
ATOM     33  N   UNL     1       6.089   6.965  -7.614  1.00  0.00    -0.248 NA
ATOM     34  C   UNL     1       5.863   6.641  -9.920  1.00  0.00     0.031 C 
ATOM     35  C   UNL     1       7.876  10.611  -5.766  1.00  0.00     0.029 A 
ATOM     36  C   UNL     1       7.344   9.466  -6.345  1.00  0.00     0.049 A 
ATOM     37  H   UNL     1       6.593   7.738  -5.402  1.00  0.00     0.167 HD
ATOM     38  C   UNL     1       6.614   8.062  -8.274  1.00  0.00     0.074 A 
ATOM     39  C   UNL     1       6.465   7.803  -9.695  1.00  0.00     0.031 C 
ATOM     40  C   UNL     1       7.174   9.177  -7.749  1.00  0.00     0.031 A 
BRANCH  27  41
ATOM     41  C   UNL     1       7.424   9.380  -1.543  1.00  0.00    -0.014 A 
ATOM     42  C   UNL     1       8.392   8.915  -0.633  1.00  0.00     0.010 A 
ATOM     43  C   UNL     1       6.676  10.527  -1.222  1.00  0.00     0.010 A 
ATOM     44  C   UNL     1       8.550   9.540   0.606  1.00  0.00     0.020 A 
ATOM     45  C   UNL     1       6.855  11.175   0.001  1.00  0.00     0.020 A 
ATOM     46  C   UNL     1       7.770  10.658   0.920  1.00  0.00     0.054 A 
BRANCH  46  47
ATOM     47  S   UNL     1       7.954  11.421   2.554  1.00  0.00     0.124 S 
ATOM     48  O   UNL     1       7.294  10.444   3.417  1.00  0.00    -0.237 OA
ATOM     49  O   UNL     1       9.404  11.512   2.703  1.00  0.00    -0.237 OA
ATOM     50  O   UNL     1       7.263  12.701   2.419  1.00  0.00    -0.744 OA
ENDBRANCH  46  47
ENDBRANCH  27  41
BRANCH  28  51
ATOM     51  C   UNL     1       4.606   3.976  -9.553  1.00  0.00    -0.014 A 
ATOM     52  C   UNL     1       5.542   3.334 -10.381  1.00  0.00     0.010 A 
ATOM     53  C   UNL     1       3.233   3.770  -9.798  1.00  0.00     0.010 A 
ATOM     54  C   UNL     1       5.115   2.489 -11.414  1.00  0.00     0.020 A 
ATOM     55  C   UNL     1       2.802   2.913 -10.815  1.00  0.00     0.020 A 
ATOM     56  C   UNL     1       3.748   2.269 -11.613  1.00  0.00     0.054 A 
BRANCH  56  57
ATOM     57  S   UNL     1       3.229   1.046 -12.851  1.00  0.00     0.124 S 
ATOM     58  O   UNL     1       3.552   1.722 -14.104  1.00  0.00    -0.237 OA
ATOM     59  O   UNL     1       4.067  -0.106 -12.519  1.00  0.00    -0.237 OA
ATOM     60  O   UNL     1       1.804   0.864 -12.588  1.00  0.00    -0.744 OA
ENDBRANCH  56  57
ENDBRANCH  28  51
BRANCH  40  61
ATOM     61  C   UNL     1       7.702  10.194  -8.715  1.00  0.00    -0.014 A 
ATOM     62  C   UNL     1       6.837  11.045  -9.421  1.00  0.00     0.010 A 
ATOM     63  C   UNL     1       9.094  10.370  -8.820  1.00  0.00     0.010 A 
ATOM     64  C   UNL     1       7.359  12.065 -10.217  1.00  0.00     0.020 A 
ATOM     65  C   UNL     1       9.617  11.405  -9.592  1.00  0.00     0.020 A 
ATOM     66  C   UNL     1       8.745  12.246 -10.286  1.00  0.00     0.054 A 
BRANCH  66  67
ATOM     67  S   UNL     1       9.392  13.648 -11.234  1.00  0.00     0.124 S 
ATOM     68  O   UNL     1       9.161  13.217 -12.610  1.00  0.00    -0.237 OA
ATOM     69  O   UNL     1       8.559  14.755 -10.773  1.00  0.00    -0.237 OA
ATOM     70  O   UNL     1      10.795  13.721 -10.830  1.00  0.00    -0.744 OA
ENDBRANCH  66  67
ENDBRANCH  40  61
ENDBRANCH  14  15
ENDBRANCH   7   9
ENDBRANCH   6   7
ENDBRANCH   5   6
ENDBRANCH   4   5
ENDBRANCH   3   4
ENDBRANCH   2   3
ENDBRANCH   1   2
BRANCH   1  71
ATOM     71  O   UNL     1       2.509  -4.119  -1.153  1.00  0.00    -0.376 OA
BRANCH  71  72
ATOM     72  C   UNL     1       3.877  -4.343  -1.468  1.00  0.00     0.202 C 
BRANCH  72  73
ATOM     73  C   UNL     1       4.461  -3.823  -2.794  1.00  0.00     0.261 C 
BRANCH  73  74
ATOM     74  O   UNL     1       3.854  -2.647  -3.334  1.00  0.00    -0.459 OA
BRANCH  74  75
ATOM     75  C   UNL     1       2.955  -2.885  -4.317  1.00  0.00     0.357 C 
ATOM     76  O   UNL     1       2.611  -3.982  -4.754  1.00  0.00    -0.244 OA
BRANCH  75  77
ATOM     77  C   UNL     1       2.552  -1.615  -4.941  1.00  0.00     0.149 A 
ATOM     78  C   UNL     1       2.907  -1.464  -6.268  1.00  0.00     0.051 A 
ATOM     79  N   UNL     1       1.848  -0.710  -4.211  1.00  0.00    -0.249 NA
ATOM     80  C   UNL     1       2.556  -0.290  -6.902  1.00  0.00     0.012 A 
ATOM     81  C   UNL     1       1.443   0.387  -4.885  1.00  0.00     0.113 A 
ATOM     82  C   UNL     1       1.756   0.628  -6.215  1.00  0.00     0.035 A 
BRANCH  80  83
ATOM     83  S   UNL     1       3.060   0.093  -8.553  1.00  0.00    -0.120 SA
BRANCH  83  84
ATOM     84  C   UNL     1       4.646  -0.757  -8.810  1.00  0.00     0.132 C 
BRANCH  84  85
ATOM     85  C   UNL     1       5.709  -0.759  -7.731  1.00  0.00     0.062 A 
ATOM     86  C   UNL     1       6.408  -1.901  -7.371  1.00  0.00     0.091 A 
ATOM     87  N   UNL     1       6.176   0.401  -7.101  1.00  0.00    -0.240 NA
ATOM     88  S   UNL     1       7.768  -1.507  -6.422  1.00  0.00    -0.122 S 
ATOM     89  C   UNL     1       7.306   0.153  -6.459  1.00  0.00     0.124 A 
BRANCH  89  90
ATOM     90  C   UNL     1       8.146   1.208  -5.778  1.00  0.00     0.021 A 
ATOM     91  C   UNL     1       7.651   2.409  -5.200  1.00  0.00     0.023 A 
ATOM     92  C   UNL     1       9.518   1.125  -5.637  1.00  0.00     0.076 A 
ATOM     93  C   UNL     1       8.634   3.175  -4.611  1.00  0.00     0.065 A 
ATOM     94  S   UNL     1      10.179   2.471  -4.806  1.00  0.00    -0.152 S 
ENDBRANCH  89  90
ENDBRANCH  84  85
ENDBRANCH  83  84
ENDBRANCH  80  83
ENDBRANCH  75  77
ENDBRANCH  74  75
ENDBRANCH  73  74
ENDBRANCH  72  73
ENDBRANCH  71  72
ENDBRANCH   1  71
TORSDOF 24
