REMARK SMILES COc1ccccc1[C@@H]1C[N@@H+](Cc2cn3cc(C)ccc3n2)C[C@H]1C(=O)OCCOCCOCCOC(=O)c1ccc(-c2c3nc(c(-c4ccc(S(=O)(=O)[O-])cc4)c4ccc([nH]4)c(-c4ccc(S(=O)(=O)[O-])cc4)c4nc(c(-c5ccc(S(=O)(=O)[O-])cc5)c5ccc2[nH]5)C=C4)C=C3)cc1
REMARK SMILES IDX 32 1 31 2 30 3 29 4 28 5 27 6 25 7 26 8 24 9 9 10 10 11
REMARK SMILES IDX 11 12 23 13 8 15 3 16 4 17 5 18 7 19 6 20 2 21 1 22 12 23
REMARK SMILES IDX 13 24 14 25 22 26 15 27 21 28 16 29 20 30 17 31 19 32 18 33
REMARK SMILES IDX 33 34 34 35 35 36 36 37 37 38 38 39 39 40 40 41 98 42 41 43
REMARK SMILES IDX 97 44 42 45 43 46 44 47 91 48 45 49 96 50 90 51 92 52 46 53
REMARK SMILES IDX 95 54 89 55 88 56 47 58 77 59 58 60 76 61 59 62 62 63 75 64
REMARK SMILES IDX 93 65 60 66 61 67 74 69 94 70 63 71 48 72 49 73 57 74 50 75
REMARK SMILES IDX 56 76 51 77 52 78 53 79 54 80 55 81 78 82 79 83 87 84 80 85
REMARK SMILES IDX 86 86 81 87 82 88 83 89 84 90 85 91 64 92 65 93 73 94 66 95
REMARK SMILES IDX 72 96 67 97 68 98 69 99 70 100 71 101
REMARK H PARENT 11 14 92 57 62 68
REMARK Flexibility Score: inf
ROOT
ATOM      1  C   UNL     1       2.284  -3.764  -2.048  1.00  0.00     0.188 C 
ENDROOT
BRANCH   1   2
ATOM      2  C   UNL     1       1.543  -3.434  -3.348  1.00  0.00     0.188 C 
BRANCH   2   3
ATOM      3  O   UNL     1       2.223  -3.683  -4.570  1.00  0.00    -0.376 OA
BRANCH   3   4
ATOM      4  C   UNL     1       3.498  -3.056  -4.746  1.00  0.00     0.202 C 
BRANCH   4   5
ATOM      5  C   UNL     1       3.655  -1.598  -4.271  1.00  0.00     0.261 C 
BRANCH   5   6
ATOM      6  O   UNL     1       3.644  -1.438  -2.827  1.00  0.00    -0.463 OA
BRANCH   6   7
ATOM      7  C   UNL     1       3.133  -0.279  -2.369  1.00  0.00     0.315 C 
ATOM      8  O   UNL     1       2.757   0.624  -3.120  1.00  0.00    -0.252 OA
BRANCH   7   9
ATOM      9  C   UNL     1       3.018  -0.098  -0.857  1.00  0.00     0.167 C 
ATOM     10  C   UNL     1       3.317  -1.128   0.251  1.00  0.00     0.098 C 
ATOM     11  C   UNL     1       3.898  -0.260   1.381  1.00  0.00     0.272 C 
ATOM     12  N   UNL     1       4.630   0.823   0.738  1.00  0.00    -0.329 N 
ATOM     13  C   UNL     1       3.946   1.086  -0.531  1.00  0.00     0.278 C 
ATOM     14  H   UNL     1       4.614   1.657   1.325  1.00  0.00     0.348 HD
BRANCH  10  15
ATOM     15  C   UNL     1       2.250  -2.023   0.892  1.00  0.00     0.004 A 
ATOM     16  C   UNL     1       0.988  -1.621   1.363  1.00  0.00     0.122 A 
ATOM     17  C   UNL     1       0.103  -2.552   1.937  1.00  0.00     0.047 A 
ATOM     18  C   UNL     1       0.487  -3.882   2.116  1.00  0.00     0.004 A 
ATOM     19  C   UNL     1       2.631  -3.359   1.158  1.00  0.00     0.008 A 
ATOM     20  C   UNL     1       1.768  -4.277   1.758  1.00  0.00     0.001 A 
BRANCH  16  21
ATOM     21  O   UNL     1       0.708  -0.297   1.577  1.00  0.00    -0.496 OA
ATOM     22  C   UNL     1      -0.045   0.328   0.548  1.00  0.00     0.278 C 
ENDBRANCH  16  21
ENDBRANCH  10  15
BRANCH  12  23
ATOM     23  C   UNL     1       6.077   0.595   0.618  1.00  0.00     0.321 C 
BRANCH  23  24
ATOM     24  C   UNL     1       6.480  -0.705  -0.008  1.00  0.00     0.114 A 
ATOM     25  C   UNL     1       6.824  -1.887   0.624  1.00  0.00     0.122 A 
ATOM     26  N   UNL     1       6.571  -0.853  -1.378  1.00  0.00    -0.228 NA
ATOM     27  N   UNL     1       7.125  -2.775  -0.375  1.00  0.00    -0.306 N 
ATOM     28  C   UNL     1       6.960  -2.097  -1.576  1.00  0.00     0.137 A 
ATOM     29  C   UNL     1       7.524  -4.107  -0.281  1.00  0.00     0.096 A 
ATOM     30  C   UNL     1       7.237  -2.826  -2.767  1.00  0.00     0.048 A 
ATOM     31  C   UNL     1       7.801  -4.798  -1.406  1.00  0.00    -0.034 A 
ATOM     32  C   UNL     1       7.660  -4.104  -2.691  1.00  0.00     0.009 A 
ATOM     33  C   UNL     1       8.133  -6.258  -1.417  1.00  0.00     0.046 C 
ENDBRANCH  23  24
ENDBRANCH  12  23
ENDBRANCH   7   9
ENDBRANCH   6   7
ENDBRANCH   5   6
ENDBRANCH   4   5
ENDBRANCH   3   4
ENDBRANCH   2   3
ENDBRANCH   1   2
BRANCH   1  34
ATOM     34  O   UNL     1       3.687  -3.916  -2.179  1.00  0.00    -0.376 OA
BRANCH  34  35
ATOM     35  C   UNL     1       4.281  -5.144  -1.809  1.00  0.00     0.202 C 
BRANCH  35  36
ATOM     36  C   UNL     1       3.869  -6.345  -2.641  1.00  0.00     0.261 C 
BRANCH  36  37
ATOM     37  O   UNL     1       2.488  -6.622  -2.529  1.00  0.00    -0.460 OA
BRANCH  37  38
ATOM     38  C   UNL     1       2.061  -6.892  -1.279  1.00  0.00     0.338 C 
ATOM     39  O   UNL     1       2.695  -6.886  -0.243  1.00  0.00    -0.246 OA
BRANCH  38  40
ATOM     40  C   UNL     1       0.652  -7.238  -1.377  1.00  0.00     0.060 A 
ATOM     41  C   UNL     1      -0.097  -7.201  -0.202  1.00  0.00     0.016 A 
ATOM     42  C   UNL     1       0.204  -7.845  -2.558  1.00  0.00     0.016 A 
ATOM     43  C   UNL     1      -1.218  -7.986  -0.140  1.00  0.00     0.010 A 
ATOM     44  C   UNL     1      -0.901  -8.641  -2.489  1.00  0.00     0.010 A 
ATOM     45  C   UNL     1      -1.530  -8.770  -1.253  1.00  0.00    -0.014 A 
BRANCH  45  46
ATOM     46  C   UNL     1      -2.549  -9.773  -1.099  1.00  0.00     0.031 A 
ATOM     47  C   UNL     1      -3.914  -9.233  -1.122  1.00  0.00     0.074 A 
ATOM     48  C   UNL     1      -2.232 -11.079  -1.071  1.00  0.00     0.049 A 
ATOM     49  N   UNL     1      -4.775  -9.234  -0.163  1.00  0.00    -0.248 NA
ATOM     50  C   UNL     1      -4.311  -8.451  -2.305  1.00  0.00     0.031 C 
ATOM     51  C   UNL     1      -0.924 -11.684  -1.342  1.00  0.00     0.029 A 
ATOM     52  N   UNL     1      -3.057 -12.151  -0.951  1.00  0.00    -0.354 N 
ATOM     53  C   UNL     1      -5.918  -8.671  -0.711  1.00  0.00     0.074 A 
ATOM     54  C   UNL     1      -5.515  -8.021  -1.933  1.00  0.00     0.031 C 
ATOM     55  C   UNL     1      -1.101 -12.994  -1.619  1.00  0.00     0.029 A 
ATOM     56  C   UNL     1      -2.505 -13.327  -1.437  1.00  0.00     0.049 A 
ATOM     57  H   UNL     1      -3.957 -12.098  -0.557  1.00  0.00     0.167 HD
ATOM     58  C   UNL     1      -7.154  -9.052  -0.298  1.00  0.00     0.031 A 
ATOM     59  C   UNL     1      -3.186 -14.449  -1.776  1.00  0.00     0.031 A 
ATOM     60  C   UNL     1      -7.126  -9.714   0.980  1.00  0.00     0.049 A 
ATOM     61  C   UNL     1      -4.518 -14.380  -1.118  1.00  0.00     0.074 A 
ATOM     62  C   UNL     1      -6.625  -9.383   2.225  1.00  0.00     0.029 A 
ATOM     63  N   UNL     1      -7.322 -11.076   0.999  1.00  0.00    -0.354 N 
ATOM     64  N   UNL     1      -4.692 -14.463   0.172  1.00  0.00    -0.248 NA
ATOM     65  C   UNL     1      -5.630 -13.792  -1.852  1.00  0.00     0.031 C 
ATOM     66  C   UNL     1      -6.122 -10.601   2.762  1.00  0.00     0.029 A 
ATOM     67  C   UNL     1      -6.388 -11.620   1.845  1.00  0.00     0.049 A 
ATOM     68  H   UNL     1      -8.009 -11.572   0.496  1.00  0.00     0.167 HD
ATOM     69  C   UNL     1      -5.713 -13.566   0.455  1.00  0.00     0.074 A 
ATOM     70  C   UNL     1      -6.330 -13.279  -0.836  1.00  0.00     0.031 C 
ATOM     71  C   UNL     1      -5.777 -12.921   1.660  1.00  0.00     0.031 A 
BRANCH  58  72
ATOM     72  C   UNL     1      -8.290  -9.207  -1.273  1.00  0.00    -0.014 A 
ATOM     73  C   UNL     1      -9.586  -9.441  -0.785  1.00  0.00     0.010 A 
ATOM     74  C   UNL     1      -8.073  -9.407  -2.656  1.00  0.00     0.010 A 
ATOM     75  C   UNL     1     -10.599  -9.906  -1.633  1.00  0.00     0.020 A 
ATOM     76  C   UNL     1      -9.085  -9.817  -3.517  1.00  0.00     0.020 A 
ATOM     77  C   UNL     1     -10.335 -10.103  -2.991  1.00  0.00     0.054 A 
BRANCH  77  78
ATOM     78  S   UNL     1     -11.609 -10.813  -4.056  1.00  0.00     0.124 S 
ATOM     79  O   UNL     1     -11.656 -12.191  -3.579  1.00  0.00    -0.237 OA
ATOM     80  O   UNL     1     -12.773  -9.990  -3.739  1.00  0.00    -0.237 OA
ATOM     81  O   UNL     1     -11.070 -10.629  -5.401  1.00  0.00    -0.744 OA
ENDBRANCH  77  78
ENDBRANCH  58  72
BRANCH  59  82
ATOM     82  C   UNL     1      -2.862 -15.404  -2.864  1.00  0.00    -0.014 A 
ATOM     83  C   UNL     1      -3.565 -16.615  -2.989  1.00  0.00     0.010 A 
ATOM     84  C   UNL     1      -2.026 -15.023  -3.935  1.00  0.00     0.010 A 
ATOM     85  C   UNL     1      -3.481 -17.382  -4.163  1.00  0.00     0.020 A 
ATOM     86  C   UNL     1      -1.920 -15.791  -5.099  1.00  0.00     0.020 A 
ATOM     87  C   UNL     1      -2.670 -16.955  -5.218  1.00  0.00     0.054 A 
BRANCH  87  88
ATOM     88  S   UNL     1      -2.701 -17.854  -6.795  1.00  0.00     0.124 S 
ATOM     89  O   UNL     1      -2.005 -19.093  -6.460  1.00  0.00    -0.237 OA
ATOM     90  O   UNL     1      -4.131 -17.982  -7.059  1.00  0.00    -0.237 OA
ATOM     91  O   UNL     1      -1.983 -16.968  -7.710  1.00  0.00    -0.744 OA
ENDBRANCH  87  88
ENDBRANCH  59  82
BRANCH  71  92
ATOM     92  C   UNL     1      -4.944 -13.447   2.809  1.00  0.00    -0.014 A 
ATOM     93  C   UNL     1      -3.546 -13.616   2.752  1.00  0.00     0.010 A 
ATOM     94  C   UNL     1      -5.589 -13.659   4.042  1.00  0.00     0.010 A 
ATOM     95  C   UNL     1      -2.825 -14.032   3.880  1.00  0.00     0.020 A 
ATOM     96  C   UNL     1      -4.873 -14.051   5.177  1.00  0.00     0.020 A 
ATOM     97  C   UNL     1      -3.496 -14.251   5.087  1.00  0.00     0.054 A 
BRANCH  97  98
ATOM     98  S   UNL     1      -2.550 -14.761   6.549  1.00  0.00     0.124 S 
ATOM     99  O   UNL     1      -2.151 -16.123   6.209  1.00  0.00    -0.237 OA
ATOM    100  O   UNL     1      -1.468 -13.780   6.595  1.00  0.00    -0.237 OA
ATOM    101  O   UNL     1      -3.516 -14.655   7.642  1.00  0.00    -0.744 OA
ENDBRANCH  97  98
ENDBRANCH  71  92
ENDBRANCH  45  46
ENDBRANCH  38  40
ENDBRANCH  37  38
ENDBRANCH  36  37
ENDBRANCH  35  36
ENDBRANCH  34  35
ENDBRANCH   1  34
TORSDOF 24
