REMARK SMILES C[C@@H]1[C@@H](C(=O)OCCOCCOCCOC(=O)c2ccc(-c3c4nc(c(-c5ccc(S(=O)(=O)[O-])cc5)c5ccc([nH]5)c(-c5ccc(S(=O)(=O)[O-])cc5)c5nc(c(-c6ccc(S(=O)(=O)[O-])cc6)c6ccc3[nH]6)C=C5)C=C4)cc2)CCN1C(=O)N(C)CCOCC1CC1
REMARK SMILES IDX 8 1 7 2 6 3 4 4 5 5 3 6 1 7 2 8 80 9 78 10 79 11 81 12 82 13
REMARK SMILES IDX 83 14 84 15 85 16 86 17 87 18 88 19 89 20 90 21 91 22 9 23
REMARK SMILES IDX 10 24 11 25 12 26 13 27 14 28 15 29 16 30 17 31 18 32 19 33
REMARK SMILES IDX 77 34 20 35 76 36 21 37 22 38 23 39 70 40 24 41 75 42 69 43
REMARK SMILES IDX 71 44 25 45 74 46 68 47 67 48 26 50 56 51 37 52 55 53 38 54
REMARK SMILES IDX 41 55 54 56 72 57 39 58 40 59 53 61 73 62 42 63 27 64 28 65
REMARK SMILES IDX 36 66 29 67 35 68 30 69 31 70 32 71 33 72 34 73 57 74 58 75
REMARK SMILES IDX 66 76 59 77 65 78 60 79 61 80 62 81 63 82 64 83 43 84 44 85
REMARK SMILES IDX 52 86 45 87 51 88 46 89 47 90 48 91 49 92 50 93
REMARK H PARENT 71 49 41 60
REMARK Flexibility Score: inf
ROOT
ATOM      1  C   UNL     1      -1.699   2.005  -4.745  1.00  0.00     0.202 C 
ENDROOT
BRANCH   1   2
ATOM      2  C   UNL     1      -2.747   1.952  -3.620  1.00  0.00     0.261 C 
BRANCH   2   3
ATOM      3  O   UNL     1      -2.204   1.880  -2.290  1.00  0.00    -0.463 OA
BRANCH   3   4
ATOM      4  C   UNL     1      -1.625   0.698  -1.961  1.00  0.00     0.311 C 
ATOM      5  O   UNL     1      -1.630  -0.281  -2.691  1.00  0.00    -0.252 OA
BRANCH   4   6
ATOM      6  C   UNL     1      -0.893   0.816  -0.632  1.00  0.00     0.123 C 
ATOM      7  C   UNL     1       1.425   0.499   0.331  1.00  0.00     0.032 C 
ATOM      8  C   UNL     1       0.389  -0.038  -0.672  1.00  0.00     0.098 C 
ATOM      9  N   UNL     1      -0.115  -1.365  -0.313  1.00  0.00    -0.321 N 
ATOM     10  C   UNL     1      -1.680   0.241   0.526  1.00  0.00     0.039 C 
ATOM     11  C   UNL     1      -1.392  -1.237   0.404  1.00  0.00     0.122 C 
BRANCH   9  12
ATOM     12  C   UNL     1       0.017  -2.525  -1.069  1.00  0.00     0.320 C 
ATOM     13  O   UNL     1      -0.990  -3.199  -1.316  1.00  0.00    -0.248 OA
BRANCH  12  14
ATOM     14  N   UNL     1       1.274  -3.064  -1.271  1.00  0.00    -0.325 N 
ATOM     15  C   UNL     1       2.538  -2.373  -1.461  1.00  0.00     0.148 C 
BRANCH  14  16
ATOM     16  C   UNL     1       1.326  -4.532  -1.441  1.00  0.00     0.149 C 
BRANCH  16  17
ATOM     17  C   UNL     1       1.671  -5.351  -0.170  1.00  0.00     0.181 C 
BRANCH  17  18
ATOM     18  O   UNL     1       0.681  -5.512   0.851  1.00  0.00    -0.379 OA
BRANCH  18  19
ATOM     19  C   UNL     1       0.306  -4.371   1.608  1.00  0.00     0.163 C 
BRANCH  19  20
ATOM     20  C   UNL     1       1.305  -3.950   2.641  1.00  0.00     0.015 C 
ATOM     21  C   UNL     1       2.685  -3.410   2.346  1.00  0.00     0.006 C 
ATOM     22  C   UNL     1       1.609  -2.472   2.791  1.00  0.00     0.006 C 
ENDBRANCH  19  20
ENDBRANCH  18  19
ENDBRANCH  17  18
ENDBRANCH  16  17
ENDBRANCH  14  16
ENDBRANCH  12  14
ENDBRANCH   9  12
ENDBRANCH   4   6
ENDBRANCH   3   4
ENDBRANCH   2   3
ENDBRANCH   1   2
BRANCH   1  23
ATOM     23  O   UNL     1      -0.695   3.003  -4.579  1.00  0.00    -0.376 OA
BRANCH  23  24
ATOM     24  C   UNL     1       0.311   2.678  -3.629  1.00  0.00     0.188 C 
BRANCH  24  25
ATOM     25  C   UNL     1       0.313   3.583  -2.384  1.00  0.00     0.188 C 
BRANCH  25  26
ATOM     26  O   UNL     1      -0.698   4.552  -2.195  1.00  0.00    -0.376 OA
BRANCH  26  27
ATOM     27  C   UNL     1      -0.970   5.432  -3.277  1.00  0.00     0.202 C 
BRANCH  27  28
ATOM     28  C   UNL     1       0.170   6.088  -4.095  1.00  0.00     0.261 C 
BRANCH  28  29
ATOM     29  O   UNL     1       1.390   5.342  -4.276  1.00  0.00    -0.460 OA
BRANCH  29  30
ATOM     30  C   UNL     1       2.428   5.681  -3.466  1.00  0.00     0.338 C 
ATOM     31  O   UNL     1       2.438   6.569  -2.624  1.00  0.00    -0.246 OA
BRANCH  30  32
ATOM     32  C   UNL     1       3.496   4.656  -3.575  1.00  0.00     0.060 A 
ATOM     33  C   UNL     1       3.799   3.858  -2.458  1.00  0.00     0.016 A 
ATOM     34  C   UNL     1       4.219   4.503  -4.756  1.00  0.00     0.016 A 
ATOM     35  C   UNL     1       4.823   2.910  -2.516  1.00  0.00     0.010 A 
ATOM     36  C   UNL     1       5.274   3.582  -4.800  1.00  0.00     0.010 A 
ATOM     37  C   UNL     1       5.598   2.800  -3.675  1.00  0.00    -0.014 A 
BRANCH  37  38
ATOM     38  C   UNL     1       6.868   2.029  -3.650  1.00  0.00     0.031 A 
ATOM     39  C   UNL     1       8.155   2.784  -3.438  1.00  0.00     0.074 A 
ATOM     40  C   UNL     1       6.891   0.692  -3.804  1.00  0.00     0.049 A 
ATOM     41  N   UNL     1       9.388   2.349  -3.474  1.00  0.00    -0.248 NA
ATOM     42  C   UNL     1       8.030   4.223  -3.151  1.00  0.00     0.031 C 
ATOM     43  C   UNL     1       5.718  -0.168  -3.952  1.00  0.00     0.029 A 
ATOM     44  N   UNL     1       7.954  -0.175  -3.875  1.00  0.00    -0.354 N 
ATOM     45  C   UNL     1      10.186   3.461  -3.227  1.00  0.00     0.074 A 
ATOM     46  C   UNL     1       9.300   4.594  -3.071  1.00  0.00     0.031 C 
ATOM     47  C   UNL     1       6.128  -1.439  -4.114  1.00  0.00     0.029 A 
ATOM     48  C   UNL     1       7.590  -1.478  -4.123  1.00  0.00     0.049 A 
ATOM     49  H   UNL     1       8.890   0.110  -3.759  1.00  0.00     0.167 HD
ATOM     50  C   UNL     1      11.535   3.536  -3.135  1.00  0.00     0.031 A 
ATOM     51  C   UNL     1       8.350  -2.567  -4.360  1.00  0.00     0.031 A 
ATOM     52  C   UNL     1      12.419   2.414  -3.311  1.00  0.00     0.049 A 
ATOM     53  C   UNL     1       9.854  -2.440  -4.358  1.00  0.00     0.074 A 
ATOM     54  C   UNL     1      13.801   2.390  -3.237  1.00  0.00     0.029 A 
ATOM     55  N   UNL     1      12.011   1.122  -3.601  1.00  0.00    -0.354 N 
ATOM     56  N   UNL     1      10.595  -1.385  -4.114  1.00  0.00    -0.248 NA
ATOM     57  C   UNL     1      10.625  -3.656  -4.660  1.00  0.00     0.031 C 
ATOM     58  C   UNL     1      14.232   1.095  -3.545  1.00  0.00     0.029 A 
ATOM     59  C   UNL     1      13.116   0.297  -3.736  1.00  0.00     0.049 A 
ATOM     60  H   UNL     1      11.075   0.833  -3.697  1.00  0.00     0.167 HD
ATOM     61  C   UNL     1      11.916  -1.821  -4.194  1.00  0.00     0.074 A 
ATOM     62  C   UNL     1      11.872  -3.235  -4.497  1.00  0.00     0.031 C 
ATOM     63  C   UNL     1      13.061  -1.113  -4.028  1.00  0.00     0.031 A 
BRANCH  50  64
ATOM     64  C   UNL     1      12.142   4.887  -2.860  1.00  0.00    -0.014 A 
ATOM     65  C   UNL     1      12.000   5.508  -1.606  1.00  0.00     0.010 A 
ATOM     66  C   UNL     1      12.902   5.526  -3.857  1.00  0.00     0.010 A 
ATOM     67  C   UNL     1      12.578   6.757  -1.365  1.00  0.00     0.020 A 
ATOM     68  C   UNL     1      13.508   6.761  -3.610  1.00  0.00     0.020 A 
ATOM     69  C   UNL     1      13.329   7.375  -2.369  1.00  0.00     0.054 A 
BRANCH  69  70
ATOM     70  S   UNL     1      14.094   8.981  -2.016  1.00  0.00     0.124 S 
ATOM     71  O   UNL     1      12.930   9.863  -1.962  1.00  0.00    -0.237 OA
ATOM     72  O   UNL     1      14.760   8.743  -0.739  1.00  0.00    -0.237 OA
ATOM     73  O   UNL     1      14.986   9.199  -3.152  1.00  0.00    -0.744 OA
ENDBRANCH  69  70
ENDBRANCH  50  64
BRANCH  51  74
ATOM     74  C   UNL     1       7.709  -3.883  -4.646  1.00  0.00    -0.014 A 
ATOM     75  C   UNL     1       7.849  -4.956  -3.749  1.00  0.00     0.010 A 
ATOM     76  C   UNL     1       6.982  -4.079  -5.835  1.00  0.00     0.010 A 
ATOM     77  C   UNL     1       7.295  -6.205  -4.045  1.00  0.00     0.020 A 
ATOM     78  C   UNL     1       6.399  -5.317  -6.119  1.00  0.00     0.020 A 
ATOM     79  C   UNL     1       6.571  -6.376  -5.227  1.00  0.00     0.054 A 
BRANCH  79  80
ATOM     80  S   UNL     1       5.827  -7.996  -5.567  1.00  0.00     0.124 S 
ATOM     81  O   UNL     1       7.000  -8.814  -5.857  1.00  0.00    -0.237 OA
ATOM     82  O   UNL     1       5.142  -8.290  -4.311  1.00  0.00    -0.237 OA
ATOM     83  O   UNL     1       4.946  -7.735  -6.703  1.00  0.00    -0.744 OA
ENDBRANCH  79  80
ENDBRANCH  51  74
BRANCH  63  84
ATOM     84  C   UNL     1      14.369  -1.861  -4.113  1.00  0.00    -0.014 A 
ATOM     85  C   UNL     1      14.855  -2.358  -5.335  1.00  0.00     0.010 A 
ATOM     86  C   UNL     1      15.155  -2.011  -2.954  1.00  0.00     0.010 A 
ATOM     87  C   UNL     1      16.087  -3.018  -5.390  1.00  0.00     0.020 A 
ATOM     88  C   UNL     1      16.400  -2.642  -3.011  1.00  0.00     0.020 A 
ATOM     89  C   UNL     1      16.853  -3.154  -4.227  1.00  0.00     0.054 A 
BRANCH  89  90
ATOM     90  S   UNL     1      18.468  -3.973  -4.336  1.00  0.00     0.124 S 
ATOM     91  O   UNL     1      18.089  -5.367  -4.545  1.00  0.00    -0.237 OA
ATOM     92  O   UNL     1      19.085  -3.310  -5.483  1.00  0.00    -0.237 OA
ATOM     93  O   UNL     1      19.092  -3.684  -3.047  1.00  0.00    -0.744 OA
ENDBRANCH  89  90
ENDBRANCH  63  84
ENDBRANCH  37  38
ENDBRANCH  30  32
ENDBRANCH  29  30
ENDBRANCH  28  29
ENDBRANCH  27  28
ENDBRANCH  26  27
ENDBRANCH  25  26
ENDBRANCH  24  25
ENDBRANCH  23  24
ENDBRANCH   1  23
TORSDOF 27
