REMARK SMILES O=C(C[C@@H](NC(=O)c1cc(-c2ccc(F)cc2)on1)c1cccc(Br)c1)OCCOCCOCCOC(=O)c1ccc(-c2c3nc(c(-c4ccc(S(=O)(=O)[O-])cc4)c4ccc([nH]4)c(-c4ccc(S(=O)(=O)[O-])cc4)c4nc(c(-c5ccc(S(=O)(=O)[O-])cc5)c5ccc2[nH]5)C=C4)C=C3)cc1
REMARK SMILES IDX 31 1 30 2 29 3 28 4 27 5 2 6 1 7 3 8 4 9 5 10 6 11 7 13 8 14
REMARK SMILES IDX 9 15 19 16 10 17 18 18 11 19 12 20 17 21 13 22 16 23 14 24
REMARK SMILES IDX 15 25 20 26 21 27 26 28 22 29 24 30 23 31 25 32 32 33 33 34
REMARK SMILES IDX 34 35 35 36 36 37 37 38 38 39 39 40 40 41 98 42 41 43 97 44
REMARK SMILES IDX 42 45 43 46 44 47 91 48 45 49 96 50 90 51 92 52 46 53 95 54
REMARK SMILES IDX 89 55 88 56 47 58 77 59 58 60 76 61 59 62 62 63 75 64 93 65
REMARK SMILES IDX 60 66 61 67 74 69 94 70 63 71 48 72 49 73 57 74 50 75 56 76
REMARK SMILES IDX 51 77 52 78 53 79 54 80 55 81 78 82 79 83 87 84 80 85 86 86
REMARK SMILES IDX 81 87 82 88 83 89 84 90 85 91 64 92 65 93 73 94 66 95 72 96
REMARK SMILES IDX 67 97 68 98 69 99 70 100 71 101
REMARK H PARENT 5 12 92 57 62 68
REMARK Flexibility Score: inf
ROOT
ATOM      1  C   UNL     1       2.348   1.621   0.834  1.00  0.00     0.188 C 
ENDROOT
BRANCH   1   2
ATOM      2  O   UNL     1       3.680   1.243   1.148  1.00  0.00    -0.376 OA
BRANCH   2   3
ATOM      3  C   UNL     1       4.609   0.943   0.103  1.00  0.00     0.202 C 
BRANCH   3   4
ATOM      4  C   UNL     1       4.149   0.919  -1.357  1.00  0.00     0.261 C 
BRANCH   4   5
ATOM      5  O   UNL     1       3.623  -0.337  -1.865  1.00  0.00    -0.463 OA
BRANCH   5   6
ATOM      6  C   UNL     1       2.579  -0.976  -1.284  1.00  0.00     0.308 C 
ATOM      7  O   UNL     1       1.471  -1.001  -1.806  1.00  0.00    -0.252 OA
BRANCH   6   8
ATOM      8  C   UNL     1       2.914  -1.758  -0.042  1.00  0.00     0.152 C 
BRANCH   8   9
ATOM      9  C   UNL     1       4.091  -2.751  -0.174  1.00  0.00     0.124 C 
BRANCH   9  10
ATOM     10  N   UNL     1       5.240  -2.155  -0.882  1.00  0.00    -0.343 N 
ATOM     11  C   UNL     1       6.602  -2.113  -0.763  1.00  0.00     0.273 C 
ATOM     12  H   UNL     1       4.940  -1.639  -1.665  1.00  0.00     0.164 HD
ATOM     13  O   UNL     1       7.205  -1.327  -1.497  1.00  0.00    -0.267 OA
BRANCH  11  14
ATOM     14  C   UNL     1       7.273  -2.962   0.194  1.00  0.00     0.171 A 
ATOM     15  C   UNL     1       7.164  -4.363   0.311  1.00  0.00     0.088 A 
ATOM     16  N   UNL     1       8.097  -2.459   1.128  1.00  0.00    -0.074 NA
ATOM     17  C   UNL     1       7.786  -4.649   1.500  1.00  0.00     0.167 A 
ATOM     18  O   UNL     1       8.387  -3.521   1.970  1.00  0.00    -0.355 OA
BRANCH  17  19
ATOM     19  C   UNL     1       7.821  -5.833   2.338  1.00  0.00     0.020 A 
ATOM     20  C   UNL     1       7.585  -7.095   1.770  1.00  0.00     0.015 A 
ATOM     21  C   UNL     1       7.954  -5.726   3.731  1.00  0.00     0.015 A 
ATOM     22  C   UNL     1       7.464  -8.224   2.579  1.00  0.00     0.040 A 
ATOM     23  C   UNL     1       7.826  -6.856   4.540  1.00  0.00     0.040 A 
ATOM     24  C   UNL     1       7.579  -8.092   3.956  1.00  0.00     0.123 A 
ATOM     25  F   UNL     1       7.447  -9.174   4.734  1.00  0.00    -0.207 F 
ENDBRANCH  17  19
ENDBRANCH  11  14
ENDBRANCH   9  10
BRANCH   9  26
ATOM     26  C   UNL     1       4.332  -3.313   1.219  1.00  0.00    -0.024 A 
ATOM     27  C   UNL     1       4.825  -2.523   2.274  1.00  0.00     0.006 A 
ATOM     28  C   UNL     1       3.951  -4.636   1.506  1.00  0.00     0.021 A 
ATOM     29  C   UNL     1       4.954  -3.042   3.565  1.00  0.00     0.002 A 
ATOM     30  C   UNL     1       4.082  -5.148   2.800  1.00  0.00     0.018 A 
ATOM     31  C   UNL     1       4.580  -4.357   3.830  1.00  0.00     0.016 A 
ATOM     32  Br  UNL     1       3.576  -6.933   3.154  1.00  0.00    -0.051 Br
ENDBRANCH   9  26
ENDBRANCH   8   9
ENDBRANCH   6   8
ENDBRANCH   5   6
ENDBRANCH   4   5
ENDBRANCH   3   4
ENDBRANCH   2   3
ENDBRANCH   1   2
BRANCH   1  33
ATOM     33  C   UNL     1       2.003   3.089   1.101  1.00  0.00     0.188 C 
BRANCH  33  34
ATOM     34  O   UNL     1       2.883   4.062   0.555  1.00  0.00    -0.376 OA
BRANCH  34  35
ATOM     35  C   UNL     1       4.165   4.216   1.168  1.00  0.00     0.202 C 
BRANCH  35  36
ATOM     36  C   UNL     1       4.242   4.408   2.688  1.00  0.00     0.261 C 
BRANCH  36  37
ATOM     37  O   UNL     1       3.921   3.210   3.427  1.00  0.00    -0.460 OA
BRANCH  37  38
ATOM     38  C   UNL     1       2.958   3.367   4.364  1.00  0.00     0.338 C 
ATOM     39  O   UNL     1       2.367   4.404   4.639  1.00  0.00    -0.246 OA
BRANCH  38  40
ATOM     40  C   UNL     1       2.567   2.086   4.973  1.00  0.00     0.060 A 
ATOM     41  C   UNL     1       1.259   1.632   4.755  1.00  0.00     0.016 A 
ATOM     42  C   UNL     1       3.373   1.488   5.944  1.00  0.00     0.016 A 
ATOM     43  C   UNL     1       0.723   0.635   5.570  1.00  0.00     0.010 A 
ATOM     44  C   UNL     1       2.830   0.490   6.764  1.00  0.00     0.010 A 
ATOM     45  C   UNL     1       1.484   0.107   6.622  1.00  0.00    -0.014 A 
BRANCH  45  46
ATOM     46  C   UNL     1       0.794  -0.653   7.698  1.00  0.00     0.031 A 
ATOM     47  C   UNL     1       0.354   0.085   8.939  1.00  0.00     0.074 A 
ATOM     48  C   UNL     1       0.506  -1.959   7.559  1.00  0.00     0.049 A 
ATOM     49  N   UNL     1      -0.306  -0.359   9.979  1.00  0.00    -0.248 NA
ATOM     50  C   UNL     1       0.701   1.514   9.015  1.00  0.00     0.031 C 
ATOM     51  C   UNL     1       0.836  -2.783   6.397  1.00  0.00     0.029 A 
ATOM     52  N   UNL     1      -0.142  -2.820   8.411  1.00  0.00    -0.354 N 
ATOM     53  C   UNL     1      -0.446   0.730  10.833  1.00  0.00     0.074 A 
ATOM     54  C   UNL     1       0.220   1.849  10.203  1.00  0.00     0.031 C 
ATOM     55  C   UNL     1       0.382  -4.031   6.607  1.00  0.00     0.029 A 
ATOM     56  C   UNL     1      -0.253  -4.099   7.924  1.00  0.00     0.049 A 
ATOM     57  H   UNL     1      -0.496  -2.545   9.288  1.00  0.00     0.167 HD
ATOM     58  C   UNL     1      -1.076   0.801  12.031  1.00  0.00     0.031 A 
ATOM     59  C   UNL     1      -0.801  -5.200   8.477  1.00  0.00     0.031 A 
ATOM     60  C   UNL     1      -1.734  -0.307  12.669  1.00  0.00     0.049 A 
ATOM     61  C   UNL     1      -1.454  -5.110   9.833  1.00  0.00     0.074 A 
ATOM     62  C   UNL     1      -2.413  -0.327  13.875  1.00  0.00     0.029 A 
ATOM     63  N   UNL     1      -1.792  -1.593  12.157  1.00  0.00    -0.354 N 
ATOM     64  N   UNL     1      -1.604  -4.064  10.611  1.00  0.00    -0.248 NA
ATOM     65  C   UNL     1      -2.026  -6.351  10.377  1.00  0.00     0.031 C 
ATOM     66  C   UNL     1      -2.844  -1.637  14.113  1.00  0.00     0.029 A 
ATOM     67  C   UNL     1      -2.477  -2.420  13.031  1.00  0.00     0.049 A 
ATOM     68  H   UNL     1      -1.403  -1.877  11.298  1.00  0.00     0.167 HD
ATOM     69  C   UNL     1      -2.318  -4.514  11.718  1.00  0.00     0.074 A 
ATOM     70  C   UNL     1      -2.574  -5.924  11.507  1.00  0.00     0.031 C 
ATOM     71  C   UNL     1      -2.730  -3.821  12.809  1.00  0.00     0.031 A 
BRANCH  58  72
ATOM     72  C   UNL     1      -1.050   2.125  12.747  1.00  0.00    -0.014 A 
ATOM     73  C   UNL     1      -1.833   3.207  12.306  1.00  0.00     0.010 A 
ATOM     74  C   UNL     1      -0.247   2.281  13.891  1.00  0.00     0.010 A 
ATOM     75  C   UNL     1      -1.780   4.435  12.971  1.00  0.00     0.020 A 
ATOM     76  C   UNL     1      -0.209   3.500  14.573  1.00  0.00     0.020 A 
ATOM     77  C   UNL     1      -0.961   4.576  14.097  1.00  0.00     0.054 A 
BRANCH  77  78
ATOM     78  S   UNL     1      -0.913   6.176  14.949  1.00  0.00     0.124 S 
ATOM     79  O   UNL     1      -0.083   6.971  14.047  1.00  0.00    -0.237 OA
ATOM     80  O   UNL     1      -2.323   6.557  15.002  1.00  0.00    -0.237 OA
ATOM     81  O   UNL     1      -0.307   5.863  16.240  1.00  0.00    -0.744 OA
ENDBRANCH  77  78
ENDBRANCH  58  72
BRANCH  59  82
ATOM     82  C   UNL     1      -0.769  -6.493   7.742  1.00  0.00    -0.014 A 
ATOM     83  C   UNL     1      -1.946  -7.037   7.200  1.00  0.00     0.010 A 
ATOM     84  C   UNL     1       0.443  -7.192   7.588  1.00  0.00     0.010 A 
ATOM     85  C   UNL     1      -1.917  -8.265   6.533  1.00  0.00     0.020 A 
ATOM     86  C   UNL     1       0.480  -8.408   6.900  1.00  0.00     0.020 A 
ATOM     87  C   UNL     1      -0.703  -8.943   6.387  1.00  0.00     0.054 A 
BRANCH  87  88
ATOM     88  S   UNL     1      -0.680 -10.512   5.477  1.00  0.00     0.124 S 
ATOM     89  O   UNL     1      -1.264 -11.434   6.446  1.00  0.00    -0.237 OA
ATOM     90  O   UNL     1      -1.507 -10.213   4.310  1.00  0.00    -0.237 OA
ATOM     91  O   UNL     1       0.737 -10.719   5.189  1.00  0.00    -0.744 OA
ENDBRANCH  87  88
ENDBRANCH  59  82
BRANCH  71  92
ATOM     92  C   UNL     1      -3.544  -4.561  13.838  1.00  0.00    -0.014 A 
ATOM     93  C   UNL     1      -2.954  -5.498  14.703  1.00  0.00     0.010 A 
ATOM     94  C   UNL     1      -4.917  -4.281  13.965  1.00  0.00     0.010 A 
ATOM     95  C   UNL     1      -3.730  -6.172  15.651  1.00  0.00     0.020 A 
ATOM     96  C   UNL     1      -5.692  -4.934  14.928  1.00  0.00     0.020 A 
ATOM     97  C   UNL     1      -5.096  -5.889  15.753  1.00  0.00     0.054 A 
BRANCH  97  98
ATOM     98  S   UNL     1      -6.082  -6.756  17.006  1.00  0.00     0.124 S 
ATOM     99  O   UNL     1      -6.280  -8.063  16.386  1.00  0.00    -0.237 OA
ATOM    100  O   UNL     1      -5.207  -6.741  18.175  1.00  0.00    -0.237 OA
ATOM    101  O   UNL     1      -7.285  -5.934  17.127  1.00  0.00    -0.744 OA
ENDBRANCH  97  98
ENDBRANCH  71  92
ENDBRANCH  45  46
ENDBRANCH  38  40
ENDBRANCH  37  38
ENDBRANCH  36  37
ENDBRANCH  35  36
ENDBRANCH  34  35
ENDBRANCH  33  34
ENDBRANCH   1  33
TORSDOF 25
