REMARK SMILES CC1(C)[C@H](C(=O)OCCOCCOCCOC(=O)c2ccc(-c3c4nc(c(-c5ccc(S(=O)(=O)[O-])cc5)c5ccc([nH]5)c(-c5ccc(S(=O)(=O)[O-])cc5)c5nc(c(-c6ccc(S(=O)(=O)[O-])cc6)c6ccc3[nH]6)C=C5)C=C4)cc2)[C@@H]1C(=O)Nc1ccc(Cl)c(Br)c1
REMARK SMILES IDX 12 1 11 2 10 3 9 4 8 5 7 6 5 7 6 8 4 9 1 10 2 11 3 12 79 13
REMARK SMILES IDX 80 14 81 15 82 16 83 18 84 19 90 20 85 21 88 22 86 23 89 24
REMARK SMILES IDX 87 25 13 26 14 27 15 28 16 29 17 30 18 31 19 32 20 33 78 34
REMARK SMILES IDX 21 35 77 36 22 37 23 38 24 39 71 40 25 41 76 42 70 43 72 44
REMARK SMILES IDX 26 45 75 46 69 47 68 48 27 50 57 51 38 52 56 53 39 54 42 55
REMARK SMILES IDX 55 56 73 57 40 58 41 59 54 61 74 62 43 63 28 64 29 65 37 66
REMARK SMILES IDX 30 67 36 68 31 69 32 70 33 71 34 72 35 73 58 74 59 75 67 76
REMARK SMILES IDX 60 77 66 78 61 79 62 80 63 81 64 82 65 83 44 84 45 85 53 86
REMARK SMILES IDX 46 87 52 88 47 89 48 90 49 91 50 92 51 93
REMARK H PARENT 82 17 72 49 42 60
REMARK Flexibility Score: inf
ROOT
ATOM      1  C   UNL     1       0.353   1.490  -3.457  1.00  0.00     0.188 C 
ENDROOT
BRANCH   1   2
ATOM      2  C   UNL     1      -0.914   1.429  -4.328  1.00  0.00     0.188 C 
BRANCH   2   3
ATOM      3  O   UNL     1      -1.599   2.668  -4.447  1.00  0.00    -0.376 OA
BRANCH   3   4
ATOM      4  C   UNL     1      -2.690   2.875  -3.565  1.00  0.00     0.202 C 
BRANCH   4   5
ATOM      5  C   UNL     1      -2.277   3.245  -2.134  1.00  0.00     0.261 C 
BRANCH   5   6
ATOM      6  O   UNL     1      -1.659   2.239  -1.305  1.00  0.00    -0.463 OA
BRANCH   6   7
ATOM      7  C   UNL     1      -2.155   0.985  -1.311  1.00  0.00     0.310 C 
ATOM      8  O   UNL     1      -3.085   0.598  -2.001  1.00  0.00    -0.252 OA
BRANCH   7   9
ATOM      9  C   UNL     1      -1.447   0.012  -0.449  1.00  0.00     0.118 C 
ATOM     10  C   UNL     1       0.777  -0.978   0.324  1.00  0.00     0.013 C 
ATOM     11  C   UNL     1      -0.176   0.199   0.352  1.00  0.00    -0.009 C 
ATOM     12  C   UNL     1       0.556   1.520   0.422  1.00  0.00     0.013 C 
ATOM     13  C   UNL     1      -1.534   0.033   1.063  1.00  0.00     0.100 C 
BRANCH  13  14
ATOM     14  C   UNL     1      -2.078   1.153   1.880  1.00  0.00     0.228 C 
ATOM     15  O   UNL     1      -1.390   1.618   2.786  1.00  0.00    -0.274 OA
ATOM     16  N   UNL     1      -3.305   1.714   1.620  1.00  0.00    -0.326 N 
ATOM     17  H   UNL     1      -3.482   2.550   2.108  1.00  0.00     0.169 HD
BRANCH  16  18
ATOM     18  C   UNL     1      -4.347   1.302   0.779  1.00  0.00     0.042 A 
ATOM     19  C   UNL     1      -5.105   2.309   0.173  1.00  0.00     0.028 A 
ATOM     20  C   UNL     1      -4.609  -0.035   0.472  1.00  0.00     0.043 A 
ATOM     21  C   UNL     1      -6.010   1.992  -0.842  1.00  0.00     0.024 A 
ATOM     22  C   UNL     1      -5.532  -0.357  -0.536  1.00  0.00     0.038 A 
ATOM     23  C   UNL     1      -6.208   0.661  -1.218  1.00  0.00     0.055 A 
ATOM     24  Br  UNL     1      -5.736  -2.193  -0.973  1.00  0.00    -0.049 Br
ATOM     25  Cl  UNL     1      -7.267   0.363  -2.548  1.00  0.00    -0.083 Cl
ENDBRANCH  16  18
ENDBRANCH  13  14
ENDBRANCH   7   9
ENDBRANCH   6   7
ENDBRANCH   5   6
ENDBRANCH   4   5
ENDBRANCH   3   4
ENDBRANCH   2   3
ENDBRANCH   1   2
BRANCH   1  26
ATOM     26  O   UNL     1       1.072   2.712  -3.338  1.00  0.00    -0.376 OA
BRANCH  26  27
ATOM     27  C   UNL     1       1.192   3.545  -4.481  1.00  0.00     0.202 C 
BRANCH  27  28
ATOM     28  C   UNL     1       2.006   3.014  -5.666  1.00  0.00     0.261 C 
BRANCH  28  29
ATOM     29  O   UNL     1       1.557   1.741  -6.157  1.00  0.00    -0.460 OA
BRANCH  29  30
ATOM     30  C   UNL     1       2.350   0.685  -5.842  1.00  0.00     0.338 C 
ATOM     31  O   UNL     1       3.418   0.721  -5.256  1.00  0.00    -0.246 OA
BRANCH  30  32
ATOM     32  C   UNL     1       1.632  -0.579  -6.124  1.00  0.00     0.060 A 
ATOM     33  C   UNL     1       1.601  -1.558  -5.118  1.00  0.00     0.016 A 
ATOM     34  C   UNL     1       1.033  -0.822  -7.361  1.00  0.00     0.016 A 
ATOM     35  C   UNL     1       1.014  -2.799  -5.358  1.00  0.00     0.010 A 
ATOM     36  C   UNL     1       0.476  -2.079  -7.614  1.00  0.00     0.010 A 
ATOM     37  C   UNL     1       0.503  -3.084  -6.629  1.00  0.00    -0.014 A 
BRANCH  37  38
ATOM     38  C   UNL     1       0.259  -4.492  -7.024  1.00  0.00     0.031 A 
ATOM     39  C   UNL     1       1.402  -5.246  -7.650  1.00  0.00     0.074 A 
ATOM     40  C   UNL     1      -0.934  -5.087  -6.852  1.00  0.00     0.049 A 
ATOM     41  N   UNL     1       1.413  -6.430  -8.202  1.00  0.00    -0.248 NA
ATOM     42  C   UNL     1       2.709  -4.565  -7.657  1.00  0.00     0.031 C 
ATOM     43  C   UNL     1      -2.095  -4.494  -6.193  1.00  0.00     0.029 A 
ATOM     44  N   UNL     1      -1.365  -6.332  -7.241  1.00  0.00    -0.354 N 
ATOM     45  C   UNL     1       2.718  -6.628  -8.637  1.00  0.00     0.074 A 
ATOM     46  C   UNL     1       3.469  -5.442  -8.293  1.00  0.00     0.031 C 
ATOM     47  C   UNL     1      -3.118  -5.367  -6.246  1.00  0.00     0.029 A 
ATOM     48  C   UNL     1      -2.695  -6.561  -6.979  1.00  0.00     0.049 A 
ATOM     49  H   UNL     1      -0.777  -6.997  -7.667  1.00  0.00     0.167 HD
ATOM     50  C   UNL     1       3.245  -7.697  -9.276  1.00  0.00     0.031 A 
ATOM     51  C   UNL     1      -3.484  -7.598  -7.324  1.00  0.00     0.031 A 
ATOM     52  C   UNL     1       2.492  -8.864  -9.642  1.00  0.00     0.049 A 
ATOM     53  C   UNL     1      -2.899  -8.742  -8.116  1.00  0.00     0.074 A 
ATOM     54  C   UNL     1       2.928  -9.995 -10.308  1.00  0.00     0.029 A 
ATOM     55  N   UNL     1       1.144  -9.044  -9.379  1.00  0.00    -0.354 N 
ATOM     56  N   UNL     1      -1.666  -8.914  -8.531  1.00  0.00    -0.248 NA
ATOM     57  C   UNL     1      -3.814  -9.833  -8.487  1.00  0.00     0.031 C 
ATOM     58  C   UNL     1       1.830 -10.842 -10.487  1.00  0.00     0.029 A 
ATOM     59  C   UNL     1       0.725 -10.262  -9.883  1.00  0.00     0.049 A 
ATOM     60  H   UNL     1       0.569  -8.401  -8.904  1.00  0.00     0.167 HD
ATOM     61  C   UNL     1      -1.650 -10.145  -9.180  1.00  0.00     0.074 A 
ATOM     62  C   UNL     1      -2.995 -10.676  -9.103  1.00  0.00     0.031 C 
ATOM     63  C   UNL     1      -0.614 -10.782  -9.780  1.00  0.00     0.031 A 
BRANCH  50  64
ATOM     64  C   UNL     1       4.696  -7.621  -9.665  1.00  0.00    -0.014 A 
ATOM     65  C   UNL     1       5.714  -7.727  -8.701  1.00  0.00     0.010 A 
ATOM     66  C   UNL     1       5.043  -7.451 -11.017  1.00  0.00     0.010 A 
ATOM     67  C   UNL     1       7.056  -7.625  -9.079  1.00  0.00     0.020 A 
ATOM     68  C   UNL     1       6.383  -7.373 -11.402  1.00  0.00     0.020 A 
ATOM     69  C   UNL     1       7.381  -7.444 -10.427  1.00  0.00     0.054 A 
BRANCH  69  70
ATOM     70  S   UNL     1       9.129  -7.329 -10.895  1.00  0.00     0.124 S 
ATOM     71  O   UNL     1       9.474  -5.985 -10.437  1.00  0.00    -0.237 OA
ATOM     72  O   UNL     1       9.737  -8.423 -10.141  1.00  0.00    -0.237 OA
ATOM     73  O   UNL     1       9.113  -7.508 -12.344  1.00  0.00    -0.744 OA
ENDBRANCH  69  70
ENDBRANCH  50  64
BRANCH  51  74
ATOM     74  C   UNL     1      -4.928  -7.592  -6.959  1.00  0.00    -0.014 A 
ATOM     75  C   UNL     1      -5.428  -8.487  -5.997  1.00  0.00     0.010 A 
ATOM     76  C   UNL     1      -5.816  -6.696  -7.584  1.00  0.00     0.010 A 
ATOM     77  C   UNL     1      -6.790  -8.497  -5.678  1.00  0.00     0.020 A 
ATOM     78  C   UNL     1      -7.173  -6.686  -7.249  1.00  0.00     0.020 A 
ATOM     79  C   UNL     1      -7.654  -7.596  -6.306  1.00  0.00     0.054 A 
BRANCH  79  80
ATOM     80  S   UNL     1      -9.409  -7.596  -5.844  1.00  0.00     0.124 S 
ATOM     81  O   UNL     1      -9.897  -8.800  -6.510  1.00  0.00    -0.237 OA
ATOM     82  O   UNL     1      -9.354  -7.659  -4.386  1.00  0.00    -0.237 OA
ATOM     83  O   UNL     1      -9.906  -6.334  -6.388  1.00  0.00    -0.744 OA
ENDBRANCH  79  80
ENDBRANCH  51  74
BRANCH  63  84
ATOM     84  C   UNL     1      -0.864 -12.152 -10.351  1.00  0.00    -0.014 A 
ATOM     85  C   UNL     1      -1.554 -12.326 -11.562  1.00  0.00     0.010 A 
ATOM     86  C   UNL     1      -0.309 -13.274  -9.708  1.00  0.00     0.010 A 
ATOM     87  C   UNL     1      -1.696 -13.603 -12.114  1.00  0.00     0.020 A 
ATOM     88  C   UNL     1      -0.429 -14.548 -10.268  1.00  0.00     0.020 A 
ATOM     89  C   UNL     1      -1.130 -14.706 -11.465  1.00  0.00     0.054 A 
BRANCH  89  90
ATOM     90  S   UNL     1      -1.264 -16.342 -12.237  1.00  0.00     0.124 S 
ATOM     91  O   UNL     1      -2.655 -16.693 -11.966  1.00  0.00    -0.237 OA
ATOM     92  O   UNL     1      -0.946 -16.066 -13.636  1.00  0.00    -0.237 OA
ATOM     93  O   UNL     1      -0.270 -17.143 -11.526  1.00  0.00    -0.744 OA
ENDBRANCH  89  90
ENDBRANCH  63  84
ENDBRANCH  37  38
ENDBRANCH  30  32
ENDBRANCH  29  30
ENDBRANCH  28  29
ENDBRANCH  27  28
ENDBRANCH  26  27
ENDBRANCH   1  26
TORSDOF 22
