REMARK SMILES O=C(OCCOCCOCCOC(=O)c1ccc(N2C(=O)/C(=C/c3ccco3)SC2=S)cc1)c1ccc(-c2c3nc(c(-c4ccc(S(=O)(=O)[O-])cc4)c4ccc([nH]4)c(-c4ccc(S(=O)(=O)[O-])cc4)c4nc(c(-c5ccc(S(=O)(=O)[O-])cc5)c5ccc2[nH]5)C=C4)C=C3)cc1
REMARK SMILES IDX 7 1 6 2 5 3 4 4 3 5 2 6 1 7 34 8 35 9 93 10 36 11 92 12
REMARK SMILES IDX 37 13 38 14 39 15 86 16 40 17 91 18 85 19 87 20 41 21 90 22
REMARK SMILES IDX 84 23 83 24 42 26 72 27 53 28 71 29 54 30 57 31 70 32 88 33
REMARK SMILES IDX 55 34 56 35 69 37 89 38 58 39 43 40 44 41 52 42 45 43 51 44
REMARK SMILES IDX 46 45 47 46 48 47 49 48 50 49 73 50 74 51 82 52 75 53 81 54
REMARK SMILES IDX 76 55 77 56 78 57 79 58 80 59 59 60 60 61 68 62 61 63 67 64
REMARK SMILES IDX 62 65 63 66 64 67 65 68 66 69 8 70 9 71 10 72 11 73 12 74
REMARK SMILES IDX 13 75 14 76 15 77 16 78 33 79 17 80 32 81 18 82 19 83 20 84
REMARK SMILES IDX 30 85 21 86 22 87 29 88 31 89 23 90 24 91 25 92 28 93 26 94
REMARK SMILES IDX 27 95
REMARK H PARENT 87 25 57 36
REMARK Flexibility Score: inf
ROOT
ATOM      1  C   UNL     1       2.557  -2.081  -0.626  1.00  0.00     0.188 C 
ENDROOT
BRANCH   1   2
ATOM      2  O   UNL     1       3.831  -1.447  -0.798  1.00  0.00    -0.376 OA
BRANCH   2   3
ATOM      3  C   UNL     1       4.716  -1.613   0.316  1.00  0.00     0.202 C 
BRANCH   3   4
ATOM      4  C   UNL     1       4.539  -0.573   1.429  1.00  0.00     0.261 C 
BRANCH   4   5
ATOM      5  O   UNL     1       3.159  -0.233   1.629  1.00  0.00    -0.460 OA
BRANCH   5   6
ATOM      6  C   UNL     1       2.466   0.795   1.077  1.00  0.00     0.338 C 
ATOM      7  O   UNL     1       1.277   0.914   1.370  1.00  0.00    -0.246 OA
BRANCH   6   8
ATOM      8  C   UNL     1       3.067   1.818   0.161  1.00  0.00     0.060 A 
ATOM      9  C   UNL     1       4.187   1.629  -0.652  1.00  0.00     0.016 A 
ATOM     10  C   UNL     1       2.412   3.060   0.092  1.00  0.00     0.016 A 
ATOM     11  C   UNL     1       4.731   2.674  -1.394  1.00  0.00     0.010 A 
ATOM     12  C   UNL     1       2.917   4.098  -0.696  1.00  0.00     0.010 A 
ATOM     13  C   UNL     1       4.115   3.922  -1.397  1.00  0.00    -0.014 A 
BRANCH  13  14
ATOM     14  C   UNL     1       4.817   5.073  -1.998  1.00  0.00     0.031 A 
ATOM     15  C   UNL     1       5.473   6.060  -1.079  1.00  0.00     0.074 A 
ATOM     16  C   UNL     1       4.941   5.182  -3.331  1.00  0.00     0.049 A 
ATOM     17  N   UNL     1       6.087   7.175  -1.366  1.00  0.00    -0.248 NA
ATOM     18  C   UNL     1       5.455   5.731   0.357  1.00  0.00     0.031 C 
ATOM     19  C   UNL     1       4.465   4.200  -4.303  1.00  0.00     0.029 A 
ATOM     20  N   UNL     1       5.512   6.162  -4.099  1.00  0.00    -0.354 N 
ATOM     21  C   UNL     1       6.510   7.691  -0.147  1.00  0.00     0.074 A 
ATOM     22  C   UNL     1       6.074   6.776   0.883  1.00  0.00     0.031 C 
ATOM     23  C   UNL     1       4.741   4.638  -5.541  1.00  0.00     0.029 A 
ATOM     24  C   UNL     1       5.365   5.952  -5.448  1.00  0.00     0.049 A 
ATOM     25  H   UNL     1       5.981   6.941  -3.721  1.00  0.00     0.167 HD
ATOM     26  C   UNL     1       7.198   8.833   0.087  1.00  0.00     0.031 A 
ATOM     27  C   UNL     1       5.666   6.748  -6.489  1.00  0.00     0.031 A 
ATOM     28  C   UNL     1       7.591   9.743  -0.952  1.00  0.00     0.049 A 
ATOM     29  C   UNL     1       6.318   8.070  -6.207  1.00  0.00     0.074 A 
ATOM     30  C   UNL     1       8.233  10.961  -0.840  1.00  0.00     0.029 A 
ATOM     31  N   UNL     1       7.366   9.527  -2.306  1.00  0.00    -0.354 N 
ATOM     32  N   UNL     1       6.665   8.578  -5.047  1.00  0.00    -0.248 NA
ATOM     33  C   UNL     1       6.626   8.922  -7.360  1.00  0.00     0.031 C 
ATOM     34  C   UNL     1       8.357  11.502  -2.125  1.00  0.00     0.029 A 
ATOM     35  C   UNL     1       7.842  10.596  -3.041  1.00  0.00     0.049 A 
ATOM     36  H   UNL     1       6.931   8.729  -2.685  1.00  0.00     0.167 HD
ATOM     37  C   UNL     1       7.259   9.800  -5.331  1.00  0.00     0.074 A 
ATOM     38  C   UNL     1       7.224   9.953  -6.774  1.00  0.00     0.031 C 
ATOM     39  C   UNL     1       7.792  10.709  -4.478  1.00  0.00     0.031 A 
BRANCH  26  40
ATOM     40  C   UNL     1       7.476   9.170   1.526  1.00  0.00    -0.014 A 
ATOM     41  C   UNL     1       8.421   8.449   2.280  1.00  0.00     0.010 A 
ATOM     42  C   UNL     1       6.727  10.181   2.154  1.00  0.00     0.010 A 
ATOM     43  C   UNL     1       8.563   8.689   3.650  1.00  0.00     0.020 A 
ATOM     44  C   UNL     1       6.883  10.440   3.518  1.00  0.00     0.020 A 
ATOM     45  C   UNL     1       7.780   9.672   4.263  1.00  0.00     0.054 A 
BRANCH  45  46
ATOM     46  S   UNL     1       7.943   9.931   6.051  1.00  0.00     0.124 S 
ATOM     47  O   UNL     1       7.223   8.779   6.588  1.00  0.00    -0.237 OA
ATOM     48  O   UNL     1       9.390   9.913   6.250  1.00  0.00    -0.237 OA
ATOM     49  O   UNL     1       7.303  11.225   6.274  1.00  0.00    -0.744 OA
ENDBRANCH  45  46
ENDBRANCH  26  40
BRANCH  27  50
ATOM     50  C   UNL     1       5.313   6.319  -7.868  1.00  0.00    -0.014 A 
ATOM     51  C   UNL     1       6.303   5.905  -8.774  1.00  0.00     0.010 A 
ATOM     52  C   UNL     1       3.960   6.268  -8.261  1.00  0.00     0.010 A 
ATOM     53  C   UNL     1       5.948   5.443 -10.045  1.00  0.00     0.020 A 
ATOM     54  C   UNL     1       3.600   5.785  -9.522  1.00  0.00     0.020 A 
ATOM     55  C   UNL     1       4.599   5.379 -10.408  1.00  0.00     0.054 A 
BRANCH  55  56
ATOM     56  S   UNL     1       4.162   4.701 -12.034  1.00  0.00     0.124 S 
ATOM     57  O   UNL     1       4.562   5.780 -12.931  1.00  0.00    -0.237 OA
ATOM     58  O   UNL     1       4.975   3.489 -12.095  1.00  0.00    -0.237 OA
ATOM     59  O   UNL     1       2.723   4.472 -11.927  1.00  0.00    -0.744 OA
ENDBRANCH  55  56
ENDBRANCH  27  50
BRANCH  39  60
ATOM     60  C   UNL     1       8.422  11.928  -5.086  1.00  0.00    -0.014 A 
ATOM     61  C   UNL     1       7.636  12.987  -5.569  1.00  0.00     0.010 A 
ATOM     62  C   UNL     1       9.824  12.046  -5.087  1.00  0.00     0.010 A 
ATOM     63  C   UNL     1       8.246  14.145  -6.056  1.00  0.00     0.020 A 
ATOM     64  C   UNL     1      10.435  13.210  -5.553  1.00  0.00     0.020 A 
ATOM     65  C   UNL     1       9.641  14.250  -6.041  1.00  0.00     0.054 A 
BRANCH  65  66
ATOM     66  S   UNL     1      10.408  15.793  -6.605  1.00  0.00     0.124 S 
ATOM     67  O   UNL     1      10.294  15.674  -8.056  1.00  0.00    -0.237 OA
ATOM     68  O   UNL     1       9.565  16.815  -5.990  1.00  0.00    -0.237 OA
ATOM     69  O   UNL     1      11.768  15.715  -6.077  1.00  0.00    -0.744 OA
ENDBRANCH  65  66
ENDBRANCH  39  60
ENDBRANCH  13  14
ENDBRANCH   6   8
ENDBRANCH   5   6
ENDBRANCH   4   5
ENDBRANCH   3   4
ENDBRANCH   2   3
ENDBRANCH   1   2
BRANCH   1  70
ATOM     70  C   UNL     1       2.034  -2.655  -1.946  1.00  0.00     0.188 C 
BRANCH  70  71
ATOM     71  O   UNL     1       2.738  -3.796  -2.437  1.00  0.00    -0.376 OA
BRANCH  71  72
ATOM     72  C   UNL     1       4.120  -3.617  -2.736  1.00  0.00     0.202 C 
BRANCH  72  73
ATOM     73  C   UNL     1       4.464  -2.792  -3.981  1.00  0.00     0.261 C 
BRANCH  73  74
ATOM     74  O   UNL     1       3.905  -1.465  -4.008  1.00  0.00    -0.460 OA
BRANCH  74  75
ATOM     75  C   UNL     1       3.033  -1.258  -5.025  1.00  0.00     0.338 C 
ATOM     76  O   UNL     1       2.623  -2.092  -5.819  1.00  0.00    -0.246 OA
BRANCH  75  77
ATOM     77  C   UNL     1       2.665   0.162  -5.159  1.00  0.00     0.060 A 
ATOM     78  C   UNL     1       1.888   0.831  -4.209  1.00  0.00     0.018 A 
ATOM     79  C   UNL     1       2.954   0.770  -6.380  1.00  0.00     0.018 A 
ATOM     80  C   UNL     1       1.339   2.087  -4.521  1.00  0.00     0.028 A 
ATOM     81  C   UNL     1       2.405   2.014  -6.684  1.00  0.00     0.028 A 
ATOM     82  C   UNL     1       1.542   2.663  -5.786  1.00  0.00     0.051 A 
BRANCH  82  83
ATOM     83  N   UNL     1       0.881   3.864  -6.189  1.00  0.00    -0.261 N 
ATOM     84  C   UNL     1       0.781   4.959  -5.331  1.00  0.00     0.270 C 
ATOM     85  C   UNL     1       0.235   3.993  -7.417  1.00  0.00     0.152 C 
ATOM     86  O   UNL     1       1.089   5.017  -4.150  1.00  0.00    -0.268 OA
ATOM     87  C   UNL     1       0.168   6.116  -6.052  1.00  0.00     0.084 C 
ATOM     88  S   UNL     1      -0.312   5.646  -7.632  1.00  0.00    -0.054 SA
ATOM     89  S   UNL     1      -0.202   2.817  -8.528  1.00  0.00    -0.051 S 
ATOM     90  C   UNL     1       0.071   7.336  -5.505  1.00  0.00     0.068 C 
BRANCH  90  91
ATOM     91  C   UNL     1      -0.507   8.443  -6.186  1.00  0.00     0.127 A 
ATOM     92  C   UNL     1      -1.783   8.601  -6.720  1.00  0.00     0.050 A 
ATOM     93  O   UNL     1       0.183   9.609  -6.426  1.00  0.00    -0.465 OA
ATOM     94  C   UNL     1      -1.841   9.866  -7.349  1.00  0.00     0.042 A 
ATOM     95  C   UNL     1      -0.611  10.437  -7.146  1.00  0.00     0.195 A 
ENDBRANCH  90  91
ENDBRANCH  82  83
ENDBRANCH  75  77
ENDBRANCH  74  75
ENDBRANCH  73  74
ENDBRANCH  72  73
ENDBRANCH  71  72
ENDBRANCH  70  71
ENDBRANCH   1  70
TORSDOF 22
