REMARK SMILES C[C@@H](NC1=[NH+]S(=O)(=O)c2ccccc21)C(=O)OCCOCCOCCOC(=O)c1ccc(-c2c3nc(c(-c4ccc(S(=O)(=O)[O-])cc4)c4ccc([nH]4)c(-c4ccc(S(=O)(=O)[O-])cc4)c4nc(c(-c5ccc(S(=O)(=O)[O-])cc5)c5ccc2[nH]5)C=C4)C=C3)cc1
REMARK SMILES IDX 22 1 21 2 20 3 19 4 18 5 17 6 15 7 16 8 2 9 1 10 3 11 4 12
REMARK SMILES IDX 5 14 14 15 6 16 9 18 13 19 7 20 8 21 10 22 12 23 11 24 23 25
REMARK SMILES IDX 24 26 25 27 26 28 27 29 28 30 29 31 30 32 88 33 31 34 87 35
REMARK SMILES IDX 32 36 33 37 34 38 81 39 35 40 86 41 80 42 82 43 36 44 85 45
REMARK SMILES IDX 79 46 78 47 37 49 67 50 48 51 66 52 49 53 52 54 65 55 83 56
REMARK SMILES IDX 50 57 51 58 64 60 84 61 53 62 38 63 39 64 47 65 40 66 46 67
REMARK SMILES IDX 41 68 42 69 43 70 44 71 45 72 68 73 69 74 77 75 70 76 76 77
REMARK SMILES IDX 71 78 72 79 73 80 74 81 75 82 54 83 55 84 63 85 56 86 62 87
REMARK SMILES IDX 57 88 58 89 59 90 60 91 61 92
REMARK H PARENT 3 13 5 17 82 48 52 59
REMARK Flexibility Score: inf
ROOT
ATOM      1  C   UNL     1      -1.709  -1.323  -0.545  1.00  0.00     0.188 C 
ENDROOT
BRANCH   1   2
ATOM      2  C   UNL     1      -2.491  -1.986   0.600  1.00  0.00     0.188 C 
BRANCH   2   3
ATOM      3  O   UNL     1      -3.762  -1.464   0.958  1.00  0.00    -0.376 OA
BRANCH   3   4
ATOM      4  C   UNL     1      -3.975  -0.061   0.976  1.00  0.00     0.202 C 
BRANCH   4   5
ATOM      5  C   UNL     1      -3.040   0.852   1.783  1.00  0.00     0.261 C 
BRANCH   5   6
ATOM      6  O   UNL     1      -1.637   0.827   1.450  1.00  0.00    -0.460 OA
BRANCH   6   7
ATOM      7  C   UNL     1      -0.822   0.174   2.336  1.00  0.00     0.350 C 
ATOM      8  O   UNL     1      -1.226  -0.533   3.253  1.00  0.00    -0.247 OA
BRANCH   7   9
ATOM      9  C   UNL     1       0.680   0.467   2.105  1.00  0.00     0.279 C 
ATOM     10  C   UNL     1       1.126   0.494   0.638  1.00  0.00     0.071 C 
BRANCH   9  11
ATOM     11  N   UNL     1       1.118   1.730   2.709  1.00  0.00    -0.260 N 
ATOM     12  C   UNL     1       0.259   2.686   3.171  1.00  0.00     0.292 C 
ATOM     13  H   UNL     1       2.085   1.898   2.786  1.00  0.00     0.306 HD
ATOM     14  N   UNL     1      -0.773   2.446   3.923  1.00  0.00    -0.162 N 
ATOM     15  C   UNL     1       0.434   4.089   2.764  1.00  0.00     0.087 A 
ATOM     16  S   UNL     1      -1.627   3.807   4.216  1.00  0.00     0.329 S 
ATOM     17  H   UNL     1      -1.010   1.557   4.272  1.00  0.00     0.327 HD
ATOM     18  C   UNL     1      -0.597   4.848   3.279  1.00  0.00     0.124 A 
ATOM     19  C   UNL     1       1.371   4.646   1.912  1.00  0.00     0.018 A 
ATOM     20  O   UNL     1      -1.508   4.219   5.588  1.00  0.00    -0.179 OA
ATOM     21  O   UNL     1      -2.904   3.754   3.518  1.00  0.00    -0.179 OA
ATOM     22  C   UNL     1      -0.760   6.186   2.997  1.00  0.00     0.025 A 
ATOM     23  C   UNL     1       1.241   6.006   1.612  1.00  0.00     0.001 A 
ATOM     24  C   UNL     1       0.185   6.769   2.151  1.00  0.00     0.002 A 
ENDBRANCH   9  11
ENDBRANCH   7   9
ENDBRANCH   6   7
ENDBRANCH   5   6
ENDBRANCH   4   5
ENDBRANCH   3   4
ENDBRANCH   2   3
ENDBRANCH   1   2
BRANCH   1  25
ATOM     25  O   UNL     1      -2.438  -0.382  -1.294  1.00  0.00    -0.376 OA
BRANCH  25  26
ATOM     26  C   UNL     1      -3.009  -0.789  -2.522  1.00  0.00     0.202 C 
BRANCH  26  27
ATOM     27  C   UNL     1      -3.638  -2.183  -2.717  1.00  0.00     0.261 C 
BRANCH  27  28
ATOM     28  O   UNL     1      -3.063  -3.297  -2.014  1.00  0.00    -0.460 OA
BRANCH  28  29
ATOM     29  C   UNL     1      -1.929  -3.845  -2.510  1.00  0.00     0.338 C 
ATOM     30  O   UNL     1      -1.333  -3.491  -3.511  1.00  0.00    -0.246 OA
BRANCH  29  31
ATOM     31  C   UNL     1      -1.389  -4.793  -1.497  1.00  0.00     0.060 A 
ATOM     32  C   UNL     1      -0.115  -4.551  -0.965  1.00  0.00     0.016 A 
ATOM     33  C   UNL     1      -2.126  -5.898  -1.063  1.00  0.00     0.016 A 
ATOM     34  C   UNL     1       0.440  -5.431  -0.031  1.00  0.00     0.010 A 
ATOM     35  C   UNL     1      -1.558  -6.793  -0.142  1.00  0.00     0.010 A 
ATOM     36  C   UNL     1      -0.258  -6.584   0.355  1.00  0.00    -0.014 A 
BRANCH  36  37
ATOM     37  C   UNL     1       0.447  -7.641   1.131  1.00  0.00     0.031 A 
ATOM     38  C   UNL     1       0.986  -8.843   0.395  1.00  0.00     0.074 A 
ATOM     39  C   UNL     1       0.663  -7.520   2.455  1.00  0.00     0.049 A 
ATOM     40  N   UNL     1       1.637  -9.879   0.859  1.00  0.00    -0.248 NA
ATOM     41  C   UNL     1       0.765  -8.877  -1.061  1.00  0.00     0.031 C 
ATOM     42  C   UNL     1       0.235  -6.395   3.285  1.00  0.00     0.029 A 
ATOM     43  N   UNL     1       1.303  -8.361   3.336  1.00  0.00    -0.354 N 
ATOM     44  C   UNL     1       1.905 -10.684  -0.243  1.00  0.00     0.074 A 
ATOM     45  C   UNL     1       1.314 -10.036  -1.393  1.00  0.00     0.031 C 
ATOM     46  C   UNL     1       0.617  -6.619   4.556  1.00  0.00     0.029 A 
ATOM     47  C   UNL     1       1.289  -7.915   4.637  1.00  0.00     0.049 A 
ATOM     48  H   UNL     1       1.732  -9.203   3.060  1.00  0.00     0.167 HD
ATOM     49  C   UNL     1       2.592 -11.851  -0.300  1.00  0.00     0.031 A 
ATOM     50  C   UNL     1       1.745  -8.494   5.768  1.00  0.00     0.031 A 
ATOM     51  C   UNL     1       3.167 -12.511   0.844  1.00  0.00     0.049 A 
ATOM     52  C   UNL     1       2.434  -9.835   5.689  1.00  0.00     0.074 A 
ATOM     53  C   UNL     1       3.879 -13.698   0.883  1.00  0.00     0.029 A 
ATOM     54  N   UNL     1       3.094 -12.048   2.148  1.00  0.00    -0.354 N 
ATOM     55  N   UNL     1       2.699 -10.570   4.635  1.00  0.00    -0.248 NA
ATOM     56  C   UNL     1       2.901 -10.416   6.957  1.00  0.00     0.031 C 
ATOM     57  C   UNL     1       4.184 -13.983   2.218  1.00  0.00     0.029 A 
ATOM     58  C   UNL     1       3.726 -12.937   3.003  1.00  0.00     0.049 A 
ATOM     59  H   UNL     1       2.658 -11.210   2.427  1.00  0.00     0.167 HD
ATOM     60  C   UNL     1       3.383 -11.686   5.111  1.00  0.00     0.074 A 
ATOM     61  C   UNL     1       3.520 -11.512   6.541  1.00  0.00     0.031 C 
ATOM     62  C   UNL     1       3.852 -12.761   4.427  1.00  0.00     0.031 A 
BRANCH  49  63
ATOM     63  C   UNL     1       2.749 -12.506  -1.648  1.00  0.00    -0.014 A 
ATOM     64  C   UNL     1       3.594 -11.955  -2.628  1.00  0.00     0.010 A 
ATOM     65  C   UNL     1       2.096 -13.723  -1.915  1.00  0.00     0.010 A 
ATOM     66  C   UNL     1       3.767 -12.598  -3.857  1.00  0.00     0.020 A 
ATOM     67  C   UNL     1       2.288 -14.384  -3.132  1.00  0.00     0.020 A 
ATOM     68  C   UNL     1       3.116 -13.811  -4.100  1.00  0.00     0.054 A 
BRANCH  68  69
ATOM     69  S   UNL     1       3.402 -14.647  -5.684  1.00  0.00     0.124 S 
ATOM     70  O   UNL     1       2.712 -13.764  -6.621  1.00  0.00    -0.237 OA
ATOM     71  O   UNL     1       4.859 -14.652  -5.783  1.00  0.00    -0.237 OA
ATOM     72  O   UNL     1       2.788 -15.960  -5.501  1.00  0.00    -0.744 OA
ENDBRANCH  68  69
ENDBRANCH  49  63
BRANCH  50  73
ATOM     73  C   UNL     1       1.534  -7.834   7.090  1.00  0.00    -0.014 A 
ATOM     74  C   UNL     1       2.622  -7.382   7.859  1.00  0.00     0.010 A 
ATOM     75  C   UNL     1       0.233  -7.698   7.609  1.00  0.00     0.010 A 
ATOM     76  C   UNL     1       2.415  -6.841   9.133  1.00  0.00     0.020 A 
ATOM     77  C   UNL     1       0.019  -7.125   8.866  1.00  0.00     0.020 A 
ATOM     78  C   UNL     1       1.114  -6.717   9.629  1.00  0.00     0.054 A 
BRANCH  78  79
ATOM     79  S   UNL     1       0.869  -5.996  11.276  1.00  0.00     0.124 S 
ATOM     80  O   UNL     1       1.355  -7.060  12.148  1.00  0.00    -0.237 OA
ATOM     81  O   UNL     1       1.699  -4.795  11.220  1.00  0.00    -0.237 OA
ATOM     82  O   UNL     1      -0.570  -5.750  11.331  1.00  0.00    -0.744 OA
ENDBRANCH  78  79
ENDBRANCH  50  73
BRANCH  62  83
ATOM     83  C   UNL     1       4.588 -13.817   5.215  1.00  0.00    -0.014 A 
ATOM     84  C   UNL     1       3.923 -14.634   6.147  1.00  0.00     0.010 A 
ATOM     85  C   UNL     1       5.968 -14.004   5.008  1.00  0.00     0.010 A 
ATOM     86  C   UNL     1       4.634 -15.575   6.900  1.00  0.00     0.020 A 
ATOM     87  C   UNL     1       6.675 -14.968   5.732  1.00  0.00     0.020 A 
ATOM     88  C   UNL     1       6.007 -15.731   6.692  1.00  0.00     0.054 A 
BRANCH  88  89
ATOM     89  S   UNL     1       6.907 -16.957   7.681  1.00  0.00     0.124 S 
ATOM     90  O   UNL     1       6.945 -16.319   8.994  1.00  0.00    -0.237 OA
ATOM     91  O   UNL     1       6.054 -18.139   7.580  1.00  0.00    -0.237 OA
ATOM     92  O   UNL     1       8.198 -17.068   7.006  1.00  0.00    -0.744 OA
ENDBRANCH  88  89
ENDBRANCH  62  83
ENDBRANCH  36  37
ENDBRANCH  29  31
ENDBRANCH  28  29
ENDBRANCH  27  28
ENDBRANCH  26  27
ENDBRANCH  25  26
ENDBRANCH   1  25
TORSDOF 21
