REMARK SMILES COc1cccc(CC2(CO)CCN(c3nc(C)ccc3C(=O)OCCOCCOCCOC(=O)c3ccc(-c4c5nc(c(-c6ccc(S(=O)(=O)[O-])cc6)c6ccc([nH]6)c(-c6ccc(S(=O)(=O)[O-])cc6)c6nc(c(-c7ccc(S(=O)(=O)[O-])cc7)c7ccc4[nH]7)C=C6)C=C5)cc3)CC2)c1
REMARK SMILES IDX 28 1 27 2 26 3 25 4 24 5 22 6 23 7 21 8 15 9 16 10 17 11
REMARK SMILES IDX 20 12 18 13 19 14 14 15 9 16 12 17 97 18 13 19 96 20 8 21
REMARK SMILES IDX 7 22 3 23 4 24 98 25 5 26 6 27 2 28 1 29 10 30 11 31 29 33
REMARK SMILES IDX 30 34 31 35 32 36 33 37 34 38 35 39 36 40 37 41 95 42 38 43
REMARK SMILES IDX 94 44 39 45 40 46 41 47 88 48 42 49 93 50 87 51 89 52 43 53
REMARK SMILES IDX 92 54 86 55 85 56 44 58 74 59 55 60 73 61 56 62 59 63 72 64
REMARK SMILES IDX 90 65 57 66 58 67 71 69 91 70 60 71 45 72 46 73 54 74 47 75
REMARK SMILES IDX 53 76 48 77 49 78 50 79 51 80 52 81 75 82 76 83 84 84 77 85
REMARK SMILES IDX 83 86 78 87 79 88 80 89 81 90 82 91 61 92 62 93 70 94 63 95
REMARK SMILES IDX 69 96 64 97 65 98 66 99 67 100 68 101
REMARK H PARENT 11 32 89 57 59 68
REMARK Flexibility Score: inf
ROOT
ATOM      1  C   UNL     1       0.288  -4.470  -0.638  1.00  0.00     0.188 C 
ENDROOT
BRANCH   1   2
ATOM      2  O   UNL     1      -1.070  -4.457  -0.215  1.00  0.00    -0.376 OA
BRANCH   2   3
ATOM      3  C   UNL     1      -1.997  -4.752  -1.250  1.00  0.00     0.202 C 
BRANCH   3   4
ATOM      4  C   UNL     1      -2.185  -6.257  -1.437  1.00  0.00     0.261 C 
BRANCH   4   5
ATOM      5  O   UNL     1      -0.955  -6.989  -1.599  1.00  0.00    -0.460 OA
BRANCH   5   6
ATOM      6  C   UNL     1      -0.445  -7.070  -2.853  1.00  0.00     0.341 C 
ATOM      7  O   UNL     1      -0.950  -6.591  -3.854  1.00  0.00    -0.246 OA
BRANCH   6   8
ATOM      8  C   UNL     1       0.821  -7.847  -2.809  1.00  0.00     0.102 A 
ATOM      9  C   UNL     1       1.954  -7.396  -3.485  1.00  0.00     0.143 A 
ATOM     10  N   UNL     1       3.110  -8.106  -3.507  1.00  0.00    -0.235 NA
ATOM     11  C   UNL     1       3.192  -9.251  -2.801  1.00  0.00     0.040 A 
ATOM     12  C   UNL     1       0.933  -9.010  -2.040  1.00  0.00     0.021 A 
ATOM     13  C   UNL     1       4.509  -9.962  -2.861  1.00  0.00     0.067 C 
ATOM     14  C   UNL     1       2.140  -9.711  -2.022  1.00  0.00     0.024 A 
BRANCH   9  15
ATOM     15  N   UNL     1       2.064  -6.086  -3.890  1.00  0.00    -0.356 N 
ATOM     16  C   UNL     1       3.740  -3.987  -4.914  1.00  0.00     0.001 C 
ATOM     17  C   UNL     1       3.082  -4.990  -5.871  1.00  0.00     0.031 C 
ATOM     18  C   UNL     1       4.035  -4.701  -3.590  1.00  0.00     0.031 C 
ATOM     19  C   UNL     1       1.895  -5.756  -5.292  1.00  0.00     0.119 C 
ATOM     20  C   UNL     1       2.783  -5.239  -2.966  1.00  0.00     0.119 C 
BRANCH  16  21
ATOM     21  C   UNL     1       2.940  -2.658  -4.681  1.00  0.00     0.045 C 
BRANCH  21  22
ATOM     22  C   UNL     1       1.562  -2.408  -4.080  1.00  0.00    -0.044 A 
ATOM     23  C   UNL     1       0.170  -1.393  -2.317  1.00  0.00     0.119 A 
ATOM     24  C   UNL     1      -0.973  -1.697  -3.043  1.00  0.00     0.046 A 
ATOM     25  C   UNL     1       1.424  -1.754  -2.827  1.00  0.00     0.050 A 
ATOM     26  C   UNL     1      -0.861  -2.321  -4.286  1.00  0.00     0.004 A 
ATOM     27  C   UNL     1       0.395  -2.653  -4.808  1.00  0.00     0.004 A 
BRANCH  23  28
ATOM     28  O   UNL     1      -0.037  -0.904  -1.055  1.00  0.00    -0.497 OA
ATOM     29  C   UNL     1       0.683   0.276  -0.724  1.00  0.00     0.278 C 
ENDBRANCH  23  28
ENDBRANCH  21  22
ENDBRANCH  16  21
BRANCH  16  30
ATOM     30  C   UNL     1       5.153  -3.610  -5.477  1.00  0.00     0.163 C 
BRANCH  30  31
ATOM     31  O   UNL     1       5.141  -3.170  -6.824  1.00  0.00    -0.396 OA
ATOM     32  H   UNL     1       4.821  -3.886  -7.395  1.00  0.00     0.210 HD
ENDBRANCH  30  31
ENDBRANCH  16  30
ENDBRANCH   9  15
ENDBRANCH   6   8
ENDBRANCH   5   6
ENDBRANCH   4   5
ENDBRANCH   3   4
ENDBRANCH   2   3
ENDBRANCH   1   2
BRANCH   1  33
ATOM     33  C   UNL     1       1.173  -5.471   0.123  1.00  0.00     0.188 C 
BRANCH  33  34
ATOM     34  O   UNL     1       0.920  -5.773   1.489  1.00  0.00    -0.376 OA
BRANCH  34  35
ATOM     35  C   UNL     1       0.249  -4.813   2.281  1.00  0.00     0.202 C 
BRANCH  35  36
ATOM     36  C   UNL     1       0.957  -3.483   2.575  1.00  0.00     0.261 C 
BRANCH  36  37
ATOM     37  O   UNL     1       1.806  -2.935   1.552  1.00  0.00    -0.460 OA
BRANCH  37  38
ATOM     38  C   UNL     1       3.124  -3.257   1.636  1.00  0.00     0.338 C 
ATOM     39  O   UNL     1       3.634  -4.037   2.414  1.00  0.00    -0.246 OA
BRANCH  38  40
ATOM     40  C   UNL     1       3.884  -2.551   0.566  1.00  0.00     0.060 A 
ATOM     41  C   UNL     1       4.836  -3.252  -0.174  1.00  0.00     0.016 A 
ATOM     42  C   UNL     1       3.721  -1.181   0.336  1.00  0.00     0.016 A 
ATOM     43  C   UNL     1       5.588  -2.588  -1.161  1.00  0.00     0.010 A 
ATOM     44  C   UNL     1       4.474  -0.520  -0.655  1.00  0.00     0.010 A 
ATOM     45  C   UNL     1       5.406  -1.216  -1.432  1.00  0.00    -0.014 A 
BRANCH  45  46
ATOM     46  C   UNL     1       6.342  -0.511  -2.369  1.00  0.00     0.031 A 
ATOM     47  C   UNL     1       7.737  -0.263  -1.886  1.00  0.00     0.074 A 
ATOM     48  C   UNL     1       6.007  -0.075  -3.604  1.00  0.00     0.049 A 
ATOM     49  N   UNL     1       8.748   0.249  -2.531  1.00  0.00    -0.248 NA
ATOM     50  C   UNL     1       7.997  -0.560  -0.469  1.00  0.00     0.031 C 
ATOM     51  C   UNL     1       4.661  -0.063  -4.138  1.00  0.00     0.029 A 
ATOM     52  N   UNL     1       6.762   0.379  -4.667  1.00  0.00    -0.354 N 
ATOM     53  C   UNL     1       9.745   0.407  -1.582  1.00  0.00     0.074 A 
ATOM     54  C   UNL     1       9.233  -0.110  -0.331  1.00  0.00     0.031 C 
ATOM     55  C   UNL     1       4.700   0.122  -5.468  1.00  0.00     0.029 A 
ATOM     56  C   UNL     1       6.067   0.418  -5.867  1.00  0.00     0.049 A 
ATOM     57  H   UNL     1       7.705   0.649  -4.582  1.00  0.00     0.167 HD
ATOM     58  C   UNL     1      10.950   1.002  -1.724  1.00  0.00     0.031 A 
ATOM     59  C   UNL     1       6.474   0.677  -7.133  1.00  0.00     0.031 A 
ATOM     60  C   UNL     1      11.411   1.601  -2.946  1.00  0.00     0.049 A 
ATOM     61  C   UNL     1       7.873   1.214  -7.301  1.00  0.00     0.074 A 
ATOM     62  C   UNL     1      12.586   2.292  -3.173  1.00  0.00     0.029 A 
ATOM     63  N   UNL     1      10.709   1.598  -4.144  1.00  0.00    -0.354 N 
ATOM     64  N   UNL     1       8.808   1.350  -6.390  1.00  0.00    -0.248 NA
ATOM     65  C   UNL     1       8.252   1.714  -8.632  1.00  0.00     0.031 C 
ATOM     66  C   UNL     1      12.573   2.751  -4.494  1.00  0.00     0.029 A 
ATOM     67  C   UNL     1      11.424   2.281  -5.112  1.00  0.00     0.049 A 
ATOM     68  H   UNL     1       9.832   1.173  -4.284  1.00  0.00     0.167 HD
ATOM     69  C   UNL     1       9.866   1.986  -7.024  1.00  0.00     0.074 A 
ATOM     70  C   UNL     1       9.489   2.144  -8.414  1.00  0.00     0.031 C 
ATOM     71  C   UNL     1      11.027   2.435  -6.490  1.00  0.00     0.031 A 
BRANCH  58  72
ATOM     72  C   UNL     1      11.777   1.128  -0.477  1.00  0.00    -0.014 A 
ATOM     73  C   UNL     1      12.357   0.002   0.132  1.00  0.00     0.010 A 
ATOM     74  C   UNL     1      11.918   2.390   0.127  1.00  0.00     0.010 A 
ATOM     75  C   UNL     1      13.024   0.129   1.352  1.00  0.00     0.020 A 
ATOM     76  C   UNL     1      12.613   2.526   1.330  1.00  0.00     0.020 A 
ATOM     77  C   UNL     1      13.145   1.390   1.944  1.00  0.00     0.054 A 
BRANCH  77  78
ATOM     78  S   UNL     1      14.023   1.526   3.523  1.00  0.00     0.124 S 
ATOM     79  O   UNL     1      13.072   0.917   4.449  1.00  0.00    -0.237 OA
ATOM     80  O   UNL     1      15.240   0.756   3.276  1.00  0.00    -0.237 OA
ATOM     81  O   UNL     1      14.220   2.963   3.687  1.00  0.00    -0.744 OA
ENDBRANCH  77  78
ENDBRANCH  58  72
BRANCH  59  82
ATOM     82  C   UNL     1       5.577   0.497  -8.328  1.00  0.00    -0.014 A 
ATOM     83  C   UNL     1       5.953  -0.371  -9.376  1.00  0.00     0.010 A 
ATOM     84  C   UNL     1       4.354   1.182  -8.454  1.00  0.00     0.010 A 
ATOM     85  C   UNL     1       5.139  -0.544 -10.507  1.00  0.00     0.020 A 
ATOM     86  C   UNL     1       3.512   0.974  -9.557  1.00  0.00     0.020 A 
ATOM     87  C   UNL     1       3.915   0.122 -10.585  1.00  0.00     0.054 A 
BRANCH  87  88
ATOM     88  S   UNL     1       2.831  -0.172 -12.014  1.00  0.00     0.124 S 
ATOM     89  O   UNL     1       3.490   0.600 -13.063  1.00  0.00    -0.237 OA
ATOM     90  O   UNL     1       2.887  -1.623 -12.165  1.00  0.00    -0.237 OA
ATOM     91  O   UNL     1       1.539   0.348 -11.571  1.00  0.00    -0.744 OA
ENDBRANCH  87  88
ENDBRANCH  59  82
BRANCH  71  92
ATOM     92  C   UNL     1      11.982   3.142  -7.410  1.00  0.00    -0.014 A 
ATOM     93  C   UNL     1      11.718   4.443  -7.873  1.00  0.00     0.010 A 
ATOM     94  C   UNL     1      13.201   2.525  -7.743  1.00  0.00     0.010 A 
ATOM     95  C   UNL     1      12.652   5.109  -8.670  1.00  0.00     0.020 A 
ATOM     96  C   UNL     1      14.147   3.198  -8.516  1.00  0.00     0.020 A 
ATOM     97  C   UNL     1      13.863   4.484  -8.981  1.00  0.00     0.054 A 
BRANCH  97  98
ATOM     98  S   UNL     1      15.089   5.396  -9.957  1.00  0.00     0.124 S 
ATOM     99  O   UNL     1      14.477   5.405 -11.283  1.00  0.00    -0.237 OA
ATOM    100  O   UNL     1      15.138   6.689  -9.278  1.00  0.00    -0.237 OA
ATOM    101  O   UNL     1      16.301   4.589  -9.834  1.00  0.00    -0.744 OA
ENDBRANCH  97  98
ENDBRANCH  71  92
ENDBRANCH  45  46
ENDBRANCH  38  40
ENDBRANCH  37  38
ENDBRANCH  36  37
ENDBRANCH  35  36
ENDBRANCH  34  35
ENDBRANCH  33  34
ENDBRANCH   1  33
TORSDOF 26
