REMARK SMILES CC[C@@H](C)[C@H](NC(=O)[C@H](C)N1C(=O)N2CCC3=c4cc(OC)ccc4=N[C@H]3[C@@]2(C)C1=O)C(=O)OCCOCCOCCOC(=O)c1ccc(-c2c3nc(c(-c4ccc(S(=O)(=O)[O-])cc4)c4ccc([nH]4)c(-c4ccc(S(=O)(=O)[O-])cc4)c4nc(c(-c5ccc(S(=O)(=O)[O-])cc5)c5ccc2[nH]5)C=C4)C=C3)cc1
REMARK SMILES IDX 38 1 37 2 36 3 35 4 34 5 32 6 33 7 5 8 3 9 4 10 2 11 1 12
REMARK SMILES IDX 6 13 7 14 8 16 9 17 10 18 11 19 12 20 30 21 14 22 13 23
REMARK SMILES IDX 28 24 31 25 15 26 27 27 29 28 16 29 17 30 26 31 18 32 25 33
REMARK SMILES IDX 19 34 24 35 20 36 23 37 21 38 22 39 39 40 40 41 41 42 42 43
REMARK SMILES IDX 43 44 44 45 45 46 46 47 47 48 105 49 48 50 104 51 49 52
REMARK SMILES IDX 50 53 51 54 98 55 52 56 103 57 97 58 99 59 53 60 102 61
REMARK SMILES IDX 96 62 95 63 54 65 84 66 65 67 83 68 66 69 69 70 82 71 100 72
REMARK SMILES IDX 67 73 68 74 81 76 101 77 70 78 55 79 56 80 64 81 57 82 63 83
REMARK SMILES IDX 58 84 59 85 60 86 61 87 62 88 85 89 86 90 94 91 87 92 93 93
REMARK SMILES IDX 88 94 89 95 90 96 91 97 92 98 71 99 72 100 80 101 73 102
REMARK SMILES IDX 79 103 74 104 75 105 76 106 77 107 78 108
REMARK H PARENT 6 15 99 64 69 75
REMARK Flexibility Score: inf
ROOT
ATOM      1  C   UNL     1      -3.959  -2.601   2.275  1.00  0.00     0.188 C 
ENDROOT
BRANCH   1   2
ATOM      2  O   UNL     1      -3.880  -3.764   3.097  1.00  0.00    -0.376 OA
BRANCH   2   3
ATOM      3  C   UNL     1      -3.831  -3.618   4.503  1.00  0.00     0.202 C 
BRANCH   3   4
ATOM      4  C   UNL     1      -2.478  -3.154   5.048  1.00  0.00     0.261 C 
BRANCH   4   5
ATOM      5  O   UNL     1      -1.730  -2.361   4.105  1.00  0.00    -0.462 OA
BRANCH   5   6
ATOM      6  C   UNL     1      -0.779  -3.032   3.396  1.00  0.00     0.328 C 
ATOM      7  O   UNL     1      -0.436  -4.185   3.632  1.00  0.00    -0.250 OA
BRANCH   6   8
ATOM      8  C   UNL     1      -0.020  -2.109   2.399  1.00  0.00     0.195 C 
BRANCH   8   9
ATOM      9  C   UNL     1       1.336  -1.790   3.132  1.00  0.00     0.019 C 
ATOM     10  C   UNL     1       1.223  -0.657   4.157  1.00  0.00     0.010 C 
BRANCH   9  11
ATOM     11  C   UNL     1       2.531  -1.614   2.176  1.00  0.00     0.002 C 
ATOM     12  C   UNL     1       3.886  -1.760   2.865  1.00  0.00     0.004 C 
ENDBRANCH   9  11
ENDBRANCH   8   9
BRANCH   8  13
ATOM     13  N   UNL     1      -0.810  -0.943   1.859  1.00  0.00    -0.341 N 
ATOM     14  C   UNL     1      -0.418  -0.200   0.741  1.00  0.00     0.243 C 
ATOM     15  H   UNL     1      -1.644  -0.692   2.318  1.00  0.00     0.164 HD
ATOM     16  O   UNL     1       0.664   0.380   0.776  1.00  0.00    -0.273 OA
BRANCH  14  17
ATOM     17  C   UNL     1      -1.180  -0.423  -0.641  1.00  0.00     0.181 C 
ATOM     18  C   UNL     1      -0.109  -1.425  -1.205  1.00  0.00     0.042 C 
BRANCH  17  19
ATOM     19  N   UNL     1      -1.506   0.672  -1.721  1.00  0.00    -0.250 N 
ATOM     20  C   UNL     1      -2.618   1.620  -1.975  1.00  0.00     0.328 C 
ATOM     21  C   UNL     1      -0.555   0.908  -2.654  1.00  0.00     0.259 C 
ATOM     22  N   UNL     1      -2.307   2.374  -3.280  1.00  0.00    -0.307 N 
ATOM     23  O   UNL     1      -3.564   1.839  -1.236  1.00  0.00    -0.248 OA
ATOM     24  C   UNL     1      -0.955   2.107  -3.355  1.00  0.00     0.147 C 
ATOM     25  O   UNL     1       0.533   0.400  -2.877  1.00  0.00    -0.271 OA
ATOM     26  C   UNL     1      -2.366   3.959  -3.960  1.00  0.00     0.127 C 
ATOM     27  C   UNL     1      -0.505   3.211  -2.320  1.00  0.00     0.168 C 
ATOM     28  C   UNL     1      -0.675   1.882  -4.866  1.00  0.00     0.048 C 
ATOM     29  C   UNL     1      -0.634   4.739  -3.986  1.00  0.00     0.055 C 
ATOM     30  C   UNL     1       0.464   4.144  -2.803  1.00  0.00    -0.032 C 
ATOM     31  N   UNL     1      -1.130   3.822  -1.017  1.00  0.00    -0.274 NA
ATOM     32  C   UNL     1       1.004   4.460  -1.565  1.00  0.00     0.005 A 
ATOM     33  C   UNL     1      -0.273   4.830  -0.890  1.00  0.00     0.066 A 
ATOM     34  C   UNL     1       1.410   3.341  -0.420  1.00  0.00     0.056 A 
ATOM     35  C   UNL     1      -0.094   5.680   0.294  1.00  0.00     0.032 A 
ATOM     36  C   UNL     1       0.874   3.562   0.847  1.00  0.00     0.119 A 
ATOM     37  C   UNL     1       0.515   4.926   1.219  1.00  0.00     0.048 A 
BRANCH  36  38
ATOM     38  O   UNL     1       0.254   2.629   1.672  1.00  0.00    -0.497 OA
ATOM     39  C   UNL     1      -1.208   2.629   1.627  1.00  0.00     0.278 C 
ENDBRANCH  36  38
ENDBRANCH  17  19
ENDBRANCH  14  17
ENDBRANCH   8  13
ENDBRANCH   6   8
ENDBRANCH   5   6
ENDBRANCH   4   5
ENDBRANCH   3   4
ENDBRANCH   2   3
ENDBRANCH   1   2
BRANCH   1  40
ATOM     40  C   UNL     1      -4.122  -1.186   2.861  1.00  0.00     0.188 C 
BRANCH  40  41
ATOM     41  O   UNL     1      -5.155  -1.106   3.839  1.00  0.00    -0.376 OA
BRANCH  41  42
ATOM     42  C   UNL     1      -6.073  -0.041   3.627  1.00  0.00     0.202 C 
BRANCH  42  43
ATOM     43  C   UNL     1      -7.318  -0.549   2.897  1.00  0.00     0.261 C 
BRANCH  43  44
ATOM     44  O   UNL     1      -7.034  -1.273   1.688  1.00  0.00    -0.460 OA
BRANCH  44  45
ATOM     45  C   UNL     1      -6.564  -0.523   0.646  1.00  0.00     0.338 C 
ATOM     46  O   UNL     1      -6.377   0.648   0.649  1.00  0.00    -0.246 OA
BRANCH  45  47
ATOM     47  C   UNL     1      -6.160  -1.474  -0.435  1.00  0.00     0.060 A 
ATOM     48  C   UNL     1      -6.942  -2.571  -0.785  1.00  0.00     0.016 A 
ATOM     49  C   UNL     1      -4.944  -1.249  -1.093  1.00  0.00     0.016 A 
ATOM     50  C   UNL     1      -6.521  -3.430  -1.804  1.00  0.00     0.010 A 
ATOM     51  C   UNL     1      -4.513  -2.116  -2.107  1.00  0.00     0.010 A 
ATOM     52  C   UNL     1      -5.314  -3.209  -2.481  1.00  0.00    -0.014 A 
BRANCH  52  53
ATOM     53  C   UNL     1      -4.990  -4.000  -3.696  1.00  0.00     0.031 A 
ATOM     54  C   UNL     1      -4.080  -5.191  -3.664  1.00  0.00     0.074 A 
ATOM     55  C   UNL     1      -5.554  -3.626  -4.860  1.00  0.00     0.049 A 
ATOM     56  N   UNL     1      -3.855  -6.068  -4.609  1.00  0.00    -0.248 NA
ATOM     57  C   UNL     1      -3.320  -5.425  -2.429  1.00  0.00     0.031 C 
ATOM     58  C   UNL     1      -6.430  -2.465  -5.023  1.00  0.00     0.029 A 
ATOM     59  N   UNL     1      -5.494  -4.183  -6.113  1.00  0.00    -0.354 N 
ATOM     60  C   UNL     1      -2.944  -6.974  -4.083  1.00  0.00     0.074 A 
ATOM     61  C   UNL     1      -2.622  -6.510  -2.748  1.00  0.00     0.031 C 
ATOM     62  C   UNL     1      -6.856  -2.417  -6.293  1.00  0.00     0.029 A 
ATOM     63  C   UNL     1      -6.276  -3.533  -7.038  1.00  0.00     0.049 A 
ATOM     64  H   UNL     1      -4.945  -4.971  -6.328  1.00  0.00     0.167 HD
ATOM     65  C   UNL     1      -2.440  -8.094  -4.659  1.00  0.00     0.031 A 
ATOM     66  C   UNL     1      -6.529  -3.810  -8.333  1.00  0.00     0.031 A 
ATOM     67  C   UNL     1      -2.758  -8.533  -5.997  1.00  0.00     0.049 A 
ATOM     68  C   UNL     1      -5.947  -5.044  -8.958  1.00  0.00     0.074 A 
ATOM     69  C   UNL     1      -2.368  -9.705  -6.626  1.00  0.00     0.029 A 
ATOM     70  N   UNL     1      -3.510  -7.822  -6.920  1.00  0.00    -0.354 N 
ATOM     71  N   UNL     1      -5.190  -5.961  -8.406  1.00  0.00    -0.248 NA
ATOM     72  C   UNL     1      -6.266  -5.295 -10.370  1.00  0.00     0.031 C 
ATOM     73  C   UNL     1      -2.810  -9.661  -7.951  1.00  0.00     0.029 A 
ATOM     74  C   UNL     1      -3.549  -8.503  -8.128  1.00  0.00     0.049 A 
ATOM     75  H   UNL     1      -3.952  -6.960  -6.744  1.00  0.00     0.167 HD
ATOM     76  C   UNL     1      -4.958  -6.909  -9.396  1.00  0.00     0.074 A 
ATOM     77  C   UNL     1      -5.664  -6.460 -10.579  1.00  0.00     0.031 C 
ATOM     78  C   UNL     1      -4.229  -8.050  -9.319  1.00  0.00     0.031 A 
BRANCH  65  79
ATOM     79  C   UNL     1      -1.495  -8.955  -3.857  1.00  0.00    -0.014 A 
ATOM     80  C   UNL     1      -0.165  -9.124  -4.286  1.00  0.00     0.010 A 
ATOM     81  C   UNL     1      -1.957  -9.712  -2.765  1.00  0.00     0.010 A 
ATOM     82  C   UNL     1       0.676 -10.048  -3.659  1.00  0.00     0.020 A 
ATOM     83  C   UNL     1      -1.111 -10.618  -2.116  1.00  0.00     0.020 A 
ATOM     84  C   UNL     1       0.195 -10.796  -2.582  1.00  0.00     0.054 A 
BRANCH  84  85
ATOM     85  S   UNL     1       1.293 -12.006  -1.792  1.00  0.00     0.124 S 
ATOM     86  O   UNL     1       1.298 -13.098  -2.760  1.00  0.00    -0.237 OA
ATOM     87  O   UNL     1       2.547 -11.266  -1.667  1.00  0.00    -0.237 OA
ATOM     88  O   UNL     1       0.625 -12.298  -0.525  1.00  0.00    -0.744 OA
ENDBRANCH  84  85
ENDBRANCH  65  79
BRANCH  66  89
ATOM     89  C   UNL     1      -7.467  -2.923  -9.072  1.00  0.00    -0.014 A 
ATOM     90  C   UNL     1      -7.098  -1.603  -9.391  1.00  0.00     0.010 A 
ATOM     91  C   UNL     1      -8.784  -3.347  -9.321  1.00  0.00     0.010 A 
ATOM     92  C   UNL     1      -8.049  -0.700  -9.873  1.00  0.00     0.020 A 
ATOM     93  C   UNL     1      -9.731  -2.453  -9.828  1.00  0.00     0.020 A 
ATOM     94  C   UNL     1      -9.366  -1.126 -10.065  1.00  0.00     0.054 A 
BRANCH  94  95
ATOM     95  S   UNL     1     -10.607   0.092 -10.579  1.00  0.00     0.124 S 
ATOM     96  O   UNL     1     -10.791   0.866  -9.354  1.00  0.00    -0.237 OA
ATOM     97  O   UNL     1      -9.933   0.792 -11.670  1.00  0.00    -0.237 OA
ATOM     98  O   UNL     1     -11.748  -0.728 -10.978  1.00  0.00    -0.744 OA
ENDBRANCH  94  95
ENDBRANCH  66  89
BRANCH  78  99
ATOM     99  C   UNL     1      -4.118  -8.915 -10.552  1.00  0.00    -0.014 A 
ATOM    100  C   UNL     1      -4.685 -10.203 -10.558  1.00  0.00     0.010 A 
ATOM    101  C   UNL     1      -3.336  -8.510 -11.649  1.00  0.00     0.010 A 
ATOM    102  C   UNL     1      -4.437 -11.086 -11.614  1.00  0.00     0.020 A 
ATOM    103  C   UNL     1      -3.111  -9.379 -12.722  1.00  0.00     0.020 A 
ATOM    104  C   UNL     1      -3.640 -10.672 -12.684  1.00  0.00     0.054 A 
BRANCH 104 105
ATOM    105  S   UNL     1      -3.290 -11.847 -14.021  1.00  0.00     0.124 S 
ATOM    106  O   UNL     1      -2.305 -12.732 -13.405  1.00  0.00    -0.237 OA
ATOM    107  O   UNL     1      -4.599 -12.443 -14.277  1.00  0.00    -0.237 OA
ATOM    108  O   UNL     1      -2.780 -11.000 -15.098  1.00  0.00    -0.744 OA
ENDBRANCH 104 105
ENDBRANCH  78  99
ENDBRANCH  52  53
ENDBRANCH  45  47
ENDBRANCH  44  45
ENDBRANCH  43  44
ENDBRANCH  42  43
ENDBRANCH  41  42
ENDBRANCH  40  41
ENDBRANCH   1  40
TORSDOF 26
