REMARK SMILES COc1ccc([C@@H](CC(=O)OCCOCCOCCOC(=O)c2ccc(-c3c4nc(c(-c5ccc(S(=O)(=O)[O-])cc5)c5ccc([nH]5)c(-c5ccc(S(=O)(=O)[O-])cc5)c5nc(c(-c6ccc(S(=O)(=O)[O-])cc6)c6ccc3[nH]6)C=C5)C=C4)cc2)NC(=O)c2ccc(Cl)c([N+](=O)[O-])c2)cc1
REMARK SMILES IDX 15 1 14 2 13 3 12 4 11 5 9 6 10 7 8 8 7 9 6 10 3 11 4 12
REMARK SMILES IDX 97 13 5 14 96 15 2 16 1 17 83 18 84 19 85 21 86 22 87 23
REMARK SMILES IDX 95 24 88 25 91 26 89 27 90 28 92 29 93 30 94 31 16 32 17 33
REMARK SMILES IDX 18 34 19 35 20 36 21 37 22 38 23 39 24 40 82 41 25 42 81 43
REMARK SMILES IDX 26 44 27 45 28 46 75 47 29 48 80 49 74 50 76 51 30 52 79 53
REMARK SMILES IDX 73 54 72 55 31 57 61 58 42 59 60 60 43 61 46 62 59 63 77 64
REMARK SMILES IDX 44 65 45 66 58 68 78 69 47 70 32 71 33 72 41 73 34 74 40 75
REMARK SMILES IDX 35 76 36 77 37 78 38 79 39 80 62 81 63 82 71 83 64 84 70 85
REMARK SMILES IDX 65 86 66 87 67 88 68 89 69 90 48 91 49 92 57 93 50 94 56 95
REMARK SMILES IDX 51 96 52 97 53 98 54 99 55 100
REMARK H PARENT 83 20 76 56 46 67
REMARK Flexibility Score: inf
ROOT
ATOM      1  C   UNL     1      -2.733  -7.494  -3.110  1.00  0.00     0.188 C 
ENDROOT
BRANCH   1   2
ATOM      2  O   UNL     1      -3.558  -6.874  -2.143  1.00  0.00    -0.376 OA
BRANCH   2   3
ATOM      3  C   UNL     1      -2.962  -6.481  -0.905  1.00  0.00     0.202 C 
BRANCH   3   4
ATOM      4  C   UNL     1      -1.628  -7.107  -0.493  1.00  0.00     0.261 C 
BRANCH   4   5
ATOM      5  O   UNL     1      -0.573  -6.629  -1.355  1.00  0.00    -0.463 OA
BRANCH   5   6
ATOM      6  C   UNL     1       0.631  -7.199  -1.138  1.00  0.00     0.308 C 
ATOM      7  O   UNL     1       0.818  -8.080  -0.304  1.00  0.00    -0.252 OA
BRANCH   6   8
ATOM      8  C   UNL     1       1.710  -6.784  -2.108  1.00  0.00     0.152 C 
BRANCH   8   9
ATOM      9  C   UNL     1       1.908  -5.344  -2.611  1.00  0.00     0.123 C 
BRANCH   9  10
ATOM     10  C   UNL     1       1.708  -4.176  -1.657  1.00  0.00    -0.025 A 
ATOM     11  C   UNL     1       1.389  -1.912  -0.013  1.00  0.00     0.118 A 
ATOM     12  C   UNL     1       0.287  -2.689  -0.345  1.00  0.00     0.047 A 
ATOM     13  C   UNL     1       2.654  -2.252  -0.481  1.00  0.00     0.047 A 
ATOM     14  C   UNL     1       0.443  -3.792  -1.188  1.00  0.00     0.010 A 
ATOM     15  C   UNL     1       2.810  -3.377  -1.297  1.00  0.00     0.010 A 
BRANCH  11  16
ATOM     16  O   UNL     1       1.195  -0.843   0.818  1.00  0.00    -0.497 OA
ATOM     17  C   UNL     1       1.367   0.385   0.111  1.00  0.00     0.278 C 
ENDBRANCH  11  16
ENDBRANCH   9  10
BRANCH   9  18
ATOM     18  N   UNL     1       1.254  -5.074  -3.890  1.00  0.00    -0.345 N 
ATOM     19  C   UNL     1       1.807  -4.707  -5.095  1.00  0.00     0.252 C 
ATOM     20  H   UNL     1       0.275  -5.170  -3.890  1.00  0.00     0.164 HD
ATOM     21  O   UNL     1       1.120  -4.100  -5.912  1.00  0.00    -0.269 OA
BRANCH  19  22
ATOM     22  C   UNL     1       3.210  -5.020  -5.480  1.00  0.00     0.046 A 
ATOM     23  C   UNL     1       3.852  -4.149  -6.370  1.00  0.00     0.016 A 
ATOM     24  C   UNL     1       3.873  -6.182  -5.084  1.00  0.00     0.101 A 
ATOM     25  C   UNL     1       5.162  -4.396  -6.796  1.00  0.00     0.028 A 
ATOM     26  C   UNL     1       5.208  -6.416  -5.487  1.00  0.00     0.288 A 
ATOM     27  C   UNL     1       5.864  -5.517  -6.337  1.00  0.00     0.118 A 
ATOM     28  Cl  UNL     1       7.510  -5.634  -6.843  1.00  0.00    -0.077 Cl
BRANCH  26  29
ATOM     29  N   UNL     1       5.867  -7.602  -4.936  1.00  0.00     0.064 N 
ATOM     30  O   UNL     1       6.778  -8.137  -5.576  1.00  0.00    -0.258 OA
ATOM     31  O   UNL     1       5.447  -8.010  -3.842  1.00  0.00    -0.258 OA
ENDBRANCH  26  29
ENDBRANCH  19  22
ENDBRANCH   9  18
ENDBRANCH   8   9
ENDBRANCH   6   8
ENDBRANCH   5   6
ENDBRANCH   4   5
ENDBRANCH   3   4
ENDBRANCH   2   3
ENDBRANCH   1   2
BRANCH   1  32
ATOM     32  C   UNL     1      -1.896  -6.589  -4.019  1.00  0.00     0.188 C 
BRANCH  32  33
ATOM     33  O   UNL     1      -1.658  -5.224  -3.699  1.00  0.00    -0.376 OA
BRANCH  33  34
ATOM     34  C   UNL     1      -2.755  -4.316  -3.661  1.00  0.00     0.202 C 
BRANCH  34  35
ATOM     35  C   UNL     1      -3.645  -4.090  -4.896  1.00  0.00     0.261 C 
BRANCH  35  36
ATOM     36  O   UNL     1      -3.444  -5.010  -5.960  1.00  0.00    -0.460 OA
BRANCH  36  37
ATOM     37  C   UNL     1      -2.440  -4.699  -6.816  1.00  0.00     0.338 C 
ATOM     38  O   UNL     1      -1.838  -3.645  -6.896  1.00  0.00    -0.246 OA
BRANCH  37  39
ATOM     39  C   UNL     1      -2.098  -5.960  -7.507  1.00  0.00     0.060 A 
ATOM     40  C   UNL     1      -0.803  -6.475  -7.371  1.00  0.00     0.016 A 
ATOM     41  C   UNL     1      -3.090  -6.703  -8.150  1.00  0.00     0.016 A 
ATOM     42  C   UNL     1      -0.493  -7.739  -7.872  1.00  0.00     0.010 A 
ATOM     43  C   UNL     1      -2.777  -7.958  -8.667  1.00  0.00     0.010 A 
ATOM     44  C   UNL     1      -1.477  -8.477  -8.539  1.00  0.00    -0.014 A 
BRANCH  44  45
ATOM     45  C   UNL     1      -1.129  -9.718  -9.263  1.00  0.00     0.031 A 
ATOM     46  C   UNL     1      -0.857  -9.612 -10.736  1.00  0.00     0.074 A 
ATOM     47  C   UNL     1      -1.102 -10.911  -8.642  1.00  0.00     0.049 A 
ATOM     48  N   UNL     1      -0.700 -10.562 -11.617  1.00  0.00    -0.248 NA
ATOM     49  C   UNL     1      -0.759  -8.248 -11.287  1.00  0.00     0.031 C 
ATOM     50  C   UNL     1      -1.288 -11.130  -7.207  1.00  0.00     0.029 A 
ATOM     51  N   UNL     1      -0.926 -12.172  -9.154  1.00  0.00    -0.354 N 
ATOM     52  C   UNL     1      -0.512  -9.914 -12.831  1.00  0.00     0.074 A 
ATOM     53  C   UNL     1      -0.576  -8.492 -12.576  1.00  0.00     0.031 C 
ATOM     54  C   UNL     1      -1.233 -12.451  -6.958  1.00  0.00     0.029 A 
ATOM     55  C   UNL     1      -1.060 -13.171  -8.218  1.00  0.00     0.049 A 
ATOM     56  H   UNL     1      -0.722 -12.345 -10.101  1.00  0.00     0.167 HD
ATOM     57  C   UNL     1      -0.315 -10.459 -14.053  1.00  0.00     0.031 A 
ATOM     58  C   UNL     1      -1.081 -14.510  -8.374  1.00  0.00     0.031 A 
ATOM     59  C   UNL     1      -0.262 -11.872 -14.302  1.00  0.00     0.049 A 
ATOM     60  C   UNL     1      -0.951 -15.089  -9.762  1.00  0.00     0.074 A 
ATOM     61  C   UNL     1      -0.047 -12.525 -15.502  1.00  0.00     0.029 A 
ATOM     62  N   UNL     1      -0.435 -12.850 -13.335  1.00  0.00    -0.354 N 
ATOM     63  N   UNL     1      -0.761 -14.468 -10.902  1.00  0.00    -0.248 NA
ATOM     64  C   UNL     1      -1.051 -16.552  -9.883  1.00  0.00     0.031 C 
ATOM     65  C   UNL     1      -0.146 -13.901 -15.270  1.00  0.00     0.029 A 
ATOM     66  C   UNL     1      -0.366 -14.103 -13.917  1.00  0.00     0.049 A 
ATOM     67  H   UNL     1      -0.585 -12.679 -12.377  1.00  0.00     0.167 HD
ATOM     68  C   UNL     1      -0.693 -15.466 -11.871  1.00  0.00     0.074 A 
ATOM     69  C   UNL     1      -0.850 -16.730 -11.182  1.00  0.00     0.031 C 
ATOM     70  C   UNL     1      -0.519 -15.348 -13.210  1.00  0.00     0.031 A 
BRANCH  57  71
ATOM     71  C   UNL     1      -0.191  -9.522 -15.219  1.00  0.00    -0.014 A 
ATOM     72  C   UNL     1       0.977  -8.770 -15.431  1.00  0.00     0.010 A 
ATOM     73  C   UNL     1      -1.248  -9.430 -16.143  1.00  0.00     0.010 A 
ATOM     74  C   UNL     1       1.080  -7.927 -16.540  1.00  0.00     0.020 A 
ATOM     75  C   UNL     1      -1.140  -8.604 -17.265  1.00  0.00     0.020 A 
ATOM     76  C   UNL     1       0.021  -7.851 -17.451  1.00  0.00     0.054 A 
BRANCH  76  77
ATOM     77  S   UNL     1       0.201  -6.787 -18.908  1.00  0.00     0.124 S 
ATOM     78  O   UNL     1       0.074  -5.453 -18.325  1.00  0.00    -0.237 OA
ATOM     79  O   UNL     1       1.533  -7.135 -19.396  1.00  0.00    -0.237 OA
ATOM     80  O   UNL     1      -0.903  -7.195 -19.774  1.00  0.00    -0.744 OA
ENDBRANCH  76  77
ENDBRANCH  57  71
BRANCH  58  81
ATOM     81  C   UNL     1      -1.287 -15.409  -7.204  1.00  0.00    -0.014 A 
ATOM     82  C   UNL     1      -0.260 -16.265  -6.769  1.00  0.00     0.010 A 
ATOM     83  C   UNL     1      -2.532 -15.451  -6.548  1.00  0.00     0.010 A 
ATOM     84  C   UNL     1      -0.481 -17.166  -5.723  1.00  0.00     0.020 A 
ATOM     85  C   UNL     1      -2.749 -16.331  -5.484  1.00  0.00     0.020 A 
ATOM     86  C   UNL     1      -1.727 -17.197  -5.090  1.00  0.00     0.054 A 
BRANCH  86  87
ATOM     87  S   UNL     1      -1.991 -18.361  -3.723  1.00  0.00     0.124 S 
ATOM     88  O   UNL     1      -2.147 -19.628  -4.431  1.00  0.00    -0.237 OA
ATOM     89  O   UNL     1      -0.765 -18.217  -2.943  1.00  0.00    -0.237 OA
ATOM     90  O   UNL     1      -3.197 -17.853  -3.073  1.00  0.00    -0.744 OA
ENDBRANCH  86  87
ENDBRANCH  58  81
BRANCH  70  91
ATOM     91  C   UNL     1      -0.451 -16.617 -14.017  1.00  0.00    -0.014 A 
ATOM     92  C   UNL     1      -1.606 -17.372 -14.283  1.00  0.00     0.010 A 
ATOM     93  C   UNL     1       0.777 -17.019 -14.574  1.00  0.00     0.010 A 
ATOM     94  C   UNL     1      -1.529 -18.524 -15.071  1.00  0.00     0.020 A 
ATOM     95  C   UNL     1       0.853 -18.154 -15.384  1.00  0.00     0.020 A 
ATOM     96  C   UNL     1      -0.299 -18.907 -15.617  1.00  0.00     0.054 A 
BRANCH  96  97
ATOM     97  S   UNL     1      -0.234 -20.376 -16.679  1.00  0.00     0.124 S 
ATOM     98  O   UNL     1      -0.326 -21.459 -15.704  1.00  0.00    -0.237 OA
ATOM     99  O   UNL     1      -1.401 -20.204 -17.540  1.00  0.00    -0.237 OA
ATOM    100  O   UNL     1       1.056 -20.256 -17.357  1.00  0.00    -0.744 OA
ENDBRANCH  96  97
ENDBRANCH  70  91
ENDBRANCH  44  45
ENDBRANCH  37  39
ENDBRANCH  36  37
ENDBRANCH  35  36
ENDBRANCH  34  35
ENDBRANCH  33  34
ENDBRANCH  32  33
ENDBRANCH   1  32
TORSDOF 26
