REMARK SMILES COc1ccc([C@@H]2Nc3c(C(=O)OCCOCCOCCOC(=O)c4ccc(-c5c6nc(c(-c7ccc(S(=O)(=O)[O-])cc7)c7ccc([nH]7)c(-c7ccc(S(=O)(=O)[O-])cc7)c7nc(c(-c8ccc(S(=O)(=O)[O-])cc8)c8ccc5[nH]8)C=C7)C=C6)cc4)cccc3[C@@H]3[C@H]4CC[C@H](C4)[C@H]32)cc1[N+](=O)[O-]
REMARK SMILES IDX 18 1 17 2 16 3 15 4 14 5 13 6 11 7 12 8 10 9 7 10 8 11 95 12
REMARK SMILES IDX 9 13 89 15 93 16 88 17 90 18 92 19 94 20 85 21 87 22 91 23
REMARK SMILES IDX 86 24 6 25 3 26 4 27 97 28 5 29 96 30 2 31 1 32 98 33 99 34
REMARK SMILES IDX 100 35 19 36 20 37 21 38 22 39 23 40 24 41 25 42 26 43 84 44
REMARK SMILES IDX 27 45 83 46 28 47 29 48 30 49 77 50 31 51 82 52 76 53 78 54
REMARK SMILES IDX 32 55 81 56 75 57 74 58 33 60 63 61 44 62 62 63 45 64 48 65
REMARK SMILES IDX 61 66 79 67 46 68 47 69 60 71 80 72 49 73 34 74 35 75 43 76
REMARK SMILES IDX 36 77 42 78 37 79 38 80 39 81 40 82 41 83 64 84 65 85 73 86
REMARK SMILES IDX 66 87 72 88 67 89 68 90 69 91 70 92 71 93 50 94 51 95 59 96
REMARK SMILES IDX 52 97 58 98 53 99 54 100 55 101 56 102 57 103
REMARK H PARENT 8 14 78 59 48 70
REMARK Flexibility Score: inf
ROOT
ATOM      1  C   UNL     1      -3.405  -5.672   8.908  1.00  0.00     0.188 C 
ENDROOT
BRANCH   1   2
ATOM      2  C   UNL     1      -3.840  -7.119   9.233  1.00  0.00     0.188 C 
BRANCH   2   3
ATOM      3  O   UNL     1      -3.625  -7.659  10.526  1.00  0.00    -0.376 OA
BRANCH   3   4
ATOM      4  C   UNL     1      -2.291  -7.842  10.994  1.00  0.00     0.202 C 
BRANCH   4   5
ATOM      5  C   UNL     1      -1.230  -8.394  10.040  1.00  0.00     0.261 C 
BRANCH   5   6
ATOM      6  O   UNL     1      -1.042  -7.522   8.917  1.00  0.00    -0.460 OA
BRANCH   6   7
ATOM      7  C   UNL     1      -0.468  -8.113   7.838  1.00  0.00     0.340 C 
ATOM      8  O   UNL     1       0.140  -9.166   7.816  1.00  0.00    -0.246 OA
BRANCH   7   9
ATOM      9  C   UNL     1      -0.920  -7.370   6.650  1.00  0.00     0.083 A 
ATOM     10  C   UNL     1       1.893  -4.990   5.732  1.00  0.00     0.114 C 
ATOM     11  N   UNL     1       1.107  -5.964   6.506  1.00  0.00    -0.377 N 
ATOM     12  C   UNL     1       1.380  -5.081   4.298  1.00  0.00     0.027 C 
ATOM     13  C   UNL     1      -0.212  -6.289   6.109  1.00  0.00     0.053 A 
ATOM     14  H   UNL     1       1.500  -6.391   7.301  1.00  0.00     0.161 HD
ATOM     15  C   UNL     1      -0.041  -4.505   4.358  1.00  0.00     0.030 C 
ATOM     16  C   UNL     1       1.973  -4.464   3.032  1.00  0.00    -0.005 C 
ATOM     17  C   UNL     1      -0.819  -5.627   4.985  1.00  0.00    -0.020 A 
ATOM     18  C   UNL     1      -0.203  -3.931   2.929  1.00  0.00    -0.003 C 
ATOM     19  C   UNL     1       2.004  -2.938   3.075  1.00  0.00     0.004 C 
ATOM     20  C   UNL     1       0.786  -4.738   2.085  1.00  0.00     0.008 C 
ATOM     21  C   UNL     1      -2.138  -7.801   6.086  1.00  0.00     0.018 A 
ATOM     22  C   UNL     1      -2.065  -6.014   4.479  1.00  0.00     0.006 A 
ATOM     23  C   UNL     1       0.521  -2.558   2.919  1.00  0.00     0.004 C 
ATOM     24  C   UNL     1      -2.714  -7.116   5.019  1.00  0.00     0.001 A 
BRANCH  10  25
ATOM     25  C   UNL     1       3.392  -5.216   5.745  1.00  0.00    -0.018 A 
ATOM     26  C   UNL     1       6.107  -5.275   4.989  1.00  0.00     0.196 A 
ATOM     27  C   UNL     1       5.313  -6.416   4.849  1.00  0.00     0.054 A 
ATOM     28  C   UNL     1       5.566  -4.143   5.597  1.00  0.00     0.311 A 
ATOM     29  C   UNL     1       3.968  -6.394   5.243  1.00  0.00     0.010 A 
ATOM     30  C   UNL     1       4.223  -4.109   5.990  1.00  0.00     0.095 A 
BRANCH  26  31
ATOM     31  O   UNL     1       7.298  -5.229   4.320  1.00  0.00    -0.490 OA
ATOM     32  C   UNL     1       8.388  -5.707   5.105  1.00  0.00     0.278 C 
ENDBRANCH  26  31
BRANCH  28  33
ATOM     33  N   UNL     1       6.353  -2.931   5.743  1.00  0.00     0.066 N 
ATOM     34  O   UNL     1       5.824  -1.867   5.390  1.00  0.00    -0.258 OA
ATOM     35  O   UNL     1       7.472  -3.030   6.266  1.00  0.00    -0.258 OA
ENDBRANCH  28  33
ENDBRANCH  10  25
ENDBRANCH   7   9
ENDBRANCH   6   7
ENDBRANCH   5   6
ENDBRANCH   4   5
ENDBRANCH   3   4
ENDBRANCH   2   3
ENDBRANCH   1   2
BRANCH   1  36
ATOM     36  O   UNL     1      -2.836  -4.838   9.902  1.00  0.00    -0.376 OA
BRANCH  36  37
ATOM     37  C   UNL     1      -3.521  -4.651  11.129  1.00  0.00     0.202 C 
BRANCH  37  38
ATOM     38  C   UNL     1      -4.973  -4.172  11.139  1.00  0.00     0.261 C 
BRANCH  38  39
ATOM     39  O   UNL     1      -5.863  -4.981  10.359  1.00  0.00    -0.460 OA
BRANCH  39  40
ATOM     40  C   UNL     1      -6.438  -4.340   9.312  1.00  0.00     0.338 C 
ATOM     41  O   UNL     1      -6.272  -3.183   8.967  1.00  0.00    -0.246 OA
BRANCH  40  42
ATOM     42  C   UNL     1      -7.222  -5.301   8.520  1.00  0.00     0.060 A 
ATOM     43  C   UNL     1      -6.850  -5.529   7.189  1.00  0.00     0.016 A 
ATOM     44  C   UNL     1      -8.367  -5.890   9.056  1.00  0.00     0.016 A 
ATOM     45  C   UNL     1      -7.647  -6.330   6.374  1.00  0.00     0.010 A 
ATOM     46  C   UNL     1      -9.173  -6.677   8.233  1.00  0.00     0.010 A 
ATOM     47  C   UNL     1      -8.833  -6.874   6.882  1.00  0.00    -0.014 A 
BRANCH  47  48
ATOM     48  C   UNL     1      -9.810  -7.510   5.970  1.00  0.00     0.031 A 
ATOM     49  C   UNL     1     -10.960  -6.688   5.458  1.00  0.00     0.074 A 
ATOM     50  C   UNL     1      -9.685  -8.801   5.617  1.00  0.00     0.049 A 
ATOM     51  N   UNL     1     -11.982  -7.056   4.732  1.00  0.00    -0.248 NA
ATOM     52  C   UNL     1     -10.957  -5.259   5.818  1.00  0.00     0.031 C 
ATOM     53  C   UNL     1      -8.589  -9.685   6.011  1.00  0.00     0.029 A 
ATOM     54  N   UNL     1     -10.505  -9.596   4.856  1.00  0.00    -0.354 N 
ATOM     55  C   UNL     1     -12.752  -5.912   4.558  1.00  0.00     0.074 A 
ATOM     56  C   UNL     1     -12.088  -4.841   5.269  1.00  0.00     0.031 C 
ATOM     57  C   UNL     1      -8.816 -10.910   5.504  1.00  0.00     0.029 A 
ATOM     58  C   UNL     1     -10.089 -10.904   4.785  1.00  0.00     0.049 A 
ATOM     59  H   UNL     1     -11.313  -9.262   4.405  1.00  0.00     0.167 HD
ATOM     60  C   UNL     1     -13.909  -5.768   3.871  1.00  0.00     0.031 A 
ATOM     61  C   UNL     1     -10.685 -11.978   4.231  1.00  0.00     0.031 A 
ATOM     62  C   UNL     1     -14.576  -6.841   3.184  1.00  0.00     0.049 A 
ATOM     63  C   UNL     1     -12.012 -11.811   3.537  1.00  0.00     0.074 A 
ATOM     64  C   UNL     1     -15.749  -6.795   2.452  1.00  0.00     0.029 A 
ATOM     65  N   UNL     1     -14.134  -8.155   3.153  1.00  0.00    -0.354 N 
ATOM     66  N   UNL     1     -12.720 -10.720   3.364  1.00  0.00    -0.248 NA
ATOM     67  C   UNL     1     -12.620 -13.019   2.961  1.00  0.00     0.031 C 
ATOM     68  C   UNL     1     -16.044  -8.093   2.022  1.00  0.00     0.029 A 
ATOM     69  C   UNL     1     -15.023  -8.935   2.435  1.00  0.00     0.049 A 
ATOM     70  H   UNL     1     -13.310  -8.484   3.579  1.00  0.00     0.167 HD
ATOM     71  C   UNL     1     -13.840 -11.105   2.633  1.00  0.00     0.074 A 
ATOM     72  C   UNL     1     -13.712 -12.528   2.391  1.00  0.00     0.031 C 
ATOM     73  C   UNL     1     -14.877 -10.349   2.196  1.00  0.00     0.031 A 
BRANCH  60  74
ATOM     74  C   UNL     1     -14.548  -4.406   3.867  1.00  0.00    -0.014 A 
ATOM     75  C   UNL     1     -13.993  -3.343   3.132  1.00  0.00     0.010 A 
ATOM     76  C   UNL     1     -15.737  -4.194   4.588  1.00  0.00     0.010 A 
ATOM     77  C   UNL     1     -14.597  -2.083   3.148  1.00  0.00     0.020 A 
ATOM     78  C   UNL     1     -16.358  -2.943   4.586  1.00  0.00     0.020 A 
ATOM     79  C   UNL     1     -15.774  -1.890   3.879  1.00  0.00     0.054 A 
BRANCH  79  80
ATOM     80  S   UNL     1     -16.546  -0.249   3.869  1.00  0.00     0.124 S 
ATOM     81  O   UNL     1     -15.640   0.515   4.723  1.00  0.00    -0.237 OA
ATOM     82  O   UNL     1     -16.523   0.108   2.453  1.00  0.00    -0.237 OA
ATOM     83  O   UNL     1     -17.875  -0.487   4.426  1.00  0.00    -0.744 OA
ENDBRANCH  79  80
ENDBRANCH  60  74
BRANCH  61  84
ATOM     84  C   UNL     1     -10.043 -13.317   4.331  1.00  0.00    -0.014 A 
ATOM     85  C   UNL     1      -9.500 -13.939   3.194  1.00  0.00     0.010 A 
ATOM     86  C   UNL     1      -9.971 -13.977   5.572  1.00  0.00     0.010 A 
ATOM     87  C   UNL     1      -8.911 -15.203   3.292  1.00  0.00     0.020 A 
ATOM     88  C   UNL     1      -9.359 -15.229   5.679  1.00  0.00     0.020 A 
ATOM     89  C   UNL     1      -8.842 -15.839   4.535  1.00  0.00     0.054 A 
BRANCH  89  90
ATOM     90  S   UNL     1      -8.025 -17.456   4.648  1.00  0.00     0.124 S 
ATOM     91  O   UNL     1      -9.015 -18.338   4.038  1.00  0.00    -0.237 OA
ATOM     92  O   UNL     1      -6.803 -17.245   3.877  1.00  0.00    -0.237 OA
ATOM     93  O   UNL     1      -7.824 -17.636   6.083  1.00  0.00    -0.744 OA
ENDBRANCH  89  90
ENDBRANCH  61  84
BRANCH  73  94
ATOM     94  C   UNL     1     -15.939 -11.025   1.371  1.00  0.00    -0.014 A 
ATOM     95  C   UNL     1     -16.885 -11.884   1.956  1.00  0.00     0.010 A 
ATOM     96  C   UNL     1     -16.038 -10.729  -0.002  1.00  0.00     0.010 A 
ATOM     97  C   UNL     1     -17.899 -12.452   1.178  1.00  0.00     0.020 A 
ATOM     98  C   UNL     1     -17.064 -11.273  -0.777  1.00  0.00     0.020 A 
ATOM     99  C   UNL     1     -17.983 -12.140  -0.183  1.00  0.00     0.054 A 
BRANCH  99 100
ATOM    100  S   UNL     1     -19.345 -12.839  -1.158  1.00  0.00     0.124 S 
ATOM    101  O   UNL     1     -18.926 -14.229  -1.312  1.00  0.00    -0.237 OA
ATOM    102  O   UNL     1     -20.503 -12.624  -0.293  1.00  0.00    -0.237 OA
ATOM    103  O   UNL     1     -19.336 -12.045  -2.384  1.00  0.00    -0.744 OA
ENDBRANCH  99 100
ENDBRANCH  73  94
ENDBRANCH  47  48
ENDBRANCH  40  42
ENDBRANCH  39  40
ENDBRANCH  38  39
ENDBRANCH  37  38
ENDBRANCH  36  37
ENDBRANCH   1  36
TORSDOF 23
