REMARK SMILES COc1ccc(-c2nc(C(C)C)cc3nn(CC(=O)OCCOCCOCCOC(=O)c4ccc(-c5c6nc(c(-c7ccc(S(=O)(=O)[O-])cc7)c7ccc([nH]7)c(-c7ccc(S(=O)(=O)[O-])cc7)c7nc(c(-c8ccc(S(=O)(=O)[O-])cc8)c8ccc5[nH]8)C=C7)C=C6)cc4)c(=O)n23)cc1
REMARK SMILES IDX 24 1 23 2 22 3 21 4 20 5 18 6 19 7 17 8 16 9 7 10 8 11 94 12
REMARK SMILES IDX 9 13 14 14 92 15 13 16 15 17 93 18 6 19 3 20 4 21 96 22 5 23
REMARK SMILES IDX 95 24 2 25 1 26 10 27 11 28 12 29 25 30 26 31 27 32 28 33
REMARK SMILES IDX 29 34 30 35 31 36 32 37 33 38 91 39 34 40 90 41 35 42 36 43
REMARK SMILES IDX 37 44 84 45 38 46 89 47 83 48 85 49 39 50 88 51 82 52 81 53
REMARK SMILES IDX 40 55 70 56 51 57 69 58 52 59 55 60 68 61 86 62 53 63 54 64
REMARK SMILES IDX 67 66 87 67 56 68 41 69 42 70 50 71 43 72 49 73 44 74 45 75
REMARK SMILES IDX 46 76 47 77 48 78 71 79 72 80 80 81 73 82 79 83 74 84 75 85
REMARK SMILES IDX 76 86 77 87 78 88 57 89 58 90 66 91 59 92 65 93 60 94 61 95
REMARK SMILES IDX 62 96 63 97 64 98
REMARK H PARENT 85 54 55 65
REMARK Flexibility Score: inf
ROOT
ATOM      1  C   UNL     1      -2.915   6.593   0.865  1.00  0.00     0.188 C 
ENDROOT
BRANCH   1   2
ATOM      2  O   UNL     1      -4.286   6.895   1.134  1.00  0.00    -0.376 OA
BRANCH   2   3
ATOM      3  C   UNL     1      -4.870   7.989   0.449  1.00  0.00     0.202 C 
BRANCH   3   4
ATOM      4  C   UNL     1      -4.241   9.367   0.721  1.00  0.00     0.261 C 
BRANCH   4   5
ATOM      5  O   UNL     1      -2.789   9.380   0.762  1.00  0.00    -0.462 OA
BRANCH   5   6
ATOM      6  C   UNL     1      -2.182   9.526   1.966  1.00  0.00     0.328 C 
ATOM      7  O   UNL     1      -2.777   9.909   2.972  1.00  0.00    -0.250 OA
BRANCH   6   8
ATOM      8  C   UNL     1      -0.683   9.122   2.027  1.00  0.00     0.272 C 
BRANCH   8   9
ATOM      9  N   UNL     1       0.134   8.642   0.903  1.00  0.00    -0.201 N 
ATOM     10  C   UNL     1       2.271   6.558  -1.204  1.00  0.00     0.150 A 
ATOM     11  N   UNL     1       3.114   6.992  -2.096  1.00  0.00    -0.234 NA
ATOM     12  N   UNL     1       1.526   7.437  -0.395  1.00  0.00    -0.226 N 
ATOM     13  C   UNL     1       3.280   8.343  -2.263  1.00  0.00     0.049 A 
ATOM     14  C   UNL     1       1.582   8.768  -0.628  1.00  0.00     0.165 A 
ATOM     15  C   UNL     1       0.640   7.321   0.691  1.00  0.00     0.352 A 
ATOM     16  C   UNL     1       2.541   9.257  -1.617  1.00  0.00     0.073 A 
ATOM     17  N   UNL     1       0.790   9.522   0.076  1.00  0.00    -0.149 NA
ATOM     18  O   UNL     1       0.419   6.354   1.401  1.00  0.00    -0.245 OA
BRANCH  10  19
ATOM     19  C   UNL     1       2.068   5.090  -1.167  1.00  0.00     0.018 A 
ATOM     20  C   UNL     1       1.851   2.291  -1.453  1.00  0.00     0.118 A 
ATOM     21  C   UNL     1       1.061   3.148  -2.220  1.00  0.00     0.047 A 
ATOM     22  C   UNL     1       2.816   2.842  -0.609  1.00  0.00     0.047 A 
ATOM     23  C   UNL     1       1.190   4.537  -2.104  1.00  0.00     0.016 A 
ATOM     24  C   UNL     1       2.929   4.241  -0.467  1.00  0.00     0.016 A 
BRANCH  20  25
ATOM     25  O   UNL     1       1.575   0.966  -1.631  1.00  0.00    -0.497 OA
ATOM     26  C   UNL     1       2.272   0.015  -0.831  1.00  0.00     0.278 C 
ENDBRANCH  20  25
ENDBRANCH  10  19
BRANCH  13  27
ATOM     27  C   UNL     1       4.375   8.724  -3.249  1.00  0.00     0.032 C 
ATOM     28  C   UNL     1       3.895   9.684  -4.340  1.00  0.00     0.014 C 
ATOM     29  C   UNL     1       5.586   9.293  -2.507  1.00  0.00     0.014 C 
ENDBRANCH  13  27
ENDBRANCH   8   9
ENDBRANCH   6   8
ENDBRANCH   5   6
ENDBRANCH   4   5
ENDBRANCH   3   4
ENDBRANCH   2   3
ENDBRANCH   1   2
BRANCH   1  30
ATOM     30  C   UNL     1      -2.305   6.987  -0.511  1.00  0.00     0.188 C 
BRANCH  30  31
ATOM     31  O   UNL     1      -3.263   6.976  -1.548  1.00  0.00    -0.376 OA
BRANCH  31  32
ATOM     32  C   UNL     1      -2.933   6.269  -2.719  1.00  0.00     0.202 C 
BRANCH  32  33
ATOM     33  C   UNL     1      -2.845   4.755  -2.579  1.00  0.00     0.261 C 
BRANCH  33  34
ATOM     34  O   UNL     1      -3.218   4.236  -1.306  1.00  0.00    -0.460 OA
BRANCH  34  35
ATOM     35  C   UNL     1      -2.160   3.961  -0.517  1.00  0.00     0.338 C 
ATOM     36  O   UNL     1      -1.053   4.480  -0.584  1.00  0.00    -0.246 OA
BRANCH  35  37
ATOM     37  C   UNL     1      -2.370   2.790   0.317  1.00  0.00     0.060 A 
ATOM     38  C   UNL     1      -1.183   2.306   0.871  1.00  0.00     0.016 A 
ATOM     39  C   UNL     1      -3.459   1.974   0.004  1.00  0.00     0.016 A 
ATOM     40  C   UNL     1      -0.945   0.971   0.730  1.00  0.00     0.010 A 
ATOM     41  C   UNL     1      -3.224   0.628  -0.102  1.00  0.00     0.010 A 
ATOM     42  C   UNL     1      -1.930   0.168   0.140  1.00  0.00    -0.014 A 
BRANCH  42  43
ATOM     43  C   UNL     1      -1.583  -1.222  -0.061  1.00  0.00     0.031 A 
ATOM     44  C   UNL     1      -1.210  -1.864   1.222  1.00  0.00     0.074 A 
ATOM     45  C   UNL     1      -1.681  -1.821  -1.262  1.00  0.00     0.049 A 
ATOM     46  N   UNL     1      -0.091  -2.422   1.543  1.00  0.00    -0.248 NA
ATOM     47  C   UNL     1      -2.117  -1.619   2.365  1.00  0.00     0.031 C 
ATOM     48  C   UNL     1      -2.240  -1.267  -2.499  1.00  0.00     0.029 A 
ATOM     49  N   UNL     1      -1.446  -3.119  -1.589  1.00  0.00    -0.354 N 
ATOM     50  C   UNL     1      -0.254  -2.803   2.870  1.00  0.00     0.074 A 
ATOM     51  C   UNL     1      -1.386  -2.076   3.377  1.00  0.00     0.031 C 
ATOM     52  C   UNL     1      -2.572  -2.285  -3.323  1.00  0.00     0.029 A 
ATOM     53  C   UNL     1      -2.145  -3.536  -2.717  1.00  0.00     0.049 A 
ATOM     54  H   UNL     1      -0.841  -3.705  -1.080  1.00  0.00     0.167 HD
ATOM     55  C   UNL     1       0.322  -3.936   3.352  1.00  0.00     0.031 A 
ATOM     56  C   UNL     1      -2.461  -4.817  -3.041  1.00  0.00     0.031 A 
ATOM     57  C   UNL     1       1.463  -4.327   2.570  1.00  0.00     0.049 A 
ATOM     58  C   UNL     1      -1.577  -5.703  -2.239  1.00  0.00     0.074 A 
ATOM     59  C   UNL     1       2.662  -3.722   2.249  1.00  0.00     0.029 A 
ATOM     60  N   UNL     1       1.285  -5.342   1.661  1.00  0.00    -0.354 N 
ATOM     61  N   UNL     1      -0.285  -5.772  -2.403  1.00  0.00    -0.248 NA
ATOM     62  C   UNL     1      -2.062  -6.163  -0.946  1.00  0.00     0.031 C 
ATOM     63  C   UNL     1       2.930  -4.115   0.908  1.00  0.00     0.029 A 
ATOM     64  C   UNL     1       1.917  -4.985   0.498  1.00  0.00     0.049 A 
ATOM     65  H   UNL     1       0.789  -6.179   1.817  1.00  0.00     0.167 HD
ATOM     66  C   UNL     1       0.234  -5.867  -1.118  1.00  0.00     0.074 A 
ATOM     67  C   UNL     1      -0.909  -6.202  -0.272  1.00  0.00     0.031 C 
ATOM     68  C   UNL     1       1.479  -5.387  -0.823  1.00  0.00     0.031 A 
BRANCH  55  69
ATOM     69  C   UNL     1      -0.466  -4.899   4.210  1.00  0.00    -0.014 A 
ATOM     70  C   UNL     1       0.164  -6.063   4.682  1.00  0.00     0.010 A 
ATOM     71  C   UNL     1      -1.875  -4.844   4.326  1.00  0.00     0.010 A 
ATOM     72  C   UNL     1      -0.587  -7.141   5.170  1.00  0.00     0.020 A 
ATOM     73  C   UNL     1      -2.627  -5.889   4.851  1.00  0.00     0.020 A 
ATOM     74  C   UNL     1      -1.979  -7.050   5.234  1.00  0.00     0.054 A 
BRANCH  74  75
ATOM     75  S   UNL     1      -2.950  -8.485   5.745  1.00  0.00     0.124 S 
ATOM     76  O   UNL     1      -2.695  -9.420   4.654  1.00  0.00    -0.237 OA
ATOM     77  O   UNL     1      -2.343  -8.822   7.030  1.00  0.00    -0.237 OA
ATOM     78  O   UNL     1      -4.313  -7.966   5.823  1.00  0.00    -0.744 OA
ENDBRANCH  74  75
ENDBRANCH  55  69
BRANCH  56  79
ATOM     79  C   UNL     1      -3.709  -5.301  -3.693  1.00  0.00    -0.014 A 
ATOM     80  C   UNL     1      -3.826  -6.629  -4.144  1.00  0.00     0.010 A 
ATOM     81  C   UNL     1      -4.889  -4.528  -3.641  1.00  0.00     0.010 A 
ATOM     82  C   UNL     1      -5.080  -7.177  -4.473  1.00  0.00     0.020 A 
ATOM     83  C   UNL     1      -6.138  -5.061  -3.979  1.00  0.00     0.020 A 
ATOM     84  C   UNL     1      -6.232  -6.392  -4.371  1.00  0.00     0.054 A 
BRANCH  84  85
ATOM     85  S   UNL     1      -7.865  -7.148  -4.630  1.00  0.00     0.124 S 
ATOM     86  O   UNL     1      -7.870  -7.392  -6.069  1.00  0.00    -0.237 OA
ATOM     87  O   UNL     1      -7.802  -8.338  -3.787  1.00  0.00    -0.237 OA
ATOM     88  O   UNL     1      -8.797  -6.118  -4.173  1.00  0.00    -0.744 OA
ENDBRANCH  84  85
ENDBRANCH  56  79
BRANCH  68  89
ATOM     89  C   UNL     1       2.403  -5.038  -1.968  1.00  0.00    -0.014 A 
ATOM     90  C   UNL     1       2.131  -4.040  -2.925  1.00  0.00     0.010 A 
ATOM     91  C   UNL     1       3.668  -5.650  -1.979  1.00  0.00     0.010 A 
ATOM     92  C   UNL     1       3.094  -3.688  -3.885  1.00  0.00     0.020 A 
ATOM     93  C   UNL     1       4.637  -5.291  -2.917  1.00  0.00     0.020 A 
ATOM     94  C   UNL     1       4.342  -4.318  -3.873  1.00  0.00     0.054 A 
BRANCH  94  95
ATOM     95  S   UNL     1       5.604  -3.834  -5.085  1.00  0.00     0.124 S 
ATOM     96  O   UNL     1       5.048  -4.332  -6.340  1.00  0.00    -0.237 OA
ATOM     97  O   UNL     1       5.646  -2.380  -4.946  1.00  0.00    -0.237 OA
ATOM     98  O   UNL     1       6.809  -4.524  -4.627  1.00  0.00    -0.744 OA
ENDBRANCH  94  95
ENDBRANCH  68  89
ENDBRANCH  42  43
ENDBRANCH  35  37
ENDBRANCH  34  35
ENDBRANCH  33  34
ENDBRANCH  32  33
ENDBRANCH  31  32
ENDBRANCH  30  31
ENDBRANCH   1  30
TORSDOF 24
