REMARK SMILES O=C(OCCOCCOCCOC(=O)c1ccc(-c2c3nc(c(-c4ccc(S(=O)(=O)[O-])cc4)c4ccc([nH]4)c(-c4ccc(S(=O)(=O)[O-])cc4)c4nc(c(-c5ccc(S(=O)(=O)[O-])cc5)c5ccc2[nH]5)C=C4)C=C3)cc1)c1ccc(NS(=O)(=O)C2=Cc3ccccc3CC2)cc1
REMARK SMILES IDX 7 1 6 2 5 3 4 4 3 5 2 6 1 7 75 8 76 9 94 10 77 11 93 12
REMARK SMILES IDX 78 13 79 14 80 16 81 17 82 18 83 19 84 20 92 21 85 22 91 23
REMARK SMILES IDX 86 24 90 25 87 26 89 27 88 28 8 29 9 30 10 31 11 32 12 33
REMARK SMILES IDX 13 34 14 35 15 36 16 37 74 38 17 39 73 40 18 41 19 42 20 43
REMARK SMILES IDX 67 44 21 45 72 46 66 47 68 48 22 49 71 50 65 51 64 52 23 54
REMARK SMILES IDX 53 55 34 56 52 57 35 58 38 59 51 60 69 61 36 62 37 63 50 65
REMARK SMILES IDX 70 66 39 67 24 68 25 69 33 70 26 71 32 72 27 73 28 74 29 75
REMARK SMILES IDX 30 76 31 77 54 78 55 79 63 80 56 81 62 82 57 83 58 84 59 85
REMARK SMILES IDX 60 86 61 87 40 88 41 89 49 90 42 91 48 92 43 93 44 94 45 95
REMARK SMILES IDX 46 96 47 97
REMARK H PARENT 79 15 68 53 38 64
REMARK Flexibility Score: inf
ROOT
ATOM      1  C   UNL     1       2.439   1.563   0.707  1.00  0.00     0.188 C 
ENDROOT
BRANCH   1   2
ATOM      2  O   UNL     1       3.622   0.774   0.861  1.00  0.00    -0.376 OA
BRANCH   2   3
ATOM      3  C   UNL     1       4.608   1.013  -0.134  1.00  0.00     0.202 C 
BRANCH   3   4
ATOM      4  C   UNL     1       4.273   0.581  -1.564  1.00  0.00     0.261 C 
BRANCH   4   5
ATOM      5  O   UNL     1       2.976   0.008  -1.808  1.00  0.00    -0.460 OA
BRANCH   5   6
ATOM      6  C   UNL     1       2.422  -1.166  -1.427  1.00  0.00     0.338 C 
ATOM      7  O   UNL     1       1.259  -1.401  -1.746  1.00  0.00    -0.246 OA
BRANCH   6   8
ATOM      8  C   UNL     1       3.128  -2.147  -0.561  1.00  0.00     0.060 A 
ATOM      9  C   UNL     1       4.500  -2.365  -0.577  1.00  0.00     0.018 A 
ATOM     10  C   UNL     1       2.345  -2.948   0.284  1.00  0.00     0.018 A 
ATOM     11  C   UNL     1       5.083  -3.219   0.363  1.00  0.00     0.027 A 
ATOM     12  C   UNL     1       2.941  -3.791   1.230  1.00  0.00     0.027 A 
ATOM     13  C   UNL     1       4.326  -3.850   1.341  1.00  0.00     0.049 A 
BRANCH  13  14
ATOM     14  N   UNL     1       4.874  -4.425   2.523  1.00  0.00    -0.280 N 
ATOM     15  H   UNL     1       4.245  -4.818   3.172  1.00  0.00     0.180 HD
BRANCH  14  16
ATOM     16  S   UNL     1       6.514  -4.482   2.897  1.00  0.00     0.258 S 
ATOM     17  O   UNL     1       6.557  -5.158   4.181  1.00  0.00    -0.202 OA
ATOM     18  O   UNL     1       7.178  -5.081   1.757  1.00  0.00    -0.202 OA
BRANCH  16  19
ATOM     19  C   UNL     1       7.085  -2.790   3.095  1.00  0.00     0.066 C 
ATOM     20  C   UNL     1       7.520  -2.478   4.341  1.00  0.00     0.026 C 
ATOM     21  C   UNL     1       8.020  -2.284   2.008  1.00  0.00     0.055 C 
ATOM     22  C   UNL     1       8.951  -2.836   4.599  1.00  0.00    -0.021 A 
ATOM     23  C   UNL     1       9.379  -2.984   2.098  1.00  0.00     0.041 C 
ATOM     24  C   UNL     1       9.426  -2.884   5.911  1.00  0.00     0.008 A 
ATOM     25  C   UNL     1       9.828  -3.135   3.532  1.00  0.00    -0.040 A 
ATOM     26  C   UNL     1      10.734  -3.304   6.165  1.00  0.00     0.001 A 
ATOM     27  C   UNL     1      11.119  -3.601   3.800  1.00  0.00     0.004 A 
ATOM     28  C   UNL     1      11.567  -3.690   5.114  1.00  0.00     0.000 A 
ENDBRANCH  16  19
ENDBRANCH  14  16
ENDBRANCH  13  14
ENDBRANCH   6   8
ENDBRANCH   5   6
ENDBRANCH   4   5
ENDBRANCH   3   4
ENDBRANCH   2   3
ENDBRANCH   1   2
BRANCH   1  29
ATOM     29  C   UNL     1       2.068   2.296   1.999  1.00  0.00     0.188 C 
BRANCH  29  30
ATOM     30  O   UNL     1       2.834   3.467   2.282  1.00  0.00    -0.376 OA
BRANCH  30  31
ATOM     31  C   UNL     1       4.202   3.289   2.638  1.00  0.00     0.202 C 
BRANCH  31  32
ATOM     32  C   UNL     1       4.493   2.732   4.035  1.00  0.00     0.261 C 
BRANCH  32  33
ATOM     33  O   UNL     1       4.104   1.355   4.195  1.00  0.00    -0.460 OA
BRANCH  33  34
ATOM     34  C   UNL     1       3.099   1.163   5.082  1.00  0.00     0.338 C 
ATOM     35  O   UNL     1       2.500   2.019   5.713  1.00  0.00    -0.246 OA
BRANCH  34  36
ATOM     36  C   UNL     1       2.724  -0.257   5.173  1.00  0.00     0.060 A 
ATOM     37  C   UNL     1       1.450  -0.631   4.729  1.00  0.00     0.016 A 
ATOM     38  C   UNL     1       3.504  -1.135   5.927  1.00  0.00     0.016 A 
ATOM     39  C   UNL     1       0.913  -1.857   5.120  1.00  0.00     0.010 A 
ATOM     40  C   UNL     1       2.964  -2.367   6.313  1.00  0.00     0.010 A 
ATOM     41  C   UNL     1       1.642  -2.702   5.969  1.00  0.00    -0.014 A 
BRANCH  41  42
ATOM     42  C   UNL     1       0.951  -3.825   6.653  1.00  0.00     0.031 A 
ATOM     43  C   UNL     1       0.497  -3.647   8.079  1.00  0.00     0.074 A 
ATOM     44  C   UNL     1       0.694  -4.978   6.011  1.00  0.00     0.049 A 
ATOM     45  N   UNL     1      -0.122  -4.493   8.862  1.00  0.00    -0.248 NA
ATOM     46  C   UNL     1       0.779  -2.344   8.704  1.00  0.00     0.031 C 
ATOM     47  C   UNL     1       1.036  -5.258   4.620  1.00  0.00     0.029 A 
ATOM     48  N   UNL     1       0.083  -6.126   6.446  1.00  0.00    -0.354 N 
ATOM     49  C   UNL     1      -0.288  -3.834  10.076  1.00  0.00     0.074 A 
ATOM     50  C   UNL     1       0.317  -2.527   9.932  1.00  0.00     0.031 C 
ATOM     51  C   UNL     1       0.629  -6.501   4.310  1.00  0.00     0.029 A 
ATOM     52  C   UNL     1       0.022  -7.113   5.492  1.00  0.00     0.049 A 
ATOM     53  H   UNL     1      -0.279  -6.233   7.355  1.00  0.00     0.167 HD
ATOM     54  C   UNL     1      -0.890  -4.273  11.207  1.00  0.00     0.031 A 
ATOM     55  C   UNL     1      -0.462  -8.368   5.564  1.00  0.00     0.031 A 
ATOM     56  C   UNL     1      -1.491  -5.572  11.354  1.00  0.00     0.049 A 
ATOM     57  C   UNL     1      -1.084  -8.851   6.847  1.00  0.00     0.074 A 
ATOM     58  C   UNL     1      -2.147  -6.098  12.455  1.00  0.00     0.029 A 
ATOM     59  N   UNL     1      -1.505  -6.554  10.375  1.00  0.00    -0.354 N 
ATOM     60  N   UNL     1      -1.254  -8.207   7.977  1.00  0.00    -0.248 NA
ATOM     61  C   UNL     1      -1.594 -10.230   6.857  1.00  0.00     0.031 C 
ATOM     62  C   UNL     1      -2.516  -7.415  12.157  1.00  0.00     0.029 A 
ATOM     63  C   UNL     1      -2.140  -7.689  10.852  1.00  0.00     0.049 A 
ATOM     64  H   UNL     1      -1.120  -6.458   9.474  1.00  0.00     0.167 HD
ATOM     65  C   UNL     1      -1.927  -9.088   8.818  1.00  0.00     0.074 A 
ATOM     66  C   UNL     1      -2.134 -10.308   8.065  1.00  0.00     0.031 C 
ATOM     67  C   UNL     1      -2.346  -8.897  10.094  1.00  0.00     0.031 A 
BRANCH  54  68
ATOM     68  C   UNL     1      -0.890  -3.346  12.394  1.00  0.00    -0.014 A 
ATOM     69  C   UNL     1      -1.692  -2.191  12.423  1.00  0.00     0.010 A 
ATOM     70  C   UNL     1      -0.086  -3.649  13.508  1.00  0.00     0.010 A 
ATOM     71  C   UNL     1      -1.655  -1.332  13.525  1.00  0.00     0.020 A 
ATOM     72  C   UNL     1      -0.066  -2.806  14.623  1.00  0.00     0.020 A 
ATOM     73  C   UNL     1      -0.835  -1.641  14.615  1.00  0.00     0.054 A 
BRANCH  73  74
ATOM     74  S   UNL     1      -0.806  -0.513  16.035  1.00  0.00     0.124 S 
ATOM     75  O   UNL     1      -0.006   0.596  15.521  1.00  0.00    -0.237 OA
ATOM     76  O   UNL     1      -2.222  -0.221  16.245  1.00  0.00    -0.237 OA
ATOM     77  O   UNL     1      -0.173  -1.300  17.091  1.00  0.00    -0.744 OA
ENDBRANCH  73  74
ENDBRANCH  54  68
BRANCH  55  78
ATOM     78  C   UNL     1      -0.392  -9.257   4.374  1.00  0.00    -0.014 A 
ATOM     79  C   UNL     1      -1.559  -9.588   3.663  1.00  0.00     0.010 A 
ATOM     80  C   UNL     1       0.843  -9.773   3.943  1.00  0.00     0.010 A 
ATOM     81  C   UNL     1      -1.494 -10.430   2.550  1.00  0.00     0.020 A 
ATOM     82  C   UNL     1       0.916 -10.595   2.816  1.00  0.00     0.020 A 
ATOM     83  C   UNL     1      -0.256 -10.927   2.132  1.00  0.00     0.054 A 
BRANCH  83  84
ATOM     84  S   UNL     1      -0.188 -11.970   0.649  1.00  0.00     0.124 S 
ATOM     85  O   UNL     1      -0.720 -13.236   1.144  1.00  0.00    -0.237 OA
ATOM     86  O   UNL     1      -1.043 -11.245  -0.287  1.00  0.00    -0.237 OA
ATOM     87  O   UNL     1       1.232 -11.978   0.304  1.00  0.00    -0.744 OA
ENDBRANCH  83  84
ENDBRANCH  55  78
BRANCH  67  88
ATOM     88  C   UNL     1      -3.124 -10.013  10.743  1.00  0.00    -0.014 A 
ATOM     89  C   UNL     1      -2.503 -11.207  11.147  1.00  0.00     0.010 A 
ATOM     90  C   UNL     1      -4.500  -9.842  10.983  1.00  0.00     0.010 A 
ATOM     91  C   UNL     1      -3.253 -12.229  11.739  1.00  0.00     0.020 A 
ATOM     92  C   UNL     1      -5.248 -10.849  11.599  1.00  0.00     0.020 A 
ATOM     93  C   UNL     1      -4.622 -12.045  11.956  1.00  0.00     0.054 A 
BRANCH  93  94
ATOM     94  S   UNL     1      -5.573 -13.374  12.745  1.00  0.00     0.124 S 
ATOM     95  O   UNL     1      -5.727 -14.328  11.650  1.00  0.00    -0.237 OA
ATOM     96  O   UNL     1      -4.694 -13.800  13.831  1.00  0.00    -0.237 OA
ATOM     97  O   UNL     1      -6.804 -12.711  13.172  1.00  0.00    -0.744 OA
ENDBRANCH  93  94
ENDBRANCH  67  88
ENDBRANCH  41  42
ENDBRANCH  34  36
ENDBRANCH  33  34
ENDBRANCH  32  33
ENDBRANCH  31  32
ENDBRANCH  30  31
ENDBRANCH  29  30
ENDBRANCH   1  29
TORSDOF 23
