REMARK SMILES Cc1cc([N+](=O)[O-])ccc1-c1ccc(/C=C/C(=O)Nc2ccc(O)c(C(=O)OCCOCCOCCOC(=O)c3ccc(-c4c5nc(c(-c6ccc(S(=O)(=O)[O-])cc6)c6ccc([nH]6)c(-c6ccc(S(=O)(=O)[O-])cc6)c6nc(c(-c7ccc(S(=O)(=O)[O-])cc7)c7ccc4[nH]7)C=C6)C=C5)cc3)c2)o1
REMARK SMILES IDX 32 1 31 2 30 3 29 4 28 5 26 6 27 7 25 8 20 9 21 10 100 11
REMARK SMILES IDX 22 12 23 13 19 14 17 15 18 16 16 18 15 19 14 20 11 21 12 22
REMARK SMILES IDX 101 23 13 24 10 25 1 26 2 27 3 28 4 29 9 30 8 31 5 32 6 33
REMARK SMILES IDX 7 34 24 35 33 37 34 38 35 39 36 40 37 41 38 42 39 43 40 44
REMARK SMILES IDX 41 45 99 46 42 47 98 48 43 49 44 50 45 51 92 52 46 53 97 54
REMARK SMILES IDX 91 55 93 56 47 57 96 58 90 59 89 60 48 62 78 63 59 64 77 65
REMARK SMILES IDX 60 66 63 67 76 68 94 69 61 70 62 71 75 73 95 74 64 75 49 76
REMARK SMILES IDX 50 77 58 78 51 79 57 80 52 81 53 82 54 83 55 84 56 85 79 86
REMARK SMILES IDX 80 87 88 88 81 89 87 90 82 91 83 92 84 93 85 94 86 95 65 96
REMARK SMILES IDX 66 97 74 98 67 99 73 100 68 101 69 102 70 103 71 104 72 105
REMARK H PARENT 19 17 24 36 93 61 63 72
REMARK Flexibility Score: inf
ROOT
ATOM      1  C   UNL     1       9.865  10.104  -1.424  1.00  0.00     0.188 C 
ENDROOT
BRANCH   1   2
ATOM      2  O   UNL     1      10.027   8.737  -1.810  1.00  0.00    -0.376 OA
BRANCH   2   3
ATOM      3  C   UNL     1       9.540   8.253  -3.065  1.00  0.00     0.202 C 
BRANCH   3   4
ATOM      4  C   UNL     1       8.451   7.114  -3.127  1.00  0.00     0.261 C 
BRANCH   4   5
ATOM      5  O   UNL     1       6.941   7.237  -3.197  1.00  0.00    -0.460 OA
BRANCH   5   6
ATOM      6  C   UNL     1       6.319   7.876  -2.169  1.00  0.00     0.342 C 
ATOM      7  O   UNL     1       7.054   8.617  -1.504  1.00  0.00    -0.246 OA
BRANCH   6   8
ATOM      8  C   UNL     1       4.737   7.618  -1.801  1.00  0.00     0.103 A 
ATOM      9  C   UNL     1       2.915   7.552   0.080  1.00  0.00     0.042 A 
ATOM     10  C   UNL     1       1.930   7.515  -0.858  1.00  0.00     0.030 A 
ATOM     11  C   UNL     1       4.225   7.576  -0.452  1.00  0.00     0.045 A 
ATOM     12  C   UNL     1       2.324   7.538  -2.226  1.00  0.00     0.049 A 
ATOM     13  C   UNL     1       3.689   7.587  -2.689  1.00  0.00     0.130 A 
BRANCH   9  14
ATOM     14  N   UNL     1       2.744   7.672   1.502  1.00  0.00    -0.322 N 
ATOM     15  C   UNL     1       1.833   7.137   2.391  1.00  0.00     0.248 C 
ATOM     16  O   UNL     1       1.688   7.554   3.538  1.00  0.00    -0.270 OA
ATOM     17  H   UNL     1       3.414   8.253   1.930  1.00  0.00     0.170 HD
BRANCH  15  18
ATOM     18  C   UNL     1       1.177   5.895   1.971  1.00  0.00     0.075 C 
ATOM     19  C   UNL     1       2.047   4.914   1.705  1.00  0.00     0.053 C 
BRANCH  19  20
ATOM     20  C   UNL     1       1.709   3.950   0.743  1.00  0.00     0.127 A 
ATOM     21  C   UNL     1       0.855   2.169  -0.191  1.00  0.00     0.135 A 
ATOM     22  C   UNL     1       1.605   2.767  -1.173  1.00  0.00     0.051 A 
ATOM     23  O   UNL     1       0.864   2.902   0.949  1.00  0.00    -0.457 OA
ATOM     24  C   UNL     1       2.165   3.903  -0.568  1.00  0.00     0.051 A 
BRANCH  21  25
ATOM     25  C   UNL     1       0.157   0.914  -0.100  1.00  0.00     0.021 A 
ATOM     26  C   UNL     1       2.373  -0.368   0.011  1.00  0.00     0.045 C 
ATOM     27  C   UNL     1       0.866  -0.301  -0.024  1.00  0.00    -0.033 A 
ATOM     28  C   UNL     1       0.141  -1.500   0.016  1.00  0.00     0.089 A 
ATOM     29  C   UNL     1      -1.261  -1.475   0.016  1.00  0.00     0.269 A 
ATOM     30  C   UNL     1      -1.245   0.931  -0.074  1.00  0.00     0.019 A 
ATOM     31  C   UNL     1      -1.959  -0.262  -0.016  1.00  0.00     0.086 A 
BRANCH  29  32
ATOM     32  N   UNL     1      -2.010  -2.734   0.044  1.00  0.00     0.062 N 
ATOM     33  O   UNL     1      -1.369  -3.794   0.037  1.00  0.00    -0.258 OA
ATOM     34  O   UNL     1      -3.249  -2.667   0.060  1.00  0.00    -0.258 OA
ENDBRANCH  29  32
ENDBRANCH  21  25
ENDBRANCH  19  20
ENDBRANCH  15  18
ENDBRANCH   9  14
BRANCH  13  35
ATOM     35  O   UNL     1       3.882   7.634  -4.036  1.00  0.00    -0.507 OA
ATOM     36  H   UNL     1       3.146   7.611  -4.615  1.00  0.00     0.293 HD
ENDBRANCH  13  35
ENDBRANCH   6   8
ENDBRANCH   5   6
ENDBRANCH   4   5
ENDBRANCH   3   4
ENDBRANCH   2   3
ENDBRANCH   1   2
BRANCH   1  37
ATOM     37  C   UNL     1       9.317  11.186  -2.317  1.00  0.00     0.188 C 
BRANCH  37  38
ATOM     38  O   UNL     1       9.722  12.552  -2.119  1.00  0.00    -0.376 OA
BRANCH  38  39
ATOM     39  C   UNL     1       9.748  13.456  -0.952  1.00  0.00     0.202 C 
BRANCH  39  40
ATOM     40  C   UNL     1       8.588  14.336   0.219  1.00  0.00     0.261 C 
BRANCH  40  41
ATOM     41  O   UNL     1       7.074  14.084   1.142  1.00  0.00    -0.460 OA
BRANCH  41  42
ATOM     42  C   UNL     1       5.721  13.548   1.678  1.00  0.00     0.338 C 
ATOM     43  O   UNL     1       5.216  14.265   2.559  1.00  0.00    -0.246 OA
BRANCH  42  44
ATOM     44  C   UNL     1       4.900  11.928   1.543  1.00  0.00     0.060 A 
ATOM     45  C   UNL     1       4.854  10.965   2.591  1.00  0.00     0.016 A 
ATOM     46  C   UNL     1       4.758  11.181   0.409  1.00  0.00     0.016 A 
ATOM     47  C   UNL     1       5.417   9.531   2.446  1.00  0.00     0.010 A 
ATOM     48  C   UNL     1       5.464   9.906   0.273  1.00  0.00     0.010 A 
ATOM     49  C   UNL     1       6.004   9.043   1.257  1.00  0.00    -0.014 A 
BRANCH  49  50
ATOM     50  C   UNL     1       7.051   7.683   0.947  1.00  0.00     0.031 A 
ATOM     51  C   UNL     1       6.809   6.255   0.212  1.00  0.00     0.074 A 
ATOM     52  C   UNL     1       8.417   7.817   0.961  1.00  0.00     0.049 A 
ATOM     53  N   UNL     1       7.643   5.777  -0.682  1.00  0.00    -0.248 NA
ATOM     54  C   UNL     1       5.670   5.310   0.270  1.00  0.00     0.031 C 
ATOM     55  C   UNL     1       9.565   6.872   0.842  1.00  0.00     0.029 A 
ATOM     56  N   UNL     1       9.136   8.879   1.397  1.00  0.00    -0.354 N 
ATOM     57  C   UNL     1       7.213   4.609  -1.294  1.00  0.00     0.074 A 
ATOM     58  C   UNL     1       5.878   4.454  -0.754  1.00  0.00     0.031 C 
ATOM     59  C   UNL     1      10.523   7.220   1.736  1.00  0.00     0.029 A 
ATOM     60  C   UNL     1      10.056   8.432   2.359  1.00  0.00     0.049 A 
ATOM     61  H   UNL     1       9.030   9.809   1.091  1.00  0.00     0.167 HD
ATOM     62  C   UNL     1       8.059   3.531  -1.412  1.00  0.00     0.031 A 
ATOM     63  C   UNL     1       9.640   8.734   3.615  1.00  0.00     0.031 A 
ATOM     64  C   UNL     1       8.947   3.448  -0.261  1.00  0.00     0.049 A 
ATOM     65  C   UNL     1       8.989   7.343   4.115  1.00  0.00     0.074 A 
ATOM     66  C   UNL     1      10.300   3.497   0.006  1.00  0.00     0.029 A 
ATOM     67  N   UNL     1       8.321   3.507   0.975  1.00  0.00    -0.354 N 
ATOM     68  N   UNL     1       8.769   6.303   3.323  1.00  0.00    -0.248 NA
ATOM     69  C   UNL     1       8.761   6.907   5.497  1.00  0.00     0.031 C 
ATOM     70  C   UNL     1      10.445   3.723   1.423  1.00  0.00     0.029 A 
ATOM     71  C   UNL     1       9.185   3.785   2.005  1.00  0.00     0.049 A 
ATOM     72  H   UNL     1       7.355   3.364   1.101  1.00  0.00     0.167 HD
ATOM     73  C   UNL     1       8.599   5.119   3.991  1.00  0.00     0.074 A 
ATOM     74  C   UNL     1       8.471   5.587   5.364  1.00  0.00     0.031 C 
ATOM     75  C   UNL     1       8.650   3.876   3.376  1.00  0.00     0.031 A 
BRANCH  62  76
ATOM     76  C   UNL     1       8.044   2.585  -2.615  1.00  0.00    -0.014 A 
ATOM     77  C   UNL     1       8.970   1.520  -2.712  1.00  0.00     0.010 A 
ATOM     78  C   UNL     1       7.182   2.744  -3.728  1.00  0.00     0.010 A 
ATOM     79  C   UNL     1       9.036   0.665  -3.839  1.00  0.00     0.020 A 
ATOM     80  C   UNL     1       7.232   1.886  -4.858  1.00  0.00     0.020 A 
ATOM     81  C   UNL     1       8.166   0.852  -4.911  1.00  0.00     0.054 A 
BRANCH  81  82
ATOM     82  S   UNL     1       8.291  -0.252  -6.362  1.00  0.00     0.124 S 
ATOM     83  O   UNL     1       9.633   0.035  -6.865  1.00  0.00    -0.237 OA
ATOM     84  O   UNL     1       8.115  -1.578  -5.775  1.00  0.00    -0.237 OA
ATOM     85  O   UNL     1       7.200   0.186  -7.231  1.00  0.00    -0.744 OA
ENDBRANCH  81  82
ENDBRANCH  62  76
BRANCH  63  86
ATOM     86  C   UNL     1       9.190  10.264   3.400  1.00  0.00    -0.014 A 
ATOM     87  C   UNL     1       9.919  11.107   2.494  1.00  0.00     0.010 A 
ATOM     88  C   UNL     1       7.917  10.704   3.355  1.00  0.00     0.010 A 
ATOM     89  C   UNL     1       9.320  11.739   1.231  1.00  0.00     0.020 A 
ATOM     90  C   UNL     1       7.446  11.522   2.197  1.00  0.00     0.020 A 
ATOM     91  C   UNL     1       7.959  11.782   0.893  1.00  0.00     0.054 A 
BRANCH  91  92
ATOM     92  S   UNL     1       6.841  12.567  -0.932  1.00  0.00     0.124 S 
ATOM     93  O   UNL     1       5.649  13.332  -0.555  1.00  0.00    -0.237 OA
ATOM     94  O   UNL     1       7.614  13.480  -1.731  1.00  0.00    -0.237 OA
ATOM     95  O   UNL     1       6.452  11.379  -1.698  1.00  0.00    -0.744 OA
ENDBRANCH  91  92
ENDBRANCH  63  86
BRANCH  75  96
ATOM     96  C   UNL     1       8.227   2.529   3.974  1.00  0.00    -0.014 A 
ATOM     97  C   UNL     1       8.235   2.230   5.335  1.00  0.00     0.010 A 
ATOM     98  C   UNL     1       7.824   1.461   3.113  1.00  0.00     0.010 A 
ATOM     99  C   UNL     1       7.771   0.991   5.815  1.00  0.00     0.020 A 
ATOM    100  C   UNL     1       7.372   0.221   3.571  1.00  0.00     0.020 A 
ATOM    101  C   UNL     1       7.323   0.004   4.933  1.00  0.00     0.054 A 
BRANCH 101 102
ATOM    102  S   UNL     1       6.703  -1.562   5.588  1.00  0.00     0.124 S 
ATOM    103  O   UNL     1       7.807  -2.000   6.437  1.00  0.00    -0.237 OA
ATOM    104  O   UNL     1       5.496  -1.136   6.292  1.00  0.00    -0.237 OA
ATOM    105  O   UNL     1       6.473  -2.376   4.397  1.00  0.00    -0.744 OA
ENDBRANCH 101 102
ENDBRANCH  75  96
ENDBRANCH  49  50
ENDBRANCH  42  44
ENDBRANCH  41  42
ENDBRANCH  40  41
ENDBRANCH  39  40
ENDBRANCH  38  39
ENDBRANCH  37  38
ENDBRANCH   1  37
TORSDOF 26
