REMARK SMILES Cc1cc(C(=O)OCCOCCOCCOC(=O)c2ccc(-c3c4nc(c(-c5ccc(S(=O)(=O)[O-])cc5)c5ccc([nH]5)c(-c5ccc(S(=O)(=O)[O-])cc5)c5nc(c(-c6ccc(S(=O)(=O)[O-])cc6)c6ccc3[nH]6)C=C5)C=C4)cc2)c(C#Cc2ccccc2)s1
REMARK SMILES IDX 12 1 11 2 10 3 9 4 8 5 7 6 5 7 6 8 4 9 1 10 2 11 3 12 88 13
REMARK SMILES IDX 79 14 80 15 81 16 82 17 83 18 87 19 84 20 86 21 85 22 13 23
REMARK SMILES IDX 14 24 15 25 16 26 17 27 18 28 19 29 20 30 78 31 21 32 77 33
REMARK SMILES IDX 22 34 23 35 24 36 71 37 25 38 76 39 70 40 72 41 26 42 75 43
REMARK SMILES IDX 69 44 68 45 27 47 57 48 38 49 56 50 39 51 42 52 55 53 73 54
REMARK SMILES IDX 40 55 41 56 54 58 74 59 43 60 28 61 29 62 37 63 30 64 36 65
REMARK SMILES IDX 31 66 32 67 33 68 34 69 35 70 58 71 59 72 67 73 60 74 66 75
REMARK SMILES IDX 61 76 62 77 63 78 64 79 65 80 44 81 45 82 53 83 46 84 52 85
REMARK SMILES IDX 47 86 48 87 49 88 50 89 51 90
REMARK H PARENT 72 46 42 57
REMARK Flexibility Score: inf
ROOT
ATOM      1  C   UNL     1       0.997   0.460   6.007  1.00  0.00     0.188 C 
ENDROOT
BRANCH   1   2
ATOM      2  C   UNL     1       0.263   1.570   6.783  1.00  0.00     0.188 C 
BRANCH   2   3
ATOM      3  O   UNL     1      -0.416   1.027   7.906  1.00  0.00    -0.376 OA
BRANCH   3   4
ATOM      4  C   UNL     1      -1.810   1.306   7.953  1.00  0.00     0.202 C 
BRANCH   4   5
ATOM      5  C   UNL     1      -2.689   0.537   6.948  1.00  0.00     0.261 C 
BRANCH   5   6
ATOM      6  O   UNL     1      -2.081   0.361   5.668  1.00  0.00    -0.460 OA
BRANCH   6   7
ATOM      7  C   UNL     1      -2.479   1.178   4.645  1.00  0.00     0.340 C 
ATOM      8  O   UNL     1      -3.422   1.906   4.631  1.00  0.00    -0.246 OA
BRANCH   7   9
ATOM      9  C   UNL     1      -1.427   1.143   3.647  1.00  0.00     0.086 A 
ATOM     10  C   UNL     1       0.670  -0.528   0.923  1.00  0.00     0.056 C 
ATOM     11  C   UNL     1       0.059   0.166   2.103  1.00  0.00     0.004 A 
ATOM     12  C   UNL     1      -1.167   0.046   2.720  1.00  0.00     0.032 A 
ATOM     13  S   UNL     1       0.948   1.331   2.963  1.00  0.00    -0.131 S 
ATOM     14  C   UNL     1      -0.454   2.137   3.601  1.00  0.00     0.092 A 
BRANCH  14  15
ATOM     15  C   UNL     1      -0.493   3.528   4.112  1.00  0.00    -0.050 C 
ATOM     16  C   UNL     1      -0.510   4.689   4.475  1.00  0.00    -0.061 C 
BRANCH  16  17
ATOM     17  C   UNL     1      -0.463   6.121   4.848  1.00  0.00     0.025 A 
ATOM     18  C   UNL     1      -1.595   6.936   4.880  1.00  0.00     0.017 A 
ATOM     19  C   UNL     1       0.746   6.759   5.172  1.00  0.00     0.017 A 
ATOM     20  C   UNL     1      -1.491   8.318   5.175  1.00  0.00     0.001 A 
ATOM     21  C   UNL     1       0.881   8.148   5.326  1.00  0.00     0.001 A 
ATOM     22  C   UNL     1      -0.252   8.935   5.345  1.00  0.00     0.000 A 
ENDBRANCH  16  17
ENDBRANCH  14  15
ENDBRANCH   7   9
ENDBRANCH   6   7
ENDBRANCH   5   6
ENDBRANCH   4   5
ENDBRANCH   3   4
ENDBRANCH   2   3
ENDBRANCH   1   2
BRANCH   1  23
ATOM     23  O   UNL     1       1.686  -0.569   6.701  1.00  0.00    -0.376 OA
BRANCH  23  24
ATOM     24  C   UNL     1       2.229  -0.206   7.947  1.00  0.00     0.202 C 
BRANCH  24  25
ATOM     25  C   UNL     1       3.297   0.912   7.953  1.00  0.00     0.261 C 
BRANCH  25  26
ATOM     26  O   UNL     1       3.222   1.910   6.888  1.00  0.00    -0.460 OA
BRANCH  26  27
ATOM     27  C   UNL     1       4.179   1.900   5.909  1.00  0.00     0.338 C 
ATOM     28  O   UNL     1       5.184   1.206   5.924  1.00  0.00    -0.246 OA
BRANCH  27  29
ATOM     29  C   UNL     1       3.791   2.748   4.713  1.00  0.00     0.060 A 
ATOM     30  C   UNL     1       3.201   3.995   4.819  1.00  0.00     0.016 A 
ATOM     31  C   UNL     1       4.011   2.293   3.400  1.00  0.00     0.016 A 
ATOM     32  C   UNL     1       2.693   4.636   3.652  1.00  0.00     0.010 A 
ATOM     33  C   UNL     1       3.393   2.922   2.252  1.00  0.00     0.010 A 
ATOM     34  C   UNL     1       2.557   4.033   2.391  1.00  0.00    -0.014 A 
BRANCH  34  35
ATOM     35  C   UNL     1       1.559   4.660   1.379  1.00  0.00     0.031 A 
ATOM     36  C   UNL     1       1.540   6.151   1.346  1.00  0.00     0.074 A 
ATOM     37  C   UNL     1       0.541   4.169   0.593  1.00  0.00     0.049 A 
ATOM     38  N   UNL     1       0.501   6.912   1.526  1.00  0.00    -0.248 NA
ATOM     39  C   UNL     1       2.806   6.865   1.186  1.00  0.00     0.031 C 
ATOM     40  C   UNL     1       0.026   2.821   0.546  1.00  0.00     0.029 A 
ATOM     41  N   UNL     1      -0.339   4.750  -0.321  1.00  0.00    -0.354 N 
ATOM     42  C   UNL     1       0.946   8.208   1.343  1.00  0.00     0.074 A 
ATOM     43  C   UNL     1       2.389   8.129   1.244  1.00  0.00     0.031 C 
ATOM     44  C   UNL     1      -0.725   2.558  -0.531  1.00  0.00     0.029 A 
ATOM     45  C   UNL     1      -1.002   3.836  -1.141  1.00  0.00     0.049 A 
ATOM     46  H   UNL     1      -0.480   5.723  -0.382  1.00  0.00     0.167 HD
ATOM     47  C   UNL     1       0.117   9.253   1.074  1.00  0.00     0.031 A 
ATOM     48  C   UNL     1      -2.000   3.887  -2.056  1.00  0.00     0.031 A 
ATOM     49  C   UNL     1      -1.272   9.107   1.435  1.00  0.00     0.049 A 
ATOM     50  C   UNL     1      -2.849   5.053  -1.803  1.00  0.00     0.074 A 
ATOM     51  C   UNL     1      -2.199   9.774   2.213  1.00  0.00     0.029 A 
ATOM     52  N   UNL     1      -1.918   8.007   0.956  1.00  0.00    -0.354 N 
ATOM     53  N   UNL     1      -3.742   5.104  -0.850  1.00  0.00    -0.248 NA
ATOM     54  C   UNL     1      -2.477   6.321  -2.412  1.00  0.00     0.031 C 
ATOM     55  C   UNL     1      -3.431   9.053   2.137  1.00  0.00     0.029 A 
ATOM     56  C   UNL     1      -3.258   8.007   1.250  1.00  0.00     0.049 A 
ATOM     57  H   UNL     1      -1.470   7.288   0.453  1.00  0.00     0.167 HD
ATOM     58  C   UNL     1      -3.761   6.435  -0.492  1.00  0.00     0.074 A 
ATOM     59  C   UNL     1      -3.049   7.154  -1.545  1.00  0.00     0.031 C 
ATOM     60  C   UNL     1      -4.022   6.878   0.770  1.00  0.00     0.031 A 
BRANCH  47  61
ATOM     61  C   UNL     1       0.564  10.338   0.127  1.00  0.00    -0.014 A 
ATOM     62  C   UNL     1       1.508  10.063  -0.889  1.00  0.00     0.010 A 
ATOM     63  C   UNL     1      -0.119  11.564   0.048  1.00  0.00     0.010 A 
ATOM     64  C   UNL     1       1.819  10.984  -1.885  1.00  0.00     0.020 A 
ATOM     65  C   UNL     1       0.152  12.481  -0.979  1.00  0.00     0.020 A 
ATOM     66  C   UNL     1       1.132  12.190  -1.928  1.00  0.00     0.054 A 
BRANCH  66  67
ATOM     67  S   UNL     1       1.495  13.317  -3.294  1.00  0.00     0.124 S 
ATOM     68  O   UNL     1       2.839  13.778  -2.951  1.00  0.00    -0.237 OA
ATOM     69  O   UNL     1       1.410  12.440  -4.459  1.00  0.00    -0.237 OA
ATOM     70  O   UNL     1       0.445  14.327  -3.196  1.00  0.00    -0.744 OA
ENDBRANCH  66  67
ENDBRANCH  47  61
BRANCH  48  71
ATOM     71  C   UNL     1      -1.999   3.050  -3.294  1.00  0.00    -0.014 A 
ATOM     72  C   UNL     1      -0.897   2.207  -3.570  1.00  0.00     0.010 A 
ATOM     73  C   UNL     1      -2.914   3.279  -4.335  1.00  0.00     0.010 A 
ATOM     74  C   UNL     1      -0.602   1.784  -4.860  1.00  0.00     0.020 A 
ATOM     75  C   UNL     1      -2.621   2.859  -5.645  1.00  0.00     0.020 A 
ATOM     76  C   UNL     1      -1.425   2.184  -5.902  1.00  0.00     0.054 A 
BRANCH  76  77
ATOM     77  S   UNL     1      -0.797   1.957  -7.586  1.00  0.00     0.124 S 
ATOM     78  O   UNL     1       0.302   2.919  -7.623  1.00  0.00    -0.237 OA
ATOM     79  O   UNL     1      -0.396   0.552  -7.590  1.00  0.00    -0.237 OA
ATOM     80  O   UNL     1      -1.943   2.280  -8.429  1.00  0.00    -0.744 OA
ENDBRANCH  76  77
ENDBRANCH  48  71
BRANCH  60  81
ATOM     81  C   UNL     1      -4.914   6.135   1.717  1.00  0.00    -0.014 A 
ATOM     82  C   UNL     1      -5.986   6.858   2.273  1.00  0.00     0.010 A 
ATOM     83  C   UNL     1      -4.697   4.820   2.163  1.00  0.00     0.010 A 
ATOM     84  C   UNL     1      -6.774   6.325   3.293  1.00  0.00     0.020 A 
ATOM     85  C   UNL     1      -5.504   4.266   3.176  1.00  0.00     0.020 A 
ATOM     86  C   UNL     1      -6.516   5.036   3.757  1.00  0.00     0.054 A 
BRANCH  86  87
ATOM     87  S   UNL     1      -7.524   4.412   5.131  1.00  0.00     0.124 S 
ATOM     88  O   UNL     1      -6.960   5.123   6.277  1.00  0.00    -0.237 OA
ATOM     89  O   UNL     1      -8.876   4.824   4.754  1.00  0.00    -0.237 OA
ATOM     90  O   UNL     1      -7.300   2.969   5.120  1.00  0.00    -0.744 OA
ENDBRANCH  86  87
ENDBRANCH  60  81
ENDBRANCH  34  35
ENDBRANCH  27  29
ENDBRANCH  26  27
ENDBRANCH  25  26
ENDBRANCH  24  25
ENDBRANCH  23  24
ENDBRANCH   1  23
TORSDOF 22
