REMARK SMILES O=C1CC[C@@H](CC(=O)N2CCC(Oc3ccccc3)(C(=O)OCCOCCOCCOC(=O)c3ccc(-c4c5nc(c(-c6ccc(S(=O)(=O)[O-])cc6)c6ccc([nH]6)c(-c6ccc(S(=O)(=O)[O-])cc6)c6nc(c(-c7ccc(S(=O)(=O)[O-])cc7)c7ccc4[nH]7)C=C6)C=C5)cc3)CC2)N1
REMARK SMILES IDX 27 1 26 2 25 3 24 4 23 5 22 6 20 7 21 8 12 9 7 10 8 11 9 12
REMARK SMILES IDX 10 13 95 14 11 15 94 16 6 17 5 18 1 19 2 20 3 21 96 22 4 23
REMARK SMILES IDX 13 25 14 26 15 27 19 28 16 29 18 30 17 31 28 32 29 33 30 34
REMARK SMILES IDX 31 35 32 36 33 37 34 38 35 39 93 40 36 41 92 42 37 43 38 44
REMARK SMILES IDX 39 45 86 46 40 47 91 48 85 49 87 50 41 51 90 52 84 53 83 54
REMARK SMILES IDX 42 56 72 57 53 58 71 59 54 60 57 61 70 62 88 63 55 64 56 65
REMARK SMILES IDX 69 67 89 68 58 69 43 70 44 71 52 72 45 73 51 74 46 75 47 76
REMARK SMILES IDX 48 77 49 78 50 79 73 80 74 81 82 82 75 83 81 84 76 85 77 86
REMARK SMILES IDX 78 87 79 88 80 89 59 90 60 91 68 92 61 93 67 94 62 95 63 96
REMARK SMILES IDX 64 97 65 98 66 99
REMARK H PARENT 96 24 87 55 57 66
REMARK Flexibility Score: inf
ROOT
ATOM      1  C   UNL     1      -1.529   2.001  -4.594  1.00  0.00     0.188 C 
ENDROOT
BRANCH   1   2
ATOM      2  C   UNL     1      -1.190   3.120  -3.605  1.00  0.00     0.188 C 
BRANCH   2   3
ATOM      3  O   UNL     1      -0.934   4.418  -4.117  1.00  0.00    -0.376 OA
BRANCH   3   4
ATOM      4  C   UNL     1      -0.102   4.568  -5.263  1.00  0.00     0.202 C 
BRANCH   4   5
ATOM      5  C   UNL     1       1.271   3.870  -5.319  1.00  0.00     0.261 C 
BRANCH   5   6
ATOM      6  O   UNL     1       1.273   2.418  -5.366  1.00  0.00    -0.460 OA
BRANCH   6   7
ATOM      7  C   UNL     1       1.927   1.795  -4.344  1.00  0.00     0.350 C 
ATOM      8  O   UNL     1       2.384   2.415  -3.385  1.00  0.00    -0.247 OA
BRANCH   7   9
ATOM      9  C   UNL     1       2.072   0.241  -4.472  1.00  0.00     0.209 C 
ATOM     10  C   UNL     1      -0.876  -2.125  -2.299  1.00  0.00     0.224 C 
ATOM     11  O   UNL     1      -1.611  -2.893  -2.943  1.00  0.00    -0.275 OA
ATOM     12  N   UNL     1      -0.081  -1.239  -3.003  1.00  0.00    -0.342 N 
ATOM     13  C   UNL     1      -0.169  -1.217  -4.465  1.00  0.00     0.124 C 
ATOM     14  C   UNL     1       0.786  -0.271  -2.410  1.00  0.00     0.124 C 
ATOM     15  C   UNL     1       0.959  -0.501  -5.256  1.00  0.00     0.082 C 
ATOM     16  C   UNL     1       2.142  -0.289  -3.034  1.00  0.00     0.082 C 
BRANCH  10  17
ATOM     17  C   UNL     1      -0.939  -2.282  -0.759  1.00  0.00     0.125 C 
BRANCH  17  18
ATOM     18  C   UNL     1      -0.360  -1.443   0.391  1.00  0.00     0.091 C 
ATOM     19  O   UNL     1       2.938  -0.508   1.162  1.00  0.00    -0.275 OA
ATOM     20  C   UNL     1       1.749  -0.527   0.925  1.00  0.00     0.220 C 
ATOM     21  C   UNL     1       0.833   0.664   0.805  1.00  0.00     0.102 C 
ATOM     22  N   UNL     1       1.031  -1.670   0.647  1.00  0.00    -0.353 N 
ATOM     23  C   UNL     1      -0.514   0.073   0.378  1.00  0.00     0.035 C 
ATOM     24  H   UNL     1       1.439  -2.566   0.626  1.00  0.00     0.163 HD
ENDBRANCH  17  18
ENDBRANCH  10  17
BRANCH   9  25
ATOM     25  O   UNL     1       3.346   0.134  -5.195  1.00  0.00    -0.475 OA
BRANCH  25  26
ATOM     26  C   UNL     1       4.074  -0.988  -4.888  1.00  0.00     0.121 A 
ATOM     27  C   UNL     1       4.957  -0.972  -3.804  1.00  0.00     0.046 A 
ATOM     28  C   UNL     1       3.888  -2.156  -5.622  1.00  0.00     0.046 A 
ATOM     29  C   UNL     1       5.545  -2.163  -3.377  1.00  0.00     0.004 A 
ATOM     30  C   UNL     1       4.480  -3.344  -5.197  1.00  0.00     0.004 A 
ATOM     31  C   UNL     1       5.292  -3.351  -4.062  1.00  0.00     0.000 A 
ENDBRANCH  25  26
ENDBRANCH   9  25
ENDBRANCH   7   9
ENDBRANCH   6   7
ENDBRANCH   5   6
ENDBRANCH   4   5
ENDBRANCH   3   4
ENDBRANCH   2   3
ENDBRANCH   1   2
BRANCH   1  32
ATOM     32  O   UNL     1      -1.619   2.404  -5.938  1.00  0.00    -0.376 OA
BRANCH  32  33
ATOM     33  C   UNL     1      -2.887   2.501  -6.552  1.00  0.00     0.202 C 
BRANCH  33  34
ATOM     34  C   UNL     1      -4.133   3.007  -5.799  1.00  0.00     0.261 C 
BRANCH  34  35
ATOM     35  O   UNL     1      -4.234   2.725  -4.392  1.00  0.00    -0.460 OA
BRANCH  35  36
ATOM     36  C   UNL     1      -4.814   1.551  -4.038  1.00  0.00     0.338 C 
ATOM     37  O   UNL     1      -5.215   0.687  -4.793  1.00  0.00    -0.246 OA
BRANCH  36  38
ATOM     38  C   UNL     1      -4.697   1.393  -2.565  1.00  0.00     0.060 A 
ATOM     39  C   UNL     1      -3.816   0.430  -2.079  1.00  0.00     0.016 A 
ATOM     40  C   UNL     1      -5.461   2.144  -1.663  1.00  0.00     0.016 A 
ATOM     41  C   UNL     1      -3.689   0.246  -0.700  1.00  0.00     0.010 A 
ATOM     42  C   UNL     1      -5.327   1.940  -0.269  1.00  0.00     0.010 A 
ATOM     43  C   UNL     1      -4.424   0.994   0.231  1.00  0.00    -0.014 A 
BRANCH  43  44
ATOM     44  C   UNL     1      -4.272   0.651   1.682  1.00  0.00     0.031 A 
ATOM     45  C   UNL     1      -5.006  -0.543   2.236  1.00  0.00     0.074 A 
ATOM     46  C   UNL     1      -3.352   1.249   2.471  1.00  0.00     0.049 A 
ATOM     47  N   UNL     1      -5.003  -1.019   3.456  1.00  0.00    -0.248 NA
ATOM     48  C   UNL     1      -5.845  -1.298   1.295  1.00  0.00     0.031 C 
ATOM     49  C   UNL     1      -2.455   2.324   2.052  1.00  0.00     0.029 A 
ATOM     50  N   UNL     1      -2.937   0.958   3.757  1.00  0.00    -0.354 N 
ATOM     51  C   UNL     1      -5.910  -2.071   3.453  1.00  0.00     0.074 A 
ATOM     52  C   UNL     1      -6.378  -2.215   2.090  1.00  0.00     0.031 C 
ATOM     53  C   UNL     1      -1.524   2.510   3.006  1.00  0.00     0.029 A 
ATOM     54  C   UNL     1      -1.819   1.660   4.162  1.00  0.00     0.049 A 
ATOM     55  H   UNL     1      -3.399   0.308   4.334  1.00  0.00     0.167 HD
ATOM     56  C   UNL     1      -6.363  -2.804   4.499  1.00  0.00     0.031 A 
ATOM     57  C   UNL     1      -1.128   1.646   5.327  1.00  0.00     0.031 A 
ATOM     58  C   UNL     1      -5.913  -2.660   5.860  1.00  0.00     0.049 A 
ATOM     59  C   UNL     1      -1.669   0.847   6.494  1.00  0.00     0.074 A 
ATOM     60  C   UNL     1      -6.394  -3.292   6.995  1.00  0.00     0.029 A 
ATOM     61  N   UNL     1      -4.879  -1.838   6.275  1.00  0.00    -0.354 N 
ATOM     62  N   UNL     1      -2.638  -0.037   6.513  1.00  0.00    -0.248 NA
ATOM     63  C   UNL     1      -1.073   1.107   7.816  1.00  0.00     0.031 C 
ATOM     64  C   UNL     1      -5.693  -2.804   8.104  1.00  0.00     0.029 A 
ATOM     65  C   UNL     1      -4.724  -1.926   7.650  1.00  0.00     0.049 A 
ATOM     66  H   UNL     1      -4.333  -1.273   5.681  1.00  0.00     0.167 HD
ATOM     67  C   UNL     1      -2.795  -0.400   7.851  1.00  0.00     0.074 A 
ATOM     68  C   UNL     1      -1.777   0.301   8.601  1.00  0.00     0.031 C 
ATOM     69  C   UNL     1      -3.728  -1.211   8.409  1.00  0.00     0.031 A 
BRANCH  56  70
ATOM     70  C   UNL     1      -7.521  -3.727   4.235  1.00  0.00    -0.014 A 
ATOM     71  C   UNL     1      -7.377  -4.938   3.540  1.00  0.00     0.010 A 
ATOM     72  C   UNL     1      -8.792  -3.359   4.721  1.00  0.00     0.010 A 
ATOM     73  C   UNL     1      -8.493  -5.747   3.301  1.00  0.00     0.020 A 
ATOM     74  C   UNL     1      -9.901  -4.179   4.514  1.00  0.00     0.020 A 
ATOM     75  C   UNL     1      -9.748  -5.360   3.788  1.00  0.00     0.054 A 
BRANCH  75  76
ATOM     76  S   UNL     1     -11.176  -6.430   3.473  1.00  0.00     0.124 S 
ATOM     77  O   UNL     1     -11.381  -6.242   2.038  1.00  0.00    -0.237 OA
ATOM     78  O   UNL     1     -10.682  -7.746   3.869  1.00  0.00    -0.237 OA
ATOM     79  O   UNL     1     -12.222  -5.876   4.328  1.00  0.00    -0.744 OA
ENDBRANCH  75  76
ENDBRANCH  56  70
BRANCH  57  80
ATOM     80  C   UNL     1       0.082   2.510   5.527  1.00  0.00    -0.014 A 
ATOM     81  C   UNL     1       1.325   1.965   5.909  1.00  0.00     0.010 A 
ATOM     82  C   UNL     1      -0.019   3.907   5.394  1.00  0.00     0.010 A 
ATOM     83  C   UNL     1       2.429   2.796   6.152  1.00  0.00     0.020 A 
ATOM     84  C   UNL     1       1.090   4.735   5.585  1.00  0.00     0.020 A 
ATOM     85  C   UNL     1       2.306   4.177   5.978  1.00  0.00     0.054 A 
BRANCH  85  86
ATOM     86  S   UNL     1       3.751   5.246   6.230  1.00  0.00     0.124 S 
ATOM     87  O   UNL     1       3.833   5.308   7.686  1.00  0.00    -0.237 OA
ATOM     88  O   UNL     1       4.819   4.504   5.566  1.00  0.00    -0.237 OA
ATOM     89  O   UNL     1       3.368   6.493   5.572  1.00  0.00    -0.744 OA
ENDBRANCH  85  86
ENDBRANCH  57  80
BRANCH  69  90
ATOM     90  C   UNL     1      -3.723  -1.375   9.910  1.00  0.00    -0.014 A 
ATOM     91  C   UNL     1      -4.118  -0.321  10.756  1.00  0.00     0.010 A 
ATOM     92  C   UNL     1      -3.391  -2.616  10.485  1.00  0.00     0.010 A 
ATOM     93  C   UNL     1      -4.157  -0.497  12.144  1.00  0.00     0.020 A 
ATOM     94  C   UNL     1      -3.455  -2.805  11.870  1.00  0.00     0.020 A 
ATOM     95  C   UNL     1      -3.827  -1.740  12.692  1.00  0.00     0.054 A 
BRANCH  95  96
ATOM     96  S   UNL     1      -3.933  -1.955  14.492  1.00  0.00     0.124 S 
ATOM     97  O   UNL     1      -2.813  -1.145  14.964  1.00  0.00    -0.237 OA
ATOM     98  O   UNL     1      -5.262  -1.430  14.799  1.00  0.00    -0.237 OA
ATOM     99  O   UNL     1      -3.781  -3.396  14.680  1.00  0.00    -0.744 OA
ENDBRANCH  95  96
ENDBRANCH  69  90
ENDBRANCH  43  44
ENDBRANCH  36  38
ENDBRANCH  35  36
ENDBRANCH  34  35
ENDBRANCH  33  34
ENDBRANCH  32  33
ENDBRANCH   1  32
TORSDOF 24
