REMARK SMILES Cc1ccc(-c2cc(C(=O)OCCOCCOCCOC(=O)c3ccc(-c4c5nc(c(-c6ccc(S(=O)(=O)[O-])cc6)c6ccc([nH]6)c(-c6ccc(S(=O)(=O)[O-])cc6)c6nc(c(-c7ccc(S(=O)(=O)[O-])cc7)c7ccc4[nH]7)C=C6)C=C5)cc3)c3c(-c4cccc([N+](=O)[O-])c4)[nH]nc3n2)cc1
REMARK SMILES IDX 16 1 15 2 14 3 13 4 12 5 11 6 9 7 10 8 8 9 6 10 7 11 97 12
REMARK SMILES IDX 96 13 83 14 95 15 84 16 94 17 5 19 1 20 2 21 3 22 99 23 4 24
REMARK SMILES IDX 98 25 85 26 86 27 93 28 87 29 89 30 88 31 90 32 91 33 92 34
REMARK SMILES IDX 17 35 18 36 19 37 20 38 21 39 22 40 23 41 24 42 82 43 25 44
REMARK SMILES IDX 81 45 26 46 27 47 28 48 75 49 29 50 80 51 74 52 76 53 30 54
REMARK SMILES IDX 79 55 73 56 72 57 31 59 61 60 42 61 60 62 43 63 46 64 59 65
REMARK SMILES IDX 77 66 44 67 45 68 58 70 78 71 47 72 32 73 33 74 41 75 34 76
REMARK SMILES IDX 40 77 35 78 36 79 37 80 38 81 39 82 62 83 63 84 71 85 64 86
REMARK SMILES IDX 70 87 65 88 66 89 67 90 68 91 69 92 48 93 49 94 57 95 50 96
REMARK SMILES IDX 56 97 51 98 52 99 53 100 54 101 55 102
REMARK H PARENT 94 18 76 58 46 69
REMARK Flexibility Score: inf
ROOT
ATOM      1  C   UNL     1      -7.021  -0.156  -6.928  1.00  0.00     0.188 C 
ENDROOT
BRANCH   1   2
ATOM      2  C   UNL     1      -7.451   1.157  -6.277  1.00  0.00     0.188 C 
BRANCH   2   3
ATOM      3  O   UNL     1      -6.616   2.334  -6.211  1.00  0.00    -0.376 OA
BRANCH   3   4
ATOM      4  C   UNL     1      -5.181   2.410  -6.050  1.00  0.00     0.202 C 
BRANCH   4   5
ATOM      5  C   UNL     1      -4.090   2.467  -4.620  1.00  0.00     0.261 C 
BRANCH   5   6
ATOM      6  O   UNL     1      -4.116   1.564  -2.987  1.00  0.00    -0.460 OA
BRANCH   6   7
ATOM      7  C   UNL     1      -4.972   1.431  -1.635  1.00  0.00     0.339 C 
ATOM      8  O   UNL     1      -5.863   2.159  -1.187  1.00  0.00    -0.246 OA
BRANCH   7   9
ATOM      9  C   UNL     1      -4.784   0.347  -0.682  1.00  0.00     0.075 A 
ATOM     10  C   UNL     1      -2.938  -0.407   0.681  1.00  0.00     0.074 A 
ATOM     11  C   UNL     1      -3.437   0.294  -0.406  1.00  0.00     0.045 A 
ATOM     12  N   UNL     1      -3.635  -1.175   1.540  1.00  0.00    -0.226 NA
ATOM     13  C   UNL     1      -4.974  -1.149   1.344  1.00  0.00     0.182 A 
ATOM     14  C   UNL     1      -5.654  -0.378   0.282  1.00  0.00     0.061 A 
ATOM     15  N   UNL     1      -5.798  -1.827   2.128  1.00  0.00    -0.154 NA
ATOM     16  C   UNL     1      -7.038  -0.620   0.598  1.00  0.00     0.076 A 
ATOM     17  N   UNL     1      -6.988  -1.507   1.665  1.00  0.00    -0.275 N 
ATOM     18  H   UNL     1      -7.809  -1.881   2.058  1.00  0.00     0.190 HD
BRANCH  10  19
ATOM     19  C   UNL     1      -1.494  -0.366   0.820  1.00  0.00     0.000 A 
ATOM     20  C   UNL     1       2.690  -0.166  -0.042  1.00  0.00     0.044 C 
ATOM     21  C   UNL     1       1.241  -0.227   0.320  1.00  0.00    -0.051 A 
ATOM     22  C   UNL     1       0.589  -1.468   0.347  1.00  0.00     0.004 A 
ATOM     23  C   UNL     1       0.534   0.942   0.615  1.00  0.00     0.004 A 
ATOM     24  C   UNL     1      -0.772  -1.538   0.601  1.00  0.00     0.010 A 
ATOM     25  C   UNL     1      -0.827   0.872   0.876  1.00  0.00     0.010 A 
ENDBRANCH  10  19
BRANCH  16  26
ATOM     26  C   UNL     1      -8.486  -0.310   0.311  1.00  0.00     0.007 A 
ATOM     27  C   UNL     1      -9.091   0.846   0.845  1.00  0.00     0.011 A 
ATOM     28  C   UNL     1      -9.391  -1.331  -0.126  1.00  0.00     0.096 A 
ATOM     29  C   UNL     1     -10.498   1.034   0.840  1.00  0.00     0.008 A 
ATOM     30  C   UNL     1     -10.798  -1.105  -0.178  1.00  0.00     0.270 A 
ATOM     31  C   UNL     1     -11.354   0.082   0.294  1.00  0.00     0.085 A 
BRANCH  30  32
ATOM     32  N   UNL     1     -11.724  -2.099  -0.740  1.00  0.00     0.062 N 
ATOM     33  O   UNL     1     -11.577  -3.270  -0.363  1.00  0.00    -0.258 OA
ATOM     34  O   UNL     1     -12.673  -1.673  -1.417  1.00  0.00    -0.258 OA
ENDBRANCH  30  32
ENDBRANCH  16  26
ENDBRANCH   7   9
ENDBRANCH   6   7
ENDBRANCH   5   6
ENDBRANCH   4   5
ENDBRANCH   3   4
ENDBRANCH   2   3
ENDBRANCH   1   2
BRANCH   1  35
ATOM     35  O   UNL     1      -5.622  -0.223  -7.124  1.00  0.00    -0.376 OA
BRANCH  35  36
ATOM     36  C   UNL     1      -5.134  -1.402  -7.742  1.00  0.00     0.202 C 
BRANCH  36  37
ATOM     37  C   UNL     1      -5.587  -2.765  -7.161  1.00  0.00     0.261 C 
BRANCH  37  38
ATOM     38  O   UNL     1      -4.831  -3.273  -6.022  1.00  0.00    -0.460 OA
BRANCH  38  39
ATOM     39  C   UNL     1      -5.416  -3.355  -4.760  1.00  0.00     0.338 C 
ATOM     40  O   UNL     1      -5.467  -4.380  -4.128  1.00  0.00    -0.246 OA
BRANCH  39  41
ATOM     41  C   UNL     1      -5.600  -2.001  -4.162  1.00  0.00     0.060 A 
ATOM     42  C   UNL     1      -6.543  -1.497  -3.265  1.00  0.00     0.016 A 
ATOM     43  C   UNL     1      -4.689  -1.115  -4.581  1.00  0.00     0.016 A 
ATOM     44  C   UNL     1      -6.755  -0.052  -3.065  1.00  0.00     0.010 A 
ATOM     45  C   UNL     1      -5.061   0.217  -4.535  1.00  0.00     0.010 A 
ATOM     46  C   UNL     1      -6.099   0.945  -3.784  1.00  0.00    -0.014 A 
BRANCH  46  47
ATOM     47  C   UNL     1      -6.162   2.755  -3.457  1.00  0.00     0.031 A 
ATOM     48  C   UNL     1      -4.907   3.824  -2.621  1.00  0.00     0.074 A 
ATOM     49  C   UNL     1      -7.235   3.510  -3.781  1.00  0.00     0.049 A 
ATOM     50  N   UNL     1      -5.142   4.864  -1.853  1.00  0.00    -0.248 NA
ATOM     51  C   UNL     1      -3.352   3.635  -2.530  1.00  0.00     0.031 C 
ATOM     52  C   UNL     1      -7.359   4.968  -3.737  1.00  0.00     0.029 A 
ATOM     53  N   UNL     1      -8.502   3.100  -4.175  1.00  0.00    -0.354 N 
ATOM     54  C   UNL     1      -3.902   5.446  -1.488  1.00  0.00     0.074 A 
ATOM     55  C   UNL     1      -2.901   4.481  -1.640  1.00  0.00     0.031 C 
ATOM     56  C   UNL     1      -8.664   5.292  -3.757  1.00  0.00     0.029 A 
ATOM     57  C   UNL     1      -9.406   4.050  -3.672  1.00  0.00     0.049 A 
ATOM     58  H   UNL     1      -8.723   2.299  -4.704  1.00  0.00     0.167 HD
ATOM     59  C   UNL     1      -3.717   6.788  -1.365  1.00  0.00     0.031 A 
ATOM     60  C   UNL     1     -10.258   3.688  -2.667  1.00  0.00     0.031 A 
ATOM     61  C   UNL     1      -5.011   7.401  -1.245  1.00  0.00     0.049 A 
ATOM     62  C   UNL     1      -9.995   4.483  -1.366  1.00  0.00     0.074 A 
ATOM     63  C   UNL     1      -5.837   8.095  -2.105  1.00  0.00     0.029 A 
ATOM     64  N   UNL     1      -5.806   6.925  -0.218  1.00  0.00    -0.354 N 
ATOM     65  N   UNL     1      -8.996   5.309  -1.172  1.00  0.00    -0.248 NA
ATOM     66  C   UNL     1     -10.855   4.436  -0.182  1.00  0.00     0.031 C 
ATOM     67  C   UNL     1      -7.170   7.948  -1.620  1.00  0.00     0.029 A 
ATOM     68  C   UNL     1      -7.132   7.201  -0.456  1.00  0.00     0.049 A 
ATOM     69  H   UNL     1      -5.468   6.451   0.576  1.00  0.00     0.167 HD
ATOM     70  C   UNL     1      -9.038   5.862   0.091  1.00  0.00     0.074 A 
ATOM     71  C   UNL     1     -10.232   5.277   0.669  1.00  0.00     0.031 C 
ATOM     72  C   UNL     1      -8.095   6.755   0.541  1.00  0.00     0.031 A 
BRANCH  59  73
ATOM     73  C   UNL     1      -2.390   7.495  -1.693  1.00  0.00    -0.014 A 
ATOM     74  C   UNL     1      -2.425   8.828  -2.141  1.00  0.00     0.010 A 
ATOM     75  C   UNL     1      -1.098   6.910  -1.697  1.00  0.00     0.010 A 
ATOM     76  C   UNL     1      -1.284   9.491  -2.642  1.00  0.00     0.020 A 
ATOM     77  C   UNL     1       0.042   7.536  -2.236  1.00  0.00     0.020 A 
ATOM     78  C   UNL     1      -0.059   8.831  -2.712  1.00  0.00     0.054 A 
BRANCH  78  79
ATOM     79  S   UNL     1       1.388   9.673  -3.407  1.00  0.00     0.124 S 
ATOM     80  O   UNL     1       0.902  10.118  -4.710  1.00  0.00    -0.237 OA
ATOM     81  O   UNL     1       1.633  10.728  -2.429  1.00  0.00    -0.237 OA
ATOM     82  O   UNL     1       2.409   8.627  -3.459  1.00  0.00    -0.744 OA
ENDBRANCH  78  79
ENDBRANCH  59  73
BRANCH  60  83
ATOM     83  C   UNL     1     -10.655   2.232  -2.825  1.00  0.00    -0.014 A 
ATOM     84  C   UNL     1     -11.544   1.802  -3.843  1.00  0.00     0.010 A 
ATOM     85  C   UNL     1      -9.784   1.257  -2.350  1.00  0.00     0.010 A 
ATOM     86  C   UNL     1     -11.513   0.485  -4.387  1.00  0.00     0.020 A 
ATOM     87  C   UNL     1      -9.776  -0.054  -2.877  1.00  0.00     0.020 A 
ATOM     88  C   UNL     1     -10.605  -0.443  -3.906  1.00  0.00     0.054 A 
BRANCH  88  89
ATOM     89  S   UNL     1     -10.343  -2.071  -4.692  1.00  0.00     0.124 S 
ATOM     90  O   UNL     1     -11.345  -2.901  -4.040  1.00  0.00    -0.237 OA
ATOM     91  O   UNL     1     -10.548  -1.788  -6.109  1.00  0.00    -0.237 OA
ATOM     92  O   UNL     1      -8.966  -2.416  -4.356  1.00  0.00    -0.744 OA
ENDBRANCH  88  89
ENDBRANCH  60  83
BRANCH  72  93
ATOM     93  C   UNL     1      -7.902   7.358   1.941  1.00  0.00    -0.014 A 
ATOM     94  C   UNL     1      -8.552   6.955   3.112  1.00  0.00     0.010 A 
ATOM     95  C   UNL     1      -6.908   8.372   2.109  1.00  0.00     0.010 A 
ATOM     96  C   UNL     1      -8.264   7.563   4.355  1.00  0.00     0.020 A 
ATOM     97  C   UNL     1      -6.565   8.932   3.340  1.00  0.00     0.020 A 
ATOM     98  C   UNL     1      -7.280   8.551   4.458  1.00  0.00     0.054 A 
BRANCH  98  99
ATOM     99  S   UNL     1      -6.932   9.345   6.047  1.00  0.00     0.124 S 
ATOM    100  O   UNL     1      -7.989  10.350   6.114  1.00  0.00    -0.237 OA
ATOM    101  O   UNL     1      -7.053   8.241   6.996  1.00  0.00    -0.237 OA
ATOM    102  O   UNL     1      -5.579   9.872   5.885  1.00  0.00    -0.744 OA
ENDBRANCH  98  99
ENDBRANCH  72  93
ENDBRANCH  46  47
ENDBRANCH  39  41
ENDBRANCH  38  39
ENDBRANCH  37  38
ENDBRANCH  36  37
ENDBRANCH  35  36
ENDBRANCH   1  35
TORSDOF 23
