REMARK SMILES Cc1cccc(OC2(C(=O)OCCOCCOCCOC(=O)c3ccc(-c4c5nc(c(-c6ccc(S(=O)(=O)[O-])cc6)c6ccc([nH]6)c(-c6ccc(S(=O)(=O)[O-])cc6)c6nc(c(-c7ccc(S(=O)(=O)[O-])cc7)c7ccc4[nH]7)C=C6)C=C5)cc3)CCN(C(=O)c3cnc[nH]c3=O)CC2)c1
REMARK SMILES IDX 16 1 15 2 14 3 13 4 12 5 11 6 9 7 10 8 8 9 83 10 96 11 84 12
REMARK SMILES IDX 95 13 85 14 86 15 87 16 7 17 6 18 1 19 2 20 3 21 97 22 4 23
REMARK SMILES IDX 5 24 88 25 89 26 93 27 90 28 92 29 94 30 91 31 17 33 18 34
REMARK SMILES IDX 19 35 20 36 21 37 22 38 23 39 24 40 82 41 25 42 81 43 26 44
REMARK SMILES IDX 27 45 28 46 75 47 29 48 80 49 74 50 76 51 30 52 79 53 73 54
REMARK SMILES IDX 72 55 31 57 61 58 42 59 60 60 43 61 46 62 59 63 77 64 44 65
REMARK SMILES IDX 45 66 58 68 78 69 47 70 32 71 33 72 41 73 34 74 40 75 35 76
REMARK SMILES IDX 36 77 37 78 38 79 39 80 62 81 63 82 71 83 64 84 70 85 65 86
REMARK SMILES IDX 66 87 67 88 68 89 69 90 48 91 49 92 57 93 50 94 56 95 51 96
REMARK SMILES IDX 52 97 53 98 54 99 55 100
REMARK H PARENT 92 32 76 56 46 67
REMARK Flexibility Score: inf
ROOT
ATOM      1  C   UNL     1       2.058   2.637  -5.576  1.00  0.00     0.188 C 
ENDROOT
BRANCH   1   2
ATOM      2  C   UNL     1       0.625   3.148  -5.384  1.00  0.00     0.188 C 
BRANCH   2   3
ATOM      3  O   UNL     1       0.236   4.518  -5.149  1.00  0.00    -0.376 OA
BRANCH   3   4
ATOM      4  C   UNL     1       1.000   5.514  -4.444  1.00  0.00     0.202 C 
BRANCH   4   5
ATOM      5  C   UNL     1       0.627   6.240  -2.925  1.00  0.00     0.261 C 
BRANCH   5   6
ATOM      6  O   UNL     1       0.596   5.531  -1.273  1.00  0.00    -0.460 OA
BRANCH   6   7
ATOM      7  C   UNL     1      -0.301   4.987  -0.232  1.00  0.00     0.350 C 
ATOM      8  O   UNL     1      -1.533   5.086  -0.168  1.00  0.00    -0.247 OA
BRANCH   7   9
ATOM      9  C   UNL     1       0.204   4.091   0.913  1.00  0.00     0.209 C 
ATOM     10  C   UNL     1       1.710   4.210   0.970  1.00  0.00     0.082 C 
ATOM     11  C   UNL     1      -0.598   4.567   2.174  1.00  0.00     0.082 C 
ATOM     12  C   UNL     1       2.288   4.137   2.365  1.00  0.00     0.124 C 
ATOM     13  C   UNL     1       0.114   4.219   3.455  1.00  0.00     0.124 C 
ATOM     14  N   UNL     1       1.442   4.795   3.334  1.00  0.00    -0.338 N 
ATOM     15  C   UNL     1       1.706   6.093   3.738  1.00  0.00     0.261 C 
ATOM     16  O   UNL     1       2.384   6.890   3.100  1.00  0.00    -0.269 OA
BRANCH   9  17
ATOM     17  O   UNL     1      -0.431   2.835   0.552  1.00  0.00    -0.475 OA
BRANCH  17  18
ATOM     18  C   UNL     1      -0.318   1.598   1.100  1.00  0.00     0.121 A 
ATOM     19  C   UNL     1       2.318  -1.101   1.315  1.00  0.00     0.044 C 
ATOM     20  C   UNL     1       0.981  -0.425   1.384  1.00  0.00    -0.047 A 
ATOM     21  C   UNL     1      -0.187  -1.194   1.374  1.00  0.00     0.003 A 
ATOM     22  C   UNL     1       0.903   0.973   1.284  1.00  0.00     0.050 A 
ATOM     23  C   UNL     1      -1.427  -0.572   1.266  1.00  0.00     0.004 A 
ATOM     24  C   UNL     1      -1.489   0.818   1.115  1.00  0.00     0.046 A 
ENDBRANCH  17  18
ENDBRANCH   9  17
BRANCH  15  25
ATOM     25  C   UNL     1       1.144   6.436   5.057  1.00  0.00     0.123 A 
ATOM     26  C   UNL     1       0.316   7.476   5.226  1.00  0.00     0.132 A 
ATOM     27  C   UNL     1       1.421   5.591   6.235  1.00  0.00     0.263 A 
ATOM     28  N   UNL     1      -0.311   7.795   6.410  1.00  0.00    -0.246 NA
ATOM     29  N   UNL     1       0.725   5.919   7.360  1.00  0.00    -0.312 N 
ATOM     30  O   UNL     1       2.220   4.661   6.235  1.00  0.00    -0.269 OA
ATOM     31  C   UNL     1      -0.096   7.005   7.407  1.00  0.00     0.199 A 
ATOM     32  H   UNL     1       0.817   5.355   8.161  1.00  0.00     0.171 HD
ENDBRANCH  15  25
ENDBRANCH   7   9
ENDBRANCH   6   7
ENDBRANCH   5   6
ENDBRANCH   4   5
ENDBRANCH   3   4
ENDBRANCH   2   3
ENDBRANCH   1   2
BRANCH   1  33
ATOM     33  O   UNL     1       3.009   3.398  -4.858  1.00  0.00    -0.376 OA
BRANCH  33  34
ATOM     34  C   UNL     1       4.339   2.906  -4.893  1.00  0.00     0.202 C 
BRANCH  34  35
ATOM     35  C   UNL     1       4.576   1.550  -4.191  1.00  0.00     0.261 C 
BRANCH  35  36
ATOM     36  O   UNL     1       4.535   1.597  -2.742  1.00  0.00    -0.460 OA
BRANCH  36  37
ATOM     37  C   UNL     1       3.550   0.895  -2.070  1.00  0.00     0.338 C 
ATOM     38  O   UNL     1       3.834   0.019  -1.261  1.00  0.00    -0.246 OA
BRANCH  37  39
ATOM     39  C   UNL     1       2.226   1.580  -2.119  1.00  0.00     0.060 A 
ATOM     40  C   UNL     1       0.904   1.121  -2.027  1.00  0.00     0.016 A 
ATOM     41  C   UNL     1       2.339   2.915  -2.205  1.00  0.00     0.016 A 
ATOM     42  C   UNL     1      -0.285   2.007  -2.166  1.00  0.00     0.010 A 
ATOM     43  C   UNL     1       1.199   3.670  -2.438  1.00  0.00     0.010 A 
ATOM     44  C   UNL     1      -0.205   3.385  -2.410  1.00  0.00    -0.014 A 
BRANCH  44  45
ATOM     45  C   UNL     1      -1.496   4.482  -2.758  1.00  0.00     0.031 A 
ATOM     46  C   UNL     1      -2.048   6.057  -2.124  1.00  0.00     0.074 A 
ATOM     47  C   UNL     1      -2.286   4.111  -3.790  1.00  0.00     0.049 A 
ATOM     48  N   UNL     1      -3.305   6.469  -2.076  1.00  0.00    -0.248 NA
ATOM     49  C   UNL     1      -1.255   7.163  -1.390  1.00  0.00     0.031 C 
ATOM     50  C   UNL     1      -3.205   4.957  -4.546  1.00  0.00     0.029 A 
ATOM     51  N   UNL     1      -2.452   2.847  -4.352  1.00  0.00    -0.354 N 
ATOM     52  C   UNL     1      -3.346   7.759  -1.484  1.00  0.00     0.074 A 
ATOM     53  C   UNL     1      -2.116   7.995  -0.859  1.00  0.00     0.031 C 
ATOM     54  C   UNL     1      -3.991   4.176  -5.303  1.00  0.00     0.029 A 
ATOM     55  C   UNL     1      -3.726   2.801  -4.923  1.00  0.00     0.049 A 
ATOM     56  H   UNL     1      -1.791   2.118  -4.348  1.00  0.00     0.167 HD
ATOM     57  C   UNL     1      -4.272   8.727  -1.726  1.00  0.00     0.031 A 
ATOM     58  C   UNL     1      -4.643   1.893  -4.490  1.00  0.00     0.031 A 
ATOM     59  C   UNL     1      -5.275   8.194  -2.595  1.00  0.00     0.049 A 
ATOM     60  C   UNL     1      -5.886   2.559  -3.947  1.00  0.00     0.074 A 
ATOM     61  C   UNL     1      -5.399   8.165  -3.970  1.00  0.00     0.029 A 
ATOM     62  N   UNL     1      -6.066   7.187  -2.085  1.00  0.00    -0.354 N 
ATOM     63  N   UNL     1      -5.956   3.829  -3.647  1.00  0.00    -0.248 NA
ATOM     64  C   UNL     1      -7.155   1.875  -3.725  1.00  0.00     0.031 C 
ATOM     65  C   UNL     1      -6.225   7.054  -4.290  1.00  0.00     0.029 A 
ATOM     66  C   UNL     1      -6.635   6.463  -3.107  1.00  0.00     0.049 A 
ATOM     67  H   UNL     1      -6.203   7.011  -1.126  1.00  0.00     0.167 HD
ATOM     68  C   UNL     1      -7.205   4.133  -3.184  1.00  0.00     0.074 A 
ATOM     69  C   UNL     1      -7.927   2.879  -3.268  1.00  0.00     0.031 C 
ATOM     70  C   UNL     1      -7.540   5.384  -2.756  1.00  0.00     0.031 A 
BRANCH  57  71
ATOM     71  C   UNL     1      -3.994  10.213  -1.456  1.00  0.00    -0.014 A 
ATOM     72  C   UNL     1      -4.390  11.170  -2.407  1.00  0.00     0.010 A 
ATOM     73  C   UNL     1      -3.267  10.723  -0.349  1.00  0.00     0.010 A 
ATOM     74  C   UNL     1      -3.994  12.520  -2.323  1.00  0.00     0.020 A 
ATOM     75  C   UNL     1      -2.800  12.052  -0.289  1.00  0.00     0.020 A 
ATOM     76  C   UNL     1      -3.171  12.948  -1.283  1.00  0.00     0.054 A 
BRANCH  76  77
ATOM     77  S   UNL     1      -2.599  14.673  -1.249  1.00  0.00     0.124 S 
ATOM     78  O   UNL     1      -2.125  14.884  -2.615  1.00  0.00    -0.237 OA
ATOM     79  O   UNL     1      -3.815  15.396  -0.888  1.00  0.00    -0.237 OA
ATOM     80  O   UNL     1      -1.549  14.674  -0.231  1.00  0.00    -0.744 OA
ENDBRANCH  76  77
ENDBRANCH  57  71
BRANCH  58  81
ATOM     81  C   UNL     1      -4.039   0.576  -4.103  1.00  0.00    -0.014 A 
ATOM     82  C   UNL     1      -3.514  -0.216  -5.152  1.00  0.00     0.010 A 
ATOM     83  C   UNL     1      -3.584   0.315  -2.796  1.00  0.00     0.010 A 
ATOM     84  C   UNL     1      -2.474  -1.129  -4.929  1.00  0.00     0.020 A 
ATOM     85  C   UNL     1      -2.551  -0.623  -2.567  1.00  0.00     0.020 A 
ATOM     86  C   UNL     1      -1.964  -1.294  -3.643  1.00  0.00     0.054 A 
BRANCH  86  87
ATOM     87  S   UNL     1      -0.414  -2.238  -3.462  1.00  0.00     0.124 S 
ATOM     88  O   UNL     1      -0.817  -3.585  -3.855  1.00  0.00    -0.237 OA
ATOM     89  O   UNL     1       0.478  -1.550  -4.397  1.00  0.00    -0.237 OA
ATOM     90  O   UNL     1      -0.065  -2.088  -2.054  1.00  0.00    -0.744 OA
ENDBRANCH  86  87
ENDBRANCH  58  81
BRANCH  70  91
ATOM     91  C   UNL     1      -8.761   5.752  -1.946  1.00  0.00    -0.014 A 
ATOM     92  C   UNL     1      -9.494   4.833  -1.186  1.00  0.00     0.010 A 
ATOM     93  C   UNL     1      -9.098   7.123  -1.797  1.00  0.00     0.010 A 
ATOM     94  C   UNL     1     -10.557   5.251  -0.377  1.00  0.00     0.020 A 
ATOM     95  C   UNL     1     -10.107   7.557  -0.941  1.00  0.00     0.020 A 
ATOM     96  C   UNL     1     -10.860   6.609  -0.264  1.00  0.00     0.054 A 
BRANCH  96  97
ATOM     97  S   UNL     1     -12.222   7.146   0.795  1.00  0.00     0.124 S 
ATOM     98  O   UNL     1     -13.342   7.148  -0.142  1.00  0.00    -0.237 OA
ATOM     99  O   UNL     1     -12.269   6.110   1.825  1.00  0.00    -0.237 OA
ATOM    100  O   UNL     1     -11.791   8.461   1.264  1.00  0.00    -0.744 OA
ENDBRANCH  96  97
ENDBRANCH  70  91
ENDBRANCH  44  45
ENDBRANCH  37  39
ENDBRANCH  36  37
ENDBRANCH  35  36
ENDBRANCH  34  35
ENDBRANCH  33  34
ENDBRANCH   1  33
TORSDOF 23
