REMARK SMILES CC(=O)N1CCN(C(=O)c2ccc(=O)n(CCC(=O)OCCOCCOCCOC(=O)c3ccc(-c4c5nc(c(-c6ccc(S(=O)(=O)[O-])cc6)c6ccc([nH]6)c(-c6ccc(S(=O)(=O)[O-])cc6)c6nc(c(-c7ccc(S(=O)(=O)[O-])cc7)c7ccc4[nH]7)C=C6)C=C5)cc3)n2)CC1
REMARK SMILES IDX 24 1 23 2 22 3 21 4 20 5 18 6 19 7 17 8 16 9 15 10 10 11
REMARK SMILES IDX 11 12 92 13 12 14 13 15 14 16 8 17 1 18 2 19 3 20 4 21 5 22
REMARK SMILES IDX 94 23 6 24 93 25 7 26 9 27 25 28 26 29 27 30 28 31 29 32
REMARK SMILES IDX 30 33 31 34 32 35 33 36 91 37 34 38 90 39 35 40 36 41 37 42
REMARK SMILES IDX 84 43 38 44 89 45 83 46 85 47 39 48 88 49 82 50 81 51 40 53
REMARK SMILES IDX 70 54 51 55 69 56 52 57 55 58 68 59 86 60 53 61 54 62 67 64
REMARK SMILES IDX 87 65 56 66 41 67 42 68 50 69 43 70 49 71 44 72 45 73 46 74
REMARK SMILES IDX 47 75 48 76 71 77 72 78 80 79 73 80 79 81 74 82 75 83 76 84
REMARK SMILES IDX 77 85 78 86 57 87 58 88 66 89 59 90 65 91 60 92 61 93 62 94
REMARK SMILES IDX 63 95 64 96
REMARK H PARENT 85 52 55 63
REMARK Flexibility Score: inf
ROOT
ATOM      1  C   UNL     1       8.629   8.017   2.770  1.00  0.00     0.188 C 
ENDROOT
BRANCH   1   2
ATOM      2  O   UNL     1       9.027   8.903   3.804  1.00  0.00    -0.376 OA
BRANCH   2   3
ATOM      3  C   UNL     1       7.934   9.455   4.539  1.00  0.00     0.202 C 
BRANCH   3   4
ATOM      4  C   UNL     1       7.085  10.504   3.784  1.00  0.00     0.261 C 
BRANCH   4   5
ATOM      5  O   UNL     1       6.212   9.950   2.768  1.00  0.00    -0.463 OA
BRANCH   5   6
ATOM      6  C   UNL     1       6.645   9.986   1.484  1.00  0.00     0.307 C 
ATOM      7  O   UNL     1       7.625  10.613   1.101  1.00  0.00    -0.252 OA
BRANCH   6   8
ATOM      8  C   UNL     1       5.792   9.157   0.542  1.00  0.00     0.146 C 
BRANCH   8   9
ATOM      9  C   UNL     1       5.531   7.689   0.899  1.00  0.00     0.160 C 
BRANCH   9  10
ATOM     10  N   UNL     1       4.396   7.447   1.797  1.00  0.00    -0.229 N 
ATOM     11  C   UNL     1       2.218   6.781   1.947  1.00  0.00     0.149 A 
ATOM     12  C   UNL     1       2.178   6.932   3.408  1.00  0.00     0.042 A 
ATOM     13  N   UNL     1       3.224   7.044   1.175  1.00  0.00    -0.164 NA
ATOM     14  C   UNL     1       3.327   7.265   3.985  1.00  0.00     0.076 A 
ATOM     15  C   UNL     1       4.546   7.456   3.180  1.00  0.00     0.266 A 
ATOM     16  O   UNL     1       5.587   7.615   3.803  1.00  0.00    -0.268 OA
BRANCH  11  17
ATOM     17  C   UNL     1       0.936   6.269   1.342  1.00  0.00     0.274 C 
ATOM     18  C   UNL     1       1.243   0.062  -0.079  1.00  0.00     0.114 C 
ATOM     19  C   UNL     1       0.343   1.165  -0.565  1.00  0.00     0.219 C 
ATOM     20  O   UNL     1      -0.712   0.886  -1.137  1.00  0.00    -0.275 OA
ATOM     21  N   UNL     1       0.710   2.467  -0.280  1.00  0.00    -0.339 N 
ATOM     22  C   UNL     1      -0.245   3.545  -0.557  1.00  0.00     0.141 C 
ATOM     23  C   UNL     1       2.008   2.919   0.253  1.00  0.00     0.141 C 
ATOM     24  C   UNL     1      -0.470   4.369   0.711  1.00  0.00     0.141 C 
ATOM     25  C   UNL     1       1.845   3.885   1.448  1.00  0.00     0.141 C 
ATOM     26  N   UNL     1       0.803   4.897   1.198  1.00  0.00    -0.334 N 
ATOM     27  O   UNL     1       0.063   7.094   1.100  1.00  0.00    -0.267 OA
ENDBRANCH  11  17
ENDBRANCH   9  10
ENDBRANCH   8   9
ENDBRANCH   6   8
ENDBRANCH   5   6
ENDBRANCH   4   5
ENDBRANCH   3   4
ENDBRANCH   2   3
ENDBRANCH   1   2
BRANCH   1  28
ATOM     28  C   UNL     1       8.870   6.558   3.078  1.00  0.00     0.188 C 
BRANCH  28  29
ATOM     29  O   UNL     1       7.795   5.880   3.734  1.00  0.00    -0.376 OA
BRANCH  29  30
ATOM     30  C   UNL     1       8.028   5.608   5.110  1.00  0.00     0.202 C 
BRANCH  30  31
ATOM     31  C   UNL     1       8.951   4.402   5.385  1.00  0.00     0.261 C 
BRANCH  31  32
ATOM     32  O   UNL     1      10.132   4.384   4.566  1.00  0.00    -0.460 OA
BRANCH  32  33
ATOM     33  C   UNL     1      10.005   3.757   3.359  1.00  0.00     0.338 C 
ATOM     34  O   UNL     1       9.092   3.036   3.010  1.00  0.00    -0.246 OA
BRANCH  33  35
ATOM     35  C   UNL     1      11.041   4.304   2.434  1.00  0.00     0.060 A 
ATOM     36  C   UNL     1      12.311   4.668   2.887  1.00  0.00     0.016 A 
ATOM     37  C   UNL     1      10.678   4.568   1.102  1.00  0.00     0.016 A 
ATOM     38  C   UNL     1      13.214   5.277   2.009  1.00  0.00     0.010 A 
ATOM     39  C   UNL     1      11.570   5.206   0.233  1.00  0.00     0.010 A 
ATOM     40  C   UNL     1      12.858   5.539   0.672  1.00  0.00    -0.014 A 
BRANCH  40  41
ATOM     41  C   UNL     1      13.914   5.892  -0.311  1.00  0.00     0.031 A 
ATOM     42  C   UNL     1      14.149   7.287  -0.809  1.00  0.00     0.074 A 
ATOM     43  C   UNL     1      14.680   4.878  -0.760  1.00  0.00     0.049 A 
ATOM     44  N   UNL     1      15.123   7.721  -1.569  1.00  0.00    -0.248 NA
ATOM     45  C   UNL     1      13.178   8.320  -0.426  1.00  0.00     0.031 C 
ATOM     46  C   UNL     1      14.509   3.477  -0.367  1.00  0.00     0.029 A 
ATOM     47  N   UNL     1      15.751   4.858  -1.616  1.00  0.00    -0.354 N 
ATOM     48  C   UNL     1      14.904   9.083  -1.738  1.00  0.00     0.074 A 
ATOM     49  C   UNL     1      13.673   9.393  -1.038  1.00  0.00     0.031 C 
ATOM     50  C   UNL     1      15.465   2.741  -0.949  1.00  0.00     0.029 A 
ATOM     51  C   UNL     1      16.296   3.607  -1.779  1.00  0.00     0.049 A 
ATOM     52  H   UNL     1      16.095   5.662  -2.069  1.00  0.00     0.167 HD
ATOM     53  C   UNL     1      15.673   9.982  -2.401  1.00  0.00     0.031 A 
ATOM     54  C   UNL     1      17.355   3.191  -2.502  1.00  0.00     0.031 A 
ATOM     55  C   UNL     1      16.887   9.644  -3.110  1.00  0.00     0.049 A 
ATOM     56  C   UNL     1      18.175   4.203  -3.247  1.00  0.00     0.074 A 
ATOM     57  C   UNL     1      17.765  10.500  -3.755  1.00  0.00     0.029 A 
ATOM     58  N   UNL     1      17.390   8.362  -3.284  1.00  0.00    -0.354 N 
ATOM     59  N   UNL     1      18.019   5.504  -3.299  1.00  0.00    -0.248 NA
ATOM     60  C   UNL     1      19.325   3.702  -4.011  1.00  0.00     0.031 C 
ATOM     61  C   UNL     1      18.742   9.732  -4.392  1.00  0.00     0.029 A 
ATOM     62  C   UNL     1      18.535   8.402  -4.066  1.00  0.00     0.049 A 
ATOM     63  H   UNL     1      16.992   7.544  -2.908  1.00  0.00     0.167 HD
ATOM     64  C   UNL     1      19.060   5.980  -4.086  1.00  0.00     0.074 A 
ATOM     65  C   UNL     1      19.854   4.830  -4.469  1.00  0.00     0.031 C 
ATOM     66  C   UNL     1      19.326   7.257  -4.455  1.00  0.00     0.031 A 
BRANCH  53  67
ATOM     67  C   UNL     1      15.268  11.439  -2.392  1.00  0.00    -0.014 A 
ATOM     68  C   UNL     1      14.964  12.094  -3.603  1.00  0.00     0.010 A 
ATOM     69  C   UNL     1      15.361  12.204  -1.215  1.00  0.00     0.010 A 
ATOM     70  C   UNL     1      14.805  13.483  -3.644  1.00  0.00     0.020 A 
ATOM     71  C   UNL     1      15.172  13.590  -1.247  1.00  0.00     0.020 A 
ATOM     72  C   UNL     1      14.922  14.225  -2.466  1.00  0.00     0.054 A 
BRANCH  72  73
ATOM     73  S   UNL     1      14.765  16.032  -2.548  1.00  0.00     0.124 S 
ATOM     74  O   UNL     1      16.009  16.422  -3.204  1.00  0.00    -0.237 OA
ATOM     75  O   UNL     1      13.550  16.210  -3.340  1.00  0.00    -0.237 OA
ATOM     76  O   UNL     1      14.648  16.430  -1.146  1.00  0.00    -0.744 OA
ENDBRANCH  72  73
ENDBRANCH  53  67
BRANCH  54  77
ATOM     77  C   UNL     1      17.708   1.745  -2.484  1.00  0.00    -0.014 A 
ATOM     78  C   UNL     1      16.828   0.793  -3.034  1.00  0.00     0.010 A 
ATOM     79  C   UNL     1      18.863   1.301  -1.817  1.00  0.00     0.010 A 
ATOM     80  C   UNL     1      17.058  -0.573  -2.858  1.00  0.00     0.020 A 
ATOM     81  C   UNL     1      19.117  -0.066  -1.671  1.00  0.00     0.020 A 
ATOM     82  C   UNL     1      18.195  -0.993  -2.163  1.00  0.00     0.054 A 
BRANCH  82  83
ATOM     83  S   UNL     1      18.434  -2.769  -1.886  1.00  0.00     0.124 S 
ATOM     84  O   UNL     1      17.424  -3.051  -0.869  1.00  0.00    -0.237 OA
ATOM     85  O   UNL     1      18.172  -3.335  -3.207  1.00  0.00    -0.237 OA
ATOM     86  O   UNL     1      19.819  -2.863  -1.434  1.00  0.00    -0.744 OA
ENDBRANCH  82  83
ENDBRANCH  54  77
BRANCH  66  87
ATOM     87  C   UNL     1      20.525   7.514  -5.337  1.00  0.00    -0.014 A 
ATOM     88  C   UNL     1      21.595   8.293  -4.856  1.00  0.00     0.010 A 
ATOM     89  C   UNL     1      20.529   7.114  -6.686  1.00  0.00     0.010 A 
ATOM     90  C   UNL     1      22.614   8.713  -5.715  1.00  0.00     0.020 A 
ATOM     91  C   UNL     1      21.566   7.502  -7.541  1.00  0.00     0.020 A 
ATOM     92  C   UNL     1      22.584   8.326  -7.057  1.00  0.00     0.054 A 
BRANCH  92  93
ATOM     93  S   UNL     1      23.879   8.938  -8.171  1.00  0.00     0.124 S 
ATOM     94  O   UNL     1      23.514  10.343  -8.325  1.00  0.00    -0.237 OA
ATOM     95  O   UNL     1      25.101   8.684  -7.412  1.00  0.00    -0.237 OA
ATOM     96  O   UNL     1      23.718   8.117  -9.370  1.00  0.00    -0.744 OA
ENDBRANCH  92  93
ENDBRANCH  66  87
ENDBRANCH  40  41
ENDBRANCH  33  35
ENDBRANCH  32  33
ENDBRANCH  31  32
ENDBRANCH  30  31
ENDBRANCH  29  30
ENDBRANCH  28  29
ENDBRANCH   1  28
TORSDOF 23
