REMARK SMILES O=C(OCCOCCOCCOC(=O)[C@@H](NC(=O)[C@H]1CC[C@@H]2CCCC[C@H]2[NH2+]1)C1CC1)c1ccc(-c2c3nc(c(-c4ccc(S(=O)(=O)[O-])cc4)c4ccc([nH]4)c(-c4ccc(S(=O)(=O)[O-])cc4)c4nc(c(-c5ccc(S(=O)(=O)[O-])cc5)c5ccc2[nH]5)C=C4)C=C3)cc1
REMARK SMILES IDX 7 1 6 2 5 3 4 4 3 5 2 6 1 7 32 8 33 9 91 10 34 11 90 12
REMARK SMILES IDX 35 13 36 14 37 15 84 16 38 17 89 18 83 19 85 20 39 21 88 22
REMARK SMILES IDX 82 23 81 24 40 26 70 27 51 28 69 29 52 30 55 31 68 32 86 33
REMARK SMILES IDX 53 34 54 35 67 37 87 38 56 39 41 40 42 41 50 42 43 43 49 44
REMARK SMILES IDX 44 45 45 46 46 47 47 48 48 49 71 50 72 51 80 52 73 53 79 54
REMARK SMILES IDX 74 55 75 56 76 57 77 58 78 59 57 60 58 61 66 62 59 63 65 64
REMARK SMILES IDX 60 65 61 66 62 67 63 68 64 69 8 70 9 71 10 72 11 73 12 74
REMARK SMILES IDX 13 75 14 76 15 77 16 78 17 79 18 81 19 82 20 83 28 84 21 85
REMARK SMILES IDX 27 86 22 89 26 90 23 91 25 92 24 93 29 94 30 95 31 96
REMARK H PARENT 85 25 55 36 16 80 28 87 28 88
REMARK Flexibility Score: inf
ROOT
ATOM      1  C   UNL     1       4.608   3.433  -1.951  1.00  0.00     0.188 C 
ENDROOT
BRANCH   1   2
ATOM      2  O   UNL     1       4.139   4.568  -1.217  1.00  0.00    -0.376 OA
BRANCH   2   3
ATOM      3  C   UNL     1       4.086   5.771  -1.991  1.00  0.00     0.202 C 
BRANCH   3   4
ATOM      4  C   UNL     1       5.436   6.349  -2.454  1.00  0.00     0.261 C 
BRANCH   4   5
ATOM      5  O   UNL     1       6.518   5.401  -2.470  1.00  0.00    -0.460 OA
BRANCH   5   6
ATOM      6  C   UNL     1       7.350   5.024  -1.470  1.00  0.00     0.338 C 
ATOM      7  O   UNL     1       8.200   4.164  -1.726  1.00  0.00    -0.246 OA
BRANCH   6   8
ATOM      8  C   UNL     1       7.307   5.573  -0.080  1.00  0.00     0.060 A 
ATOM      9  C   UNL     1       6.218   6.218   0.505  1.00  0.00     0.016 A 
ATOM     10  C   UNL     1       8.449   5.383   0.716  1.00  0.00     0.016 A 
ATOM     11  C   UNL     1       6.289   6.769   1.783  1.00  0.00     0.010 A 
ATOM     12  C   UNL     1       8.505   5.876   2.026  1.00  0.00     0.010 A 
ATOM     13  C   UNL     1       7.437   6.616   2.553  1.00  0.00    -0.014 A 
BRANCH  13  14
ATOM     14  C   UNL     1       7.582   7.340   3.838  1.00  0.00     0.031 A 
ATOM     15  C   UNL     1       8.459   8.535   3.887  1.00  0.00     0.074 A 
ATOM     16  C   UNL     1       6.833   7.081   4.924  1.00  0.00     0.049 A 
ATOM     17  N   UNL     1       8.644   9.343   4.892  1.00  0.00    -0.248 NA
ATOM     18  C   UNL     1       9.113   8.943   2.635  1.00  0.00     0.031 C 
ATOM     19  C   UNL     1       5.653   6.256   4.892  1.00  0.00     0.029 A 
ATOM     20  N   UNL     1       6.903   7.491   6.239  1.00  0.00    -0.354 N 
ATOM     21  C   UNL     1       9.384  10.388   4.385  1.00  0.00     0.074 A 
ATOM     22  C   UNL     1       9.679  10.083   3.001  1.00  0.00     0.031 C 
ATOM     23  C   UNL     1       5.182   6.125   6.134  1.00  0.00     0.029 A 
ATOM     24  C   UNL     1       6.024   6.814   7.059  1.00  0.00     0.049 A 
ATOM     25  H   UNL     1       7.514   8.193   6.558  1.00  0.00     0.167 HD
ATOM     26  C   UNL     1       9.745  11.516   5.028  1.00  0.00     0.031 A 
ATOM     27  C   UNL     1       5.856   6.748   8.392  1.00  0.00     0.031 A 
ATOM     28  C   UNL     1       9.466  11.775   6.415  1.00  0.00     0.049 A 
ATOM     29  C   UNL     1       6.507   7.842   9.146  1.00  0.00     0.074 A 
ATOM     30  C   UNL     1       9.880  12.847   7.181  1.00  0.00     0.029 A 
ATOM     31  N   UNL     1       8.722  10.948   7.250  1.00  0.00    -0.354 N 
ATOM     32  N   UNL     1       7.239   8.808   8.657  1.00  0.00    -0.248 NA
ATOM     33  C   UNL     1       6.204   7.939  10.574  1.00  0.00     0.031 C 
ATOM     34  C   UNL     1       9.461  12.629   8.497  1.00  0.00     0.029 A 
ATOM     35  C   UNL     1       8.728  11.455   8.541  1.00  0.00     0.049 A 
ATOM     36  H   UNL     1       8.260  10.126   6.967  1.00  0.00     0.167 HD
ATOM     37  C   UNL     1       7.417   9.686   9.698  1.00  0.00     0.074 A 
ATOM     38  C   UNL     1       6.719   9.129  10.845  1.00  0.00     0.031 C 
ATOM     39  C   UNL     1       8.079  10.862   9.683  1.00  0.00     0.031 A 
BRANCH  26  40
ATOM     40  C   UNL     1      10.578  12.473   4.238  1.00  0.00    -0.014 A 
ATOM     41  C   UNL     1      10.027  13.262   3.212  1.00  0.00     0.010 A 
ATOM     42  C   UNL     1      11.957  12.522   4.492  1.00  0.00     0.010 A 
ATOM     43  C   UNL     1      10.859  14.065   2.428  1.00  0.00     0.020 A 
ATOM     44  C   UNL     1      12.785  13.340   3.728  1.00  0.00     0.020 A 
ATOM     45  C   UNL     1      12.233  14.095   2.692  1.00  0.00     0.054 A 
BRANCH  45  46
ATOM     46  S   UNL     1      13.289  15.153   1.669  1.00  0.00     0.124 S 
ATOM     47  O   UNL     1      13.299  14.432   0.400  1.00  0.00    -0.237 OA
ATOM     48  O   UNL     1      12.570  16.419   1.671  1.00  0.00    -0.237 OA
ATOM     49  O   UNL     1      14.567  15.162   2.389  1.00  0.00    -0.744 OA
ENDBRANCH  45  46
ENDBRANCH  26  40
BRANCH  27  50
ATOM     50  C   UNL     1       4.996   5.737   9.084  1.00  0.00    -0.014 A 
ATOM     51  C   UNL     1       3.743   6.069   9.631  1.00  0.00     0.010 A 
ATOM     52  C   UNL     1       5.471   4.422   9.257  1.00  0.00     0.010 A 
ATOM     53  C   UNL     1       2.982   5.112  10.324  1.00  0.00     0.020 A 
ATOM     54  C   UNL     1       4.712   3.461   9.943  1.00  0.00     0.020 A 
ATOM     55  C   UNL     1       3.465   3.808  10.467  1.00  0.00     0.054 A 
BRANCH  55  56
ATOM     56  S   UNL     1       2.383   2.527  11.185  1.00  0.00     0.124 S 
ATOM     57  O   UNL     1       2.455   2.822  12.612  1.00  0.00    -0.237 OA
ATOM     58  O   UNL     1       1.094   2.795  10.552  1.00  0.00    -0.237 OA
ATOM     59  O   UNL     1       3.013   1.276  10.768  1.00  0.00    -0.744 OA
ENDBRANCH  55  56
ENDBRANCH  27  50
BRANCH  39  60
ATOM     60  C   UNL     1       8.107  11.585  10.988  1.00  0.00    -0.014 A 
ATOM     61  C   UNL     1       8.819  11.049  12.075  1.00  0.00     0.010 A 
ATOM     62  C   UNL     1       7.395  12.785  11.135  1.00  0.00     0.010 A 
ATOM     63  C   UNL     1       8.780  11.683  13.311  1.00  0.00     0.020 A 
ATOM     64  C   UNL     1       7.390  13.444  12.361  1.00  0.00     0.020 A 
ATOM     65  C   UNL     1       8.070  12.879  13.444  1.00  0.00     0.054 A 
BRANCH  65  66
ATOM     66  S   UNL     1       8.091  13.713  15.048  1.00  0.00     0.124 S 
ATOM     67  O   UNL     1       7.194  12.874  15.837  1.00  0.00    -0.237 OA
ATOM     68  O   UNL     1       9.502  13.650  15.420  1.00  0.00    -0.237 OA
ATOM     69  O   UNL     1       7.592  15.053  14.746  1.00  0.00    -0.744 OA
ENDBRANCH  65  66
ENDBRANCH  39  60
ENDBRANCH  13  14
ENDBRANCH   6   8
ENDBRANCH   5   6
ENDBRANCH   4   5
ENDBRANCH   3   4
ENDBRANCH   2   3
ENDBRANCH   1   2
BRANCH   1  70
ATOM     70  C   UNL     1       3.837   2.149  -1.664  1.00  0.00     0.188 C 
BRANCH  70  71
ATOM     71  O   UNL     1       2.459   2.111  -2.018  1.00  0.00    -0.376 OA
BRANCH  71  72
ATOM     72  C   UNL     1       1.639   3.205  -1.633  1.00  0.00     0.202 C 
BRANCH  72  73
ATOM     73  C   UNL     1       1.370   3.466  -0.139  1.00  0.00     0.261 C 
BRANCH  73  74
ATOM     74  O   UNL     1       2.412   3.111   0.778  1.00  0.00    -0.462 OA
BRANCH  74  75
ATOM     75  C   UNL     1       2.354   1.807   1.167  1.00  0.00     0.329 C 
ATOM     76  O   UNL     1       1.554   0.997   0.702  1.00  0.00    -0.250 OA
BRANCH  75  77
ATOM     77  C   UNL     1       3.384   1.431   2.251  1.00  0.00     0.195 C 
BRANCH  77  78
ATOM     78  N   UNL     1       4.403   2.436   2.591  1.00  0.00    -0.337 N 
ATOM     79  C   UNL     1       4.622   3.169   3.718  1.00  0.00     0.278 C 
ATOM     80  H   UNL     1       5.047   2.611   1.868  1.00  0.00     0.164 HD
ATOM     81  O   UNL     1       5.769   3.593   3.866  1.00  0.00    -0.268 OA
BRANCH  79  82
ATOM     82  C   UNL     1       3.468   3.429   4.697  1.00  0.00     0.272 C 
ATOM     83  C   UNL     1       3.808   3.047   6.135  1.00  0.00     0.076 C 
ATOM     84  N   UNL     1       2.891   4.778   4.531  1.00  0.00    -0.333 N 
ATOM     85  C   UNL     1       2.545   3.164   6.987  1.00  0.00     0.016 C 
ATOM     86  C   UNL     1       1.688   4.938   5.362  1.00  0.00     0.186 C 
ATOM     87  H   UNL     1       2.642   4.917   3.551  1.00  0.00     0.347 HD
ATOM     88  H   UNL     1       3.583   5.468   4.822  1.00  0.00     0.347 HD
ATOM     89  C   UNL     1       1.912   4.551   6.839  1.00  0.00     0.048 C 
ATOM     90  C   UNL     1       1.210   6.395   5.274  1.00  0.00     0.065 C 
ATOM     91  C   UNL     1       0.602   4.696   7.614  1.00  0.00     0.010 C 
ATOM     92  C   UNL     1      -0.043   6.627   6.119  1.00  0.00     0.006 C 
ATOM     93  C   UNL     1       0.124   6.146   7.558  1.00  0.00     0.001 C 
ENDBRANCH  79  82
ENDBRANCH  77  78
BRANCH  77  94
ATOM     94  C   UNL     1       2.771   0.779   3.479  1.00  0.00     0.023 C 
ATOM     95  C   UNL     1       1.326   1.083   3.870  1.00  0.00     0.007 C 
ATOM     96  C   UNL     1       1.711  -0.293   3.435  1.00  0.00     0.007 C 
ENDBRANCH  77  94
ENDBRANCH  75  77
ENDBRANCH  74  75
ENDBRANCH  73  74
ENDBRANCH  72  73
ENDBRANCH  71  72
ENDBRANCH  70  71
ENDBRANCH   1  70
TORSDOF 23
