REMARK SMILES CC(C)CC(=O)N[C@@H](CC(=O)OCCOCCOCCOC(=O)c1ccc(-c2c3nc(c(-c4ccc(S(=O)(=O)[O-])cc4)c4ccc([nH]4)c(-c4ccc(S(=O)(=O)[O-])cc4)c4nc(c(-c5ccc(S(=O)(=O)[O-])cc5)c5ccc2[nH]5)C=C4)C=C3)cc1)c1ccccc1Cl
REMARK SMILES IDX 16 1 15 2 14 3 13 4 12 5 10 6 11 7 9 8 8 9 7 10 5 11 6 12
REMARK SMILES IDX 4 14 2 15 1 16 3 17 84 18 85 19 89 20 86 21 88 22 90 23
REMARK SMILES IDX 87 24 17 25 18 26 19 27 20 28 21 29 22 30 23 31 24 32 25 33
REMARK SMILES IDX 83 34 26 35 82 36 27 37 28 38 29 39 76 40 30 41 81 42 75 43
REMARK SMILES IDX 77 44 31 45 80 46 74 47 73 48 32 50 62 51 43 52 61 53 44 54
REMARK SMILES IDX 47 55 60 56 78 57 45 58 46 59 59 61 79 62 48 63 33 64 34 65
REMARK SMILES IDX 42 66 35 67 41 68 36 69 37 70 38 71 39 72 40 73 63 74 64 75
REMARK SMILES IDX 72 76 65 77 71 78 66 79 67 80 68 81 69 82 70 83 49 84 50 85
REMARK SMILES IDX 58 86 51 87 57 88 52 89 53 90 54 91 55 92 56 93
REMARK H PARENT 7 13 77 49 47 60
REMARK Flexibility Score: inf
ROOT
ATOM      1  C   UNL     1      -0.669   5.034  -2.846  1.00  0.00     0.188 C 
ENDROOT
BRANCH   1   2
ATOM      2  O   UNL     1      -0.274   4.911  -4.207  1.00  0.00    -0.376 OA
BRANCH   2   3
ATOM      3  C   UNL     1      -0.631   3.760  -4.949  1.00  0.00     0.202 C 
BRANCH   3   4
ATOM      4  C   UNL     1       0.250   2.530  -4.733  1.00  0.00     0.261 C 
BRANCH   4   5
ATOM      5  O   UNL     1       0.151   1.941  -3.420  1.00  0.00    -0.463 OA
BRANCH   5   6
ATOM      6  C   UNL     1       1.116   2.320  -2.543  1.00  0.00     0.308 C 
ATOM      7  O   UNL     1       1.958   3.182  -2.766  1.00  0.00    -0.252 OA
BRANCH   6   8
ATOM      8  C   UNL     1       1.194   1.455  -1.316  1.00  0.00     0.152 C 
BRANCH   8   9
ATOM      9  C   UNL     1      -0.066   0.959  -0.575  1.00  0.00     0.125 C 
BRANCH   9  10
ATOM     10  N   UNL     1      -0.752  -0.021  -1.398  1.00  0.00    -0.349 N 
ATOM     11  C   UNL     1      -0.824  -1.374  -1.202  1.00  0.00     0.220 C 
ATOM     12  O   UNL     1      -1.189  -2.096  -2.130  1.00  0.00    -0.275 OA
ATOM     13  H   UNL     1      -1.220   0.329  -2.191  1.00  0.00     0.164 HD
BRANCH  11  14
ATOM     14  C   UNL     1      -0.504  -1.951   0.171  1.00  0.00     0.103 C 
BRANCH  14  15
ATOM     15  C   UNL     1       0.879  -2.610   0.311  1.00  0.00    -0.008 C 
ATOM     16  C   UNL     1       2.055  -1.641   0.216  1.00  0.00     0.008 C 
ATOM     17  C   UNL     1       0.955  -3.328   1.661  1.00  0.00     0.008 C 
ENDBRANCH  14  15
ENDBRANCH  11  14
ENDBRANCH   9  10
BRANCH   9  18
ATOM     18  C   UNL     1      -0.922   1.908   0.274  1.00  0.00    -0.006 A 
ATOM     19  C   UNL     1      -0.246   2.950   0.952  1.00  0.00     0.007 A 
ATOM     20  C   UNL     1      -2.274   1.704   0.645  1.00  0.00     0.046 A 
ATOM     21  C   UNL     1      -0.862   3.715   1.950  1.00  0.00     0.000 A 
ATOM     22  C   UNL     1      -2.894   2.506   1.623  1.00  0.00     0.021 A 
ATOM     23  Cl  UNL     1      -3.292   0.460   0.009  1.00  0.00    -0.084 Cl
ATOM     24  C   UNL     1      -2.191   3.507   2.277  1.00  0.00     0.002 A 
ENDBRANCH   9  18
ENDBRANCH   8   9
ENDBRANCH   6   8
ENDBRANCH   5   6
ENDBRANCH   4   5
ENDBRANCH   3   4
ENDBRANCH   2   3
ENDBRANCH   1   2
BRANCH   1  25
ATOM     25  C   UNL     1      -1.770   4.129  -2.261  1.00  0.00     0.188 C 
BRANCH  25  26
ATOM     26  O   UNL     1      -2.977   3.975  -2.995  1.00  0.00    -0.376 OA
BRANCH  26  27
ATOM     27  C   UNL     1      -3.626   5.174  -3.405  1.00  0.00     0.202 C 
BRANCH  27  28
ATOM     28  C   UNL     1      -4.081   6.059  -2.247  1.00  0.00     0.261 C 
BRANCH  28  29
ATOM     29  O   UNL     1      -2.947   6.683  -1.613  1.00  0.00    -0.460 OA
BRANCH  29  30
ATOM     30  C   UNL     1      -3.166   7.042  -0.329  1.00  0.00     0.338 C 
ATOM     31  O   UNL     1      -4.221   6.960   0.275  1.00  0.00    -0.246 OA
BRANCH  30  32
ATOM     32  C   UNL     1      -1.936   7.558   0.305  1.00  0.00     0.060 A 
ATOM     33  C   UNL     1      -0.819   6.741   0.482  1.00  0.00     0.016 A 
ATOM     34  C   UNL     1      -2.000   8.791   0.951  1.00  0.00     0.016 A 
ATOM     35  C   UNL     1       0.156   7.086   1.426  1.00  0.00     0.010 A 
ATOM     36  C   UNL     1      -0.989   9.164   1.841  1.00  0.00     0.010 A 
ATOM     37  C   UNL     1       0.053   8.275   2.160  1.00  0.00    -0.014 A 
BRANCH  37  38
ATOM     38  C   UNL     1       0.895   8.530   3.371  1.00  0.00     0.031 A 
ATOM     39  C   UNL     1       0.211   8.779   4.700  1.00  0.00     0.074 A 
ATOM     40  C   UNL     1       2.242   8.507   3.339  1.00  0.00     0.049 A 
ATOM     41  N   UNL     1       0.690   9.307   5.798  1.00  0.00    -0.248 NA
ATOM     42  C   UNL     1      -1.208   8.394   4.794  1.00  0.00     0.031 C 
ATOM     43  C   UNL     1       3.067   8.164   2.182  1.00  0.00     0.029 A 
ATOM     44  N   UNL     1       3.158   8.779   4.329  1.00  0.00    -0.354 N 
ATOM     45  C   UNL     1      -0.388   9.406   6.675  1.00  0.00     0.074 A 
ATOM     46  C   UNL     1      -1.539   8.861   5.989  1.00  0.00     0.031 C 
ATOM     47  C   UNL     1       4.362   8.214   2.535  1.00  0.00     0.029 A 
ATOM     48  C   UNL     1       4.464   8.700   3.908  1.00  0.00     0.049 A 
ATOM     49  H   UNL     1       2.902   9.009   5.252  1.00  0.00     0.167 HD
ATOM     50  C   UNL     1      -0.418   9.920   7.929  1.00  0.00     0.031 A 
ATOM     51  C   UNL     1       5.614   9.041   4.525  1.00  0.00     0.031 A 
ATOM     52  C   UNL     1       0.743  10.400   8.631  1.00  0.00     0.049 A 
ATOM     53  C   UNL     1       5.563   9.646   5.902  1.00  0.00     0.074 A 
ATOM     54  C   UNL     1       0.818  10.970   9.891  1.00  0.00     0.029 A 
ATOM     55  N   UNL     1       2.040  10.333   8.146  1.00  0.00    -0.354 N 
ATOM     56  N   UNL     1       4.521   9.877   6.664  1.00  0.00    -0.248 NA
ATOM     57  C   UNL     1       6.845  10.059   6.491  1.00  0.00     0.031 C 
ATOM     58  C   UNL     1       2.159  11.274  10.155  1.00  0.00     0.029 A 
ATOM     59  C   UNL     1       2.922  10.847   9.081  1.00  0.00     0.049 A 
ATOM     60  H   UNL     1       2.296   9.973   7.266  1.00  0.00     0.167 HD
ATOM     61  C   UNL     1       5.023  10.453   7.827  1.00  0.00     0.074 A 
ATOM     62  C   UNL     1       6.462  10.513   7.677  1.00  0.00     0.031 C 
ATOM     63  C   UNL     1       4.352  10.898   8.918  1.00  0.00     0.031 A 
BRANCH  50  64
ATOM     64  C   UNL     1      -1.763  10.057   8.596  1.00  0.00    -0.014 A 
ATOM     65  C   UNL     1      -2.468   8.947   9.091  1.00  0.00     0.010 A 
ATOM     66  C   UNL     1      -2.320  11.342   8.748  1.00  0.00     0.010 A 
ATOM     67  C   UNL     1      -3.725   9.114   9.684  1.00  0.00     0.020 A 
ATOM     68  C   UNL     1      -3.561  11.517   9.366  1.00  0.00     0.020 A 
ATOM     69  C   UNL     1      -4.266  10.398   9.811  1.00  0.00     0.054 A 
BRANCH  69  70
ATOM     70  S   UNL     1      -5.894  10.592  10.588  1.00  0.00     0.124 S 
ATOM     71  O   UNL     1      -6.788  10.130   9.529  1.00  0.00    -0.237 OA
ATOM     72  O   UNL     1      -5.801   9.719  11.755  1.00  0.00    -0.237 OA
ATOM     73  O   UNL     1      -5.968  12.020  10.888  1.00  0.00    -0.744 OA
ENDBRANCH  69  70
ENDBRANCH  50  64
BRANCH  51  74
ATOM     74  C   UNL     1       6.912   8.891   3.809  1.00  0.00    -0.014 A 
ATOM     75  C   UNL     1       7.860   7.942   4.229  1.00  0.00     0.010 A 
ATOM     76  C   UNL     1       7.199   9.693   2.688  1.00  0.00     0.010 A 
ATOM     77  C   UNL     1       9.070   7.798   3.542  1.00  0.00     0.020 A 
ATOM     78  C   UNL     1       8.391   9.529   1.979  1.00  0.00     0.020 A 
ATOM     79  C   UNL     1       9.324   8.588   2.417  1.00  0.00     0.054 A 
BRANCH  79  80
ATOM     80  S   UNL     1      10.864   8.334   1.491  1.00  0.00     0.124 S 
ATOM     81  O   UNL     1      11.841   9.010   2.338  1.00  0.00    -0.237 OA
ATOM     82  O   UNL     1      10.967   6.878   1.442  1.00  0.00    -0.237 OA
ATOM     83  O   UNL     1      10.596   8.975   0.205  1.00  0.00    -0.744 OA
ENDBRANCH  79  80
ENDBRANCH  51  74
BRANCH  63  84
ATOM     84  C   UNL     1       5.174  11.442  10.055  1.00  0.00    -0.014 A 
ATOM     85  C   UNL     1       5.795  12.701   9.973  1.00  0.00     0.010 A 
ATOM     86  C   UNL     1       5.308  10.685  11.234  1.00  0.00     0.010 A 
ATOM     87  C   UNL     1       6.572  13.174  11.034  1.00  0.00     0.020 A 
ATOM     88  C   UNL     1       6.064  11.165  12.305  1.00  0.00     0.020 A 
ATOM     89  C   UNL     1       6.709  12.399  12.191  1.00  0.00     0.054 A 
BRANCH  89  90
ATOM     90  S   UNL     1       7.713  13.036  13.560  1.00  0.00     0.124 S 
ATOM     91  O   UNL     1       9.070  12.803  13.074  1.00  0.00    -0.237 OA
ATOM     92  O   UNL     1       7.304  14.436  13.638  1.00  0.00    -0.237 OA
ATOM     93  O   UNL     1       7.309  12.211  14.697  1.00  0.00    -0.744 OA
ENDBRANCH  89  90
ENDBRANCH  63  84
ENDBRANCH  37  38
ENDBRANCH  30  32
ENDBRANCH  29  30
ENDBRANCH  28  29
ENDBRANCH  27  28
ENDBRANCH  26  27
ENDBRANCH  25  26
ENDBRANCH   1  25
TORSDOF 25
