REMARK SMILES O=C(OCCOCCOCCOC(=O)[C@@H]1CC=CC[C@H]1C(=O)N1CC[NH+](Cc2ccc3c(c2)OCO3)CC1)c1ccc(-c2c3nc(c(-c4ccc(S(=O)(=O)[O-])cc4)c4ccc([nH]4)c(-c4ccc(S(=O)(=O)[O-])cc4)c4nc(c(-c5ccc(S(=O)(=O)[O-])cc5)c5ccc2[nH]5)C=C4)C=C3)cc1
REMARK SMILES IDX 7 1 6 2 5 3 4 4 3 5 2 6 1 7 39 8 40 9 98 10 41 11 97 12
REMARK SMILES IDX 42 13 43 14 44 15 91 16 45 17 96 18 90 19 92 20 46 21 95 22
REMARK SMILES IDX 89 23 88 24 47 26 77 27 58 28 76 29 59 30 62 31 75 32 93 33
REMARK SMILES IDX 60 34 61 35 74 37 94 38 63 39 48 40 49 41 57 42 50 43 56 44
REMARK SMILES IDX 51 45 52 46 53 47 54 48 55 49 78 50 79 51 87 52 80 53 86 54
REMARK SMILES IDX 81 55 82 56 83 57 84 58 85 59 64 60 65 61 73 62 66 63 72 64
REMARK SMILES IDX 67 65 68 66 69 67 70 68 71 69 8 70 9 71 10 72 11 73 12 74
REMARK SMILES IDX 13 75 14 76 15 77 16 78 20 79 17 80 19 81 18 82 21 83 22 84
REMARK SMILES IDX 23 85 24 86 38 87 25 88 37 89 26 90 27 92 28 93 29 94 33 95
REMARK SMILES IDX 30 96 32 97 31 98 34 99 36 100 35 101
REMARK H PARENT 92 25 62 36 26 91
REMARK Flexibility Score: inf
ROOT
ATOM      1  C   UNL     1       3.580  -2.654   0.248  1.00  0.00     0.188 C 
ENDROOT
BRANCH   1   2
ATOM      2  O   UNL     1       2.268  -2.141  -0.003  1.00  0.00    -0.376 OA
BRANCH   2   3
ATOM      3  C   UNL     1       1.917  -2.034  -1.390  1.00  0.00     0.202 C 
BRANCH   3   4
ATOM      4  C   UNL     1       2.437  -0.784  -2.118  1.00  0.00     0.261 C 
BRANCH   4   5
ATOM      5  O   UNL     1       3.760  -0.441  -1.715  1.00  0.00    -0.460 OA
BRANCH   5   6
ATOM      6  C   UNL     1       4.064   0.348  -0.656  1.00  0.00     0.338 C 
ATOM      7  O   UNL     1       5.257   0.528  -0.402  1.00  0.00    -0.246 OA
BRANCH   6   8
ATOM      8  C   UNL     1       3.030   1.035   0.190  1.00  0.00     0.060 A 
ATOM      9  C   UNL     1       1.655   0.785   0.316  1.00  0.00     0.016 A 
ATOM     10  C   UNL     1       3.525   2.063   0.957  1.00  0.00     0.016 A 
ATOM     11  C   UNL     1       0.763   1.673   0.951  1.00  0.00     0.010 A 
ATOM     12  C   UNL     1       2.645   2.830   1.718  1.00  0.00     0.010 A 
ATOM     13  C   UNL     1       1.233   2.790   1.629  1.00  0.00    -0.014 A 
BRANCH  13  14
ATOM     14  C   UNL     1       0.188   4.108   2.127  1.00  0.00     0.031 A 
ATOM     15  C   UNL     1       0.151   6.120   1.328  1.00  0.00     0.074 A 
ATOM     16  C   UNL     1      -0.596   3.408   3.187  1.00  0.00     0.049 A 
ATOM     17  N   UNL     1      -0.470   7.283   1.805  1.00  0.00    -0.248 NA
ATOM     18  C   UNL     1       0.795   6.853  -0.067  1.00  0.00     0.031 C 
ATOM     19  C   UNL     1      -0.744   1.973   3.572  1.00  0.00     0.029 A 
ATOM     20  N   UNL     1      -1.467   3.930   4.171  1.00  0.00    -0.354 N 
ATOM     21  C   UNL     1      -0.543   8.333   0.961  1.00  0.00     0.074 A 
ATOM     22  C   UNL     1       0.378   8.108  -0.096  1.00  0.00     0.031 C 
ATOM     23  C   UNL     1      -1.471   1.822   4.710  1.00  0.00     0.029 A 
ATOM     24  C   UNL     1      -1.944   3.112   5.134  1.00  0.00     0.049 A 
ATOM     25  H   UNL     1      -1.723   4.880   4.154  1.00  0.00     0.167 HD
ATOM     26  C   UNL     1      -1.449   9.328   1.074  1.00  0.00     0.031 A 
ATOM     27  C   UNL     1      -2.645   3.534   6.202  1.00  0.00     0.031 A 
ATOM     28  C   UNL     1      -2.415   9.432   2.148  1.00  0.00     0.049 A 
ATOM     29  C   UNL     1      -3.185   4.978   6.213  1.00  0.00     0.074 A 
ATOM     30  C   UNL     1      -3.335  10.437   2.355  1.00  0.00     0.029 A 
ATOM     31  N   UNL     1      -2.599   8.505   3.190  1.00  0.00    -0.354 N 
ATOM     32  N   UNL     1      -3.019   5.965   5.345  1.00  0.00    -0.248 NA
ATOM     33  C   UNL     1      -4.082   5.311   7.322  1.00  0.00     0.031 C 
ATOM     34  C   UNL     1      -4.050  10.134   3.520  1.00  0.00     0.029 A 
ATOM     35  C   UNL     1      -3.638   8.899   4.026  1.00  0.00     0.049 A 
ATOM     36  H   UNL     1      -2.065   7.687   3.311  1.00  0.00     0.167 HD
ATOM     37  C   UNL     1      -3.877   7.001   5.747  1.00  0.00     0.074 A 
ATOM     38  C   UNL     1      -4.519   6.510   6.962  1.00  0.00     0.031 C 
ATOM     39  C   UNL     1      -4.178   8.223   5.207  1.00  0.00     0.031 A 
BRANCH  26  40
ATOM     40  C   UNL     1      -1.394  10.323  -0.037  1.00  0.00    -0.014 A 
ATOM     41  C   UNL     1      -1.835   9.972  -1.329  1.00  0.00     0.010 A 
ATOM     42  C   UNL     1      -0.717  11.534   0.165  1.00  0.00     0.010 A 
ATOM     43  C   UNL     1      -1.510  10.777  -2.420  1.00  0.00     0.020 A 
ATOM     44  C   UNL     1      -0.411  12.353  -0.922  1.00  0.00     0.020 A 
ATOM     45  C   UNL     1      -0.777  11.949  -2.210  1.00  0.00     0.054 A 
BRANCH  45  46
ATOM     46  S   UNL     1      -0.260  12.917  -3.651  1.00  0.00     0.124 S 
ATOM     47  O   UNL     1       0.795  12.078  -4.214  1.00  0.00    -0.237 OA
ATOM     48  O   UNL     1      -1.486  12.998  -4.440  1.00  0.00    -0.237 OA
ATOM     49  O   UNL     1       0.192  14.181  -3.074  1.00  0.00    -0.744 OA
ENDBRANCH  45  46
ENDBRANCH  26  40
BRANCH  27  50
ATOM     50  C   UNL     1      -2.865   2.622   7.349  1.00  0.00    -0.014 A 
ATOM     51  C   UNL     1      -4.126   2.070   7.620  1.00  0.00     0.010 A 
ATOM     52  C   UNL     1      -1.798   2.363   8.230  1.00  0.00     0.010 A 
ATOM     53  C   UNL     1      -4.325   1.303   8.773  1.00  0.00     0.020 A 
ATOM     54  C   UNL     1      -1.988   1.582   9.373  1.00  0.00     0.020 A 
ATOM     55  C   UNL     1      -3.256   1.068   9.644  1.00  0.00     0.054 A 
BRANCH  55  56
ATOM     56  S   UNL     1      -3.545   0.071  11.133  1.00  0.00     0.124 S 
ATOM     57  O   UNL     1      -4.393   0.953  11.929  1.00  0.00    -0.237 OA
ATOM     58  O   UNL     1      -4.197  -1.117  10.590  1.00  0.00    -0.237 OA
ATOM     59  O   UNL     1      -2.201  -0.148  11.663  1.00  0.00    -0.744 OA
ENDBRANCH  55  56
ENDBRANCH  27  50
BRANCH  39  60
ATOM     60  C   UNL     1      -5.305   8.983   5.905  1.00  0.00    -0.014 A 
ATOM     61  C   UNL     1      -5.107   9.631   7.138  1.00  0.00     0.010 A 
ATOM     62  C   UNL     1      -6.556   9.108   5.265  1.00  0.00     0.010 A 
ATOM     63  C   UNL     1      -6.144  10.362   7.729  1.00  0.00     0.020 A 
ATOM     64  C   UNL     1      -7.579   9.876   5.832  1.00  0.00     0.020 A 
ATOM     65  C   UNL     1      -7.372  10.486   7.069  1.00  0.00     0.054 A 
BRANCH  65  66
ATOM     66  S   UNL     1      -8.673  11.506   7.820  1.00  0.00     0.124 S 
ATOM     67  O   UNL     1      -9.168  10.634   8.881  1.00  0.00    -0.237 OA
ATOM     68  O   UNL     1      -7.939  12.687   8.268  1.00  0.00    -0.237 OA
ATOM     69  O   UNL     1      -9.606  11.741   6.720  1.00  0.00    -0.744 OA
ENDBRANCH  65  66
ENDBRANCH  39  60
ENDBRANCH  13  14
ENDBRANCH   6   8
ENDBRANCH   5   6
ENDBRANCH   4   5
ENDBRANCH   3   4
ENDBRANCH   2   3
ENDBRANCH   1   2
BRANCH   1  70
ATOM     70  C   UNL     1       3.700  -3.369   1.597  1.00  0.00     0.188 C 
BRANCH  70  71
ATOM     71  O   UNL     1       2.895  -4.530   1.790  1.00  0.00    -0.376 OA
BRANCH  71  72
ATOM     72  C   UNL     1       1.491  -4.378   1.601  1.00  0.00     0.202 C 
BRANCH  72  73
ATOM     73  C   UNL     1       0.709  -3.458   2.562  1.00  0.00     0.261 C 
BRANCH  73  74
ATOM     74  O   UNL     1       1.522  -2.512   3.268  1.00  0.00    -0.463 OA
BRANCH  74  75
ATOM     75  C   UNL     1       1.582  -2.615   4.625  1.00  0.00     0.310 C 
ATOM     76  O   UNL     1       0.920  -3.397   5.295  1.00  0.00    -0.252 OA
BRANCH  75  77
ATOM     77  C   UNL     1       2.647  -1.683   5.201  1.00  0.00     0.115 C 
ATOM     78  C   UNL     1       3.701  -2.539   5.904  1.00  0.00     0.043 C 
ATOM     79  C   UNL     1       1.992  -0.523   6.012  1.00  0.00     0.097 C 
ATOM     80  C   UNL     1       4.375  -1.895   7.067  1.00  0.00    -0.030 C 
ATOM     81  C   UNL     1       2.539  -0.239   7.413  1.00  0.00     0.041 C 
ATOM     82  C   UNL     1       3.853  -0.869   7.743  1.00  0.00    -0.030 C 
BRANCH  79  83
ATOM     83  C   UNL     1       2.042   0.669   5.063  1.00  0.00     0.227 C 
ATOM     84  O   UNL     1       1.631   0.500   3.911  1.00  0.00    -0.275 OA
ATOM     85  N   UNL     1       2.699   1.847   5.435  1.00  0.00    -0.331 N 
ATOM     86  C   UNL     1       1.791   2.969   5.728  1.00  0.00     0.181 C 
ATOM     87  C   UNL     1       3.849   2.151   4.576  1.00  0.00     0.181 C 
ATOM     88  C   UNL     1       2.384   4.385   5.694  1.00  0.00     0.284 C 
ATOM     89  C   UNL     1       4.261   3.648   4.408  1.00  0.00     0.284 C 
ATOM     90  N   UNL     1       3.105   4.540   4.445  1.00  0.00    -0.328 N 
ATOM     91  H   UNL     1       2.594   4.274   3.604  1.00  0.00     0.348 HD
BRANCH  90  92
ATOM     92  C   UNL     1       2.894   5.707   3.582  1.00  0.00     0.299 C 
BRANCH  92  93
ATOM     93  C   UNL     1       1.652   5.605   2.663  1.00  0.00     0.010 A 
ATOM     94  C   UNL     1      -0.013   5.834   3.341  1.00  0.00     0.013 A 
ATOM     95  C   UNL     1       1.808   5.007   0.950  1.00  0.00     0.060 A 
ATOM     96  C   UNL     1      -1.516   5.432   2.284  1.00  0.00     0.051 A 
ATOM     97  C   UNL     1       0.316   4.513   0.019  1.00  0.00     0.166 A 
ATOM     98  C   UNL     1      -1.280   4.744   0.669  1.00  0.00     0.165 A 
ATOM     99  O   UNL     1       0.165   3.929  -1.199  1.00  0.00    -0.454 OA
ATOM    100  O   UNL     1      -2.161   4.243  -0.227  1.00  0.00    -0.454 OA
ATOM    101  C   UNL     1      -1.264   3.556  -1.163  1.00  0.00     0.468 C 
ENDBRANCH  92  93
ENDBRANCH  90  92
ENDBRANCH  79  83
ENDBRANCH  75  77
ENDBRANCH  74  75
ENDBRANCH  73  74
ENDBRANCH  72  73
ENDBRANCH  71  72
ENDBRANCH  70  71
ENDBRANCH   1  70
TORSDOF 23
