REMARK SMILES O=C(CCN1C(=O)S/C(=C\c2ccc(F)cc2)C1=O)Nc1ccc(O)cc1C(=O)OCCOCCOCCOC(=O)c1ccc(-c2c3nc(c(-c4ccc(S(=O)(=O)[O-])cc4)c4ccc([nH]4)c(-c4ccc(S(=O)(=O)[O-])cc4)c4nc(c(-c5ccc(S(=O)(=O)[O-])cc5)c5ccc2[nH]5)C=C4)C=C3)cc1
REMARK SMILES IDX 34 1 33 2 32 3 31 4 30 5 28 6 29 7 27 8 21 9 22 10 23 11
REMARK SMILES IDX 26 12 24 13 20 14 1 15 2 16 3 18 4 19 5 20 6 21 18 22 7 23
REMARK SMILES IDX 8 24 9 25 19 26 10 27 11 28 12 29 17 30 13 31 16 32 14 33
REMARK SMILES IDX 15 34 25 35 35 37 36 38 37 39 38 40 39 41 40 42 41 43 42 44
REMARK SMILES IDX 43 45 101 46 44 47 100 48 45 49 46 50 47 51 94 52 48 53
REMARK SMILES IDX 99 54 93 55 95 56 49 57 98 58 92 59 91 60 50 62 80 63 61 64
REMARK SMILES IDX 79 65 62 66 65 67 78 68 96 69 63 70 64 71 77 73 97 74 66 75
REMARK SMILES IDX 51 76 52 77 60 78 53 79 59 80 54 81 55 82 56 83 57 84 58 85
REMARK SMILES IDX 81 86 82 87 90 88 83 89 89 90 84 91 85 92 86 93 87 94 88 95
REMARK SMILES IDX 67 96 68 97 76 98 69 99 75 100 70 101 71 102 72 103 73 104
REMARK SMILES IDX 74 105
REMARK H PARENT 20 17 25 36 95 61 65 72
REMARK Flexibility Score: inf
ROOT
ATOM      1  C   UNL     1       3.071   0.170   5.432  1.00  0.00     0.188 C 
ENDROOT
BRANCH   1   2
ATOM      2  O   UNL     1       4.322   0.834   5.545  1.00  0.00    -0.376 OA
BRANCH   2   3
ATOM      3  C   UNL     1       5.403   0.075   5.022  1.00  0.00     0.202 C 
BRANCH   3   4
ATOM      4  C   UNL     1       5.384   0.009   3.498  1.00  0.00     0.261 C 
BRANCH   4   5
ATOM      5  O   UNL     1       4.307  -0.720   2.868  1.00  0.00    -0.460 OA
BRANCH   5   6
ATOM      6  C   UNL     1       4.066  -2.010   3.209  1.00  0.00     0.340 C 
ATOM      7  O   UNL     1       4.766  -2.673   3.953  1.00  0.00    -0.246 OA
BRANCH   6   8
ATOM      8  C   UNL     1       2.749  -2.469   2.664  1.00  0.00     0.087 A 
ATOM      9  C   UNL     1       2.075  -1.880   1.563  1.00  0.00     0.056 A 
ATOM     10  C   UNL     1       0.831  -2.405   1.182  1.00  0.00     0.031 A 
ATOM     11  C   UNL     1       0.238  -3.451   1.895  1.00  0.00     0.048 A 
ATOM     12  C   UNL     1       2.146  -3.526   3.366  1.00  0.00     0.064 A 
ATOM     13  C   UNL     1       0.894  -3.993   2.988  1.00  0.00     0.116 A 
BRANCH   9  14
ATOM     14  N   UNL     1       2.667  -0.793   0.874  1.00  0.00    -0.325 N 
ATOM     15  O   UNL     1       1.053  -0.150  -0.655  1.00  0.00    -0.275 OA
ATOM     16  C   UNL     1       2.195  -0.080  -0.203  1.00  0.00     0.226 C 
ATOM     17  H   UNL     1       3.545  -0.507   1.215  1.00  0.00     0.169 HD
BRANCH  16  18
ATOM     18  C   UNL     1       3.220   0.795  -0.927  1.00  0.00     0.122 C 
BRANCH  18  19
ATOM     19  C   UNL     1       4.407   1.360  -0.152  1.00  0.00     0.140 C 
BRANCH  19  20
ATOM     20  N   UNL     1       5.606   0.533   0.048  1.00  0.00    -0.268 N 
ATOM     21  C   UNL     1       6.745   1.124   0.548  1.00  0.00     0.293 C 
ATOM     22  C   UNL     1       5.686  -0.827  -0.134  1.00  0.00     0.268 C 
ATOM     23  O   UNL     1       6.909   2.310   0.790  1.00  0.00    -0.261 OA
ATOM     24  S   UNL     1       7.976  -0.091   0.893  1.00  0.00    -0.022 SA
ATOM     25  C   UNL     1       6.874  -1.364   0.590  1.00  0.00     0.083 C 
ATOM     26  O   UNL     1       4.891  -1.536  -0.729  1.00  0.00    -0.268 OA
ATOM     27  C   UNL     1       6.849  -2.619   1.059  1.00  0.00     0.029 C 
BRANCH  27  28
ATOM     28  C   UNL     1       7.739  -3.292   2.020  1.00  0.00    -0.024 A 
ATOM     29  C   UNL     1       7.776  -2.929   3.375  1.00  0.00     0.011 A 
ATOM     30  C   UNL     1       8.404  -4.457   1.625  1.00  0.00     0.011 A 
ATOM     31  C   UNL     1       8.436  -3.717   4.321  1.00  0.00     0.040 A 
ATOM     32  C   UNL     1       9.080  -5.240   2.567  1.00  0.00     0.040 A 
ATOM     33  C   UNL     1       9.082  -4.869   3.907  1.00  0.00     0.123 A 
ATOM     34  F   UNL     1       9.696  -5.642   4.810  1.00  0.00    -0.207 F 
ENDBRANCH  27  28
ENDBRANCH  19  20
ENDBRANCH  18  19
ENDBRANCH  16  18
ENDBRANCH   9  14
BRANCH  13  35
ATOM     35  O   UNL     1       0.338  -4.986   3.733  1.00  0.00    -0.508 OA
ATOM     36  H   UNL     1      -0.506  -5.325   3.506  1.00  0.00     0.293 HD
ENDBRANCH  13  35
ENDBRANCH   6   8
ENDBRANCH   5   6
ENDBRANCH   4   5
ENDBRANCH   3   4
ENDBRANCH   2   3
ENDBRANCH   1   2
BRANCH   1  37
ATOM     37  C   UNL     1       2.168   0.734   4.319  1.00  0.00     0.188 C 
BRANCH  37  38
ATOM     38  O   UNL     1       2.697   1.721   3.454  1.00  0.00    -0.376 OA
BRANCH  38  39
ATOM     39  C   UNL     1       3.103   2.983   3.967  1.00  0.00     0.202 C 
BRANCH  39  40
ATOM     40  C   UNL     1       2.658   3.608   5.311  1.00  0.00     0.261 C 
BRANCH  40  41
ATOM     41  O   UNL     1       2.165   2.741   6.332  1.00  0.00    -0.460 OA
BRANCH  41  42
ATOM     42  C   UNL     1       0.817   2.654   6.439  1.00  0.00     0.338 C 
ATOM     43  O   UNL     1      -0.011   3.250   5.771  1.00  0.00    -0.246 OA
BRANCH  42  44
ATOM     44  C   UNL     1       0.505   1.508   7.323  1.00  0.00     0.060 A 
ATOM     45  C   UNL     1      -0.315   0.487   6.818  1.00  0.00     0.016 A 
ATOM     46  C   UNL     1       1.067   1.400   8.598  1.00  0.00     0.016 A 
ATOM     47  C   UNL     1      -0.615  -0.621   7.606  1.00  0.00     0.010 A 
ATOM     48  C   UNL     1       0.735   0.306   9.403  1.00  0.00     0.010 A 
ATOM     49  C   UNL     1      -0.146  -0.679   8.925  1.00  0.00    -0.014 A 
BRANCH  49  50
ATOM     50  C   UNL     1      -0.857  -1.562   9.879  1.00  0.00     0.031 A 
ATOM     51  C   UNL     1      -2.084  -0.991  10.544  1.00  0.00     0.074 A 
ATOM     52  C   UNL     1      -0.477  -2.829  10.118  1.00  0.00     0.049 A 
ATOM     53  N   UNL     1      -2.921  -1.556  11.373  1.00  0.00    -0.248 NA
ATOM     54  C   UNL     1      -2.412   0.410  10.219  1.00  0.00     0.031 C 
ATOM     55  C   UNL     1       0.665  -3.507   9.509  1.00  0.00     0.029 A 
ATOM     56  N   UNL     1      -1.030  -3.774  10.946  1.00  0.00    -0.354 N 
ATOM     57  C   UNL     1      -3.874  -0.585  11.658  1.00  0.00     0.074 A 
ATOM     58  C   UNL     1      -3.498   0.613  10.944  1.00  0.00     0.031 C 
ATOM     59  C   UNL     1       0.732  -4.763   9.992  1.00  0.00     0.029 A 
ATOM     60  C   UNL     1      -0.352  -4.969  10.952  1.00  0.00     0.049 A 
ATOM     61  H   UNL     1      -1.837  -3.610  11.486  1.00  0.00     0.167 HD
ATOM     62  C   UNL     1      -4.974  -0.679  12.440  1.00  0.00     0.031 A 
ATOM     63  C   UNL     1      -0.585  -6.095  11.656  1.00  0.00     0.031 A 
ATOM     64  C   UNL     1      -5.329  -1.854  13.181  1.00  0.00     0.049 A 
ATOM     65  C   UNL     1      -1.778  -6.156  12.578  1.00  0.00     0.074 A 
ATOM     66  C   UNL     1      -6.413  -2.051  14.017  1.00  0.00     0.029 A 
ATOM     67  N   UNL     1      -4.598  -3.032  13.184  1.00  0.00    -0.354 N 
ATOM     68  N   UNL     1      -2.688  -5.240  12.815  1.00  0.00    -0.248 NA
ATOM     69  C   UNL     1      -1.986  -7.413  13.312  1.00  0.00     0.031 C 
ATOM     70  C   UNL     1      -6.313  -3.336  14.560  1.00  0.00     0.029 A 
ATOM     71  C   UNL     1      -5.198  -3.956  14.018  1.00  0.00     0.049 A 
ATOM     72  H   UNL     1      -3.773  -3.186  12.668  1.00  0.00     0.167 HD
ATOM     73  C   UNL     1      -3.595  -5.823  13.695  1.00  0.00     0.074 A 
ATOM     74  C   UNL     1      -3.127  -7.171  13.944  1.00  0.00     0.031 C 
ATOM     75  C   UNL     1      -4.719  -5.296  14.244  1.00  0.00     0.031 A 
BRANCH  62  76
ATOM     76  C   UNL     1      -5.838   0.546  12.551  1.00  0.00    -0.014 A 
ATOM     77  C   UNL     1      -6.641   0.967  11.475  1.00  0.00     0.010 A 
ATOM     78  C   UNL     1      -5.841   1.290  13.744  1.00  0.00     0.010 A 
ATOM     79  C   UNL     1      -7.402   2.133  11.577  1.00  0.00     0.020 A 
ATOM     80  C   UNL     1      -6.621   2.443  13.858  1.00  0.00     0.020 A 
ATOM     81  C   UNL     1      -7.383   2.867  12.767  1.00  0.00     0.054 A 
BRANCH  81  82
ATOM     82  S   UNL     1      -8.389   4.371  12.880  1.00  0.00     0.124 S 
ATOM     83  O   UNL     1      -7.617   5.311  12.070  1.00  0.00    -0.237 OA
ATOM     84  O   UNL     1      -9.664   3.948  12.306  1.00  0.00    -0.237 OA
ATOM     85  O   UNL     1      -8.420   4.660  14.311  1.00  0.00    -0.744 OA
ENDBRANCH  81  82
ENDBRANCH  62  76
BRANCH  63  86
ATOM     86  C   UNL     1       0.328  -7.265  11.523  1.00  0.00    -0.014 A 
ATOM     87  C   UNL     1      -0.100  -8.444  10.887  1.00  0.00     0.010 A 
ATOM     88  C   UNL     1       1.630  -7.210  12.054  1.00  0.00     0.010 A 
ATOM     89  C   UNL     1       0.749  -9.553  10.803  1.00  0.00     0.020 A 
ATOM     90  C   UNL     1       2.489  -8.308  11.951  1.00  0.00     0.020 A 
ATOM     91  C   UNL     1       2.038  -9.478  11.337  1.00  0.00     0.054 A 
BRANCH  91  92
ATOM     92  S   UNL     1       3.137 -10.915  11.183  1.00  0.00     0.124 S 
ATOM     93  O   UNL     1       2.588 -11.825  12.182  1.00  0.00    -0.237 OA
ATOM     94  O   UNL     1       2.944 -11.313   9.790  1.00  0.00    -0.237 OA
ATOM     95  O   UNL     1       4.457 -10.369  11.489  1.00  0.00    -0.744 OA
ENDBRANCH  91  92
ENDBRANCH  63  86
BRANCH  75  96
ATOM     96  C   UNL     1      -5.552  -6.191  15.122  1.00  0.00    -0.014 A 
ATOM     97  C   UNL     1      -5.133  -6.548  16.415  1.00  0.00     0.010 A 
ATOM     98  C   UNL     1      -6.806  -6.632  14.660  1.00  0.00     0.010 A 
ATOM     99  C   UNL     1      -5.936  -7.365  17.215  1.00  0.00     0.020 A 
ATOM    100  C   UNL     1      -7.623  -7.426  15.467  1.00  0.00     0.020 A 
ATOM    101  C   UNL     1      -7.175  -7.802  16.734  1.00  0.00     0.054 A 
BRANCH 101 102
ATOM    102  S   UNL     1      -8.215  -8.836  17.801  1.00  0.00     0.124 S 
ATOM    103  O   UNL     1      -7.556 -10.135  17.700  1.00  0.00    -0.237 OA
ATOM    104  O   UNL     1      -8.105  -8.174  19.099  1.00  0.00    -0.237 OA
ATOM    105  O   UNL     1      -9.535  -8.756  17.179  1.00  0.00    -0.744 OA
ENDBRANCH 101 102
ENDBRANCH  75  96
ENDBRANCH  49  50
ENDBRANCH  42  44
ENDBRANCH  41  42
ENDBRANCH  40  41
ENDBRANCH  39  40
ENDBRANCH  38  39
ENDBRANCH  37  38
ENDBRANCH   1  37
TORSDOF 26
