REMARK SMILES O=C(OCCOCCOCCOC(=O)c1ccncc1-c1ccc(F)cc1F)c1ccc(-c2c3nc(c(-c4ccc(S(=O)(=O)[O-])cc4)c4ccc([nH]4)c(-c4ccc(S(=O)(=O)[O-])cc4)c4nc(c(-c5ccc(S(=O)(=O)[O-])cc5)c5ccc2[nH]5)C=C4)C=C3)cc1
REMARK SMILES IDX 7 1 6 2 5 3 4 4 3 5 2 6 1 7 29 8 30 9 88 10 31 11 87 12
REMARK SMILES IDX 32 13 33 14 34 15 81 16 35 17 86 18 80 19 82 20 36 21 85 22
REMARK SMILES IDX 79 23 78 24 37 26 67 27 48 28 66 29 49 30 52 31 65 32 83 33
REMARK SMILES IDX 50 34 51 35 64 37 84 38 53 39 38 40 39 41 47 42 40 43 46 44
REMARK SMILES IDX 41 45 42 46 43 47 44 48 45 49 68 50 69 51 77 52 70 53 76 54
REMARK SMILES IDX 71 55 72 56 73 57 74 58 75 59 54 60 55 61 63 62 56 63 62 64
REMARK SMILES IDX 57 65 58 66 59 67 60 68 61 69 8 70 9 71 10 72 11 73 12 74
REMARK SMILES IDX 13 75 14 76 15 77 16 78 20 79 17 80 19 81 18 82 21 83 22 84
REMARK SMILES IDX 27 85 23 86 26 87 28 88 24 89 25 90
REMARK H PARENT 82 25 52 36
REMARK Flexibility Score: inf
ROOT
ATOM      1  C   UNL     1       3.163   1.137  -1.422  1.00  0.00     0.188 C 
ENDROOT
BRANCH   1   2
ATOM      2  O   UNL     1       4.555   0.844  -1.444  1.00  0.00    -0.376 OA
BRANCH   2   3
ATOM      3  C   UNL     1       4.938  -0.396  -2.022  1.00  0.00     0.202 C 
BRANCH   3   4
ATOM      4  C   UNL     1       4.963  -1.558  -1.025  1.00  0.00     0.261 C 
BRANCH   4   5
ATOM      5  O   UNL     1       3.658  -1.818  -0.478  1.00  0.00    -0.460 OA
BRANCH   5   6
ATOM      6  C   UNL     1       3.163  -1.543   0.751  1.00  0.00     0.338 C 
ATOM      7  O   UNL     1       2.140  -2.136   1.097  1.00  0.00    -0.246 OA
BRANCH   6   8
ATOM      8  C   UNL     1       3.690  -0.482   1.679  1.00  0.00     0.060 A 
ATOM      9  C   UNL     1       4.833   0.295   1.490  1.00  0.00     0.016 A 
ATOM     10  C   UNL     1       2.927  -0.229   2.841  1.00  0.00     0.016 A 
ATOM     11  C   UNL     1       5.255   1.215   2.448  1.00  0.00     0.010 A 
ATOM     12  C   UNL     1       3.315   0.730   3.785  1.00  0.00     0.010 A 
ATOM     13  C   UNL     1       4.526   1.405   3.622  1.00  0.00    -0.014 A 
BRANCH  13  14
ATOM     14  C   UNL     1       5.211   2.088   4.742  1.00  0.00     0.031 A 
ATOM     15  C   UNL     1       5.807   1.224   5.821  1.00  0.00     0.074 A 
ATOM     16  C   UNL     1       5.473   3.407   4.686  1.00  0.00     0.049 A 
ATOM     17  N   UNL     1       6.618   1.553   6.791  1.00  0.00    -0.248 NA
ATOM     18  C   UNL     1       5.466  -0.210   5.785  1.00  0.00     0.031 C 
ATOM     19  C   UNL     1       5.017   4.315   3.634  1.00  0.00     0.029 A 
ATOM     20  N   UNL     1       6.239   4.199   5.503  1.00  0.00    -0.354 N 
ATOM     21  C   UNL     1       6.878   0.372   7.476  1.00  0.00     0.074 A 
ATOM     22  C   UNL     1       6.115  -0.674   6.839  1.00  0.00     0.031 C 
ATOM     23  C   UNL     1       5.553   5.529   3.842  1.00  0.00     0.029 A 
ATOM     24  C   UNL     1       6.361   5.495   5.057  1.00  0.00     0.049 A 
ATOM     25  H   UNL     1       6.661   3.872   6.330  1.00  0.00     0.167 HD
ATOM     26  C   UNL     1       7.691   0.168   8.537  1.00  0.00     0.031 A 
ATOM     27  C   UNL     1       7.055   6.530   5.569  1.00  0.00     0.031 A 
ATOM     28  C   UNL     1       8.436   1.212   9.176  1.00  0.00     0.049 A 
ATOM     29  C   UNL     1       7.882   6.298   6.806  1.00  0.00     0.074 A 
ATOM     30  C   UNL     1       9.251   1.135  10.289  1.00  0.00     0.029 A 
ATOM     31  N   UNL     1       8.448   2.533   8.754  1.00  0.00    -0.354 N 
ATOM     32  N   UNL     1       8.107   5.175   7.448  1.00  0.00    -0.248 NA
ATOM     33  C   UNL     1       8.554   7.470   7.384  1.00  0.00     0.031 C 
ATOM     34  C   UNL     1       9.721   2.422  10.567  1.00  0.00     0.029 A 
ATOM     35  C   UNL     1       9.241   3.289   9.596  1.00  0.00     0.049 A 
ATOM     36  H   UNL     1       7.963   2.881   7.970  1.00  0.00     0.167 HD
ATOM     37  C   UNL     1       8.966   5.501   8.491  1.00  0.00     0.074 A 
ATOM     38  C   UNL     1       9.233   6.922   8.383  1.00  0.00     0.031 C 
ATOM     39  C   UNL     1       9.490   4.701   9.453  1.00  0.00     0.031 A 
BRANCH  26  40
ATOM     40  C   UNL     1       7.740  -1.229   9.089  1.00  0.00    -0.014 A 
ATOM     41  C   UNL     1       8.400  -2.266   8.402  1.00  0.00     0.010 A 
ATOM     42  C   UNL     1       7.057  -1.521  10.282  1.00  0.00     0.010 A 
ATOM     43  C   UNL     1       8.324  -3.581   8.870  1.00  0.00     0.020 A 
ATOM     44  C   UNL     1       7.000  -2.830  10.765  1.00  0.00     0.020 A 
ATOM     45  C   UNL     1       7.612  -3.856  10.042  1.00  0.00     0.054 A 
BRANCH  45  46
ATOM     46  S   UNL     1       7.497  -5.574  10.611  1.00  0.00     0.124 S 
ATOM     47  O   UNL     1       6.526  -6.135   9.674  1.00  0.00    -0.237 OA
ATOM     48  O   UNL     1       8.867  -6.057  10.458  1.00  0.00    -0.237 OA
ATOM     49  O   UNL     1       7.033  -5.451  11.991  1.00  0.00    -0.744 OA
ENDBRANCH  45  46
ENDBRANCH  26  40
BRANCH  27  50
ATOM     50  C   UNL     1       7.000   7.873   4.922  1.00  0.00    -0.014 A 
ATOM     51  C   UNL     1       8.141   8.434   4.320  1.00  0.00     0.010 A 
ATOM     52  C   UNL     1       5.801   8.610   4.922  1.00  0.00     0.010 A 
ATOM     53  C   UNL     1       8.089   9.713   3.752  1.00  0.00     0.020 A 
ATOM     54  C   UNL     1       5.738   9.876   4.333  1.00  0.00     0.020 A 
ATOM     55  C   UNL     1       6.887  10.426   3.763  1.00  0.00     0.054 A 
BRANCH  55  56
ATOM     56  S   UNL     1       6.831  12.065   2.986  1.00  0.00     0.124 S 
ATOM     57  O   UNL     1       7.551  12.886   3.953  1.00  0.00    -0.237 OA
ATOM     58  O   UNL     1       7.514  11.834   1.715  1.00  0.00    -0.237 OA
ATOM     59  O   UNL     1       5.400  12.338   2.871  1.00  0.00    -0.744 OA
ENDBRANCH  55  56
ENDBRANCH  27  50
BRANCH  39  60
ATOM     60  C   UNL     1      10.429   5.335  10.440  1.00  0.00    -0.014 A 
ATOM     61  C   UNL     1       9.953   6.176  11.460  1.00  0.00     0.010 A 
ATOM     62  C   UNL     1      11.800   5.024  10.383  1.00  0.00     0.010 A 
ATOM     63  C   UNL     1      10.838   6.720  12.392  1.00  0.00     0.020 A 
ATOM     64  C   UNL     1      12.684   5.545  11.329  1.00  0.00     0.020 A 
ATOM     65  C   UNL     1      12.198   6.401  12.320  1.00  0.00     0.054 A 
BRANCH  65  66
ATOM     66  S   UNL     1      13.323   7.077  13.571  1.00  0.00     0.124 S 
ATOM     67  O   UNL     1      13.486   8.456  13.118  1.00  0.00    -0.237 OA
ATOM     68  O   UNL     1      12.567   6.908  14.810  1.00  0.00    -0.237 OA
ATOM     69  O   UNL     1      14.512   6.237  13.456  1.00  0.00    -0.744 OA
ENDBRANCH  65  66
ENDBRANCH  39  60
ENDBRANCH  13  14
ENDBRANCH   6   8
ENDBRANCH   5   6
ENDBRANCH   4   5
ENDBRANCH   3   4
ENDBRANCH   2   3
ENDBRANCH   1   2
BRANCH   1  70
ATOM     70  C   UNL     1       2.458   1.390  -2.759  1.00  0.00     0.188 C 
BRANCH  70  71
ATOM     71  O   UNL     1       3.209   1.813  -3.886  1.00  0.00    -0.376 OA
BRANCH  71  72
ATOM     72  C   UNL     1       4.277   2.732  -3.711  1.00  0.00     0.202 C 
BRANCH  72  73
ATOM     73  C   UNL     1       3.936   4.139  -3.224  1.00  0.00     0.261 C 
BRANCH  73  74
ATOM     74  O   UNL     1       3.577   4.225  -1.835  1.00  0.00    -0.460 OA
BRANCH  74  75
ATOM     75  C   UNL     1       2.296   4.593  -1.573  1.00  0.00     0.338 C 
ATOM     76  O   UNL     1       1.367   4.622  -2.357  1.00  0.00    -0.246 OA
BRANCH  75  77
ATOM     77  C   UNL     1       2.200   5.043  -0.170  1.00  0.00     0.071 A 
ATOM     78  C   UNL     1       3.006   6.129   0.199  1.00  0.00     0.036 A 
ATOM     79  C   UNL     1       1.286   4.488   0.738  1.00  0.00     0.017 A 
ATOM     80  C   UNL     1       2.865   6.646   1.471  1.00  0.00     0.112 A 
ATOM     81  C   UNL     1       1.245   5.094   1.994  1.00  0.00     0.120 A 
ATOM     82  N   UNL     1       2.002   6.147   2.376  1.00  0.00    -0.264 NA
BRANCH  79  83
ATOM     83  C   UNL     1       0.437   3.316   0.498  1.00  0.00     0.020 A 
ATOM     84  C   UNL     1       0.820   2.062   1.005  1.00  0.00     0.015 A 
ATOM     85  C   UNL     1      -0.820   3.416  -0.113  1.00  0.00     0.134 A 
ATOM     86  C   UNL     1      -0.021   0.951   0.895  1.00  0.00     0.040 A 
ATOM     87  C   UNL     1      -1.668   2.316  -0.223  1.00  0.00     0.079 A 
ATOM     88  F   UNL     1      -1.255   4.601  -0.562  1.00  0.00    -0.206 F 
ATOM     89  C   UNL     1      -1.261   1.092   0.286  1.00  0.00     0.126 A 
ATOM     90  F   UNL     1      -2.081   0.036   0.209  1.00  0.00    -0.207 F 
ENDBRANCH  79  83
ENDBRANCH  75  77
ENDBRANCH  74  75
ENDBRANCH  73  74
ENDBRANCH  72  73
ENDBRANCH  71  72
ENDBRANCH  70  71
ENDBRANCH   1  70
TORSDOF 21
