REMARK SMILES Cc1ccc([C@@]23C[C@@H]4C[C@@H](C[C@@](C(=O)N5CCC(C(=O)OCCOCCOCCOC(=O)c6ccc(-c7c8nc(c(-c9ccc(S(=O)(=O)[O-])cc9)c9ccc([nH]9)c(-c9ccc(S(=O)(=O)[O-])cc9)c9nc(c(-c%10ccc(S(=O)(=O)[O-])cc%10)c%10ccc7[nH]%10)C=C9)C=C8)cc6)CC5)(C4)C2)C3)cc1
REMARK SMILES IDX 26 1 25 2 24 3 23 4 22 5 21 6 19 7 20 8 18 9 13 10 14 11
REMARK SMILES IDX 15 12 16 13 94 14 17 15 93 16 12 17 6 18 7 19 96 20 97 21
REMARK SMILES IDX 8 22 10 23 9 24 95 25 11 26 5 27 1 28 2 29 3 30 99 31 4 32
REMARK SMILES IDX 98 33 27 34 28 35 29 36 30 37 31 38 32 39 33 40 34 41 92 42
REMARK SMILES IDX 35 43 91 44 36 45 37 46 38 47 85 48 39 49 90 50 84 51 86 52
REMARK SMILES IDX 40 53 89 54 83 55 82 56 41 58 71 59 52 60 70 61 53 62 56 63
REMARK SMILES IDX 69 64 87 65 54 66 55 67 68 69 88 70 57 71 42 72 43 73 51 74
REMARK SMILES IDX 44 75 50 76 45 77 46 78 47 79 48 80 49 81 72 82 73 83 81 84
REMARK SMILES IDX 74 85 80 86 75 87 76 88 77 89 78 90 79 91 58 92 59 93 67 94
REMARK SMILES IDX 60 95 66 96 61 97 62 98 63 99 64 100 65 101
REMARK H PARENT 86 57 56 68
REMARK Flexibility Score: inf
ROOT
ATOM      1  C   UNL     1      -8.798  -2.806  -9.117  1.00  0.00     0.188 C 
ENDROOT
BRANCH   1   2
ATOM      2  C   UNL     1      -9.005  -4.164  -8.451  1.00  0.00     0.188 C 
BRANCH   2   3
ATOM      3  O   UNL     1      -9.930  -4.324  -7.362  1.00  0.00    -0.376 OA
BRANCH   3   4
ATOM      4  C   UNL     1     -10.266  -3.292  -6.424  1.00  0.00     0.202 C 
BRANCH   4   5
ATOM      5  C   UNL     1      -9.889  -3.094  -4.785  1.00  0.00     0.261 C 
BRANCH   5   6
ATOM      6  O   UNL     1      -8.378  -3.216  -3.760  1.00  0.00    -0.463 OA
BRANCH   6   7
ATOM      7  C   UNL     1      -7.355  -4.175  -3.312  1.00  0.00     0.309 C 
ATOM      8  O   UNL     1      -7.252  -5.396  -3.518  1.00  0.00    -0.252 OA
BRANCH   7   9
ATOM      9  C   UNL     1      -6.158  -3.839  -2.540  1.00  0.00     0.103 C 
ATOM     10  C   UNL     1      -5.553  -1.968   0.488  1.00  0.00     0.228 C 
ATOM     11  O   UNL     1      -6.368  -2.400   1.302  1.00  0.00    -0.274 OA
ATOM     12  N   UNL     1      -4.858  -2.803  -0.396  1.00  0.00    -0.342 N 
ATOM     13  C   UNL     1      -5.078  -4.228  -0.278  1.00  0.00     0.120 C 
ATOM     14  C   UNL     1      -4.443  -2.404  -1.749  1.00  0.00     0.120 C 
ATOM     15  C   UNL     1      -6.262  -4.552  -1.159  1.00  0.00     0.037 C 
ATOM     16  C   UNL     1      -5.688  -2.437  -2.612  1.00  0.00     0.037 C 
BRANCH  10  17
ATOM     17  C   UNL     1      -5.175  -0.490   0.457  1.00  0.00     0.051 C 
ATOM     18  C   UNL     1      -3.015   0.881   0.452  1.00  0.00    -0.003 C 
ATOM     19  C   UNL     1      -3.550   1.529  -0.862  1.00  0.00     0.015 C 
ATOM     20  C   UNL     1      -3.651  -0.494   0.600  1.00  0.00     0.028 C 
ATOM     21  C   UNL     1      -3.553   1.697   1.655  1.00  0.00     0.015 C 
ATOM     22  C   UNL     1      -5.088   1.660  -0.852  1.00  0.00    -0.009 C 
ATOM     23  C   UNL     1      -5.107   1.731   1.650  1.00  0.00    -0.009 C 
ATOM     24  C   UNL     1      -5.571   2.441   0.367  1.00  0.00     0.007 C 
ATOM     25  C   UNL     1      -5.695   0.265  -0.785  1.00  0.00     0.020 C 
ATOM     26  C   UNL     1      -5.696   0.297   1.679  1.00  0.00     0.020 C 
BRANCH  18  27
ATOM     27  C   UNL     1      -1.481   0.722   0.401  1.00  0.00    -0.042 A 
ATOM     28  C   UNL     1       2.813   0.246  -0.057  1.00  0.00     0.044 C 
ATOM     29  C   UNL     1       1.338   0.432   0.114  1.00  0.00    -0.051 A 
ATOM     30  C   UNL     1       0.532  -0.690   0.252  1.00  0.00     0.004 A 
ATOM     31  C   UNL     1       0.738   1.696   0.126  1.00  0.00     0.004 A 
ATOM     32  C   UNL     1      -0.844  -0.543   0.407  1.00  0.00     0.004 A 
ATOM     33  C   UNL     1      -0.651   1.839   0.267  1.00  0.00     0.004 A 
ENDBRANCH  18  27
ENDBRANCH  10  17
ENDBRANCH   7   9
ENDBRANCH   6   7
ENDBRANCH   5   6
ENDBRANCH   4   5
ENDBRANCH   3   4
ENDBRANCH   2   3
ENDBRANCH   1   2
BRANCH   1  34
ATOM     34  O   UNL     1      -8.774  -1.784  -8.141  1.00  0.00    -0.376 OA
BRANCH  34  35
ATOM     35  C   UNL     1      -8.665  -0.457  -8.601  1.00  0.00     0.202 C 
BRANCH  35  36
ATOM     36  C   UNL     1      -7.273  -0.120  -9.152  1.00  0.00     0.261 C 
BRANCH  36  37
ATOM     37  O   UNL     1      -6.241  -0.040  -8.133  1.00  0.00    -0.460 OA
BRANCH  37  38
ATOM     38  C   UNL     1      -5.296  -1.049  -8.057  1.00  0.00     0.338 C 
ATOM     39  O   UNL     1      -4.169  -0.913  -8.507  1.00  0.00    -0.246 OA
BRANCH  38  40
ATOM     40  C   UNL     1      -5.753  -2.150  -7.150  1.00  0.00     0.060 A 
ATOM     41  C   UNL     1      -5.459  -3.521  -7.132  1.00  0.00     0.016 A 
ATOM     42  C   UNL     1      -6.686  -1.764  -6.264  1.00  0.00     0.016 A 
ATOM     43  C   UNL     1      -6.305  -4.525  -6.457  1.00  0.00     0.010 A 
ATOM     44  C   UNL     1      -7.560  -2.741  -5.819  1.00  0.00     0.010 A 
ATOM     45  C   UNL     1      -7.524  -4.197  -5.846  1.00  0.00    -0.014 A 
BRANCH  45  46
ATOM     46  C   UNL     1      -8.759  -5.349  -5.186  1.00  0.00     0.031 A 
ATOM     47  C   UNL     1      -9.560  -5.444  -3.523  1.00  0.00     0.074 A 
ATOM     48  C   UNL     1      -8.914  -6.524  -5.831  1.00  0.00     0.049 A 
ATOM     49  N   UNL     1      -9.612  -6.521  -2.751  1.00  0.00    -0.248 NA
ATOM     50  C   UNL     1     -10.021  -4.300  -2.575  1.00  0.00     0.031 C 
ATOM     51  C   UNL     1      -9.876  -7.569  -5.509  1.00  0.00     0.029 A 
ATOM     52  N   UNL     1      -8.123  -7.072  -6.830  1.00  0.00    -0.354 N 
ATOM     53  C   UNL     1     -10.090  -6.153  -1.465  1.00  0.00     0.074 A 
ATOM     54  C   UNL     1     -10.050  -4.762  -1.353  1.00  0.00     0.031 C 
ATOM     55  C   UNL     1      -9.498  -8.701  -6.120  1.00  0.00     0.029 A 
ATOM     56  C   UNL     1      -8.202  -8.459  -6.731  1.00  0.00     0.049 A 
ATOM     57  H   UNL     1      -7.598  -6.569  -7.493  1.00  0.00     0.167 HD
ATOM     58  C   UNL     1     -10.748  -6.949  -0.583  1.00  0.00     0.031 A 
ATOM     59  C   UNL     1      -7.088  -9.224  -6.561  1.00  0.00     0.031 A 
ATOM     60  C   UNL     1     -10.776  -8.268  -1.120  1.00  0.00     0.049 A 
ATOM     61  C   UNL     1      -7.155 -10.078  -5.314  1.00  0.00     0.074 A 
ATOM     62  C   UNL     1     -11.608  -8.857  -2.053  1.00  0.00     0.029 A 
ATOM     63  N   UNL     1      -9.584  -8.953  -1.126  1.00  0.00    -0.354 N 
ATOM     64  N   UNL     1      -7.955  -9.849  -4.305  1.00  0.00    -0.248 NA
ATOM     65  C   UNL     1      -6.353 -11.282  -5.119  1.00  0.00     0.031 C 
ATOM     66  C   UNL     1     -10.856  -9.877  -2.691  1.00  0.00     0.029 A 
ATOM     67  C   UNL     1      -9.613  -9.938  -2.085  1.00  0.00     0.049 A 
ATOM     68  H   UNL     1      -8.821  -8.766  -0.532  1.00  0.00     0.167 HD
ATOM     69  C   UNL     1      -7.786 -10.821  -3.352  1.00  0.00     0.074 A 
ATOM     70  C   UNL     1      -6.785 -11.703  -3.917  1.00  0.00     0.031 C 
ATOM     71  C   UNL     1      -8.476 -10.828  -2.174  1.00  0.00     0.031 A 
BRANCH  58  72
ATOM     72  C   UNL     1     -11.664  -6.369   0.497  1.00  0.00    -0.014 A 
ATOM     73  C   UNL     1     -12.950  -6.915   0.653  1.00  0.00     0.010 A 
ATOM     74  C   UNL     1     -11.382  -5.226   1.290  1.00  0.00     0.010 A 
ATOM     75  C   UNL     1     -13.930  -6.301   1.453  1.00  0.00     0.020 A 
ATOM     76  C   UNL     1     -12.375  -4.559   2.038  1.00  0.00     0.020 A 
ATOM     77  C   UNL     1     -13.651  -5.105   2.114  1.00  0.00     0.054 A 
BRANCH  77  78
ATOM     78  S   UNL     1     -14.973  -4.280   3.049  1.00  0.00     0.124 S 
ATOM     79  O   UNL     1     -16.079  -4.258   2.093  1.00  0.00    -0.237 OA
ATOM     80  O   UNL     1     -15.150  -5.171   4.191  1.00  0.00    -0.237 OA
ATOM     81  O   UNL     1     -14.414  -2.966   3.364  1.00  0.00    -0.744 OA
ENDBRANCH  77  78
ENDBRANCH  58  72
BRANCH  59  82
ATOM     82  C   UNL     1      -5.863  -8.694  -7.243  1.00  0.00    -0.014 A 
ATOM     83  C   UNL     1      -5.927  -8.564  -8.652  1.00  0.00     0.010 A 
ATOM     84  C   UNL     1      -4.845  -8.003  -6.563  1.00  0.00     0.010 A 
ATOM     85  C   UNL     1      -5.113  -7.659  -9.339  1.00  0.00     0.020 A 
ATOM     86  C   UNL     1      -3.998  -7.109  -7.260  1.00  0.00     0.020 A 
ATOM     87  C   UNL     1      -4.181  -6.904  -8.633  1.00  0.00     0.054 A 
BRANCH  87  88
ATOM     88  S   UNL     1      -3.384  -5.526  -9.524  1.00  0.00     0.124 S 
ATOM     89  O   UNL     1      -2.688  -6.205 -10.611  1.00  0.00    -0.237 OA
ATOM     90  O   UNL     1      -4.540  -4.726  -9.932  1.00  0.00    -0.237 OA
ATOM     91  O   UNL     1      -2.528  -4.917  -8.511  1.00  0.00    -0.744 OA
ENDBRANCH  87  88
ENDBRANCH  59  82
BRANCH  71  92
ATOM     92  C   UNL     1      -8.188 -11.668  -0.947  1.00  0.00    -0.014 A 
ATOM     93  C   UNL     1      -6.969 -12.307  -0.699  1.00  0.00     0.010 A 
ATOM     94  C   UNL     1      -9.144 -11.688   0.107  1.00  0.00     0.010 A 
ATOM     95  C   UNL     1      -6.740 -12.985   0.506  1.00  0.00     0.020 A 
ATOM     96  C   UNL     1      -8.900 -12.296   1.337  1.00  0.00     0.020 A 
ATOM     97  C   UNL     1      -7.707 -12.978   1.514  1.00  0.00     0.054 A 
BRANCH  97  98
ATOM     98  S   UNL     1      -7.392 -13.828   3.076  1.00  0.00     0.124 S 
ATOM     99  O   UNL     1      -7.897 -15.168   2.791  1.00  0.00    -0.237 OA
ATOM    100  O   UNL     1      -5.941 -13.725   3.222  1.00  0.00    -0.237 OA
ATOM    101  O   UNL     1      -8.164 -13.059   4.048  1.00  0.00    -0.744 OA
ENDBRANCH  97  98
ENDBRANCH  71  92
ENDBRANCH  45  46
ENDBRANCH  38  40
ENDBRANCH  37  38
ENDBRANCH  36  37
ENDBRANCH  35  36
ENDBRANCH  34  35
ENDBRANCH   1  34
TORSDOF 22
