REMARK SMILES CCCc1cc(=O)[nH]c(S[C@@H]2CC[C@@]([NH2+]C)(C(=O)OCCOCCOCCOC(=O)c3ccc(-c4c5nc(c(-c6ccc(S(=O)(=O)[O-])cc6)c6ccc([nH]6)c(-c6ccc(S(=O)(=O)[O-])cc6)c6nc(c(-c7ccc(S(=O)(=O)[O-])cc7)c7ccc4[nH]7)C=C6)C=C5)cc3)C2)n1
REMARK SMILES IDX 23 1 22 2 21 3 20 4 19 5 17 6 18 7 14 8 11 9 12 10 91 11
REMARK SMILES IDX 13 12 10 13 9 14 4 15 5 16 92 17 6 18 7 19 8 20 3 22 2 23
REMARK SMILES IDX 1 24 15 25 16 26 24 29 25 30 26 31 27 32 28 33 29 34 30 35
REMARK SMILES IDX 31 36 32 37 90 38 33 39 89 40 34 41 35 42 36 43 83 44 37 45
REMARK SMILES IDX 88 46 82 47 84 48 38 49 87 50 81 51 80 52 39 54 69 55 50 56
REMARK SMILES IDX 68 57 51 58 54 59 67 60 85 61 52 62 53 63 66 65 86 66 55 67
REMARK SMILES IDX 40 68 41 69 49 70 42 71 48 72 43 73 44 74 45 75 46 76 47 77
REMARK SMILES IDX 70 78 71 79 79 80 72 81 78 82 73 83 74 84 75 85 76 86 77 87
REMARK SMILES IDX 56 88 57 89 65 90 58 91 64 92 59 93 60 94 61 95 62 96 63 97
REMARK H PARENT 8 21 15 27 15 28 84 53 54 64
REMARK Flexibility Score: inf
ROOT
ATOM      1  C   UNL     1      -2.219  -9.225   4.455  1.00  0.00     0.188 C 
ENDROOT
BRANCH   1   2
ATOM      2  O   UNL     1      -3.108 -10.271   4.096  1.00  0.00    -0.376 OA
BRANCH   2   3
ATOM      3  C   UNL     1      -2.950 -10.934   2.850  1.00  0.00     0.202 C 
BRANCH   3   4
ATOM      4  C   UNL     1      -2.787 -10.151   1.532  1.00  0.00     0.261 C 
BRANCH   4   5
ATOM      5  O   UNL     1      -1.829  -9.073   1.488  1.00  0.00    -0.459 OA
BRANCH   5   6
ATOM      6  C   UNL     1      -2.372  -7.824   1.466  1.00  0.00     0.368 C 
ATOM      7  O   UNL     1      -3.578  -7.623   1.592  1.00  0.00    -0.245 OA
BRANCH   6   8
ATOM      8  C   UNL     1      -1.354  -6.656   1.210  1.00  0.00     0.195 C 
ATOM      9  C   UNL     1      -0.997  -5.630   3.376  1.00  0.00     0.062 C 
ATOM     10  C   UNL     1       0.379  -6.102   2.925  1.00  0.00     0.022 C 
ATOM     11  C   UNL     1      -1.790  -5.454   2.086  1.00  0.00     0.096 C 
ATOM     12  C   UNL     1       0.125  -6.888   1.626  1.00  0.00     0.082 C 
BRANCH   9  13
ATOM     13  S   UNL     1      -1.062  -4.236   4.532  1.00  0.00    -0.084 SA
BRANCH  13  14
ATOM     14  C   UNL     1      -0.356  -2.914   3.671  1.00  0.00     0.168 A 
ATOM     15  C   UNL     1       0.661  -1.914   1.897  1.00  0.00     0.049 A 
ATOM     16  C   UNL     1       0.811  -0.756   2.554  1.00  0.00     0.095 A 
ATOM     17  N   UNL     1       0.085  -3.021   2.466  1.00  0.00    -0.229 NA
ATOM     18  C   UNL     1       0.278  -0.648   3.923  1.00  0.00     0.251 A 
ATOM     19  O   UNL     1       0.381   0.394   4.557  1.00  0.00    -0.269 OA
ATOM     20  N   UNL     1      -0.300  -1.777   4.410  1.00  0.00    -0.301 N 
ATOM     21  H   UNL     1      -0.684  -1.771   5.316  1.00  0.00     0.172 HD
BRANCH  15  22
ATOM     22  C   UNL     1       1.180  -2.142   0.494  1.00  0.00     0.056 C 
BRANCH  22  23
ATOM     23  C   UNL     1       0.510  -1.326  -0.616  1.00  0.00     0.003 C 
ATOM     24  C   UNL     1       0.913   0.140  -0.632  1.00  0.00     0.004 C 
ENDBRANCH  22  23
ENDBRANCH  15  22
ENDBRANCH  13  14
ENDBRANCH   9  13
BRANCH   8  25
ATOM     25  N   UNL     1      -1.334  -6.324  -0.245  1.00  0.00    -0.335 N 
ATOM     26  C   UNL     1      -2.647  -6.020  -0.802  1.00  0.00     0.331 C 
ATOM     27  H   UNL     1      -0.948  -7.121  -0.751  1.00  0.00     0.347 HD
ATOM     28  H   UNL     1      -0.768  -5.482  -0.347  1.00  0.00     0.347 HD
ENDBRANCH   8  25
ENDBRANCH   6   8
ENDBRANCH   5   6
ENDBRANCH   4   5
ENDBRANCH   3   4
ENDBRANCH   2   3
ENDBRANCH   1   2
BRANCH   1  29
ATOM     29  C   UNL     1      -0.722  -9.376   4.146  1.00  0.00     0.188 C 
BRANCH  29  30
ATOM     30  O   UNL     1      -0.356 -10.624   3.611  1.00  0.00    -0.376 OA
BRANCH  30  31
ATOM     31  C   UNL     1       0.272 -11.568   4.455  1.00  0.00     0.202 C 
BRANCH  31  32
ATOM     32  C   UNL     1      -0.148 -11.762   5.926  1.00  0.00     0.261 C 
BRANCH  32  33
ATOM     33  O   UNL     1      -0.625 -10.615   6.648  1.00  0.00    -0.460 OA
BRANCH  33  34
ATOM     34  C   UNL     1       0.311  -9.797   7.192  1.00  0.00     0.338 C 
ATOM     35  O   UNL     1       1.513  -9.938   7.128  1.00  0.00    -0.246 OA
BRANCH  34  36
ATOM     36  C   UNL     1      -0.365  -8.560   7.673  1.00  0.00     0.060 A 
ATOM     37  C   UNL     1       0.089  -7.333   7.178  1.00  0.00     0.016 A 
ATOM     38  C   UNL     1      -1.416  -8.593   8.595  1.00  0.00     0.016 A 
ATOM     39  C   UNL     1      -0.479  -6.140   7.630  1.00  0.00     0.010 A 
ATOM     40  C   UNL     1      -1.978  -7.389   9.056  1.00  0.00     0.010 A 
ATOM     41  C   UNL     1      -1.497  -6.152   8.592  1.00  0.00    -0.014 A 
BRANCH  41  42
ATOM     42  C   UNL     1      -1.893  -4.864   9.224  1.00  0.00     0.031 A 
ATOM     43  C   UNL     1      -1.163  -4.421  10.466  1.00  0.00     0.074 A 
ATOM     44  C   UNL     1      -2.805  -4.044   8.667  1.00  0.00     0.049 A 
ATOM     45  N   UNL     1      -1.264  -3.301  11.134  1.00  0.00    -0.248 NA
ATOM     46  C   UNL     1      -0.176  -5.365  11.014  1.00  0.00     0.031 C 
ATOM     47  C   UNL     1      -3.545  -4.311   7.436  1.00  0.00     0.029 A 
ATOM     48  N   UNL     1      -3.250  -2.804   9.062  1.00  0.00    -0.354 N 
ATOM     49  C   UNL     1      -0.348  -3.398  12.175  1.00  0.00     0.074 A 
ATOM     50  C   UNL     1       0.276  -4.700  12.067  1.00  0.00     0.031 C 
ATOM     51  C   UNL     1      -4.346  -3.262   7.172  1.00  0.00     0.029 A 
ATOM     52  C   UNL     1      -4.202  -2.262   8.230  1.00  0.00     0.049 A 
ATOM     53  H   UNL     1      -2.917  -2.345   9.868  1.00  0.00     0.167 HD
ATOM     54  C   UNL     1      -0.046  -2.490  13.135  1.00  0.00     0.031 A 
ATOM     55  C   UNL     1      -4.886  -1.102   8.315  1.00  0.00     0.031 A 
ATOM     56  C   UNL     1      -0.693  -1.213  13.279  1.00  0.00     0.049 A 
ATOM     57  C   UNL     1      -4.609  -0.151   9.455  1.00  0.00     0.074 A 
ATOM     58  C   UNL     1      -0.462  -0.236  14.234  1.00  0.00     0.029 A 
ATOM     59  N   UNL     1      -1.706  -0.737  12.461  1.00  0.00    -0.354 N 
ATOM     60  N   UNL     1      -3.728  -0.253  10.422  1.00  0.00    -0.248 NA
ATOM     61  C   UNL     1      -5.413   1.080   9.505  1.00  0.00     0.031 C 
ATOM     62  C   UNL     1      -1.382   0.798  14.034  1.00  0.00     0.029 A 
ATOM     63  C   UNL     1      -2.132   0.504  12.907  1.00  0.00     0.049 A 
ATOM     64  H   UNL     1      -2.070  -1.212  11.679  1.00  0.00     0.167 HD
ATOM     65  C   UNL     1      -3.847   0.916  11.171  1.00  0.00     0.074 A 
ATOM     66  C   UNL     1      -4.875   1.715  10.537  1.00  0.00     0.031 C 
ATOM     67  C   UNL     1      -3.160   1.296  12.279  1.00  0.00     0.031 A 
BRANCH  54  68
ATOM     68  C   UNL     1       1.004  -2.880  14.143  1.00  0.00    -0.014 A 
ATOM     69  C   UNL     1       2.361  -2.984  13.784  1.00  0.00     0.010 A 
ATOM     70  C   UNL     1       0.627  -3.129  15.475  1.00  0.00     0.010 A 
ATOM     71  C   UNL     1       3.313  -3.373  14.730  1.00  0.00     0.020 A 
ATOM     72  C   UNL     1       1.581  -3.488  16.430  1.00  0.00     0.020 A 
ATOM     73  C   UNL     1       2.916  -3.627  16.046  1.00  0.00     0.054 A 
BRANCH  73  74
ATOM     74  S   UNL     1       4.174  -4.126  17.254  1.00  0.00     0.124 S 
ATOM     75  O   UNL     1       4.495  -5.480  16.811  1.00  0.00    -0.237 OA
ATOM     76  O   UNL     1       5.225  -3.132  17.049  1.00  0.00    -0.237 OA
ATOM     77  O   UNL     1       3.478  -4.039  18.536  1.00  0.00    -0.744 OA
ENDBRANCH  73  74
ENDBRANCH  54  68
BRANCH  55  78
ATOM     78  C   UNL     1      -5.926  -0.768   7.297  1.00  0.00    -0.014 A 
ATOM     79  C   UNL     1      -5.758   0.315   6.415  1.00  0.00     0.010 A 
ATOM     80  C   UNL     1      -7.112  -1.522   7.228  1.00  0.00     0.010 A 
ATOM     81  C   UNL     1      -6.761   0.646   5.497  1.00  0.00     0.020 A 
ATOM     82  C   UNL     1      -8.103  -1.214   6.291  1.00  0.00     0.020 A 
ATOM     83  C   UNL     1      -7.926  -0.124   5.438  1.00  0.00     0.054 A 
BRANCH  83  84
ATOM     84  S   UNL     1      -9.190   0.292   4.204  1.00  0.00     0.124 S 
ATOM     85  O   UNL     1      -9.739   1.535   4.737  1.00  0.00    -0.237 OA
ATOM     86  O   UNL     1      -8.404   0.420   2.980  1.00  0.00    -0.237 OA
ATOM     87  O   UNL     1     -10.093  -0.857   4.239  1.00  0.00    -0.744 OA
ENDBRANCH  83  84
ENDBRANCH  55  78
BRANCH  67  88
ATOM     88  C   UNL     1      -3.458   2.660  12.856  1.00  0.00    -0.014 A 
ATOM     89  C   UNL     1      -4.686   2.953  13.475  1.00  0.00     0.010 A 
ATOM     90  C   UNL     1      -2.469   3.662  12.803  1.00  0.00     0.010 A 
ATOM     91  C   UNL     1      -4.940   4.233  13.980  1.00  0.00     0.020 A 
ATOM     92  C   UNL     1      -2.705   4.932  13.337  1.00  0.00     0.020 A 
ATOM     93  C   UNL     1      -3.948   5.216  13.903  1.00  0.00     0.054 A 
BRANCH  93  94
ATOM     94  S   UNL     1      -4.297   6.866  14.574  1.00  0.00     0.124 S 
ATOM     95  O   UNL     1      -5.227   7.406  13.587  1.00  0.00    -0.237 OA
ATOM     96  O   UNL     1      -4.873   6.566  15.882  1.00  0.00    -0.237 OA
ATOM     97  O   UNL     1      -2.986   7.511  14.611  1.00  0.00    -0.744 OA
ENDBRANCH  93  94
ENDBRANCH  67  88
ENDBRANCH  41  42
ENDBRANCH  34  36
ENDBRANCH  33  34
ENDBRANCH  32  33
ENDBRANCH  31  32
ENDBRANCH  30  31
ENDBRANCH  29  30
ENDBRANCH   1  29
TORSDOF 25
