REMARK SMILES Cc1ccc(-c2cnnc(-n3nc(C)c4c3NC(=O)C[C@@H]4c3ccc(C(=O)OCCOCCOCCOC(=O)c4ccc(-c5c6nc(c(-c7ccc(S(=O)(=O)[O-])cc7)c7ccc([nH]7)c(-c7ccc(S(=O)(=O)[O-])cc7)c7nc(c(-c8ccc(S(=O)(=O)[O-])cc8)c8ccc5[nH]8)C=C7)C=C6)cc4)cc3)n2)cc1
REMARK SMILES IDX 32 1 31 2 30 3 29 4 28 5 26 6 27 7 25 8 22 9 23 10 101 11
REMARK SMILES IDX 24 12 100 13 21 14 11 15 12 16 16 17 13 18 15 19 17 20 14 21
REMARK SMILES IDX 18 22 20 24 19 25 10 26 6 27 7 28 102 29 8 30 9 31 5 32 1 33
REMARK SMILES IDX 2 34 3 35 104 36 4 37 103 38 33 39 34 40 35 41 36 42 37 43
REMARK SMILES IDX 38 44 39 45 40 46 41 47 99 48 42 49 98 50 43 51 44 52 45 53
REMARK SMILES IDX 92 54 46 55 97 56 91 57 93 58 47 59 96 60 90 61 89 62 48 64
REMARK SMILES IDX 78 65 59 66 77 67 60 68 63 69 76 70 94 71 61 72 62 73 75 75
REMARK SMILES IDX 95 76 64 77 49 78 50 79 58 80 51 81 57 82 52 83 53 84 54 85
REMARK SMILES IDX 55 86 56 87 79 88 80 89 88 90 81 91 87 92 82 93 83 94 84 95
REMARK SMILES IDX 85 96 86 97 65 98 66 99 74 100 67 101 73 102 68 103 69 104
REMARK SMILES IDX 70 105 71 106 72 107
REMARK H PARENT 17 23 93 63 63 74
REMARK Flexibility Score: inf
ROOT
ATOM      1  C   UNL     1     -11.774   7.810 -10.340  1.00  0.00     0.188 C 
ENDROOT
BRANCH   1   2
ATOM      2  O   UNL     1     -12.887   7.562  -9.458  1.00  0.00    -0.376 OA
BRANCH   2   3
ATOM      3  C   UNL     1     -12.936   7.983  -8.087  1.00  0.00     0.202 C 
BRANCH   3   4
ATOM      4  C   UNL     1     -13.016   6.910  -6.893  1.00  0.00     0.261 C 
BRANCH   4   5
ATOM      5  O   UNL     1     -11.833   6.047  -6.544  1.00  0.00    -0.460 OA
BRANCH   5   6
ATOM      6  C   UNL     1     -10.907   6.145  -5.539  1.00  0.00     0.338 C 
ATOM      7  O   UNL     1     -11.012   6.950  -4.619  1.00  0.00    -0.246 OA
BRANCH   6   8
ATOM      8  C   UNL     1      -9.622   5.195  -5.650  1.00  0.00     0.060 A 
ATOM      9  C   UNL     1      -7.510   3.229  -5.529  1.00  0.00    -0.040 A 
ATOM     10  C   UNL     1      -8.424   3.140  -6.521  1.00  0.00     0.005 A 
ATOM     11  C   UNL     1      -7.481   4.437  -4.780  1.00  0.00     0.005 A 
ATOM     12  C   UNL     1      -9.418   4.096  -6.519  1.00  0.00     0.016 A 
ATOM     13  C   UNL     1      -8.538   5.389  -4.820  1.00  0.00     0.016 A 
BRANCH   9  14
ATOM     14  C   UNL     1      -6.867   1.901  -5.214  1.00  0.00     0.064 C 
ATOM     15  N   UNL     1      -5.712   2.046  -1.836  1.00  0.00    -0.180 N 
ATOM     16  N   UNL     1      -7.020   2.305  -1.567  1.00  0.00    -0.168 NA
ATOM     17  C   UNL     1      -5.457   2.151  -3.188  1.00  0.00     0.143 A 
ATOM     18  C   UNL     1      -7.638   2.058  -2.720  1.00  0.00     0.066 A 
ATOM     19  C   UNL     1      -6.683   1.957  -3.765  1.00  0.00     0.026 A 
ATOM     20  N   UNL     1      -4.327   2.342  -3.967  1.00  0.00    -0.310 N 
ATOM     21  C   UNL     1      -9.123   2.078  -2.771  1.00  0.00     0.069 C 
ATOM     22  C   UNL     1      -4.415   2.246  -5.402  1.00  0.00     0.226 C 
ATOM     23  H   UNL     1      -3.463   2.544  -3.539  1.00  0.00     0.171 HD
ATOM     24  C   UNL     1      -5.613   1.559  -5.991  1.00  0.00     0.113 C 
ATOM     25  O   UNL     1      -3.430   2.591  -6.035  1.00  0.00    -0.275 OA
BRANCH  15  26
ATOM     26  C   UNL     1      -4.932   1.357  -0.888  1.00  0.00     0.272 A 
ATOM     27  C   UNL     1      -3.059   0.235  -0.313  1.00  0.00     0.095 A 
ATOM     28  C   UNL     1      -3.789  -0.457   0.640  1.00  0.00     0.164 A 
ATOM     29  N   UNL     1      -3.630   1.133  -1.145  1.00  0.00    -0.208 NA
ATOM     30  N   UNL     1      -5.082  -0.193   0.854  1.00  0.00    -0.153 NA
ATOM     31  N   UNL     1      -5.645   0.762   0.106  1.00  0.00    -0.109 NA
BRANCH  27  32
ATOM     32  C   UNL     1      -1.605   0.135  -0.362  1.00  0.00     0.002 A 
ATOM     33  C   UNL     1       2.679  -0.072   0.067  1.00  0.00     0.044 C 
ATOM     34  C   UNL     1       1.194   0.009  -0.116  1.00  0.00    -0.051 A 
ATOM     35  C   UNL     1       0.436  -1.165  -0.179  1.00  0.00     0.004 A 
ATOM     36  C   UNL     1       0.554   1.246  -0.219  1.00  0.00     0.004 A 
ATOM     37  C   UNL     1      -0.951  -1.103  -0.305  1.00  0.00     0.011 A 
ATOM     38  C   UNL     1      -0.831   1.307  -0.347  1.00  0.00     0.011 A 
ENDBRANCH  27  32
ENDBRANCH  15  26
ENDBRANCH   9  14
ENDBRANCH   6   8
ENDBRANCH   5   6
ENDBRANCH   4   5
ENDBRANCH   3   4
ENDBRANCH   2   3
ENDBRANCH   1   2
BRANCH   1  39
ATOM     39  C   UNL     1     -10.890   9.070 -10.241  1.00  0.00     0.188 C 
BRANCH  39  40
ATOM     40  O   UNL     1     -10.373   9.234  -8.927  1.00  0.00    -0.376 OA
BRANCH  40  41
ATOM     41  C   UNL     1      -9.472  10.308  -8.700  1.00  0.00     0.202 C 
BRANCH  41  42
ATOM     42  C   UNL     1      -8.054  10.115  -9.282  1.00  0.00     0.261 C 
BRANCH  42  43
ATOM     43  O   UNL     1      -7.231   9.199  -8.508  1.00  0.00    -0.460 OA
BRANCH  43  44
ATOM     44  C   UNL     1      -6.797   8.042  -9.120  1.00  0.00     0.338 C 
ATOM     45  O   UNL     1      -5.677   7.931  -9.588  1.00  0.00    -0.246 OA
BRANCH  44  46
ATOM     46  C   UNL     1      -7.782   6.923  -8.955  1.00  0.00     0.060 A 
ATOM     47  C   UNL     1      -7.844   5.719  -9.667  1.00  0.00     0.016 A 
ATOM     48  C   UNL     1      -8.808   7.154  -8.096  1.00  0.00     0.016 A 
ATOM     49  C   UNL     1      -8.996   4.835  -9.581  1.00  0.00     0.010 A 
ATOM     50  C   UNL     1      -9.981   6.427  -8.261  1.00  0.00     0.010 A 
ATOM     51  C   UNL     1     -10.159   5.184  -8.876  1.00  0.00    -0.014 A 
BRANCH  51  52
ATOM     52  C   UNL     1     -11.562   4.435  -8.745  1.00  0.00     0.031 A 
ATOM     53  C   UNL     1     -12.384   3.710  -7.467  1.00  0.00     0.074 A 
ATOM     54  C   UNL     1     -12.312   4.547  -9.860  1.00  0.00     0.049 A 
ATOM     55  N   UNL     1     -13.640   3.344  -7.561  1.00  0.00    -0.248 NA
ATOM     56  C   UNL     1     -11.961   3.293  -6.079  1.00  0.00     0.031 C 
ATOM     57  C   UNL     1     -13.755   4.429  -9.992  1.00  0.00     0.029 A 
ATOM     58  N   UNL     1     -11.858   4.534 -11.174  1.00  0.00    -0.354 N 
ATOM     59  C   UNL     1     -14.147   3.020  -6.312  1.00  0.00     0.074 A 
ATOM     60  C   UNL     1     -13.056   2.926  -5.432  1.00  0.00     0.031 C 
ATOM     61  C   UNL     1     -14.030   3.997 -11.226  1.00  0.00     0.029 A 
ATOM     62  C   UNL     1     -12.762   3.725 -11.868  1.00  0.00     0.049 A 
ATOM     63  H   UNL     1     -11.068   4.995 -11.538  1.00  0.00     0.167 HD
ATOM     64  C   UNL     1     -15.463   2.824  -6.067  1.00  0.00     0.031 A 
ATOM     65  C   UNL     1     -12.403   2.568 -12.487  1.00  0.00     0.031 A 
ATOM     66  C   UNL     1     -16.101   2.377  -7.280  1.00  0.00     0.049 A 
ATOM     67  C   UNL     1     -13.220   1.370 -12.041  1.00  0.00     0.074 A 
ATOM     68  C   UNL     1     -16.926   2.929  -8.235  1.00  0.00     0.029 A 
ATOM     69  N   UNL     1     -15.577   1.220  -7.834  1.00  0.00    -0.354 N 
ATOM     70  N   UNL     1     -14.153   1.394 -11.126  1.00  0.00    -0.248 NA
ATOM     71  C   UNL     1     -13.005   0.026 -12.558  1.00  0.00     0.031 C 
ATOM     72  C   UNL     1     -16.826   2.110  -9.407  1.00  0.00     0.029 A 
ATOM     73  C   UNL     1     -15.993   1.037  -9.133  1.00  0.00     0.049 A 
ATOM     74  H   UNL     1     -14.979   0.602  -7.355  1.00  0.00     0.167 HD
ATOM     75  C   UNL     1     -14.602   0.120 -10.863  1.00  0.00     0.074 A 
ATOM     76  C   UNL     1     -13.865  -0.694 -11.815  1.00  0.00     0.031 C 
ATOM     77  C   UNL     1     -15.489  -0.141  -9.845  1.00  0.00     0.031 A 
BRANCH  64  78
ATOM     78  C   UNL     1     -16.104   3.078  -4.712  1.00  0.00    -0.014 A 
ATOM     79  C   UNL     1     -17.491   2.924  -4.541  1.00  0.00     0.010 A 
ATOM     80  C   UNL     1     -15.411   3.640  -3.607  1.00  0.00     0.010 A 
ATOM     81  C   UNL     1     -18.145   3.336  -3.359  1.00  0.00     0.020 A 
ATOM     82  C   UNL     1     -16.040   4.011  -2.410  1.00  0.00     0.020 A 
ATOM     83  C   UNL     1     -17.415   3.886  -2.303  1.00  0.00     0.054 A 
BRANCH  83  84
ATOM     84  S   UNL     1     -18.270   4.502  -0.825  1.00  0.00     0.124 S 
ATOM     85  O   UNL     1     -19.025   5.635  -1.355  1.00  0.00    -0.237 OA
ATOM     86  O   UNL     1     -19.064   3.350  -0.410  1.00  0.00    -0.237 OA
ATOM     87  O   UNL     1     -17.181   4.859   0.084  1.00  0.00    -0.744 OA
ENDBRANCH  83  84
ENDBRANCH  64  78
BRANCH  65  88
ATOM     88  C   UNL     1     -11.002   2.598 -13.014  1.00  0.00    -0.014 A 
ATOM     89  C   UNL     1     -10.759   3.551 -14.033  1.00  0.00     0.010 A 
ATOM     90  C   UNL     1      -9.906   2.121 -12.271  1.00  0.00     0.010 A 
ATOM     91  C   UNL     1      -9.505   4.147 -14.181  1.00  0.00     0.020 A 
ATOM     92  C   UNL     1      -8.630   2.694 -12.448  1.00  0.00     0.020 A 
ATOM     93  C   UNL     1      -8.461   3.753 -13.348  1.00  0.00     0.054 A 
BRANCH  93  94
ATOM     94  S   UNL     1      -6.974   4.804 -13.306  1.00  0.00     0.124 S 
ATOM     95  O   UNL     1      -6.506   4.747 -14.686  1.00  0.00    -0.237 OA
ATOM     96  O   UNL     1      -7.534   6.085 -12.879  1.00  0.00    -0.237 OA
ATOM     97  O   UNL     1      -6.127   4.139 -12.320  1.00  0.00    -0.744 OA
ENDBRANCH  93  94
ENDBRANCH  65  88
BRANCH  77  98
ATOM     98  C   UNL     1     -15.895  -1.518  -9.300  1.00  0.00    -0.014 A 
ATOM     99  C   UNL     1     -15.627  -2.749  -9.911  1.00  0.00     0.010 A 
ATOM    100  C   UNL     1     -16.583  -1.597  -8.056  1.00  0.00     0.010 A 
ATOM    101  C   UNL     1     -15.944  -3.973  -9.290  1.00  0.00     0.020 A 
ATOM    102  C   UNL     1     -16.884  -2.803  -7.413  1.00  0.00     0.020 A 
ATOM    103  C   UNL     1     -16.557  -3.991  -8.038  1.00  0.00     0.054 A 
BRANCH 103 104
ATOM    104  S   UNL     1     -16.915  -5.576  -7.245  1.00  0.00     0.124 S 
ATOM    105  O   UNL     1     -18.018  -6.079  -8.059  1.00  0.00    -0.237 OA
ATOM    106  O   UNL     1     -15.649  -6.291  -7.389  1.00  0.00    -0.237 OA
ATOM    107  O   UNL     1     -17.262  -5.209  -5.875  1.00  0.00    -0.744 OA
ENDBRANCH 103 104
ENDBRANCH  77  98
ENDBRANCH  51  52
ENDBRANCH  44  46
ENDBRANCH  43  44
ENDBRANCH  42  43
ENDBRANCH  41  42
ENDBRANCH  40  41
ENDBRANCH  39  40
ENDBRANCH   1  39
TORSDOF 23
