REMARK SMILES O=C(Cc1c(C(=O)c2cc3c(cn2)CCCC3)[nH]c2cc(Cl)ccc12)OCCOCCOCCOC(=O)c1ccc(-c2c3nc(c(-c4ccc(S(=O)(=O)[O-])cc4)c4ccc([nH]4)c(-c4ccc(S(=O)(=O)[O-])cc4)c4nc(c(-c5ccc(S(=O)(=O)[O-])cc5)c5ccc2[nH]5)C=C4)C=C3)cc1
REMARK SMILES IDX 30 1 29 2 28 3 27 4 26 5 2 6 1 7 3 8 4 9 5 10 25 11 18 12
REMARK SMILES IDX 19 13 24 14 20 16 23 17 21 18 22 19 6 20 7 21 8 22 9 23
REMARK SMILES IDX 13 24 10 25 12 26 11 27 17 28 14 29 16 30 15 31 31 32 32 33
REMARK SMILES IDX 33 34 34 35 35 36 36 37 37 38 38 39 39 40 97 41 40 42 96 43
REMARK SMILES IDX 41 44 42 45 43 46 90 47 44 48 95 49 89 50 91 51 45 52 94 53
REMARK SMILES IDX 88 54 87 55 46 57 76 58 57 59 75 60 58 61 61 62 74 63 92 64
REMARK SMILES IDX 59 65 60 66 73 68 93 69 62 70 47 71 48 72 56 73 49 74 55 75
REMARK SMILES IDX 50 76 51 77 52 78 53 79 54 80 77 81 78 82 86 83 79 84 85 85
REMARK SMILES IDX 80 86 81 87 82 88 83 89 84 90 63 91 64 92 72 93 65 94 71 95
REMARK SMILES IDX 66 96 67 97 68 98 69 99 70 100
REMARK H PARENT 18 15 91 56 61 67
REMARK Flexibility Score: inf
ROOT
ATOM      1  C   UNL     1       2.451  -1.807  -1.079  1.00  0.00     0.188 C 
ENDROOT
BRANCH   1   2
ATOM      2  O   UNL     1       3.819  -1.474  -1.257  1.00  0.00    -0.376 OA
BRANCH   2   3
ATOM      3  C   UNL     1       4.730  -1.537  -0.165  1.00  0.00     0.202 C 
BRANCH   3   4
ATOM      4  C   UNL     1       4.280  -1.132   1.249  1.00  0.00     0.261 C 
BRANCH   4   5
ATOM      5  O   UNL     1       3.005  -0.509   1.424  1.00  0.00    -0.463 OA
BRANCH   5   6
ATOM      6  C   UNL     1       2.740   0.761   1.038  1.00  0.00     0.310 C 
ATOM      7  O   UNL     1       1.887   1.407   1.645  1.00  0.00    -0.252 OA
BRANCH   6   8
ATOM      8  C   UNL     1       3.388   1.265  -0.231  1.00  0.00     0.161 C 
BRANCH   8   9
ATOM      9  C   UNL     1       4.174   2.494  -0.002  1.00  0.00     0.000 A 
ATOM     10  C   UNL     1       3.791   3.755  -0.415  1.00  0.00     0.093 A 
ATOM     11  C   UNL     1       5.478   2.602   0.570  1.00  0.00     0.004 A 
ATOM     12  N   UNL     1       4.632   4.630   0.245  1.00  0.00    -0.351 N 
ATOM     13  C   UNL     1       5.700   3.954   0.797  1.00  0.00     0.048 A 
ATOM     14  C   UNL     1       6.494   1.691   0.926  1.00  0.00     0.012 A 
ATOM     15  H   UNL     1       4.489   5.601   0.313  1.00  0.00     0.167 HD
ATOM     16  C   UNL     1       6.842   4.427   1.461  1.00  0.00     0.047 A 
ATOM     17  C   UNL     1       7.649   2.137   1.570  1.00  0.00     0.021 A 
ATOM     18  C   UNL     1       7.801   3.486   1.854  1.00  0.00     0.043 A 
ATOM     19  Cl  UNL     1       9.213   4.006   2.693  1.00  0.00    -0.084 Cl
BRANCH  10  20
ATOM     20  C   UNL     1       2.704   4.072  -1.345  1.00  0.00     0.227 C 
ATOM     21  O   UNL     1       2.131   3.247  -2.054  1.00  0.00    -0.285 OA
BRANCH  20  22
ATOM     22  C   UNL     1       2.341   5.480  -1.510  1.00  0.00     0.113 A 
ATOM     23  C   UNL     1       3.331   6.333  -1.959  1.00  0.00     0.036 A 
ATOM     24  N   UNL     1       1.129   5.852  -1.034  1.00  0.00    -0.252 NA
ATOM     25  C   UNL     1       3.112   7.688  -1.808  1.00  0.00    -0.041 A 
ATOM     26  C   UNL     1       0.902   7.176  -1.011  1.00  0.00     0.115 A 
ATOM     27  C   UNL     1       1.863   8.127  -1.337  1.00  0.00    -0.026 A 
ATOM     28  C   UNL     1       4.263   8.626  -2.037  1.00  0.00     0.036 C 
ATOM     29  C   UNL     1       1.540   9.590  -1.244  1.00  0.00     0.037 C 
ATOM     30  C   UNL     1       3.802  10.065  -2.165  1.00  0.00     0.005 C 
ATOM     31  C   UNL     1       2.799  10.436  -1.086  1.00  0.00     0.005 C 
ENDBRANCH  20  22
ENDBRANCH  10  20
ENDBRANCH   8   9
ENDBRANCH   6   8
ENDBRANCH   5   6
ENDBRANCH   4   5
ENDBRANCH   3   4
ENDBRANCH   2   3
ENDBRANCH   1   2
BRANCH   1  32
ATOM     32  C   UNL     1       2.142  -3.216  -0.597  1.00  0.00     0.188 C 
BRANCH  32  33
ATOM     33  O   UNL     1       3.254  -3.784   0.069  1.00  0.00    -0.376 OA
BRANCH  33  34
ATOM     34  C   UNL     1       3.900  -4.832  -0.641  1.00  0.00     0.202 C 
BRANCH  34  35
ATOM     35  C   UNL     1       4.542  -4.599  -2.034  1.00  0.00     0.261 C 
BRANCH  35  36
ATOM     36  O   UNL     1       4.047  -3.570  -2.906  1.00  0.00    -0.460 OA
BRANCH  36  37
ATOM     37  C   UNL     1       3.028  -3.844  -3.750  1.00  0.00     0.338 C 
ATOM     38  O   UNL     1       2.348  -4.859  -3.753  1.00  0.00    -0.246 OA
BRANCH  37  39
ATOM     39  C   UNL     1       2.802  -2.661  -4.625  1.00  0.00     0.060 A 
ATOM     40  C   UNL     1       3.780  -2.254  -5.538  1.00  0.00     0.016 A 
ATOM     41  C   UNL     1       1.595  -1.953  -4.550  1.00  0.00     0.016 A 
ATOM     42  C   UNL     1       3.554  -1.135  -6.356  1.00  0.00     0.010 A 
ATOM     43  C   UNL     1       1.391  -0.809  -5.335  1.00  0.00     0.010 A 
ATOM     44  C   UNL     1       2.362  -0.394  -6.258  1.00  0.00    -0.014 A 
BRANCH  44  45
ATOM     45  C   UNL     1       2.048   0.674  -7.248  1.00  0.00     0.031 A 
ATOM     46  C   UNL     1       2.248   2.137  -6.962  1.00  0.00     0.074 A 
ATOM     47  C   UNL     1       1.546   0.296  -8.442  1.00  0.00     0.049 A 
ATOM     48  N   UNL     1       2.092   3.151  -7.777  1.00  0.00    -0.248 NA
ATOM     49  C   UNL     1       2.674   2.520  -5.608  1.00  0.00     0.031 C 
ATOM     50  C   UNL     1       1.290  -1.092  -8.829  1.00  0.00     0.029 A 
ATOM     51  N   UNL     1       1.168   1.025  -9.545  1.00  0.00    -0.354 N 
ATOM     52  C   UNL     1       2.418   4.289  -7.048  1.00  0.00     0.074 A 
ATOM     53  C   UNL     1       2.752   3.845  -5.712  1.00  0.00     0.031 C 
ATOM     54  C   UNL     1       0.820  -1.117 -10.084  1.00  0.00     0.029 A 
ATOM     55  C   UNL     1       0.709   0.252 -10.587  1.00  0.00     0.049 A 
ATOM     56  H   UNL     1       1.221   2.008  -9.585  1.00  0.00     0.167 HD
ATOM     57  C   UNL     1       2.445   5.575  -7.471  1.00  0.00     0.031 A 
ATOM     58  C   UNL     1       0.254   0.586 -11.813  1.00  0.00     0.031 A 
ATOM     59  C   UNL     1       2.109   5.998  -8.815  1.00  0.00     0.049 A 
ATOM     60  C   UNL     1       0.256   2.024 -12.243  1.00  0.00     0.074 A 
ATOM     61  C   UNL     1       2.219   7.271  -9.353  1.00  0.00     0.029 A 
ATOM     62  N   UNL     1       1.593   5.192  -9.817  1.00  0.00    -0.354 N 
ATOM     63  N   UNL     1       0.666   3.072 -11.573  1.00  0.00    -0.248 NA
ATOM     64  C   UNL     1      -0.245   2.330 -13.591  1.00  0.00     0.031 C 
ATOM     65  C   UNL     1       1.663   7.261 -10.629  1.00  0.00     0.029 A 
ATOM     66  C   UNL     1       1.321   5.957 -10.943  1.00  0.00     0.049 A 
ATOM     67  H   UNL     1       1.442   4.223  -9.742  1.00  0.00     0.167 HD
ATOM     68  C   UNL     1       0.492   4.159 -12.421  1.00  0.00     0.074 A 
ATOM     69  C   UNL     1      -0.052   3.644 -13.659  1.00  0.00     0.031 C 
ATOM     70  C   UNL     1       0.770   5.463 -12.182  1.00  0.00     0.031 A 
BRANCH  57  71
ATOM     71  C   UNL     1       2.916   6.679  -6.546  1.00  0.00    -0.014 A 
ATOM     72  C   UNL     1       2.037   7.738  -6.231  1.00  0.00     0.010 A 
ATOM     73  C   UNL     1       4.294   6.850  -6.330  1.00  0.00     0.010 A 
ATOM     74  C   UNL     1       2.538   8.993  -5.864  1.00  0.00     0.020 A 
ATOM     75  C   UNL     1       4.795   8.096  -5.939  1.00  0.00     0.020 A 
ATOM     76  C   UNL     1       3.920   9.176  -5.780  1.00  0.00     0.054 A 
BRANCH  76  77
ATOM     77  S   UNL     1       4.626  10.839  -5.545  1.00  0.00     0.124 S 
ATOM     78  O   UNL     1       5.028  11.200  -6.899  1.00  0.00    -0.237 OA
ATOM     79  O   UNL     1       3.517  11.614  -4.993  1.00  0.00    -0.237 OA
ATOM     80  O   UNL     1       5.722  10.582  -4.612  1.00  0.00    -0.744 OA
ENDBRANCH  76  77
ENDBRANCH  57  71
BRANCH  58  81
ATOM     81  C   UNL     1      -0.174  -0.510 -12.727  1.00  0.00    -0.014 A 
ATOM     82  C   UNL     1      -1.312  -1.281 -12.421  1.00  0.00     0.010 A 
ATOM     83  C   UNL     1       0.644  -0.893 -13.803  1.00  0.00     0.010 A 
ATOM     84  C   UNL     1      -1.567  -2.470 -13.108  1.00  0.00     0.020 A 
ATOM     85  C   UNL     1       0.373  -2.066 -14.515  1.00  0.00     0.020 A 
ATOM     86  C   UNL     1      -0.705  -2.868 -14.132  1.00  0.00     0.054 A 
BRANCH  86  87
ATOM     87  S   UNL     1      -0.969  -4.489 -14.905  1.00  0.00     0.124 S 
ATOM     88  O   UNL     1      -0.580  -5.399 -13.830  1.00  0.00    -0.237 OA
ATOM     89  O   UNL     1      -2.393  -4.461 -15.222  1.00  0.00    -0.237 OA
ATOM     90  O   UNL     1      -0.074  -4.470 -16.059  1.00  0.00    -0.744 OA
ENDBRANCH  86  87
ENDBRANCH  58  81
BRANCH  70  91
ATOM     91  C   UNL     1       0.492   6.487 -13.256  1.00  0.00    -0.014 A 
ATOM     92  C   UNL     1       1.561   7.214 -13.819  1.00  0.00     0.010 A 
ATOM     93  C   UNL     1      -0.826   6.880 -13.546  1.00  0.00     0.010 A 
ATOM     94  C   UNL     1       1.319   8.359 -14.584  1.00  0.00     0.020 A 
ATOM     95  C   UNL     1      -1.072   8.006 -14.341  1.00  0.00     0.020 A 
ATOM     96  C   UNL     1       0.002   8.759 -14.822  1.00  0.00     0.054 A 
BRANCH  96  97
ATOM     97  S   UNL     1      -0.290  10.306 -15.726  1.00  0.00     0.124 S 
ATOM     98  O   UNL     1       0.123  11.315 -14.755  1.00  0.00    -0.237 OA
ATOM     99  O   UNL     1       0.576  10.162 -16.894  1.00  0.00    -0.237 OA
ATOM    100  O   UNL     1      -1.722  10.271 -16.015  1.00  0.00    -0.744 OA
ENDBRANCH  96  97
ENDBRANCH  70  91
ENDBRANCH  44  45
ENDBRANCH  37  39
ENDBRANCH  36  37
ENDBRANCH  35  36
ENDBRANCH  34  35
ENDBRANCH  33  34
ENDBRANCH  32  33
ENDBRANCH   1  32
TORSDOF 23
