REMARK SMILES O=C(CCCc1nc(-c2ccc(Cl)c(Cl)c2)c(-c2ccccc2)o1)OCCOCCOCCOC(=O)c1ccc(-c2c3nc(c(-c4ccc(S(=O)(=O)[O-])cc4)c4ccc([nH]4)c(-c4ccc(S(=O)(=O)[O-])cc4)c4nc(c(-c5ccc(S(=O)(=O)[O-])cc5)c5ccc2[nH]5)C=C4)C=C3)cc1
REMARK SMILES IDX 29 1 28 2 27 3 26 4 25 5 2 6 1 7 3 8 4 9 5 10 6 11 7 12
REMARK SMILES IDX 24 13 8 14 17 15 9 16 10 17 16 18 11 19 14 20 12 21 15 22
REMARK SMILES IDX 13 23 18 24 19 25 23 26 20 27 22 28 21 29 30 30 31 31 32 32
REMARK SMILES IDX 33 33 34 34 35 35 36 36 37 37 38 38 96 39 39 40 95 41 40 42
REMARK SMILES IDX 41 43 42 44 89 45 43 46 94 47 88 48 90 49 44 50 93 51 87 52
REMARK SMILES IDX 86 53 45 55 75 56 56 57 74 58 57 59 60 60 73 61 91 62 58 63
REMARK SMILES IDX 59 64 72 66 92 67 61 68 46 69 47 70 55 71 48 72 54 73 49 74
REMARK SMILES IDX 50 75 51 76 52 77 53 78 76 79 77 80 85 81 78 82 84 83 79 84
REMARK SMILES IDX 80 85 81 86 82 87 83 88 62 89 63 90 71 91 64 92 70 93 65 94
REMARK SMILES IDX 66 95 67 96 68 97 69 98
REMARK H PARENT 90 54 60 65
REMARK Flexibility Score: inf
ROOT
ATOM      1  C   UNL     1       1.857   0.784   1.384  1.00  0.00     0.188 C 
ENDROOT
BRANCH   1   2
ATOM      2  O   UNL     1       3.199   0.777   0.888  1.00  0.00    -0.376 OA
BRANCH   2   3
ATOM      3  C   UNL     1       3.380   1.565  -0.274  1.00  0.00     0.202 C 
BRANCH   3   4
ATOM      4  C   UNL     1       3.673   0.839  -1.569  1.00  0.00     0.261 C 
BRANCH   4   5
ATOM      5  O   UNL     1       2.844  -0.268  -1.928  1.00  0.00    -0.463 OA
BRANCH   5   6
ATOM      6  C   UNL     1       2.515  -1.315  -1.154  1.00  0.00     0.305 C 
ATOM      7  O   UNL     1       1.376  -1.774  -1.248  1.00  0.00    -0.252 OA
BRANCH   6   8
ATOM      8  C   UNL     1       3.521  -1.946  -0.212  1.00  0.00     0.123 C 
BRANCH   8   9
ATOM      9  C   UNL     1       4.847  -2.469  -0.753  1.00  0.00     0.021 C 
BRANCH   9  10
ATOM     10  C   UNL     1       5.978  -1.494  -1.099  1.00  0.00     0.098 C 
BRANCH  10  11
ATOM     11  C   UNL     1       6.505  -0.663   0.029  1.00  0.00     0.195 A 
ATOM     12  N   UNL     1       7.056  -1.121   1.132  1.00  0.00    -0.213 NA
ATOM     13  O   UNL     1       6.628   0.711  -0.136  1.00  0.00    -0.440 OA
ATOM     14  C   UNL     1       7.560  -0.005   1.739  1.00  0.00     0.117 A 
ATOM     15  C   UNL     1       7.324   1.131   0.985  1.00  0.00     0.162 A 
BRANCH  14  16
ATOM     16  C   UNL     1       8.318  -0.071   2.961  1.00  0.00     0.006 A 
ATOM     17  C   UNL     1       9.612  -0.603   2.917  1.00  0.00     0.012 A 
ATOM     18  C   UNL     1       7.793   0.405   4.165  1.00  0.00     0.032 A 
ATOM     19  C   UNL     1      10.390  -0.641   4.071  1.00  0.00     0.023 A 
ATOM     20  C   UNL     1       8.569   0.354   5.326  1.00  0.00     0.060 A 
ATOM     21  C   UNL     1       9.871  -0.164   5.279  1.00  0.00     0.059 A 
ATOM     22  Cl  UNL     1       7.868   0.956   6.786  1.00  0.00    -0.083 Cl
ATOM     23  Cl  UNL     1      10.895  -0.238   6.668  1.00  0.00    -0.083 Cl
ENDBRANCH  14  16
BRANCH  15  24
ATOM     24  C   UNL     1       7.651   2.553   1.168  1.00  0.00     0.020 A 
ATOM     25  C   UNL     1       6.718   3.568   0.934  1.00  0.00     0.012 A 
ATOM     26  C   UNL     1       8.862   2.928   1.777  1.00  0.00     0.012 A 
ATOM     27  C   UNL     1       6.906   4.863   1.440  1.00  0.00     0.001 A 
ATOM     28  C   UNL     1       9.069   4.227   2.259  1.00  0.00     0.001 A 
ATOM     29  C   UNL     1       8.071   5.184   2.127  1.00  0.00     0.000 A 
ENDBRANCH  15  24
ENDBRANCH  10  11
ENDBRANCH   9  10
ENDBRANCH   8   9
ENDBRANCH   6   8
ENDBRANCH   5   6
ENDBRANCH   4   5
ENDBRANCH   3   4
ENDBRANCH   2   3
ENDBRANCH   1   2
BRANCH   1  30
ATOM     30  C   UNL     1       1.309   2.155   1.830  1.00  0.00     0.188 C 
BRANCH  30  31
ATOM     31  O   UNL     1       2.066   3.261   1.361  1.00  0.00    -0.376 OA
BRANCH  31  32
ATOM     32  C   UNL     1       3.011   3.858   2.242  1.00  0.00     0.202 C 
BRANCH  32  33
ATOM     33  C   UNL     1       4.015   3.000   3.030  1.00  0.00     0.261 C 
BRANCH  33  34
ATOM     34  O   UNL     1       3.490   1.903   3.772  1.00  0.00    -0.460 OA
BRANCH  34  35
ATOM     35  C   UNL     1       2.723   2.206   4.829  1.00  0.00     0.338 C 
ATOM     36  O   UNL     1       2.363   3.312   5.207  1.00  0.00    -0.246 OA
BRANCH  35  37
ATOM     37  C   UNL     1       2.289   0.926   5.382  1.00  0.00     0.060 A 
ATOM     38  C   UNL     1       0.994   0.473   5.113  1.00  0.00     0.016 A 
ATOM     39  C   UNL     1       3.174   0.191   6.176  1.00  0.00     0.016 A 
ATOM     40  C   UNL     1       0.550  -0.697   5.702  1.00  0.00     0.010 A 
ATOM     41  C   UNL     1       2.720  -0.974   6.784  1.00  0.00     0.010 A 
ATOM     42  C   UNL     1       1.389  -1.377   6.594  1.00  0.00    -0.014 A 
BRANCH  42  43
ATOM     43  C   UNL     1       0.752  -2.311   7.537  1.00  0.00     0.031 A 
ATOM     44  C   UNL     1       0.328  -1.760   8.871  1.00  0.00     0.074 A 
ATOM     45  C   UNL     1       0.465  -3.566   7.161  1.00  0.00     0.049 A 
ATOM     46  N   UNL     1      -0.332  -2.343   9.835  1.00  0.00    -0.248 NA
ATOM     47  C   UNL     1       0.686  -0.357   9.151  1.00  0.00     0.031 C 
ATOM     48  C   UNL     1       0.783  -4.152   5.858  1.00  0.00     0.029 A 
ATOM     49  N   UNL     1      -0.181  -4.565   7.835  1.00  0.00    -0.354 N 
ATOM     50  C   UNL     1      -0.458  -1.383  10.833  1.00  0.00     0.074 A 
ATOM     51  C   UNL     1       0.217  -0.192  10.377  1.00  0.00     0.031 C 
ATOM     52  C   UNL     1       0.317  -5.412   5.825  1.00  0.00     0.029 A 
ATOM     53  C   UNL     1      -0.302  -5.724   7.111  1.00  0.00     0.049 A 
ATOM     54  H   UNL     1      -0.526  -4.462   8.751  1.00  0.00     0.167 HD
ATOM     55  C   UNL     1      -1.088  -1.490  12.025  1.00  0.00     0.031 A 
ATOM     56  C   UNL     1      -0.851  -6.902   7.461  1.00  0.00     0.031 A 
ATOM     57  C   UNL     1      -1.737  -2.696  12.463  1.00  0.00     0.049 A 
ATOM     58  C   UNL     1      -1.488  -7.016   8.821  1.00  0.00     0.074 A 
ATOM     59  C   UNL     1      -2.407  -2.933  13.647  1.00  0.00     0.029 A 
ATOM     60  N   UNL     1      -1.787  -3.872  11.727  1.00  0.00    -0.354 N 
ATOM     61  N   UNL     1      -1.611  -6.101   9.755  1.00  0.00    -0.248 NA
ATOM     62  C   UNL     1      -2.078  -8.315   9.165  1.00  0.00     0.031 C 
ATOM     63  C   UNL     1      -2.805  -4.274  13.656  1.00  0.00     0.029 A 
ATOM     64  C   UNL     1      -2.455  -4.848  12.442  1.00  0.00     0.049 A 
ATOM     65  H   UNL     1      -1.404  -3.993  10.828  1.00  0.00     0.167 HD
ATOM     66  C   UNL     1      -2.329  -6.702  10.784  1.00  0.00     0.074 A 
ATOM     67  C   UNL     1      -2.620  -8.054  10.347  1.00  0.00     0.031 C 
ATOM     68  C   UNL     1      -2.723  -6.186  11.976  1.00  0.00     0.031 A 
BRANCH  55  69
ATOM     69  C   UNL     1      -1.046  -0.299  12.946  1.00  0.00    -0.014 A 
ATOM     70  C   UNL     1      -1.739   0.890  12.652  1.00  0.00     0.010 A 
ATOM     71  C   UNL     1      -0.304  -0.377  14.139  1.00  0.00     0.010 A 
ATOM     72  C   UNL     1      -1.659   1.989  13.513  1.00  0.00     0.020 A 
ATOM     73  C   UNL     1      -0.247   0.707  15.018  1.00  0.00     0.020 A 
ATOM     74  C   UNL     1      -0.914   1.889  14.692  1.00  0.00     0.054 A 
BRANCH  74  75
ATOM     75  S   UNL     1      -0.851   3.319  15.807  1.00  0.00     0.124 S 
ATOM     76  O   UNL     1      -0.024   4.256  15.051  1.00  0.00    -0.237 OA
ATOM     77  O   UNL     1      -2.259   3.686  15.934  1.00  0.00    -0.237 OA
ATOM     78  O   UNL     1      -0.237   2.787  17.021  1.00  0.00    -0.744 OA
ENDBRANCH  74  75
ENDBRANCH  55  69
BRANCH  56  79
ATOM     79  C   UNL     1      -0.822  -8.049   6.513  1.00  0.00    -0.014 A 
ATOM     80  C   UNL     1      -2.006  -8.547   5.943  1.00  0.00     0.010 A 
ATOM     81  C   UNL     1       0.404  -8.648   6.169  1.00  0.00     0.010 A 
ATOM     82  C   UNL     1      -1.967  -9.635   5.064  1.00  0.00     0.020 A 
ATOM     83  C   UNL     1       0.451  -9.715   5.268  1.00  0.00     0.020 A 
ATOM     84  C   UNL     1      -0.738 -10.211   4.731  1.00  0.00     0.054 A 
BRANCH  84  85
ATOM     85  S   UNL     1      -0.708 -11.596   3.560  1.00  0.00     0.124 S 
ATOM     86  O   UNL     1      -1.292 -12.675   4.351  1.00  0.00    -0.237 OA
ATOM     87  O   UNL     1      -1.533 -11.098   2.462  1.00  0.00    -0.237 OA
ATOM     88  O   UNL     1       0.711 -11.748   3.245  1.00  0.00    -0.744 OA
ENDBRANCH  84  85
ENDBRANCH  56  79
BRANCH  68  89
ATOM     89  C   UNL     1      -3.559  -7.072  12.862  1.00  0.00    -0.014 A 
ATOM     90  C   UNL     1      -3.020  -8.205  13.495  1.00  0.00     0.010 A 
ATOM     91  C   UNL     1      -4.907  -6.735  13.087  1.00  0.00     0.010 A 
ATOM     92  C   UNL     1      -3.830  -9.018  14.291  1.00  0.00     0.020 A 
ATOM     93  C   UNL     1      -5.709  -7.523  13.913  1.00  0.00     0.020 A 
ATOM     94  C   UNL     1      -5.171  -8.673  14.491  1.00  0.00     0.054 A 
BRANCH  94  95
ATOM     95  S   UNL     1      -6.199  -9.739  15.536  1.00  0.00     0.124 S 
ATOM     96  O   UNL     1      -6.395 -10.905  14.679  1.00  0.00    -0.237 OA
ATOM     97  O   UNL     1      -5.352  -9.953  16.706  1.00  0.00    -0.237 OA
ATOM     98  O   UNL     1      -7.396  -8.936  15.779  1.00  0.00    -0.744 OA
ENDBRANCH  94  95
ENDBRANCH  68  89
ENDBRANCH  42  43
ENDBRANCH  35  37
ENDBRANCH  34  35
ENDBRANCH  33  34
ENDBRANCH  32  33
ENDBRANCH  31  32
ENDBRANCH  30  31
ENDBRANCH   1  30
TORSDOF 25
