REMARK SMILES O=C(OCCOCCOCCOC(=O)[C@@H]1CCCCC[C@@H]1NC(=O)c1cc(F)ccc1Br)c1ccc(-c2c3nc(c(-c4ccc(S(=O)(=O)[O-])cc4)c4ccc([nH]4)c(-c4ccc(S(=O)(=O)[O-])cc4)c4nc(c(-c5ccc(S(=O)(=O)[O-])cc5)c5ccc2[nH]5)C=C4)C=C3)cc1
REMARK SMILES IDX 7 1 6 2 5 3 4 4 3 5 2 6 1 7 33 8 34 9 92 10 35 11 91 12
REMARK SMILES IDX 36 13 37 14 38 15 85 16 39 17 90 18 84 19 86 20 40 21 89 22
REMARK SMILES IDX 83 23 82 24 41 26 71 27 52 28 70 29 53 30 56 31 69 32 87 33
REMARK SMILES IDX 54 34 55 35 68 37 88 38 57 39 42 40 43 41 51 42 44 43 50 44
REMARK SMILES IDX 45 45 46 46 47 47 48 48 49 49 72 50 73 51 81 52 74 53 80 54
REMARK SMILES IDX 75 55 76 56 77 57 78 58 79 59 58 60 59 61 67 62 60 63 66 64
REMARK SMILES IDX 61 65 62 66 63 67 64 68 65 69 8 70 9 71 10 72 11 73 12 74
REMARK SMILES IDX 13 75 14 76 15 77 16 78 17 79 18 80 21 82 20 83 19 84 22 86
REMARK SMILES IDX 23 87 24 89 25 90 26 91 31 92 27 93 30 94 32 95 28 96 29 97
REMARK H PARENT 86 25 56 36 22 88
REMARK Flexibility Score: 90.00
ROOT
ATOM      1  C   UNL     1       2.779  -1.061   1.378  1.00  0.00     0.188 C 
ENDROOT
BRANCH   1   2
ATOM      2  O   UNL     1       4.180  -1.051   1.558  1.00  0.00    -0.376 OA
BRANCH   2   3
ATOM      3  C   UNL     1       4.952   0.140   1.481  1.00  0.00     0.202 C 
BRANCH   3   4
ATOM      4  C   UNL     1       4.434   1.490   0.893  1.00  0.00     0.261 C 
BRANCH   4   5
ATOM      5  O   UNL     1       3.066   1.629   0.411  1.00  0.00    -0.460 OA
BRANCH   5   6
ATOM      6  C   UNL     1       2.446   1.355  -0.768  1.00  0.00     0.338 C 
ATOM      7  O   UNL     1       1.283   1.708  -0.945  1.00  0.00    -0.246 OA
BRANCH   6   8
ATOM      8  C   UNL     1       3.103   0.557  -1.827  1.00  0.00     0.060 A 
ATOM      9  C   UNL     1       4.228  -0.184  -1.529  1.00  0.00     0.016 A 
ATOM     10  C   UNL     1       2.542   0.410  -3.102  1.00  0.00     0.016 A 
ATOM     11  C   UNL     1       4.891  -0.957  -2.422  1.00  0.00     0.010 A 
ATOM     12  C   UNL     1       3.131  -0.467  -4.016  1.00  0.00     0.010 A 
ATOM     13  C   UNL     1       4.298  -1.135  -3.644  1.00  0.00    -0.014 A 
BRANCH  13  14
ATOM     14  C   UNL     1       5.003  -2.093  -4.429  1.00  0.00     0.031 A 
ATOM     15  C   UNL     1       5.925  -1.654  -5.575  1.00  0.00     0.074 A 
ATOM     16  C   UNL     1       4.888  -3.376  -4.040  1.00  0.00     0.049 A 
ATOM     17  N   UNL     1       6.545  -2.370  -6.493  1.00  0.00    -0.248 NA
ATOM     18  C   UNL     1       6.123  -0.210  -5.727  1.00  0.00     0.031 C 
ATOM     19  C   UNL     1       3.706  -4.510  -3.027  1.00  0.00     0.029 A 
ATOM     20  N   UNL     1       5.786  -4.485  -5.094  1.00  0.00    -0.354 N 
ATOM     21  C   UNL     1       7.150  -1.479  -7.378  1.00  0.00     0.074 A 
ATOM     22  C   UNL     1       6.827  -0.154  -6.851  1.00  0.00     0.031 C 
ATOM     23  C   UNL     1       3.846  -6.173  -3.482  1.00  0.00     0.029 A 
ATOM     24  C   UNL     1       5.199  -6.401  -4.918  1.00  0.00     0.049 A 
ATOM     25  H   UNL     1       6.500  -4.192  -5.704  1.00  0.00     0.167 HD
ATOM     26  C   UNL     1       7.864  -1.691  -8.528  1.00  0.00     0.031 A 
ATOM     27  C   UNL     1       5.399  -7.670  -5.554  1.00  0.00     0.031 A 
ATOM     28  C   UNL     1       8.181  -2.968  -9.192  1.00  0.00     0.049 A 
ATOM     29  C   UNL     1       6.253  -8.024  -6.886  1.00  0.00     0.074 A 
ATOM     30  C   UNL     1       8.774  -3.163 -10.428  1.00  0.00     0.029 A 
ATOM     31  N   UNL     1       8.018  -4.267  -8.696  1.00  0.00    -0.354 N 
ATOM     32  N   UNL     1       7.161  -7.271  -7.446  1.00  0.00    -0.248 NA
ATOM     33  C   UNL     1       6.099  -9.235  -7.707  1.00  0.00     0.031 C 
ATOM     34  C   UNL     1       8.755  -4.539 -10.732  1.00  0.00     0.029 A 
ATOM     35  C   UNL     1       8.230  -5.274  -9.665  1.00  0.00     0.049 A 
ATOM     36  H   UNL     1       7.778  -4.461  -7.761  1.00  0.00     0.167 HD
ATOM     37  C   UNL     1       7.415  -7.603  -8.723  1.00  0.00     0.074 A 
ATOM     38  C   UNL     1       6.878  -8.960  -8.779  1.00  0.00     0.031 C 
ATOM     39  C   UNL     1       7.951  -6.765  -9.666  1.00  0.00     0.031 A 
BRANCH  26  40
ATOM     40  C   UNL     1       8.289  -0.411  -9.245  1.00  0.00    -0.014 A 
ATOM     41  C   UNL     1       9.288   0.428  -8.711  1.00  0.00     0.010 A 
ATOM     42  C   UNL     1       7.661  -0.024 -10.446  1.00  0.00     0.010 A 
ATOM     43  C   UNL     1       9.634   1.627  -9.347  1.00  0.00     0.020 A 
ATOM     44  C   UNL     1       8.032   1.157 -11.107  1.00  0.00     0.020 A 
ATOM     45  C   UNL     1       9.012   1.979 -10.548  1.00  0.00     0.054 A 
BRANCH  45  46
ATOM     46  S   UNL     1       9.540   3.503 -11.383  1.00  0.00     0.124 S 
ATOM     47  O   UNL     1       9.039   4.536 -10.479  1.00  0.00    -0.237 OA
ATOM     48  O   UNL     1      10.993   3.355 -11.421  1.00  0.00    -0.237 OA
ATOM     49  O   UNL     1       8.875   3.438 -12.682  1.00  0.00    -0.744 OA
ENDBRANCH  45  46
ENDBRANCH  26  40
BRANCH  27  50
ATOM     50  C   UNL     1       4.711  -8.860  -4.957  1.00  0.00    -0.014 A 
ATOM     51  C   UNL     1       5.487  -9.953  -4.526  1.00  0.00     0.010 A 
ATOM     52  C   UNL     1       3.311  -8.958  -4.864  1.00  0.00     0.010 A 
ATOM     53  C   UNL     1       4.883 -11.113  -4.027  1.00  0.00     0.020 A 
ATOM     54  C   UNL     1       2.703 -10.095  -4.314  1.00  0.00     0.020 A 
ATOM     55  C   UNL     1       3.493 -11.175  -3.919  1.00  0.00     0.054 A 
BRANCH  55  56
ATOM     56  S   UNL     1       2.732 -12.686  -3.261  1.00  0.00     0.124 S 
ATOM     57  O   UNL     1       2.973 -13.640  -4.339  1.00  0.00    -0.237 OA
ATOM     58  O   UNL     1       3.489 -12.911  -2.033  1.00  0.00    -0.237 OA
ATOM     59  O   UNL     1       1.335 -12.304  -3.063  1.00  0.00    -0.744 OA
ENDBRANCH  55  56
ENDBRANCH  27  50
BRANCH  39  60
ATOM     60  C   UNL     1       8.372  -7.489 -10.901  1.00  0.00    -0.014 A 
ATOM     61  C   UNL     1       7.468  -7.992 -11.847  1.00  0.00     0.010 A 
ATOM     62  C   UNL     1       9.758  -7.597 -11.121  1.00  0.00     0.010 A 
ATOM     63  C   UNL     1       7.955  -8.637 -12.984  1.00  0.00     0.020 A 
ATOM     64  C   UNL     1      10.244  -8.202 -12.271  1.00  0.00     0.020 A 
ATOM     65  C   UNL     1       9.338  -8.739 -13.184  1.00  0.00     0.054 A 
BRANCH  65  66
ATOM     66  S   UNL     1       9.946  -9.579 -14.665  1.00  0.00     0.124 S 
ATOM     67  O   UNL     1       9.573 -10.966 -14.396  1.00  0.00    -0.237 OA
ATOM     68  O   UNL     1       9.199  -8.920 -15.732  1.00  0.00    -0.237 OA
ATOM     69  O   UNL     1      11.382  -9.308 -14.654  1.00  0.00    -0.744 OA
ENDBRANCH  65  66
ENDBRANCH  39  60
ENDBRANCH  13  14
ENDBRANCH   6   8
ENDBRANCH   5   6
ENDBRANCH   4   5
ENDBRANCH   3   4
ENDBRANCH   2   3
ENDBRANCH   1   2
BRANCH   1  70
ATOM     70  C   UNL     1       2.014  -1.882   2.414  1.00  0.00     0.188 C 
BRANCH  70  71
ATOM     71  O   UNL     1       2.530  -1.925   3.728  1.00  0.00    -0.376 OA
BRANCH  71  72
ATOM     72  C   UNL     1       3.870  -2.351   3.944  1.00  0.00     0.202 C 
BRANCH  72  73
ATOM     73  C   UNL     1       4.584  -3.457   3.126  1.00  0.00     0.261 C 
BRANCH  73  74
ATOM     74  O   UNL     1       4.082  -3.784   1.828  1.00  0.00    -0.463 OA
BRANCH  74  75
ATOM     75  C   UNL     1       3.195  -4.812   1.750  1.00  0.00     0.311 C 
ATOM     76  O   UNL     1       2.776  -5.442   2.711  1.00  0.00    -0.252 OA
BRANCH  75  77
ATOM     77  C   UNL     1       2.740  -4.978   0.304  1.00  0.00     0.121 C 
BRANCH  77  78
ATOM     78  C   UNL     1       1.209  -5.221   0.250  1.00  0.00     0.017 C 
BRANCH  78  79
ATOM     79  C   UNL     1       0.698  -6.084  -0.907  1.00  0.00     0.001 C 
BRANCH  79  80
ATOM     80  C   UNL     1       0.859  -7.588  -0.661  1.00  0.00     0.000 CG0
ATOM     81  G   UNL     1       2.269  -8.202  -0.622  1.00  0.00     0.000 G0
ENDBRANCH  79  80
ENDBRANCH  78  79
ENDBRANCH  77  78
BRANCH  77  82
ATOM     82  C   UNL     1       3.570  -6.030  -0.459  1.00  0.00     0.096 C 
BRANCH  82  83
ATOM     83  C   UNL     1       3.388  -7.441   0.114  1.00  0.00     0.026 C 
BRANCH  83  84
ATOM     84  C   UNL     1       2.269  -8.202  -0.622  1.00  0.00     0.002 CG0
ATOM     85  G   UNL     1       0.859  -7.588  -0.661  1.00  0.00     0.000 G0
ENDBRANCH  83  84
ENDBRANCH  82  83
BRANCH  82  86
ATOM     86  N   UNL     1       4.972  -5.609  -0.747  1.00  0.00    -0.348 N 
ATOM     87  C   UNL     1       5.772  -5.189  -1.836  1.00  0.00     0.252 C 
ATOM     88  H   UNL     1       5.508  -5.628   0.079  1.00  0.00     0.164 HD
ATOM     89  O   UNL     1       6.822  -4.659  -1.432  1.00  0.00    -0.269 OA
BRANCH  87  90
ATOM     90  C   UNL     1       5.579  -5.242  -3.510  1.00  0.00     0.056 A 
ATOM     91  C   UNL     1       4.086  -4.936  -4.952  1.00  0.00     0.054 A 
ATOM     92  C   UNL     1       7.178  -5.638  -4.152  1.00  0.00     0.030 A 
ATOM     93  C   UNL     1       4.399  -5.024  -6.593  1.00  0.00     0.124 A 
ATOM     94  C   UNL     1       7.317  -5.626  -5.852  1.00  0.00     0.019 A 
ATOM     95  Br  UNL     1       8.647  -6.311  -3.173  1.00  0.00    -0.050 Br
ATOM     96  F   UNL     1       3.431  -4.809  -7.487  1.00  0.00    -0.207 F 
ATOM     97  C   UNL     1       5.935  -5.334  -7.003  1.00  0.00     0.040 A 
ENDBRANCH  87  90
ENDBRANCH  82  86
ENDBRANCH  77  82
ENDBRANCH  75  77
ENDBRANCH  74  75
ENDBRANCH  73  74
ENDBRANCH  72  73
ENDBRANCH  71  72
ENDBRANCH  70  71
ENDBRANCH   1  70
TORSDOF 22
