REMARK SMILES NS(=O)(=O)c1ccc(/N=N/c2ccc(O)c(C(=O)OCCOCCOCCOC(=O)c3ccc(-c4c5nc(c(-c6ccc(S(=O)(=O)[O-])cc6)c6ccc([nH]6)c(-c6ccc(S(=O)(=O)[O-])cc6)c6nc(c(-c7ccc(S(=O)(=O)[O-])cc7)c7ccc4[nH]7)C=C6)C=C5)cc3)c2)cc1
REMARK SMILES IDX 23 1 22 2 21 3 20 4 19 5 17 6 18 7 16 8 11 9 12 10 91 11
REMARK SMILES IDX 13 12 14 13 10 14 9 15 8 16 5 17 6 18 93 19 7 20 92 21 2 22
REMARK SMILES IDX 3 23 4 24 1 25 15 28 24 30 25 31 26 32 27 33 28 34 29 35
REMARK SMILES IDX 30 36 31 37 32 38 90 39 33 40 89 41 34 42 35 43 36 44 83 45
REMARK SMILES IDX 37 46 88 47 82 48 84 49 38 50 87 51 81 52 80 53 39 55 69 56
REMARK SMILES IDX 50 57 68 58 51 59 54 60 67 61 85 62 52 63 53 64 66 66 86 67
REMARK SMILES IDX 55 68 40 69 41 70 49 71 42 72 48 73 43 74 44 75 45 76 46 77
REMARK SMILES IDX 47 78 70 79 71 80 79 81 72 82 78 83 73 84 74 85 75 86 76 87
REMARK SMILES IDX 77 88 56 89 57 90 65 91 58 92 64 93 59 94 60 95 61 96 62 97
REMARK SMILES IDX 63 98
REMARK H PARENT 1 26 1 27 15 29 84 54 54 65
REMARK Flexibility Score: inf
ROOT
ATOM      1  C   UNL     1       6.485  -7.465   8.900  1.00  0.00     0.188 C 
ENDROOT
BRANCH   1   2
ATOM      2  O   UNL     1       7.040  -8.637   8.336  1.00  0.00    -0.376 OA
BRANCH   2   3
ATOM      3  C   UNL     1       6.514  -9.189   7.142  1.00  0.00     0.202 C 
BRANCH   3   4
ATOM      4  C   UNL     1       5.020  -9.166   6.772  1.00  0.00     0.261 C 
BRANCH   4   5
ATOM      5  O   UNL     1       4.308  -7.952   7.039  1.00  0.00    -0.460 OA
BRANCH   5   6
ATOM      6  C   UNL     1       3.399  -8.024   8.044  1.00  0.00     0.342 C 
ATOM      7  O   UNL     1       3.128  -9.005   8.718  1.00  0.00    -0.246 OA
BRANCH   6   8
ATOM      8  C   UNL     1       2.935  -6.674   8.421  1.00  0.00     0.104 A 
ATOM      9  C   UNL     1       2.282  -4.403   7.836  1.00  0.00     0.087 A 
ATOM     10  C   UNL     1       2.232  -4.096   9.204  1.00  0.00     0.034 A 
ATOM     11  C   UNL     1       2.647  -5.705   7.452  1.00  0.00     0.049 A 
ATOM     12  C   UNL     1       2.532  -5.056  10.173  1.00  0.00     0.049 A 
ATOM     13  C   UNL     1       2.875  -6.343   9.781  1.00  0.00     0.130 A 
BRANCH   9  14
ATOM     14  N   UNL     1       2.016  -3.354   6.932  1.00  0.00    -0.151 NA
ATOM     15  N   UNL     1       1.674  -3.752   5.802  1.00  0.00    -0.151 NA
BRANCH  15  16
ATOM     16  C   UNL     1       1.415  -2.703   4.892  1.00  0.00     0.086 A 
ATOM     17  C   UNL     1       0.839  -0.749   2.952  1.00  0.00     0.082 A 
ATOM     18  C   UNL     1       0.706  -2.101   2.634  1.00  0.00     0.024 A 
ATOM     19  C   UNL     1       1.264  -0.358   4.222  1.00  0.00     0.024 A 
ATOM     20  C   UNL     1       0.996  -3.066   3.603  1.00  0.00     0.031 A 
ATOM     21  C   UNL     1       1.547  -1.333   5.184  1.00  0.00     0.031 A 
BRANCH  17  22
ATOM     22  S   UNL     1       0.482   0.479   1.733  1.00  0.00     0.238 S 
ATOM     23  O   UNL     1       1.175   1.703   2.068  1.00  0.00    -0.207 OA
ATOM     24  O   UNL     1      -0.927   0.437   1.432  1.00  0.00    -0.207 OA
BRANCH  22  25
ATOM     25  N   UNL     1       1.269  -0.101   0.364  1.00  0.00    -0.225 NA
ATOM     26  H   UNL     1       1.123   0.546  -0.411  1.00  0.00     0.137 HD
ATOM     27  H   UNL     1       0.893  -1.017   0.118  1.00  0.00     0.137 HD
ENDBRANCH  22  25
ENDBRANCH  17  22
ENDBRANCH  15  16
ENDBRANCH   9  14
BRANCH  13  28
ATOM     28  O   UNL     1       3.199  -7.215  10.784  1.00  0.00    -0.507 OA
ATOM     29  H   UNL     1       3.141  -6.942  11.678  1.00  0.00     0.293 HD
ENDBRANCH  13  28
ENDBRANCH   6   8
ENDBRANCH   5   6
ENDBRANCH   4   5
ENDBRANCH   3   4
ENDBRANCH   2   3
ENDBRANCH   1   2
BRANCH   1  30
ATOM     30  C   UNL     1       6.454  -6.160   8.081  1.00  0.00     0.188 C 
BRANCH  30  31
ATOM     31  O   UNL     1       6.837  -6.225   6.729  1.00  0.00    -0.376 OA
BRANCH  31  32
ATOM     32  C   UNL     1       8.208  -6.299   6.378  1.00  0.00     0.202 C 
BRANCH  32  33
ATOM     33  C   UNL     1       9.411  -6.172   7.337  1.00  0.00     0.261 C 
BRANCH  33  34
ATOM     34  O   UNL     1       9.184  -6.268   8.744  1.00  0.00    -0.460 OA
BRANCH  34  35
ATOM     35  C   UNL     1       9.215  -5.093   9.424  1.00  0.00     0.338 C 
ATOM     36  O   UNL     1       9.368  -3.978   8.958  1.00  0.00    -0.246 OA
BRANCH  35  37
ATOM     37  C   UNL     1       8.854  -5.350  10.831  1.00  0.00     0.060 A 
ATOM     38  C   UNL     1       7.630  -4.870  11.315  1.00  0.00     0.016 A 
ATOM     39  C   UNL     1       9.735  -6.026  11.675  1.00  0.00     0.016 A 
ATOM     40  C   UNL     1       7.290  -5.050  12.656  1.00  0.00     0.010 A 
ATOM     41  C   UNL     1       9.402  -6.186  13.023  1.00  0.00     0.010 A 
ATOM     42  C   UNL     1       8.192  -5.675  13.527  1.00  0.00    -0.014 A 
BRANCH  42  43
ATOM     43  C   UNL     1       7.951  -5.651  14.992  1.00  0.00     0.031 A 
ATOM     44  C   UNL     1       8.686  -4.636  15.827  1.00  0.00     0.074 A 
ATOM     45  C   UNL     1       7.093  -6.509  15.573  1.00  0.00     0.049 A 
ATOM     46  N   UNL     1       8.685  -4.472  17.124  1.00  0.00    -0.248 NA
ATOM     47  C   UNL     1       9.536  -3.679  15.098  1.00  0.00     0.031 C 
ATOM     48  C   UNL     1       6.282  -7.503  14.872  1.00  0.00     0.029 A 
ATOM     49  N   UNL     1       6.772  -6.684  16.897  1.00  0.00    -0.354 N 
ATOM     50  C   UNL     1       9.543  -3.405  17.370  1.00  0.00     0.074 A 
ATOM     51  C   UNL     1      10.067  -2.980  16.090  1.00  0.00     0.031 C 
ATOM     52  C   UNL     1       5.564  -8.193  15.775  1.00  0.00     0.029 A 
ATOM     53  C   UNL     1       5.892  -7.718  17.118  1.00  0.00     0.049 A 
ATOM     54  H   UNL     1       7.136  -6.123  17.619  1.00  0.00     0.167 HD
ATOM     55  C   UNL     1       9.862  -2.828  18.553  1.00  0.00     0.031 A 
ATOM     56  C   UNL     1       5.426  -8.236  18.272  1.00  0.00     0.031 A 
ATOM     57  C   UNL     1       9.352  -3.265  19.826  1.00  0.00     0.049 A 
ATOM     58  C   UNL     1       5.863  -7.634  19.584  1.00  0.00     0.074 A 
ATOM     59  C   UNL     1       9.606  -2.738  21.081  1.00  0.00     0.029 A 
ATOM     60  N   UNL     1       8.493  -4.339  20.011  1.00  0.00    -0.354 N 
ATOM     61  N   UNL     1       6.657  -6.611  19.801  1.00  0.00    -0.248 NA
ATOM     62  C   UNL     1       5.333  -8.252  20.809  1.00  0.00     0.031 C 
ATOM     63  C   UNL     1       8.955  -3.534  22.029  1.00  0.00     0.029 A 
ATOM     64  C   UNL     1       8.233  -4.510  21.361  1.00  0.00     0.049 A 
ATOM     65  H   UNL     1       8.124  -4.897  19.289  1.00  0.00     0.167 HD
ATOM     66  C   UNL     1       6.693  -6.443  21.183  1.00  0.00     0.074 A 
ATOM     67  C   UNL     1       5.832  -7.461  21.749  1.00  0.00     0.031 C 
ATOM     68  C   UNL     1       7.373  -5.526  21.915  1.00  0.00     0.031 A 
BRANCH  55  69
ATOM     69  C   UNL     1      10.841  -1.683  18.529  1.00  0.00    -0.014 A 
ATOM     70  C   UNL     1      10.495  -0.434  17.983  1.00  0.00     0.010 A 
ATOM     71  C   UNL     1      12.117  -1.849  19.098  1.00  0.00     0.010 A 
ATOM     72  C   UNL     1      11.419   0.614  17.971  1.00  0.00     0.020 A 
ATOM     73  C   UNL     1      13.034  -0.794  19.117  1.00  0.00     0.020 A 
ATOM     74  C   UNL     1      12.683   0.427  18.538  1.00  0.00     0.054 A 
BRANCH  74  75
ATOM     75  S   UNL     1      13.853   1.813  18.530  1.00  0.00     0.124 S 
ATOM     76  O   UNL     1      14.202   1.905  17.114  1.00  0.00    -0.237 OA
ATOM     77  O   UNL     1      13.046   2.914  19.050  1.00  0.00    -0.237 OA
ATOM     78  O   UNL     1      14.931   1.365  19.408  1.00  0.00    -0.744 OA
ENDBRANCH  74  75
ENDBRANCH  55  69
BRANCH  56  79
ATOM     79  C   UNL     1       4.503  -9.407  18.246  1.00  0.00    -0.014 A 
ATOM     80  C   UNL     1       3.166  -9.278  18.661  1.00  0.00     0.010 A 
ATOM     81  C   UNL     1       4.963 -10.664  17.812  1.00  0.00     0.010 A 
ATOM     82  C   UNL     1       2.312 -10.386  18.660  1.00  0.00     0.020 A 
ATOM     83  C   UNL     1       4.104 -11.767  17.780  1.00  0.00     0.020 A 
ATOM     84  C   UNL     1       2.786 -11.623  18.215  1.00  0.00     0.054 A 
BRANCH  84  85
ATOM     85  S   UNL     1       1.646 -13.034  18.177  1.00  0.00     0.124 S 
ATOM     86  O   UNL     1       1.472 -13.324  19.597  1.00  0.00    -0.237 OA
ATOM     87  O   UNL     1       0.479 -12.477  17.497  1.00  0.00    -0.237 OA
ATOM     88  O   UNL     1       2.377 -14.046  17.418  1.00  0.00    -0.744 OA
ENDBRANCH  84  85
ENDBRANCH  56  79
BRANCH  68  89
ATOM     89  C   UNL     1       7.184  -5.543  23.412  1.00  0.00    -0.014 A 
ATOM     90  C   UNL     1       7.707  -6.577  24.209  1.00  0.00     0.010 A 
ATOM     91  C   UNL     1       6.519  -4.470  24.036  1.00  0.00     0.010 A 
ATOM     92  C   UNL     1       7.539  -6.553  25.597  1.00  0.00     0.020 A 
ATOM     93  C   UNL     1       6.378  -4.426  25.425  1.00  0.00     0.020 A 
ATOM     94  C   UNL     1       6.877  -5.477  26.197  1.00  0.00     0.054 A 
BRANCH  94  95
ATOM     95  S   UNL     1       6.711  -5.450  28.003  1.00  0.00     0.124 S 
ATOM     96  O   UNL     1       5.727  -6.504  28.234  1.00  0.00    -0.237 OA
ATOM     97  O   UNL     1       8.069  -5.748  28.453  1.00  0.00    -0.237 OA
ATOM     98  O   UNL     1       6.249  -4.094  28.290  1.00  0.00    -0.744 OA
ENDBRANCH  94  95
ENDBRANCH  68  89
ENDBRANCH  42  43
ENDBRANCH  35  37
ENDBRANCH  34  35
ENDBRANCH  33  34
ENDBRANCH  32  33
ENDBRANCH  31  32
ENDBRANCH  30  31
ENDBRANCH   1  30
TORSDOF 25
