REMARK SMILES C[C@@H](c1ccccn1)S(=O)(=O)N1CC[NH2+]C[C@@H]1C(=O)OCCOCCOCCOC(=O)c1ccc(-c2c3nc(c(-c4ccc(S(=O)(=O)[O-])cc4)c4ccc([nH]4)c(-c4ccc(S(=O)(=O)[O-])cc4)c4nc(c(-c5ccc(S(=O)(=O)[O-])cc5)c5ccc2[nH]5)C=C4)C=C3)cc1
REMARK SMILES IDX 24 1 23 2 22 3 21 4 20 5 18 6 19 7 17 8 12 9 13 10 14 11
REMARK SMILES IDX 16 12 15 13 9 16 10 17 11 18 2 19 1 20 3 21 4 22 8 23 5 24
REMARK SMILES IDX 7 25 6 26 25 27 26 28 27 29 28 30 29 31 30 32 31 33 32 34
REMARK SMILES IDX 33 35 91 36 34 37 90 38 35 39 36 40 37 41 84 42 38 43 89 44
REMARK SMILES IDX 83 45 85 46 39 47 88 48 82 49 81 50 40 52 70 53 51 54 69 55
REMARK SMILES IDX 52 56 55 57 68 58 86 59 53 60 54 61 67 63 87 64 56 65 41 66
REMARK SMILES IDX 42 67 50 68 43 69 49 70 44 71 45 72 46 73 47 74 48 75 71 76
REMARK SMILES IDX 72 77 80 78 73 79 79 80 74 81 75 82 76 83 77 84 78 85 57 86
REMARK SMILES IDX 58 87 66 88 59 89 65 90 60 91 61 92 62 93 63 94 64 95
REMARK H PARENT 15 14 15 15 85 51 55 62
REMARK Flexibility Score: inf
ROOT
ATOM      1  C   UNL     1      -3.953   3.465  -0.477  1.00  0.00     0.188 C 
ENDROOT
BRANCH   1   2
ATOM      2  O   UNL     1      -4.775   4.615  -0.389  1.00  0.00    -0.376 OA
BRANCH   2   3
ATOM      3  C   UNL     1      -5.137   5.023   0.921  1.00  0.00     0.202 C 
BRANCH   3   4
ATOM      4  C   UNL     1      -3.993   5.347   1.903  1.00  0.00     0.261 C 
BRANCH   4   5
ATOM      5  O   UNL     1      -2.962   4.341   2.053  1.00  0.00    -0.462 OA
BRANCH   5   6
ATOM      6  C   UNL     1      -3.313   3.205   2.716  1.00  0.00     0.330 C 
ATOM      7  O   UNL     1      -4.433   3.059   3.199  1.00  0.00    -0.250 OA
BRANCH   6   8
ATOM      8  C   UNL     1      -2.160   2.147   2.763  1.00  0.00     0.237 C 
ATOM      9  N   UNL     1      -2.340   0.974   1.813  1.00  0.00    -0.176 NA
ATOM     10  C   UNL     1      -3.688   0.322   2.187  1.00  0.00     0.164 C 
ATOM     11  C   UNL     1      -3.789  -0.015   3.708  1.00  0.00     0.277 C 
ATOM     12  C   UNL     1      -2.089   1.663   4.219  1.00  0.00     0.293 C 
ATOM     13  N   UNL     1      -3.338   1.019   4.672  1.00  0.00    -0.343 N 
ATOM     14  H   UNL     1      -3.177   0.582   5.579  1.00  0.00     0.346 HD
ATOM     15  H   UNL     1      -4.063   1.734   4.741  1.00  0.00     0.346 HD
BRANCH   9  16
ATOM     16  S   UNL     1      -1.194  -0.300   1.634  1.00  0.00     0.223 S 
ATOM     17  O   UNL     1      -1.640  -0.975   0.425  1.00  0.00    -0.211 OA
ATOM     18  O   UNL     1      -1.189  -1.059   2.867  1.00  0.00    -0.211 OA
BRANCH  16  19
ATOM     19  C   UNL     1       0.522   0.187   1.309  1.00  0.00     0.170 C 
ATOM     20  C   UNL     1       0.831   0.504  -0.147  1.00  0.00     0.033 C 
BRANCH  19  21
ATOM     21  C   UNL     1       1.029   1.136   2.352  1.00  0.00     0.060 A 
ATOM     22  C   UNL     1       1.144   2.504   2.137  1.00  0.00     0.025 A 
ATOM     23  N   UNL     1       1.413   0.576   3.527  1.00  0.00    -0.260 NA
ATOM     24  C   UNL     1       1.548   3.320   3.192  1.00  0.00     0.004 A 
ATOM     25  C   UNL     1       1.828   1.378   4.526  1.00  0.00     0.111 A 
ATOM     26  C   UNL     1       1.886   2.751   4.414  1.00  0.00     0.020 A 
ENDBRANCH  19  21
ENDBRANCH  16  19
ENDBRANCH   9  16
ENDBRANCH   6   8
ENDBRANCH   5   6
ENDBRANCH   4   5
ENDBRANCH   3   4
ENDBRANCH   2   3
ENDBRANCH   1   2
BRANCH   1  27
ATOM     27  C   UNL     1      -2.462   3.789  -0.713  1.00  0.00     0.188 C 
BRANCH  27  28
ATOM     28  O   UNL     1      -2.050   5.132  -0.935  1.00  0.00    -0.376 OA
BRANCH  28  29
ATOM     29  C   UNL     1      -2.829   5.962  -1.787  1.00  0.00     0.202 C 
BRANCH  29  30
ATOM     30  C   UNL     1      -3.266   5.481  -3.186  1.00  0.00     0.261 C 
BRANCH  30  31
ATOM     31  O   UNL     1      -3.717   4.120  -3.297  1.00  0.00    -0.460 OA
BRANCH  31  32
ATOM     32  C   UNL     1      -2.842   3.249  -3.858  1.00  0.00     0.338 C 
ATOM     33  O   UNL     1      -1.723   3.509  -4.283  1.00  0.00    -0.246 OA
BRANCH  32  34
ATOM     34  C   UNL     1      -3.343   1.865  -3.709  1.00  0.00     0.060 A 
ATOM     35  C   UNL     1      -2.612   0.966  -2.917  1.00  0.00     0.016 A 
ATOM     36  C   UNL     1      -4.495   1.437  -4.369  1.00  0.00     0.016 A 
ATOM     37  C   UNL     1      -3.021  -0.361  -2.790  1.00  0.00     0.010 A 
ATOM     38  C   UNL     1      -4.884   0.094  -4.270  1.00  0.00     0.010 A 
ATOM     39  C   UNL     1      -4.136  -0.817  -3.500  1.00  0.00    -0.014 A 
BRANCH  39  40
ATOM     40  C   UNL     1      -4.410  -2.275  -3.575  1.00  0.00     0.031 A 
ATOM     41  C   UNL     1      -3.948  -3.030  -4.794  1.00  0.00     0.074 A 
ATOM     42  C   UNL     1      -5.032  -2.925  -2.574  1.00  0.00     0.049 A 
ATOM     43  N   UNL     1      -4.135  -4.285  -5.112  1.00  0.00    -0.248 NA
ATOM     44  C   UNL     1      -3.172  -2.268  -5.789  1.00  0.00     0.031 C 
ATOM     45  C   UNL     1      -5.465  -2.325  -1.312  1.00  0.00     0.029 A 
ATOM     46  N   UNL     1      -5.417  -4.240  -2.469  1.00  0.00    -0.354 N 
ATOM     47  C   UNL     1      -3.521  -4.457  -6.347  1.00  0.00     0.074 A 
ATOM     48  C   UNL     1      -2.967  -3.178  -6.730  1.00  0.00     0.031 C 
ATOM     49  C   UNL     1      -6.073  -3.267  -0.567  1.00  0.00     0.029 A 
ATOM     50  C   UNL     1      -6.106  -4.524  -1.313  1.00  0.00     0.049 A 
ATOM     51  H   UNL     1      -5.217  -4.916  -3.156  1.00  0.00     0.167 HD
ATOM     52  C   UNL     1      -3.431  -5.581  -7.096  1.00  0.00     0.031 A 
ATOM     53  C   UNL     1      -6.720  -5.659  -0.917  1.00  0.00     0.031 A 
ATOM     54  C   UNL     1      -3.977  -6.855  -6.709  1.00  0.00     0.049 A 
ATOM     55  C   UNL     1      -6.670  -6.875  -1.811  1.00  0.00     0.074 A 
ATOM     56  C   UNL     1      -3.908  -8.058  -7.390  1.00  0.00     0.029 A 
ATOM     57  N   UNL     1      -4.695  -7.093  -5.548  1.00  0.00    -0.354 N 
ATOM     58  N   UNL     1      -6.060  -7.031  -2.963  1.00  0.00    -0.248 NA
ATOM     59  C   UNL     1      -7.387  -8.073  -1.348  1.00  0.00     0.031 C 
ATOM     60  C   UNL     1      -4.647  -9.006  -6.678  1.00  0.00     0.029 A 
ATOM     61  C   UNL     1      -5.110  -8.413  -5.514  1.00  0.00     0.049 A 
ATOM     62  H   UNL     1      -4.883  -6.423  -4.852  1.00  0.00     0.167 HD
ATOM     63  C   UNL     1      -6.289  -8.353  -3.338  1.00  0.00     0.074 A 
ATOM     64  C   UNL     1      -7.078  -8.956  -2.287  1.00  0.00     0.031 C 
ATOM     65  C   UNL     1      -5.883  -9.008  -4.454  1.00  0.00     0.031 A 
BRANCH  52  66
ATOM     66  C   UNL     1      -2.754  -5.490  -8.437  1.00  0.00    -0.014 A 
ATOM     67  C   UNL     1      -1.358  -5.369  -8.550  1.00  0.00     0.010 A 
ATOM     68  C   UNL     1      -3.527  -5.632  -9.605  1.00  0.00     0.010 A 
ATOM     69  C   UNL     1      -0.749  -5.385  -9.808  1.00  0.00     0.020 A 
ATOM     70  C   UNL     1      -2.919  -5.676 -10.862  1.00  0.00     0.020 A 
ATOM     71  C   UNL     1      -1.532  -5.548 -10.955  1.00  0.00     0.054 A 
BRANCH  71  72
ATOM     72  S   UNL     1      -0.706  -5.647 -12.567  1.00  0.00     0.124 S 
ATOM     73  O   UNL     1      -0.233  -4.277 -12.749  1.00  0.00    -0.237 OA
ATOM     74  O   UNL     1       0.335  -6.644 -12.331  1.00  0.00    -0.237 OA
ATOM     75  O   UNL     1      -1.769  -6.064 -13.479  1.00  0.00    -0.744 OA
ENDBRANCH  71  72
ENDBRANCH  52  66
BRANCH  53  76
ATOM     76  C   UNL     1      -7.489  -5.701   0.361  1.00  0.00    -0.014 A 
ATOM     77  C   UNL     1      -7.101  -6.549   1.415  1.00  0.00     0.010 A 
ATOM     78  C   UNL     1      -8.663  -4.938   0.502  1.00  0.00     0.010 A 
ATOM     79  C   UNL     1      -7.896  -6.669   2.560  1.00  0.00     0.020 A 
ATOM     80  C   UNL     1      -9.441  -5.027   1.660  1.00  0.00     0.020 A 
ATOM     81  C   UNL     1      -9.065  -5.911   2.672  1.00  0.00     0.054 A 
BRANCH  81  82
ATOM     82  S   UNL     1     -10.087  -6.086   4.161  1.00  0.00     0.124 S 
ATOM     83  O   UNL     1     -10.687  -7.402   3.964  1.00  0.00    -0.237 OA
ATOM     84  O   UNL     1      -9.101  -5.993   5.235  1.00  0.00    -0.237 OA
ATOM     85  O   UNL     1     -11.012  -4.958   4.075  1.00  0.00    -0.744 OA
ENDBRANCH  81  82
ENDBRANCH  53  76
BRANCH  65  86
ATOM     86  C   UNL     1      -6.232 -10.470  -4.579  1.00  0.00    -0.014 A 
ATOM     87  C   UNL     1      -7.553 -10.895  -4.804  1.00  0.00     0.010 A 
ATOM     88  C   UNL     1      -5.205 -11.431  -4.532  1.00  0.00     0.010 A 
ATOM     89  C   UNL     1      -7.845 -12.255  -4.944  1.00  0.00     0.020 A 
ATOM     90  C   UNL     1      -5.487 -12.789  -4.706  1.00  0.00     0.020 A 
ATOM     91  C   UNL     1      -6.809 -13.193  -4.896  1.00  0.00     0.054 A 
BRANCH  91  92
ATOM     92  S   UNL     1      -7.209 -14.948  -5.126  1.00  0.00     0.124 S 
ATOM     93  O   UNL     1      -7.888 -15.272  -3.874  1.00  0.00    -0.237 OA
ATOM     94  O   UNL     1      -8.057 -14.930  -6.315  1.00  0.00    -0.237 OA
ATOM     95  O   UNL     1      -5.904 -15.581  -5.307  1.00  0.00    -0.744 OA
ENDBRANCH  91  92
ENDBRANCH  65  86
ENDBRANCH  39  40
ENDBRANCH  32  34
ENDBRANCH  31  32
ENDBRANCH  30  31
ENDBRANCH  29  30
ENDBRANCH  28  29
ENDBRANCH  27  28
ENDBRANCH   1  27
TORSDOF 23
