REMARK SMILES COc1ccc(/C=C2\SC(=O)N(CC(=O)N[C@H](C)C(=O)OCCOCCOCCOC(=O)c3ccc(-c4c5nc(c(-c6ccc(S(=O)(=O)[O-])cc6)c6ccc([nH]6)c(-c6ccc(S(=O)(=O)[O-])cc6)c6nc(c(-c7ccc(S(=O)(=O)[O-])cc7)c7ccc4[nH]7)C=C6)C=C5)cc3)C2=O)cc1OC
REMARK SMILES IDX 25 1 24 2 23 3 22 4 21 5 19 6 20 7 17 8 18 9 16 10 14 11
REMARK SMILES IDX 15 12 13 14 12 15 7 16 8 17 9 18 93 19 10 20 94 21 11 22
REMARK SMILES IDX 6 23 3 24 4 25 96 26 5 27 95 28 2 29 1 30 97 31 98 32 26 33
REMARK SMILES IDX 27 34 28 35 29 36 30 37 31 38 32 39 33 40 34 41 92 42 35 43
REMARK SMILES IDX 91 44 36 45 37 46 38 47 85 48 39 49 90 50 84 51 86 52 40 53
REMARK SMILES IDX 89 54 83 55 82 56 41 58 71 59 52 60 70 61 53 62 56 63 69 64
REMARK SMILES IDX 87 65 54 66 55 67 68 69 88 70 57 71 42 72 43 73 51 74 44 75
REMARK SMILES IDX 50 76 45 77 46 78 47 79 48 80 49 81 72 82 73 83 81 84 74 85
REMARK SMILES IDX 80 86 75 87 76 88 77 89 78 90 79 91 58 92 59 93 67 94 60 95
REMARK SMILES IDX 66 96 61 97 62 98 63 99 64 100 65 101
REMARK H PARENT 16 13 86 57 56 68
REMARK Flexibility Score: inf
ROOT
ATOM      1  C   UNL     1       6.438  -9.354   8.820  1.00  0.00     0.188 C 
ENDROOT
BRANCH   1   2
ATOM      2  O   UNL     1       6.487  -9.032  10.203  1.00  0.00    -0.376 OA
BRANCH   2   3
ATOM      3  C   UNL     1       5.404  -9.518  10.994  1.00  0.00     0.202 C 
BRANCH   3   4
ATOM      4  C   UNL     1       4.008  -8.961  10.662  1.00  0.00     0.261 C 
BRANCH   4   5
ATOM      5  O   UNL     1       3.648  -9.078   9.268  1.00  0.00    -0.462 OA
BRANCH   5   6
ATOM      6  C   UNL     1       3.232  -7.937   8.651  1.00  0.00     0.328 C 
ATOM      7  O   UNL     1       2.964  -6.889   9.233  1.00  0.00    -0.250 OA
BRANCH   6   8
ATOM      8  C   UNL     1       3.093  -8.073   7.114  1.00  0.00     0.189 C 
ATOM      9  C   UNL     1       3.643  -9.349   6.526  1.00  0.00     0.043 C 
BRANCH   8  10
ATOM     10  N   UNL     1       1.713  -7.712   6.764  1.00  0.00    -0.341 N 
ATOM     11  C   UNL     1       0.728  -8.165   5.956  1.00  0.00     0.240 C 
ATOM     12  O   UNL     1      -0.375  -7.620   6.104  1.00  0.00    -0.273 OA
ATOM     13  H   UNL     1       1.422  -6.911   7.258  1.00  0.00     0.164 HD
BRANCH  11  14
ATOM     14  C   UNL     1       0.831  -9.373   5.022  1.00  0.00     0.229 C 
BRANCH  14  15
ATOM     15  N   UNL     1       1.825  -9.337   3.967  1.00  0.00    -0.259 N 
ATOM     16  C   UNL     1       3.225  -7.763   1.018  1.00  0.00     0.029 C 
ATOM     17  C   UNL     1       2.936  -8.608   2.023  1.00  0.00     0.083 C 
ATOM     18  S   UNL     1       3.659 -10.134   2.367  1.00  0.00    -0.022 SA
ATOM     19  C   UNL     1       1.879  -8.323   3.040  1.00  0.00     0.268 C 
ATOM     20  C   UNL     1       2.547 -10.466   3.671  1.00  0.00     0.294 C 
ATOM     21  O   UNL     1       1.159  -7.336   3.016  1.00  0.00    -0.268 OA
ATOM     22  O   UNL     1       2.460 -11.554   4.208  1.00  0.00    -0.261 OA
BRANCH  16  23
ATOM     23  C   UNL     1       4.223  -7.972  -0.050  1.00  0.00    -0.020 A 
ATOM     24  C   UNL     1       6.192  -8.420  -2.020  1.00  0.00     0.160 A 
ATOM     25  C   UNL     1       6.077  -7.170  -1.395  1.00  0.00     0.051 A 
ATOM     26  C   UNL     1       5.308  -9.448  -1.686  1.00  0.00     0.161 A 
ATOM     27  C   UNL     1       5.095  -6.945  -0.419  1.00  0.00     0.012 A 
ATOM     28  C   UNL     1       4.313  -9.192  -0.732  1.00  0.00     0.058 A 
BRANCH  24  29
ATOM     29  O   UNL     1       7.267  -8.618  -2.841  1.00  0.00    -0.493 OA
ATOM     30  C   UNL     1       7.025  -8.173  -4.174  1.00  0.00     0.278 C 
ENDBRANCH  24  29
BRANCH  26  31
ATOM     31  O   UNL     1       5.266 -10.741  -2.126  1.00  0.00    -0.493 OA
ATOM     32  C   UNL     1       6.132 -11.149  -3.170  1.00  0.00     0.278 C 
ENDBRANCH  26  31
ENDBRANCH  16  23
ENDBRANCH  14  15
ENDBRANCH  11  14
ENDBRANCH   8  10
ENDBRANCH   6   8
ENDBRANCH   5   6
ENDBRANCH   4   5
ENDBRANCH   3   4
ENDBRANCH   2   3
ENDBRANCH   1   2
BRANCH   1  33
ATOM     33  C   UNL     1       6.351 -10.845   8.485  1.00  0.00     0.188 C 
BRANCH  33  34
ATOM     34  O   UNL     1       5.324 -11.598   9.116  1.00  0.00    -0.376 OA
BRANCH  34  35
ATOM     35  C   UNL     1       5.327 -13.008   8.852  1.00  0.00     0.202 C 
BRANCH  35  36
ATOM     36  C   UNL     1       6.677 -13.769   8.836  1.00  0.00     0.261 C 
BRANCH  36  37
ATOM     37  O   UNL     1       7.725 -13.247   7.985  1.00  0.00    -0.460 OA
BRANCH  37  38
ATOM     38  C   UNL     1       7.450 -13.035   6.675  1.00  0.00     0.338 C 
ATOM     39  O   UNL     1       6.464 -13.435   6.082  1.00  0.00    -0.246 OA
BRANCH  38  40
ATOM     40  C   UNL     1       8.392 -11.996   6.147  1.00  0.00     0.060 A 
ATOM     41  C   UNL     1       7.888 -11.024   5.266  1.00  0.00     0.016 A 
ATOM     42  C   UNL     1       9.728 -11.919   6.552  1.00  0.00     0.016 A 
ATOM     43  C   UNL     1       8.718 -10.012   4.759  1.00  0.00     0.010 A 
ATOM     44  C   UNL     1      10.563 -10.918   6.029  1.00  0.00     0.010 A 
ATOM     45  C   UNL     1      10.076  -9.977   5.101  1.00  0.00    -0.014 A 
BRANCH  45  46
ATOM     46  C   UNL     1      11.035  -9.126   4.336  1.00  0.00     0.031 A 
ATOM     47  C   UNL     1      11.843  -9.785   3.243  1.00  0.00     0.074 A 
ATOM     48  C   UNL     1      11.205  -7.810   4.574  1.00  0.00     0.049 A 
ATOM     49  N   UNL     1      12.829  -9.305   2.529  1.00  0.00    -0.248 NA
ATOM     50  C   UNL     1      11.488 -11.177   2.919  1.00  0.00     0.031 C 
ATOM     51  C   UNL     1      10.457  -7.014   5.545  1.00  0.00     0.029 A 
ATOM     52  N   UNL     1      12.088  -6.910   4.016  1.00  0.00    -0.354 N 
ATOM     53  C   UNL     1      13.215 -10.335   1.677  1.00  0.00     0.074 A 
ATOM     54  C   UNL     1      12.382 -11.476   1.989  1.00  0.00     0.031 C 
ATOM     55  C   UNL     1      10.928  -5.752   5.531  1.00  0.00     0.029 A 
ATOM     56  C   UNL     1      12.040  -5.656   4.584  1.00  0.00     0.049 A 
ATOM     57  H   UNL     1      12.697  -7.143   3.278  1.00  0.00     0.167 HD
ATOM     58  C   UNL     1      14.167 -10.337   0.714  1.00  0.00     0.031 A 
ATOM     59  C   UNL     1      12.822  -4.571   4.393  1.00  0.00     0.031 A 
ATOM     60  C   UNL     1      15.011  -9.214   0.405  1.00  0.00     0.049 A 
ATOM     61  C   UNL     1      13.956  -4.629   3.392  1.00  0.00     0.074 A 
ATOM     62  C   UNL     1      16.019  -9.133  -0.541  1.00  0.00     0.029 A 
ATOM     63  N   UNL     1      14.946  -7.978   1.026  1.00  0.00    -0.354 N 
ATOM     64  N   UNL     1      14.313  -5.614   2.601  1.00  0.00    -0.248 NA
ATOM     65  C   UNL     1      14.792  -3.424   3.253  1.00  0.00     0.031 C 
ATOM     66  C   UNL     1      16.600  -7.865  -0.455  1.00  0.00     0.029 A 
ATOM     67  C   UNL     1      15.905  -7.133   0.494  1.00  0.00     0.049 A 
ATOM     68  H   UNL     1      14.312  -7.736   1.739  1.00  0.00     0.167 HD
ATOM     69  C   UNL     1      15.380  -5.131   1.846  1.00  0.00     0.074 A 
ATOM     70  C   UNL     1      15.607  -3.765   2.264  1.00  0.00     0.031 C 
ATOM     71  C   UNL     1      16.107  -5.763   0.891  1.00  0.00     0.031 A 
BRANCH  58  72
ATOM     72  C   UNL     1      14.363 -11.606  -0.073  1.00  0.00    -0.014 A 
ATOM     73  C   UNL     1      13.402 -12.032  -1.008  1.00  0.00     0.010 A 
ATOM     74  C   UNL     1      15.549 -12.348   0.077  1.00  0.00     0.010 A 
ATOM     75  C   UNL     1      13.612 -13.191  -1.759  1.00  0.00     0.020 A 
ATOM     76  C   UNL     1      15.777 -13.491  -0.695  1.00  0.00     0.020 A 
ATOM     77  C   UNL     1      14.801 -13.911  -1.601  1.00  0.00     0.054 A 
BRANCH  77  78
ATOM     78  S   UNL     1      15.064 -15.383  -2.626  1.00  0.00     0.124 S 
ATOM     79  O   UNL     1      14.087 -16.317  -2.069  1.00  0.00    -0.237 OA
ATOM     80  O   UNL     1      14.767 -14.893  -3.970  1.00  0.00    -0.237 OA
ATOM     81  O   UNL     1      16.462 -15.730  -2.386  1.00  0.00    -0.744 OA
ENDBRANCH  77  78
ENDBRANCH  58  72
BRANCH  59  82
ATOM     82  C   UNL     1      12.614  -3.330   5.200  1.00  0.00    -0.014 A 
ATOM     83  C   UNL     1      12.241  -2.119   4.588  1.00  0.00     0.010 A 
ATOM     84  C   UNL     1      12.861  -3.339   6.586  1.00  0.00     0.010 A 
ATOM     85  C   UNL     1      12.161  -0.938   5.335  1.00  0.00     0.020 A 
ATOM     86  C   UNL     1      12.745  -2.168   7.343  1.00  0.00     0.020 A 
ATOM     87  C   UNL     1      12.416  -0.970   6.708  1.00  0.00     0.054 A 
BRANCH  87  88
ATOM     88  S   UNL     1      12.299   0.571   7.660  1.00  0.00     0.124 S 
ATOM     89  O   UNL     1      13.483   1.296   7.211  1.00  0.00    -0.237 OA
ATOM     90  O   UNL     1      11.017   1.116   7.218  1.00  0.00    -0.237 OA
ATOM     91  O   UNL     1      12.331   0.119   9.049  1.00  0.00    -0.744 OA
ENDBRANCH  87  88
ENDBRANCH  59  82
BRANCH  71  92
ATOM     92  C   UNL     1      17.171  -4.976   0.165  1.00  0.00    -0.014 A 
ATOM     93  C   UNL     1      18.371  -4.599   0.792  1.00  0.00     0.010 A 
ATOM     94  C   UNL     1      16.995  -4.684  -1.202  1.00  0.00     0.010 A 
ATOM     95  C   UNL     1      19.365  -3.925   0.073  1.00  0.00     0.020 A 
ATOM     96  C   UNL     1      17.998  -4.039  -1.931  1.00  0.00     0.020 A 
ATOM     97  C   UNL     1      19.174  -3.654  -1.286  1.00  0.00     0.054 A 
BRANCH  97  98
ATOM     98  S   UNL     1      20.504  -2.837  -2.211  1.00  0.00     0.124 S 
ATOM     99  O   UNL     1      20.462  -1.480  -1.671  1.00  0.00    -0.237 OA
ATOM    100  O   UNL     1      21.679  -3.623  -1.842  1.00  0.00    -0.237 OA
ATOM    101  O   UNL     1      20.088  -2.965  -3.606  1.00  0.00    -0.744 OA
ENDBRANCH  97  98
ENDBRANCH  71  92
ENDBRANCH  45  46
ENDBRANCH  38  40
ENDBRANCH  37  38
ENDBRANCH  36  37
ENDBRANCH  35  36
ENDBRANCH  34  35
ENDBRANCH  33  34
ENDBRANCH   1  33
TORSDOF 26
