REMARK SMILES CC(C)[C@H](NC(=O)OCc1ccccc1)C(=O)NCC(=O)OCCOCCOCCOC(=O)c1ccc(-c2c3nc(c(-c4ccc(S(=O)(=O)[O-])cc4)c4ccc([nH]4)c(-c4ccc(S(=O)(=O)[O-])cc4)c4nc(c(-c5ccc(S(=O)(=O)[O-])cc5)c5ccc2[nH]5)C=C4)C=C3)cc1
REMARK SMILES IDX 25 1 24 2 23 3 22 4 20 5 21 6 19 7 18 8 16 9 17 10 4 12 2 13
REMARK SMILES IDX 1 14 3 15 5 16 6 17 7 19 8 20 9 21 10 22 11 23 15 24 12 25
REMARK SMILES IDX 14 26 13 27 26 28 27 29 28 30 29 31 30 32 31 33 32 34 33 35
REMARK SMILES IDX 34 36 35 37 93 38 36 39 92 40 37 41 38 42 39 43 86 44 40 45
REMARK SMILES IDX 91 46 85 47 87 48 41 49 90 50 84 51 83 52 42 54 72 55 53 56
REMARK SMILES IDX 71 57 54 58 57 59 70 60 88 61 55 62 56 63 69 65 89 66 58 67
REMARK SMILES IDX 43 68 44 69 52 70 45 71 51 72 46 73 47 74 48 75 49 76 50 77
REMARK SMILES IDX 73 78 74 79 82 80 75 81 81 82 76 83 77 84 78 85 79 86 80 87
REMARK SMILES IDX 59 88 60 89 68 90 61 91 67 92 62 93 63 94 64 95 65 96 66 97
REMARK H PARENT 18 11 5 18 87 53 57 64
REMARK Flexibility Score: inf
ROOT
ATOM      1  O   UNL     1       2.273  -4.399   6.277  1.00  0.00    -0.376 OA
ENDROOT
BRANCH   1   2
ATOM      2  C   UNL     1       3.147  -3.203   5.632  1.00  0.00     0.202 C 
BRANCH   2   3
ATOM      3  C   UNL     1       3.599  -2.726   3.535  1.00  0.00     0.261 C 
BRANCH   3   4
ATOM      4  O   UNL     1       2.443  -2.374   2.348  1.00  0.00    -0.462 OA
BRANCH   4   5
ATOM      5  C   UNL     1       1.879  -3.332   1.558  1.00  0.00     0.325 C 
ATOM      6  O   UNL     1       2.546  -4.118   0.891  1.00  0.00    -0.250 OA
BRANCH   5   7
ATOM      7  C   UNL     1       0.308  -3.482   1.671  1.00  0.00     0.238 C 
BRANCH   7   8
ATOM      8  N   UNL     1      -0.666  -2.716   2.479  1.00  0.00    -0.343 N 
ATOM      9  C   UNL     1      -1.213  -1.480   2.392  1.00  0.00     0.243 C 
ATOM     10  O   UNL     1      -2.121  -1.196   3.180  1.00  0.00    -0.273 OA
ATOM     11  H   UNL     1      -0.991  -3.220   3.260  1.00  0.00     0.164 HD
BRANCH   9  12
ATOM     12  C   UNL     1      -0.836  -0.524   1.268  1.00  0.00     0.177 C 
BRANCH  12  13
ATOM     13  C   UNL     1      -1.426  -1.056  -0.088  1.00  0.00     0.015 C 
ATOM     14  C   UNL     1      -0.391  -1.601  -1.081  1.00  0.00     0.010 C 
ATOM     15  C   UNL     1      -2.596  -2.058   0.075  1.00  0.00     0.010 C 
ENDBRANCH  12  13
BRANCH  12  16
ATOM     16  N   UNL     1       0.597  -0.217   1.260  1.00  0.00    -0.309 N 
ATOM     17  C   UNL     1       1.351   0.193   2.339  1.00  0.00     0.408 C 
ATOM     18  H   UNL     1       1.067  -0.312   0.401  1.00  0.00     0.167 HD
ATOM     19  O   UNL     1       2.451   0.707   2.179  1.00  0.00    -0.225 OA
BRANCH  17  20
ATOM     20  O   UNL     1       0.806  -0.114   3.543  1.00  0.00    -0.445 OA
BRANCH  20  21
ATOM     21  C   UNL     1       1.696  -0.110   4.678  1.00  0.00     0.270 C 
BRANCH  21  22
ATOM     22  C   UNL     1       2.494  -1.391   4.720  1.00  0.00    -0.011 A 
ATOM     23  C   UNL     1       1.718  -2.954   4.266  1.00  0.00     0.007 A 
ATOM     24  C   UNL     1       4.225  -1.400   5.142  1.00  0.00     0.007 A 
ATOM     25  C   UNL     1       2.708  -4.484   4.062  1.00  0.00     0.000 A 
ATOM     26  C   UNL     1       5.197  -2.888   4.968  1.00  0.00     0.000 A 
ATOM     27  C   UNL     1       4.447  -4.437   4.488  1.00  0.00     0.000 A 
ENDBRANCH  21  22
ENDBRANCH  20  21
ENDBRANCH  17  20
ENDBRANCH  12  16
ENDBRANCH   9  12
ENDBRANCH   7   8
ENDBRANCH   5   7
ENDBRANCH   4   5
ENDBRANCH   3   4
ENDBRANCH   2   3
ENDBRANCH   1   2
BRANCH   1  28
ATOM     28  C   UNL     1       0.838  -4.557   6.170  1.00  0.00     0.188 C 
BRANCH  28  29
ATOM     29  C   UNL     1      -0.154  -3.375   6.328  1.00  0.00     0.188 C 
BRANCH  29  30
ATOM     30  O   UNL     1       0.239  -2.228   7.048  1.00  0.00    -0.376 OA
BRANCH  30  31
ATOM     31  C   UNL     1       0.833  -2.470   8.312  1.00  0.00     0.202 C 
BRANCH  31  32
ATOM     32  C   UNL     1      -0.074  -3.073   9.388  1.00  0.00     0.261 C 
BRANCH  32  33
ATOM     33  O   UNL     1      -0.586  -4.371   9.032  1.00  0.00    -0.460 OA
BRANCH  33  34
ATOM     34  C   UNL     1      -1.910  -4.423   8.721  1.00  0.00     0.338 C 
ATOM     35  O   UNL     1      -2.722  -3.519   8.811  1.00  0.00    -0.246 OA
BRANCH  34  36
ATOM     36  C   UNL     1      -2.167  -5.678   7.973  1.00  0.00     0.060 A 
ATOM     37  C   UNL     1      -2.837  -5.604   6.737  1.00  0.00     0.016 A 
ATOM     38  C   UNL     1      -1.737  -6.906   8.473  1.00  0.00     0.016 A 
ATOM     39  C   UNL     1      -3.132  -6.765   6.027  1.00  0.00     0.010 A 
ATOM     40  C   UNL     1      -2.067  -8.072   7.783  1.00  0.00     0.010 A 
ATOM     41  C   UNL     1      -2.815  -8.003   6.593  1.00  0.00    -0.014 A 
BRANCH  41  42
ATOM     42  C   UNL     1      -3.562  -9.204   6.158  1.00  0.00     0.031 A 
ATOM     43  C   UNL     1      -4.807  -9.543   6.934  1.00  0.00     0.074 A 
ATOM     44  C   UNL     1      -3.157  -9.965   5.129  1.00  0.00     0.049 A 
ATOM     45  N   UNL     1      -5.577 -10.593   6.855  1.00  0.00    -0.248 NA
ATOM     46  C   UNL     1      -5.229  -8.562   7.952  1.00  0.00     0.031 C 
ATOM     47  C   UNL     1      -2.011  -9.689   4.266  1.00  0.00     0.029 A 
ATOM     48  N   UNL     1      -3.670 -11.142   4.648  1.00  0.00    -0.354 N 
ATOM     49  C   UNL     1      -6.557 -10.410   7.826  1.00  0.00     0.074 A 
ATOM     50  C   UNL     1      -6.268  -9.167   8.501  1.00  0.00     0.031 C 
ATOM     51  C   UNL     1      -1.895 -10.686   3.369  1.00  0.00     0.029 A 
ATOM     52  C   UNL     1      -2.930 -11.686   3.627  1.00  0.00     0.049 A 
ATOM     53  H   UNL     1      -4.489 -11.558   5.002  1.00  0.00     0.167 HD
ATOM     54  C   UNL     1      -7.605 -11.209   8.128  1.00  0.00     0.031 A 
ATOM     55  C   UNL     1      -3.061 -12.873   3.001  1.00  0.00     0.031 A 
ATOM     56  C   UNL     1      -7.863 -12.455   7.462  1.00  0.00     0.049 A 
ATOM     57  C   UNL     1      -4.182 -13.794   3.415  1.00  0.00     0.074 A 
ATOM     58  C   UNL     1      -8.895 -13.349   7.679  1.00  0.00     0.029 A 
ATOM     59  N   UNL     1      -7.072 -12.987   6.454  1.00  0.00    -0.354 N 
ATOM     60  N   UNL     1      -5.109 -13.611   4.327  1.00  0.00    -0.248 NA
ATOM     61  C   UNL     1      -4.279 -15.079   2.710  1.00  0.00     0.031 C 
ATOM     62  C   UNL     1      -8.687 -14.456   6.852  1.00  0.00     0.029 A 
ATOM     63  C   UNL     1      -7.574 -14.213   6.059  1.00  0.00     0.049 A 
ATOM     64  H   UNL     1      -6.272 -12.556   6.076  1.00  0.00     0.167 HD
ATOM     65  C   UNL     1      -5.920 -14.740   4.279  1.00  0.00     0.074 A 
ATOM     66  C   UNL     1      -5.380 -15.595   3.241  1.00  0.00     0.031 C 
ATOM     67  C   UNL     1      -7.017 -15.044   5.020  1.00  0.00     0.031 A 
BRANCH  54  68
ATOM     68  C   UNL     1      -8.503 -10.780   9.259  1.00  0.00    -0.014 A 
ATOM     69  C   UNL     1      -9.322  -9.639   9.158  1.00  0.00     0.010 A 
ATOM     70  C   UNL     1      -8.535 -11.538  10.443  1.00  0.00     0.010 A 
ATOM     71  C   UNL     1     -10.121  -9.243  10.234  1.00  0.00     0.020 A 
ATOM     72  C   UNL     1      -9.359 -11.166  11.508  1.00  0.00     0.020 A 
ATOM     73  C   UNL     1     -10.135 -10.010  11.403  1.00  0.00     0.054 A 
BRANCH  73  74
ATOM     74  S   UNL     1     -11.200  -9.486  12.773  1.00  0.00     0.124 S 
ATOM     75  O   UNL     1     -10.527  -8.273  13.232  1.00  0.00    -0.237 OA
ATOM     76  O   UNL     1     -12.487  -9.279  12.114  1.00  0.00    -0.237 OA
ATOM     77  O   UNL     1     -11.152 -10.613  13.702  1.00  0.00    -0.744 OA
ENDBRANCH  73  74
ENDBRANCH  54  68
BRANCH  55  78
ATOM     78  C   UNL     1      -2.099 -13.264   1.934  1.00  0.00    -0.014 A 
ATOM     79  C   UNL     1      -2.520 -13.385   0.598  1.00  0.00     0.010 A 
ATOM     80  C   UNL     1      -0.748 -13.509   2.246  1.00  0.00     0.010 A 
ATOM     81  C   UNL     1      -1.614 -13.754  -0.401  1.00  0.00     0.020 A 
ATOM     82  C   UNL     1       0.168 -13.846   1.246  1.00  0.00     0.020 A 
ATOM     83  C   UNL     1      -0.273 -13.975  -0.072  1.00  0.00     0.054 A 
BRANCH  83  84
ATOM     84  S   UNL     1       0.893 -14.390  -1.398  1.00  0.00     0.124 S 
ATOM     85  O   UNL     1       0.463 -15.733  -1.773  1.00  0.00    -0.237 OA
ATOM     86  O   UNL     1       0.632 -13.343  -2.382  1.00  0.00    -0.237 OA
ATOM     87  O   UNL     1       2.198 -14.311  -0.744  1.00  0.00    -0.744 OA
ENDBRANCH  83  84
ENDBRANCH  55  78
BRANCH  67  88
ATOM     88  C   UNL     1      -7.739 -16.329   4.703  1.00  0.00    -0.014 A 
ATOM     89  C   UNL     1      -7.177 -17.583   4.998  1.00  0.00     0.010 A 
ATOM     90  C   UNL     1      -9.037 -16.270   4.162  1.00  0.00     0.010 A 
ATOM     91  C   UNL     1      -7.887 -18.755   4.724  1.00  0.00     0.020 A 
ATOM     92  C   UNL     1      -9.764 -17.437   3.923  1.00  0.00     0.020 A 
ATOM     93  C   UNL     1      -9.178 -18.674   4.192  1.00  0.00     0.054 A 
BRANCH  93  94
ATOM     94  S   UNL     1     -10.094 -20.209   3.892  1.00  0.00     0.124 S 
ATOM     95  O   UNL     1      -9.368 -20.780   2.760  1.00  0.00    -0.237 OA
ATOM     96  O   UNL     1      -9.946 -20.921   5.158  1.00  0.00    -0.237 OA
ATOM     97  O   UNL     1     -11.450 -19.753   3.594  1.00  0.00    -0.744 OA
ENDBRANCH  93  94
ENDBRANCH  67  88
ENDBRANCH  41  42
ENDBRANCH  34  36
ENDBRANCH  33  34
ENDBRANCH  32  33
ENDBRANCH  31  32
ENDBRANCH  30  31
ENDBRANCH  29  30
ENDBRANCH  28  29
ENDBRANCH   1  28
TORSDOF 27
