REMARK SMILES COc1c(C)cc(Br)cc1C(=O)Nc1ccc(O)c(C(=O)OCCOCCOCCOC(=O)c2ccc(-c3c4nc(c(-c5ccc(S(=O)(=O)[O-])cc5)c5ccc([nH]5)c(-c5ccc(S(=O)(=O)[O-])cc5)c5nc(c(-c6ccc(S(=O)(=O)[O-])cc6)c6ccc3[nH]6)C=C5)C=C4)cc2)c1
REMARK SMILES IDX 26 1 25 2 24 3 23 4 22 5 20 6 21 7 19 8 14 9 15 10 94 11
REMARK SMILES IDX 16 12 17 13 13 14 11 15 12 16 10 18 3 19 4 20 5 21 6 22 9 23
REMARK SMILES IDX 7 24 8 25 2 26 1 27 18 28 27 30 28 31 29 32 30 33 31 34
REMARK SMILES IDX 32 35 33 36 34 37 35 38 93 39 36 40 92 41 37 42 38 43 39 44
REMARK SMILES IDX 86 45 40 46 91 47 85 48 87 49 41 50 90 51 84 52 83 53 42 55
REMARK SMILES IDX 72 56 53 57 71 58 54 59 57 60 70 61 88 62 55 63 56 64 69 66
REMARK SMILES IDX 89 67 58 68 43 69 44 70 52 71 45 72 51 73 46 74 47 75 48 76
REMARK SMILES IDX 49 77 50 78 73 79 74 80 82 81 75 82 81 83 76 84 77 85 78 86
REMARK SMILES IDX 79 87 80 88 59 89 60 90 68 91 61 92 67 93 62 94 63 95 64 96
REMARK SMILES IDX 65 97 66 98
REMARK H PARENT 13 17 18 29 87 54 57 65
REMARK Flexibility Score: inf
ROOT
ATOM      1  C   UNL     1      -1.651   5.684  -0.758  1.00  0.00     0.188 C 
ENDROOT
BRANCH   1   2
ATOM      2  O   UNL     1      -1.248   7.041  -0.847  1.00  0.00    -0.376 OA
BRANCH   2   3
ATOM      3  C   UNL     1       0.144   7.344  -0.924  1.00  0.00     0.202 C 
BRANCH   3   4
ATOM      4  C   UNL     1       1.090   6.697   0.089  1.00  0.00     0.261 C 
BRANCH   4   5
ATOM      5  O   UNL     1       1.138   5.284  -0.131  1.00  0.00    -0.460 OA
BRANCH   5   6
ATOM      6  C   UNL     1       1.303   4.500   0.962  1.00  0.00     0.342 C 
ATOM      7  O   UNL     1       1.569   4.875   2.093  1.00  0.00    -0.246 OA
BRANCH   6   8
ATOM      8  C   UNL     1       0.833   3.140   0.619  1.00  0.00     0.103 A 
ATOM      9  C   UNL     1      -0.627   1.302   1.151  1.00  0.00     0.042 A 
ATOM     10  C   UNL     1      -0.499   0.826  -0.157  1.00  0.00     0.030 A 
ATOM     11  C   UNL     1      -0.047   2.513   1.514  1.00  0.00     0.045 A 
ATOM     12  C   UNL     1       0.410   1.421  -1.032  1.00  0.00     0.049 A 
ATOM     13  C   UNL     1       1.127   2.540  -0.614  1.00  0.00     0.130 A 
BRANCH   9  14
ATOM     14  N   UNL     1      -1.353   0.562   2.087  1.00  0.00    -0.322 N 
ATOM     15  C   UNL     1      -1.159  -0.770   2.415  1.00  0.00     0.259 C 
ATOM     16  O   UNL     1      -2.132  -1.479   2.672  1.00  0.00    -0.269 OA
ATOM     17  H   UNL     1      -2.075   1.035   2.561  1.00  0.00     0.170 HD
BRANCH  15  18
ATOM     18  C   UNL     1       0.210  -1.269   2.787  1.00  0.00     0.083 A 
ATOM     19  C   UNL     1       1.409  -1.085   2.085  1.00  0.00     0.134 A 
ATOM     20  C   UNL     1       2.657  -1.334   2.685  1.00  0.00    -0.007 A 
ATOM     21  C   UNL     1       3.934  -0.893   2.026  1.00  0.00     0.048 C 
ATOM     22  C   UNL     1       2.693  -2.025   3.897  1.00  0.00     0.023 A 
ATOM     23  C   UNL     1       0.274  -1.967   4.006  1.00  0.00     0.033 A 
ATOM     24  C   UNL     1       1.502  -2.376   4.527  1.00  0.00     0.019 A 
ATOM     25  Br  UNL     1       1.561  -3.399   6.115  1.00  0.00    -0.051 Br
BRANCH  19  26
ATOM     26  O   UNL     1       1.427  -0.724   0.770  1.00  0.00    -0.496 OA
ATOM     27  C   UNL     1       1.533  -1.871  -0.077  1.00  0.00     0.278 C 
ENDBRANCH  19  26
ENDBRANCH  15  18
ENDBRANCH   9  14
BRANCH  13  28
ATOM     28  O   UNL     1       2.084   3.066  -1.434  1.00  0.00    -0.507 OA
ATOM     29  H   UNL     1       2.273   2.658  -2.256  1.00  0.00     0.293 HD
ENDBRANCH  13  28
ENDBRANCH   6   8
ENDBRANCH   5   6
ENDBRANCH   4   5
ENDBRANCH   3   4
ENDBRANCH   2   3
ENDBRANCH   1   2
BRANCH   1  30
ATOM     30  C   UNL     1      -1.336   4.708  -1.909  1.00  0.00     0.188 C 
BRANCH  30  31
ATOM     31  O   UNL     1      -0.675   5.118  -3.090  1.00  0.00    -0.376 OA
BRANCH  31  32
ATOM     32  C   UNL     1      -1.230   6.175  -3.856  1.00  0.00     0.202 C 
BRANCH  32  33
ATOM     33  C   UNL     1      -2.696   6.119  -4.293  1.00  0.00     0.261 C 
BRANCH  33  34
ATOM     34  O   UNL     1      -3.624   5.880  -3.225  1.00  0.00    -0.460 OA
BRANCH  34  35
ATOM     35  C   UNL     1      -4.309   4.712  -3.320  1.00  0.00     0.338 C 
ATOM     36  O   UNL     1      -4.235   3.885  -4.213  1.00  0.00    -0.246 OA
BRANCH  35  37
ATOM     37  C   UNL     1      -5.047   4.463  -2.067  1.00  0.00     0.060 A 
ATOM     38  C   UNL     1      -4.793   3.269  -1.379  1.00  0.00     0.016 A 
ATOM     39  C   UNL     1      -6.023   5.351  -1.615  1.00  0.00     0.016 A 
ATOM     40  C   UNL     1      -5.546   2.937  -0.254  1.00  0.00     0.010 A 
ATOM     41  C   UNL     1      -6.792   5.007  -0.499  1.00  0.00     0.010 A 
ATOM     42  C   UNL     1      -6.580   3.784   0.164  1.00  0.00    -0.014 A 
BRANCH  42  43
ATOM     43  C   UNL     1      -7.555   3.309   1.175  1.00  0.00     0.031 A 
ATOM     44  C   UNL     1      -8.846   2.700   0.697  1.00  0.00     0.074 A 
ATOM     45  C   UNL     1      -7.298   3.406   2.491  1.00  0.00     0.049 A 
ATOM     46  N   UNL     1      -9.862   2.261   1.394  1.00  0.00    -0.248 NA
ATOM     47  C   UNL     1      -9.013   2.570  -0.761  1.00  0.00     0.031 C 
ATOM     48  C   UNL     1      -6.070   3.940   3.079  1.00  0.00     0.029 A 
ATOM     49  N   UNL     1      -8.069   3.064   3.573  1.00  0.00    -0.354 N 
ATOM     50  C   UNL     1     -10.791   1.811   0.463  1.00  0.00     0.074 A 
ATOM     51  C   UNL     1     -10.229   2.050  -0.849  1.00  0.00     0.031 C 
ATOM     52  C   UNL     1      -6.178   3.903   4.419  1.00  0.00     0.029 A 
ATOM     53  C   UNL     1      -7.492   3.372   4.782  1.00  0.00     0.049 A 
ATOM     54  H   UNL     1      -8.953   2.638   3.492  1.00  0.00     0.167 HD
ATOM     55  C   UNL     1     -12.003   1.248   0.679  1.00  0.00     0.031 A 
ATOM     56  C   UNL     1      -7.978   3.260   6.034  1.00  0.00     0.031 A 
ATOM     57  C   UNL     1     -12.569   1.023   1.981  1.00  0.00     0.049 A 
ATOM     58  C   UNL     1      -9.358   2.691   6.246  1.00  0.00     0.074 A 
ATOM     59  C   UNL     1     -13.786   0.447   2.302  1.00  0.00     0.029 A 
ATOM     60  N   UNL     1     -11.961   1.367   3.179  1.00  0.00    -0.354 N 
ATOM     61  N   UNL     1     -10.215   2.249   5.356  1.00  0.00    -0.248 NA
ATOM     62  C   UNL     1      -9.832   2.599   7.635  1.00  0.00     0.031 C 
ATOM     63  C   UNL     1     -13.937   0.491   3.691  1.00  0.00     0.029 A 
ATOM     64  C   UNL     1     -12.788   1.038   4.239  1.00  0.00     0.049 A 
ATOM     65  H   UNL     1     -11.073   1.783   3.262  1.00  0.00     0.167 HD
ATOM     66  C   UNL     1     -11.315   1.796   6.081  1.00  0.00     0.074 A 
ATOM     67  C   UNL     1     -11.010   2.009   7.480  1.00  0.00     0.031 C 
ATOM     68  C   UNL     1     -12.470   1.250   5.628  1.00  0.00     0.031 A 
BRANCH  55  69
ATOM     69  C   UNL     1     -12.817   0.866  -0.527  1.00  0.00    -0.014 A 
ATOM     70  C   UNL     1     -12.471  -0.246  -1.316  1.00  0.00     0.010 A 
ATOM     71  C   UNL     1     -13.971   1.603  -0.849  1.00  0.00     0.010 A 
ATOM     72  C   UNL     1     -13.250  -0.596  -2.422  1.00  0.00     0.020 A 
ATOM     73  C   UNL     1     -14.766   1.241  -1.939  1.00  0.00     0.020 A 
ATOM     74  C   UNL     1     -14.392   0.151  -2.727  1.00  0.00     0.054 A 
BRANCH  74  75
ATOM     75  S   UNL     1     -15.404  -0.346  -4.148  1.00  0.00     0.124 S 
ATOM     76  O   UNL     1     -14.569   0.070  -5.272  1.00  0.00    -0.237 OA
ATOM     77  O   UNL     1     -15.533  -1.789  -3.962  1.00  0.00    -0.237 OA
ATOM     78  O   UNL     1     -16.640   0.414  -3.977  1.00  0.00    -0.744 OA
ENDBRANCH  74  75
ENDBRANCH  55  69
BRANCH  56  79
ATOM     79  C   UNL     1      -7.167   3.722   7.194  1.00  0.00    -0.014 A 
ATOM     80  C   UNL     1      -6.644   2.801   8.119  1.00  0.00     0.010 A 
ATOM     81  C   UNL     1      -6.935   5.096   7.393  1.00  0.00     0.010 A 
ATOM     82  C   UNL     1      -5.929   3.247   9.235  1.00  0.00     0.020 A 
ATOM     83  C   UNL     1      -6.197   5.543   8.492  1.00  0.00     0.020 A 
ATOM     84  C   UNL     1      -5.711   4.616   9.415  1.00  0.00     0.054 A 
BRANCH  84  85
ATOM     85  S   UNL     1      -4.754   5.172  10.853  1.00  0.00     0.124 S 
ATOM     86  O   UNL     1      -5.714   5.004  11.939  1.00  0.00    -0.237 OA
ATOM     87  O   UNL     1      -3.623   4.247  10.857  1.00  0.00    -0.237 OA
ATOM     88  O   UNL     1      -4.416   6.555  10.523  1.00  0.00    -0.744 OA
ENDBRANCH  84  85
ENDBRANCH  56  79
BRANCH  68  89
ATOM     89  C   UNL     1     -13.478   0.798   6.653  1.00  0.00    -0.014 A 
ATOM     90  C   UNL     1     -14.238   1.722   7.391  1.00  0.00     0.010 A 
ATOM     91  C   UNL     1     -13.706  -0.579   6.837  1.00  0.00     0.010 A 
ATOM     92  C   UNL     1     -15.184   1.276   8.319  1.00  0.00     0.020 A 
ATOM     93  C   UNL     1     -14.670  -1.027   7.743  1.00  0.00     0.020 A 
ATOM     94  C   UNL     1     -15.393  -0.096   8.491  1.00  0.00     0.054 A 
BRANCH  94  95
ATOM     95  S   UNL     1     -16.654  -0.650   9.672  1.00  0.00     0.124 S 
ATOM     96  O   UNL     1     -15.994  -0.415  10.953  1.00  0.00    -0.237 OA
ATOM     97  O   UNL     1     -17.782   0.230   9.375  1.00  0.00    -0.237 OA
ATOM     98  O   UNL     1     -16.860  -2.054   9.325  1.00  0.00    -0.744 OA
ENDBRANCH  94  95
ENDBRANCH  68  89
ENDBRANCH  42  43
ENDBRANCH  35  37
ENDBRANCH  34  35
ENDBRANCH  33  34
ENDBRANCH  32  33
ENDBRANCH  31  32
ENDBRANCH  30  31
ENDBRANCH   1  30
TORSDOF 24
