REMARK SMILES O=C(OCCOCCOCCOC(=O)c1ccc(-c2c3nc(c(-c4ccc(S(=O)(=O)[O-])cc4)c4ccc([nH]4)c(-c4ccc(S(=O)(=O)[O-])cc4)c4nc(c(-c5ccc(S(=O)(=O)[O-])cc5)c5ccc2[nH]5)C=C4)C=C3)cc1)C1=Cc2cc(C(F)(F)F)ccc2O[C@@H]1C(F)(F)F
REMARK SMILES IDX 8 1 7 2 6 3 5 4 4 5 3 6 2 7 1 8 75 9 76 10 88 11 77 12 87 13
REMARK SMILES IDX 78 14 86 15 79 16 85 17 84 18 89 19 90 20 91 21 92 22 80 23
REMARK SMILES IDX 81 24 82 25 83 26 9 27 10 28 11 29 12 30 13 31 14 32 15 33
REMARK SMILES IDX 16 34 74 35 17 36 73 37 18 38 19 39 20 40 67 41 21 42 72 43
REMARK SMILES IDX 66 44 68 45 22 46 71 47 65 48 64 49 23 51 53 52 34 53 52 54
REMARK SMILES IDX 35 55 38 56 51 57 69 58 36 59 37 60 50 62 70 63 39 64 24 65
REMARK SMILES IDX 25 66 33 67 26 68 32 69 27 70 28 71 29 72 30 73 31 74 54 75
REMARK SMILES IDX 55 76 63 77 56 78 62 79 57 80 58 81 59 82 60 83 61 84 40 85
REMARK SMILES IDX 41 86 49 87 42 88 48 89 43 90 44 91 45 92 46 93 47 94
REMARK H PARENT 68 50 38 61
REMARK Flexibility Score: inf
ROOT
ATOM      1  C   UNL     1       1.998  -3.204  -1.295  1.00  0.00     0.188 C 
ENDROOT
BRANCH   1   2
ATOM      2  C   UNL     1       2.272  -1.704  -1.489  1.00  0.00     0.188 C 
BRANCH   2   3
ATOM      3  O   UNL     1       3.663  -1.169  -1.640  1.00  0.00    -0.376 OA
BRANCH   3   4
ATOM      4  C   UNL     1       4.363   0.211  -0.844  1.00  0.00     0.202 C 
BRANCH   4   5
ATOM      5  C   UNL     1       3.688   0.950   1.089  1.00  0.00     0.261 C 
BRANCH   5   6
ATOM      6  O   UNL     1       2.656   2.037   1.325  1.00  0.00    -0.460 OA
BRANCH   6   7
ATOM      7  C   UNL     1       2.744   3.013   0.408  1.00  0.00     0.338 C 
ATOM      8  O   UNL     1       1.951   3.900   0.206  1.00  0.00    -0.246 OA
BRANCH   7   9
ATOM      9  C   UNL     1       3.662   2.329  -0.492  1.00  0.00     0.087 C 
ATOM     10  C   UNL     1       5.061   2.297  -0.100  1.00  0.00     0.027 C 
ATOM     11  C   UNL     1       2.527   0.792  -0.613  1.00  0.00     0.316 C 
ATOM     12  C   UNL     1       5.871   0.876   0.623  1.00  0.00     0.018 A 
ATOM     13  O   UNL     1       3.308  -0.722   0.351  1.00  0.00    -0.475 OA
ATOM     14  C   UNL     1       7.191   0.969   0.951  1.00  0.00     0.025 A 
ATOM     15  C   UNL     1       5.044  -0.609   0.930  1.00  0.00     0.128 A 
ATOM     16  C   UNL     1       7.780  -0.211   1.462  1.00  0.00     0.056 A 
ATOM     17  C   UNL     1       5.665  -1.720   1.424  1.00  0.00     0.048 A 
ATOM     18  C   UNL     1       7.049  -1.480   1.673  1.00  0.00     0.017 A 
BRANCH  11  19
ATOM     19  C   UNL     1       2.245   1.043  -2.269  1.00  0.00     0.430 C 
ATOM     20  F   UNL     1       2.564   0.110  -3.173  1.00  0.00    -0.167 F 
ATOM     21  F   UNL     1       0.942   1.358  -2.461  1.00  0.00    -0.167 F 
ATOM     22  F   UNL     1       2.943   2.134  -2.717  1.00  0.00    -0.167 F 
ENDBRANCH  11  19
BRANCH  16  23
ATOM     23  C   UNL     1       9.275  -0.110   1.747  1.00  0.00     0.416 C 
ATOM     24  F   UNL     1      10.001   0.082   0.610  1.00  0.00    -0.166 F 
ATOM     25  F   UNL     1       9.574   0.947   2.555  1.00  0.00    -0.166 F 
ATOM     26  F   UNL     1       9.802  -1.206   2.352  1.00  0.00    -0.166 F 
ENDBRANCH  16  23
ENDBRANCH   7   9
ENDBRANCH   6   7
ENDBRANCH   5   6
ENDBRANCH   4   5
ENDBRANCH   3   4
ENDBRANCH   2   3
ENDBRANCH   1   2
BRANCH   1  27
ATOM     27  O   UNL     1       2.951  -3.974  -0.604  1.00  0.00    -0.376 OA
BRANCH  27  28
ATOM     28  C   UNL     1       4.253  -3.962  -1.177  1.00  0.00     0.202 C 
BRANCH  28  29
ATOM     29  C   UNL     1       4.380  -4.280  -2.680  1.00  0.00     0.261 C 
BRANCH  29  30
ATOM     30  O   UNL     1       3.881  -3.248  -3.566  1.00  0.00    -0.460 OA
BRANCH  30  31
ATOM     31  C   UNL     1       2.846  -3.559  -4.390  1.00  0.00     0.338 C 
ATOM     32  O   UNL     1       2.256  -4.623  -4.456  1.00  0.00    -0.246 OA
BRANCH  31  33
ATOM     33  C   UNL     1       2.426  -2.351  -5.139  1.00  0.00     0.060 A 
ATOM     34  C   UNL     1       1.170  -1.767  -4.904  1.00  0.00     0.016 A 
ATOM     35  C   UNL     1       3.273  -1.814  -6.106  1.00  0.00     0.016 A 
ATOM     36  C   UNL     1       0.798  -0.595  -5.580  1.00  0.00     0.010 A 
ATOM     37  C   UNL     1       2.875  -0.679  -6.820  1.00  0.00     0.010 A 
ATOM     38  C   UNL     1       1.642  -0.054  -6.558  1.00  0.00    -0.014 A 
BRANCH  38  39
ATOM     39  C   UNL     1       1.192   1.054  -7.442  1.00  0.00     0.031 A 
ATOM     40  C   UNL     1       0.508   0.693  -8.730  1.00  0.00     0.074 A 
ATOM     41  C   UNL     1       1.455   2.344  -7.156  1.00  0.00     0.049 A 
ATOM     42  N   UNL     1       0.173   1.461  -9.732  1.00  0.00    -0.248 NA
ATOM     43  C   UNL     1       0.171  -0.729  -8.919  1.00  0.00     0.031 C 
ATOM     44  C   UNL     1       2.080   2.824  -5.926  1.00  0.00     0.029 A 
ATOM     45  N   UNL     1       1.250   3.489  -7.892  1.00  0.00    -0.354 N 
ATOM     46  C   UNL     1      -0.380   0.615 -10.684  1.00  0.00     0.074 A 
ATOM     47  C   UNL     1      -0.345  -0.724 -10.140  1.00  0.00     0.031 C 
ATOM     48  C   UNL     1       2.226   4.160  -5.999  1.00  0.00     0.029 A 
ATOM     49  C   UNL     1       1.758   4.627  -7.303  1.00  0.00     0.049 A 
ATOM     50  H   UNL     1       0.783   3.495  -8.759  1.00  0.00     0.167 HD
ATOM     51  C   UNL     1      -0.853   0.925 -11.913  1.00  0.00     0.031 A 
ATOM     52  C   UNL     1       1.876   5.887  -7.779  1.00  0.00     0.031 A 
ATOM     53  C   UNL     1      -0.867   2.257 -12.457  1.00  0.00     0.049 A 
ATOM     54  C   UNL     1       1.395   6.189  -9.180  1.00  0.00     0.074 A 
ATOM     55  C   UNL     1      -1.366   2.674 -13.678  1.00  0.00     0.029 A 
ATOM     56  N   UNL     1      -0.340   3.377 -11.834  1.00  0.00    -0.354 N 
ATOM     57  N   UNL     1       0.811   5.391 -10.043  1.00  0.00    -0.248 NA
ATOM     58  C   UNL     1       1.596   7.559  -9.679  1.00  0.00     0.031 C 
ATOM     59  C   UNL     1      -1.060   4.028 -13.832  1.00  0.00     0.029 A 
ATOM     60  C   UNL     1      -0.453   4.474 -12.670  1.00  0.00     0.049 A 
ATOM     61  H   UNL     1       0.056   3.389 -10.933  1.00  0.00     0.167 HD
ATOM     62  C   UNL     1       0.560   6.167 -11.172  1.00  0.00     0.074 A 
ATOM     63  C   UNL     1       1.024   7.504 -10.874  1.00  0.00     0.031 C 
ATOM     64  C   UNL     1       0.006   5.803 -12.355  1.00  0.00     0.031 A 
BRANCH  51  65
ATOM     65  C   UNL     1      -1.342  -0.195 -12.790  1.00  0.00    -0.014 A 
ATOM     66  C   UNL     1      -2.550  -0.864 -12.526  1.00  0.00     0.010 A 
ATOM     67  C   UNL     1      -0.623  -0.510 -13.958  1.00  0.00     0.010 A 
ATOM     68  C   UNL     1      -3.027  -1.830 -13.416  1.00  0.00     0.020 A 
ATOM     69  C   UNL     1      -1.112  -1.452 -14.865  1.00  0.00     0.020 A 
ATOM     70  C   UNL     1      -2.311  -2.108 -14.586  1.00  0.00     0.054 A 
BRANCH  70  71
ATOM     71  S   UNL     1      -3.004  -3.299 -15.765  1.00  0.00     0.124 S 
ATOM     72  O   UNL     1      -2.898  -4.554 -15.025  1.00  0.00    -0.237 OA
ATOM     73  O   UNL     1      -4.362  -2.797 -15.958  1.00  0.00    -0.237 OA
ATOM     74  O   UNL     1      -2.129  -3.188 -16.929  1.00  0.00    -0.744 OA
ENDBRANCH  70  71
ENDBRANCH  51  65
BRANCH  52  75
ATOM     75  C   UNL     1       2.549   6.953  -6.973  1.00  0.00    -0.014 A 
ATOM     76  C   UNL     1       1.863   8.119  -6.586  1.00  0.00     0.010 A 
ATOM     77  C   UNL     1       3.913   6.835  -6.644  1.00  0.00     0.010 A 
ATOM     78  C   UNL     1       2.533   9.157  -5.926  1.00  0.00     0.020 A 
ATOM     79  C   UNL     1       4.576   7.850  -5.948  1.00  0.00     0.020 A 
ATOM     80  C   UNL     1       3.886   9.015  -5.610  1.00  0.00     0.054 A 
BRANCH  80  81
ATOM     81  S   UNL     1       4.734  10.364  -4.740  1.00  0.00     0.124 S 
ATOM     82  O   UNL     1       4.798  11.398  -5.769  1.00  0.00    -0.237 OA
ATOM     83  O   UNL     1       3.833  10.635  -3.624  1.00  0.00    -0.237 OA
ATOM     84  O   UNL     1       6.019   9.775  -4.365  1.00  0.00    -0.744 OA
ENDBRANCH  80  81
ENDBRANCH  52  75
BRANCH  64  85
ATOM     85  C   UNL     1      -0.163   6.865 -13.413  1.00  0.00    -0.014 A 
ATOM     86  C   UNL     1       0.944   7.404 -14.090  1.00  0.00     0.010 A 
ATOM     87  C   UNL     1      -1.459   7.261 -13.796  1.00  0.00     0.010 A 
ATOM     88  C   UNL     1       0.760   8.333 -15.118  1.00  0.00     0.020 A 
ATOM     89  C   UNL     1      -1.649   8.161 -14.847  1.00  0.00     0.020 A 
ATOM     90  C   UNL     1      -0.536   8.698 -15.497  1.00  0.00     0.054 A 
BRANCH  90  91
ATOM     91  S   UNL     1      -0.746   9.848 -16.883  1.00  0.00     0.124 S 
ATOM     92  O   UNL     1      -0.228  11.095 -16.328  1.00  0.00    -0.237 OA
ATOM     93  O   UNL     1       0.073   9.238 -17.928  1.00  0.00    -0.237 OA
ATOM     94  O   UNL     1      -2.185   9.831 -17.136  1.00  0.00    -0.744 OA
ENDBRANCH  90  91
ENDBRANCH  64  85
ENDBRANCH  38  39
ENDBRANCH  31  33
ENDBRANCH  30  31
ENDBRANCH  29  30
ENDBRANCH  28  29
ENDBRANCH  27  28
ENDBRANCH   1  27
TORSDOF 22
