REMARK SMILES [NH3+]CCCC(=O)NC[C@@H]1CC[C@H](C(=O)OCCOCCOCCOC(=O)c2ccc(-c3c4nc(c(-c5ccc(S(=O)(=O)[O-])cc5)c5ccc([nH]5)c(-c5ccc(S(=O)(=O)[O-])cc5)c5nc(c(-c6ccc(S(=O)(=O)[O-])cc6)c6ccc3[nH]6)C=C5)C=C4)cc2)O1
REMARK SMILES IDX 18 1 17 2 16 3 15 4 13 5 14 6 12 7 9 8 10 9 87 10 11 11 8 12
REMARK SMILES IDX 7 13 5 14 6 15 4 17 3 18 2 19 1 20 19 24 20 25 21 26 22 27
REMARK SMILES IDX 23 28 24 29 25 30 26 31 27 32 28 33 86 34 29 35 85 36 30 37
REMARK SMILES IDX 31 38 32 39 79 40 33 41 84 42 78 43 80 44 34 45 83 46 77 47
REMARK SMILES IDX 76 48 35 50 65 51 46 52 64 53 47 54 50 55 63 56 81 57 48 58
REMARK SMILES IDX 49 59 62 61 82 62 51 63 36 64 37 65 45 66 38 67 44 68 39 69
REMARK SMILES IDX 40 70 41 71 42 72 43 73 66 74 67 75 75 76 68 77 74 78 69 79
REMARK SMILES IDX 70 80 71 81 72 82 73 83 52 84 53 85 61 86 54 87 60 88 55 89
REMARK SMILES IDX 56 90 57 91 58 92 59 93
REMARK H PARENT 7 16 1 21 1 22 1 23 80 49 50 60
REMARK Flexibility Score: inf
ROOT
ATOM      1  O   UNL     1       1.929   5.638  -0.971  1.00  0.00    -0.376 OA
ENDROOT
BRANCH   1   2
ATOM      2  C   UNL     1       2.361   4.684  -0.014  1.00  0.00     0.202 C 
BRANCH   2   3
ATOM      3  C   UNL     1       1.335   3.656   0.481  1.00  0.00     0.261 C 
BRANCH   3   4
ATOM      4  O   UNL     1       0.481   3.075  -0.531  1.00  0.00    -0.461 OA
BRANCH   4   5
ATOM      5  C   UNL     1      -0.855   3.217  -0.307  1.00  0.00     0.335 C 
ATOM      6  O   UNL     1      -1.319   3.785   0.678  1.00  0.00    -0.249 OA
BRANCH   5   7
ATOM      7  C   UNL     1      -1.772   2.551  -1.349  1.00  0.00     0.228 C 
ATOM      8  C   UNL     1      -1.978   0.249  -0.957  1.00  0.00     0.138 C 
ATOM      9  C   UNL     1      -0.868   0.477  -1.972  1.00  0.00     0.037 C 
ATOM     10  O   UNL     1      -2.516   1.544  -0.627  1.00  0.00    -0.361 OA
ATOM     11  C   UNL     1      -1.232   1.813  -2.556  1.00  0.00     0.047 C 
BRANCH   8  12
ATOM     12  C   UNL     1      -1.520  -0.478   0.320  1.00  0.00     0.147 C 
BRANCH  12  13
ATOM     13  N   UNL     1      -1.757  -1.912   0.227  1.00  0.00    -0.353 N 
ATOM     14  C   UNL     1      -0.967  -2.979   0.505  1.00  0.00     0.220 C 
ATOM     15  O   UNL     1      -1.432  -4.107   0.330  1.00  0.00    -0.275 OA
ATOM     16  H   UNL     1      -2.655  -2.151  -0.097  1.00  0.00     0.163 HD
BRANCH  14  17
ATOM     17  C   UNL     1       0.447  -2.800   1.015  1.00  0.00     0.106 C 
BRANCH  17  18
ATOM     18  C   UNL     1       1.498  -2.968  -0.085  1.00  0.00     0.071 C 
BRANCH  18  19
ATOM     19  C   UNL     1       1.753  -1.719  -0.922  1.00  0.00     0.259 C 
BRANCH  19  20
ATOM     20  N   UNL     1       2.321  -0.607  -0.170  1.00  0.00    -0.358 N 
ATOM     21  H   UNL     1       2.462   0.188  -0.794  1.00  0.00     0.344 HD
ATOM     22  H   UNL     1       3.216  -0.889   0.230  1.00  0.00     0.344 HD
ATOM     23  H   UNL     1       1.682  -0.341   0.579  1.00  0.00     0.344 HD
ENDBRANCH  19  20
ENDBRANCH  18  19
ENDBRANCH  17  18
ENDBRANCH  14  17
ENDBRANCH  12  13
ENDBRANCH   8  12
ENDBRANCH   5   7
ENDBRANCH   4   5
ENDBRANCH   3   4
ENDBRANCH   2   3
ENDBRANCH   1   2
BRANCH   1  24
ATOM     24  C   UNL     1       1.372   5.161  -2.188  1.00  0.00     0.188 C 
BRANCH  24  25
ATOM     25  C   UNL     1       2.013   3.943  -2.871  1.00  0.00     0.188 C 
BRANCH  25  26
ATOM     26  O   UNL     1       3.285   3.593  -2.359  1.00  0.00    -0.376 OA
BRANCH  26  27
ATOM     27  C   UNL     1       4.164   2.961  -3.277  1.00  0.00     0.202 C 
BRANCH  27  28
ATOM     28  C   UNL     1       4.924   4.013  -4.095  1.00  0.00     0.261 C 
BRANCH  28  29
ATOM     29  O   UNL     1       4.089   4.859  -4.914  1.00  0.00    -0.460 OA
BRANCH  29  30
ATOM     30  C   UNL     1       3.374   4.257  -5.897  1.00  0.00     0.338 C 
ATOM     31  O   UNL     1       3.461   3.089  -6.241  1.00  0.00    -0.246 OA
BRANCH  30  32
ATOM     32  C   UNL     1       2.265   5.171  -6.283  1.00  0.00     0.060 A 
ATOM     33  C   UNL     1       0.955   4.665  -6.304  1.00  0.00     0.016 A 
ATOM     34  C   UNL     1       2.490   6.525  -6.535  1.00  0.00     0.016 A 
ATOM     35  C   UNL     1      -0.126   5.509  -6.588  1.00  0.00     0.010 A 
ATOM     36  C   UNL     1       1.410   7.362  -6.842  1.00  0.00     0.010 A 
ATOM     37  C   UNL     1       0.097   6.859  -6.888  1.00  0.00    -0.014 A 
BRANCH  37  38
ATOM     38  C   UNL     1      -1.004   7.715  -7.407  1.00  0.00     0.031 A 
ATOM     39  C   UNL     1      -1.121   7.906  -8.897  1.00  0.00     0.074 A 
ATOM     40  C   UNL     1      -1.881   8.328  -6.588  1.00  0.00     0.049 A 
ATOM     41  N   UNL     1      -1.932   8.677  -9.574  1.00  0.00    -0.248 NA
ATOM     42  C   UNL     1      -0.200   7.118  -9.732  1.00  0.00     0.031 C 
ATOM     43  C   UNL     1      -1.923   8.195  -5.133  1.00  0.00     0.029 A 
ATOM     44  N   UNL     1      -2.903   9.203  -6.873  1.00  0.00    -0.354 N 
ATOM     45  C   UNL     1      -1.614   8.476 -10.912  1.00  0.00     0.074 A 
ATOM     46  C   UNL     1      -0.523   7.527 -10.950  1.00  0.00     0.031 C 
ATOM     47  C   UNL     1      -2.910   8.973  -4.652  1.00  0.00     0.029 A 
ATOM     48  C   UNL     1      -3.543   9.693  -5.757  1.00  0.00     0.049 A 
ATOM     49  H   UNL     1      -3.155   9.456  -7.791  1.00  0.00     0.167 HD
ATOM     50  C   UNL     1      -2.178   9.028 -12.013  1.00  0.00     0.031 A 
ATOM     51  C   UNL     1      -4.502  10.635  -5.637  1.00  0.00     0.031 A 
ATOM     52  C   UNL     1      -3.249   9.988 -11.983  1.00  0.00     0.049 A 
ATOM     53  C   UNL     1      -5.042  11.316  -6.873  1.00  0.00     0.074 A 
ATOM     54  C   UNL     1      -3.886  10.595 -13.052  1.00  0.00     0.029 A 
ATOM     55  N   UNL     1      -3.835  10.489 -10.832  1.00  0.00    -0.354 N 
ATOM     56  N   UNL     1      -4.745  11.099  -8.133  1.00  0.00    -0.248 NA
ATOM     57  C   UNL     1      -6.047  12.371  -6.669  1.00  0.00     0.031 C 
ATOM     58  C   UNL     1      -4.814  11.510 -12.546  1.00  0.00     0.029 A 
ATOM     59  C   UNL     1      -4.802  11.424 -11.163  1.00  0.00     0.049 A 
ATOM     60  H   UNL     1      -3.598  10.222  -9.915  1.00  0.00     0.167 HD
ATOM     61  C   UNL     1      -5.545  11.972  -8.868  1.00  0.00     0.074 A 
ATOM     62  C   UNL     1      -6.351  12.705  -7.916  1.00  0.00     0.031 C 
ATOM     63  C   UNL     1      -5.604  12.150 -10.211  1.00  0.00     0.031 A 
BRANCH  50  64
ATOM     64  C   UNL     1      -1.622   8.631 -13.354  1.00  0.00    -0.014 A 
ATOM     65  C   UNL     1      -1.863   7.354 -13.892  1.00  0.00     0.010 A 
ATOM     66  C   UNL     1      -0.898   9.570 -14.113  1.00  0.00     0.010 A 
ATOM     67  C   UNL     1      -1.368   7.015 -15.153  1.00  0.00     0.020 A 
ATOM     68  C   UNL     1      -0.425   9.243 -15.386  1.00  0.00     0.020 A 
ATOM     69  C   UNL     1      -0.653   7.963 -15.893  1.00  0.00     0.054 A 
BRANCH  69  70
ATOM     70  S   UNL     1      -0.059   7.506 -17.544  1.00  0.00     0.124 S 
ATOM     71  O   UNL     1       1.011   6.562 -17.228  1.00  0.00    -0.237 OA
ATOM     72  O   UNL     1      -1.247   6.923 -18.161  1.00  0.00    -0.237 OA
ATOM     73  O   UNL     1       0.381   8.774 -18.119  1.00  0.00    -0.744 OA
ENDBRANCH  69  70
ENDBRANCH  50  64
BRANCH  51  74
ATOM     74  C   UNL     1      -4.997  11.041  -4.289  1.00  0.00    -0.014 A 
ATOM     75  C   UNL     1      -6.324  10.783  -3.900  1.00  0.00     0.010 A 
ATOM     76  C   UNL     1      -4.151  11.732  -3.401  1.00  0.00     0.010 A 
ATOM     77  C   UNL     1      -6.802  11.229  -2.663  1.00  0.00     0.020 A 
ATOM     78  C   UNL     1      -4.616  12.152  -2.151  1.00  0.00     0.020 A 
ATOM     79  C   UNL     1      -5.944  11.911  -1.796  1.00  0.00     0.054 A 
BRANCH  79  80
ATOM     80  S   UNL     1      -6.578  12.455  -0.184  1.00  0.00     0.124 S 
ATOM     81  O   UNL     1      -7.441  13.571  -0.558  1.00  0.00    -0.237 OA
ATOM     82  O   UNL     1      -7.263  11.261   0.304  1.00  0.00    -0.237 OA
ATOM     83  O   UNL     1      -5.369  12.817   0.553  1.00  0.00    -0.744 OA
ENDBRANCH  79  80
ENDBRANCH  51  74
BRANCH  63  84
ATOM     84  C   UNL     1      -6.592  13.155 -10.747  1.00  0.00    -0.014 A 
ATOM     85  C   UNL     1      -6.388  14.537 -10.587  1.00  0.00     0.010 A 
ATOM     86  C   UNL     1      -7.709  12.711 -11.480  1.00  0.00     0.010 A 
ATOM     87  C   UNL     1      -7.296  15.454 -11.126  1.00  0.00     0.020 A 
ATOM     88  C   UNL     1      -8.602  13.625 -12.046  1.00  0.00     0.020 A 
ATOM     89  C   UNL     1      -8.397  14.992 -11.855  1.00  0.00     0.054 A 
BRANCH  89  90
ATOM     90  S   UNL     1      -9.531  16.205 -12.587  1.00  0.00     0.124 S 
ATOM     91  O   UNL     1     -10.232  16.715 -11.412  1.00  0.00    -0.237 OA
ATOM     92  O   UNL     1      -8.619  17.146 -13.233  1.00  0.00    -0.237 OA
ATOM     93  O   UNL     1     -10.347  15.410 -13.502  1.00  0.00    -0.744 OA
ENDBRANCH  89  90
ENDBRANCH  63  84
ENDBRANCH  37  38
ENDBRANCH  30  32
ENDBRANCH  29  30
ENDBRANCH  28  29
ENDBRANCH  27  28
ENDBRANCH  26  27
ENDBRANCH  25  26
ENDBRANCH  24  25
ENDBRANCH   1  24
TORSDOF 26
