REMARK SMILES CC(=O)O[C@@H]1CC[C@]23C(=O)O[C@]4(CC[C@]2(O)C1)[C@H]3CC[C@]1(C)[C@H](C(=O)OCCOCCOCCOC(=O)c2ccc(-c3c5nc(c(-c6ccc(S(=O)(=O)[O-])cc6)c6ccc([nH]6)c(-c6ccc(S(=O)(=O)[O-])cc6)c6nc(c(-c7ccc(S(=O)(=O)[O-])cc7)c7ccc3[nH]7)C=C6)C=C5)cc2)CC[C@@H]14
REMARK SMILES IDX 31 1 30 2 29 3 28 4 27 5 26 6 24 7 25 8 23 9 5 10 6 11 17 12
REMARK SMILES IDX 7 13 15 14 8 15 14 16 9 17 18 18 13 19 10 20 11 21 12 22
REMARK SMILES IDX 19 23 100 24 20 25 21 26 99 27 22 28 98 29 4 30 2 31 1 32
REMARK SMILES IDX 3 33 16 34 32 36 33 37 34 38 35 39 36 40 37 41 38 42 39 43
REMARK SMILES IDX 97 44 40 45 96 46 41 47 42 48 43 49 90 50 44 51 95 52 89 53
REMARK SMILES IDX 91 54 45 55 94 56 88 57 87 58 46 60 76 61 57 62 75 63 58 64
REMARK SMILES IDX 61 65 74 66 92 67 59 68 60 69 73 71 93 72 62 73 47 74 48 75
REMARK SMILES IDX 56 76 49 77 55 78 50 79 51 80 52 81 53 82 54 83 77 84 78 85
REMARK SMILES IDX 86 86 79 87 85 88 80 89 81 90 82 91 83 92 84 93 63 94 64 95
REMARK SMILES IDX 72 96 65 97 71 98 66 99 67 100 68 101 69 102 70 103
REMARK H PARENT 16 35 91 59 61 70
REMARK Flexibility Score: inf
ROOT
ATOM      1  C   UNL     1      -2.928  -9.187   4.792  1.00  0.00     0.188 C 
ENDROOT
BRANCH   1   2
ATOM      2  C   UNL     1      -3.994  -8.500   5.652  1.00  0.00     0.188 C 
BRANCH   2   3
ATOM      3  O   UNL     1      -5.368  -8.597   5.289  1.00  0.00    -0.376 OA
BRANCH   3   4
ATOM      4  C   UNL     1      -5.735  -8.920   3.955  1.00  0.00     0.202 C 
BRANCH   4   5
ATOM      5  C   UNL     1      -5.363  -7.927   2.841  1.00  0.00     0.261 C 
BRANCH   5   6
ATOM      6  O   UNL     1      -3.974  -7.528   2.795  1.00  0.00    -0.463 OA
BRANCH   6   7
ATOM      7  C   UNL     1      -3.711  -6.297   3.288  1.00  0.00     0.309 C 
ATOM      8  O   UNL     1      -4.599  -5.524   3.647  1.00  0.00    -0.252 OA
BRANCH   7   9
ATOM      9  C   UNL     1      -2.227  -5.929   3.515  1.00  0.00     0.105 C 
ATOM     10  C   UNL     1       0.842  -2.715  -2.782  1.00  0.00     0.179 C 
ATOM     11  C   UNL     1      -0.546  -3.226  -2.527  1.00  0.00     0.047 C 
ATOM     12  C   UNL     1       1.720  -3.980  -2.796  1.00  0.00     0.081 C 
ATOM     13  C   UNL     1      -0.504  -3.933  -1.203  1.00  0.00     0.026 C 
ATOM     14  C   UNL     1       1.606  -4.971  -1.570  1.00  0.00     0.085 C 
ATOM     15  C   UNL     1       0.200  -5.580  -1.231  1.00  0.00     0.103 C 
ATOM     16  C   UNL     1       2.340  -4.341  -0.354  1.00  0.00     0.041 C 
ATOM     17  C   UNL     1      -1.081  -5.781  -0.530  1.00  0.00     0.316 C 
ATOM     18  C   UNL     1       0.718  -6.476   0.239  1.00  0.00     0.054 C 
ATOM     19  C   UNL     1       1.656  -4.460   1.025  1.00  0.00     0.052 C 
ATOM     20  O   UNL     1      -2.090  -6.291  -0.968  1.00  0.00    -0.251 OA
ATOM     21  O   UNL     1      -0.920  -5.160   0.685  1.00  0.00    -0.458 OA
ATOM     22  C   UNL     1       0.409  -5.375   1.180  1.00  0.00     0.120 C 
ATOM     23  C   UNL     1       0.083  -7.799   0.785  1.00  0.00     0.009 C 
ATOM     24  C   UNL     1       0.078  -5.458   2.651  1.00  0.00     0.040 C 
ATOM     25  C   UNL     1      -1.054  -7.678   1.847  1.00  0.00     0.008 C 
ATOM     26  C   UNL     1      -0.880  -6.637   3.004  1.00  0.00    -0.013 C 
ATOM     27  C   UNL     1      -0.668  -4.158   3.073  1.00  0.00     0.009 C 
ATOM     28  C   UNL     1      -0.112  -7.306   4.176  1.00  0.00     0.013 C 
ATOM     29  C   UNL     1      -2.139  -4.486   3.007  1.00  0.00     0.016 C 
BRANCH  10  30
ATOM     30  O   UNL     1       1.389  -1.728  -1.849  1.00  0.00    -0.462 OA
BRANCH  30  31
ATOM     31  C   UNL     1       0.637  -0.875  -1.094  1.00  0.00     0.302 C 
ATOM     32  C   UNL     1       1.492   0.156  -0.415  1.00  0.00     0.139 C 
ATOM     33  O   UNL     1      -0.580  -0.884  -0.977  1.00  0.00    -0.253 OA
ENDBRANCH  30  31
ENDBRANCH  10  30
BRANCH  14  34
ATOM     34  O   UNL     1       2.390  -6.091  -2.073  1.00  0.00    -0.389 OA
ATOM     35  H   UNL     1       2.409  -6.797  -1.408  1.00  0.00     0.211 HD
ENDBRANCH  14  34
ENDBRANCH   7   9
ENDBRANCH   6   7
ENDBRANCH   5   6
ENDBRANCH   4   5
ENDBRANCH   3   4
ENDBRANCH   2   3
ENDBRANCH   1   2
BRANCH   1  36
ATOM     36  O   UNL     1      -3.405 -10.301   4.079  1.00  0.00    -0.376 OA
BRANCH  36  37
ATOM     37  C   UNL     1      -2.789 -11.544   4.319  1.00  0.00     0.202 C 
BRANCH  37  38
ATOM     38  C   UNL     1      -2.860 -12.084   5.755  1.00  0.00     0.261 C 
BRANCH  38  39
ATOM     39  O   UNL     1      -2.600 -11.157   6.828  1.00  0.00    -0.460 OA
BRANCH  39  40
ATOM     40  C   UNL     1      -1.309 -10.805   7.038  1.00  0.00     0.338 C 
ATOM     41  O   UNL     1      -0.346 -11.174   6.388  1.00  0.00    -0.246 OA
BRANCH  40  42
ATOM     42  C   UNL     1      -1.264  -9.715   8.045  1.00  0.00     0.060 A 
ATOM     43  C   UNL     1      -0.663  -8.499   7.695  1.00  0.00     0.016 A 
ATOM     44  C   UNL     1      -1.748  -9.902   9.339  1.00  0.00     0.016 A 
ATOM     45  C   UNL     1      -0.483  -7.493   8.645  1.00  0.00     0.010 A 
ATOM     46  C   UNL     1      -1.550  -8.901  10.300  1.00  0.00     0.010 A 
ATOM     47  C   UNL     1      -0.869  -7.713   9.972  1.00  0.00    -0.014 A 
BRANCH  47  48
ATOM     48  C   UNL     1      -0.353  -6.812  11.038  1.00  0.00     0.031 A 
ATOM     49  C   UNL     1       0.798  -7.295  11.888  1.00  0.00     0.074 A 
ATOM     50  C   UNL     1      -0.836  -5.568  11.213  1.00  0.00     0.049 A 
ATOM     51  N   UNL     1       1.400  -6.705  12.889  1.00  0.00    -0.248 NA
ATOM     52  C   UNL     1       1.343  -8.623  11.560  1.00  0.00     0.031 C 
ATOM     53  C   UNL     1      -1.893  -4.948  10.415  1.00  0.00     0.029 A 
ATOM     54  N   UNL     1      -0.488  -4.597  12.121  1.00  0.00    -0.354 N 
ATOM     55  C   UNL     1       2.375  -7.598  13.323  1.00  0.00     0.074 A 
ATOM     56  C   UNL     1       2.263  -8.780  12.499  1.00  0.00     0.031 C 
ATOM     57  C   UNL     1      -2.106  -3.700  10.868  1.00  0.00     0.029 A 
ATOM     58  C   UNL     1      -1.232  -3.446  12.012  1.00  0.00     0.049 A 
ATOM     59  H   UNL     1       0.226  -4.715  12.788  1.00  0.00     0.167 HD
ATOM     60  C   UNL     1       3.290  -7.447  14.312  1.00  0.00     0.031 A 
ATOM     61  C   UNL     1      -1.222  -2.323  12.760  1.00  0.00     0.031 A 
ATOM     62  C   UNL     1       3.399  -6.272  15.136  1.00  0.00     0.049 A 
ATOM     63  C   UNL     1      -0.250  -2.210  13.908  1.00  0.00     0.074 A 
ATOM     64  C   UNL     1       4.288  -6.023  16.166  1.00  0.00     0.029 A 
ATOM     65  N   UNL     1       2.592  -5.150  15.025  1.00  0.00    -0.354 N 
ATOM     66  N   UNL     1       0.658  -3.067  14.313  1.00  0.00    -0.248 NA
ATOM     67  C   UNL     1      -0.294  -0.967  14.691  1.00  0.00     0.031 C 
ATOM     68  C   UNL     1       3.979  -4.775  16.718  1.00  0.00     0.029 A 
ATOM     69  C   UNL     1       2.950  -4.213  15.980  1.00  0.00     0.049 A 
ATOM     70  H   UNL     1       1.871  -5.035  14.364  1.00  0.00     0.167 HD
ATOM     71  C   UNL     1       1.321  -2.447  15.370  1.00  0.00     0.074 A 
ATOM     72  C   UNL     1       0.717  -1.141  15.531  1.00  0.00     0.031 C 
ATOM     73  C   UNL     1       2.343  -2.914  16.132  1.00  0.00     0.031 A 
BRANCH  60  74
ATOM     74  C   UNL     1       4.217  -8.606  14.582  1.00  0.00    -0.014 A 
ATOM     75  C   UNL     1       5.214  -8.981  13.662  1.00  0.00     0.010 A 
ATOM     76  C   UNL     1       4.101  -9.319  15.790  1.00  0.00     0.010 A 
ATOM     77  C   UNL     1       6.044 -10.075  13.924  1.00  0.00     0.020 A 
ATOM     78  C   UNL     1       4.952 -10.392  16.070  1.00  0.00     0.020 A 
ATOM     79  C   UNL     1       5.906 -10.775  15.126  1.00  0.00     0.054 A 
BRANCH  79  80
ATOM     80  S   UNL     1       7.006 -12.181  15.445  1.00  0.00     0.124 S 
ATOM     81  O   UNL     1       6.508 -13.175  14.498  1.00  0.00    -0.237 OA
ATOM     82  O   UNL     1       8.324 -11.630  15.140  1.00  0.00    -0.237 OA
ATOM     83  O   UNL     1       6.774 -12.492  16.854  1.00  0.00    -0.744 OA
ENDBRANCH  79  80
ENDBRANCH  60  74
BRANCH  61  84
ATOM     84  C   UNL     1      -2.168  -1.211  12.457  1.00  0.00    -0.014 A 
ATOM     85  C   UNL     1      -1.698   0.030  11.993  1.00  0.00     0.010 A 
ATOM     86  C   UNL     1      -3.552  -1.385  12.648  1.00  0.00     0.010 A 
ATOM     87  C   UNL     1      -2.587   1.081  11.748  1.00  0.00     0.020 A 
ATOM     88  C   UNL     1      -4.448  -0.348  12.371  1.00  0.00     0.020 A 
ATOM     89  C   UNL     1      -3.958   0.884  11.935  1.00  0.00     0.054 A 
BRANCH  89  90
ATOM     90  S   UNL     1      -5.096   2.248  11.567  1.00  0.00     0.124 S 
ATOM     91  O   UNL     1      -4.816   3.179  12.655  1.00  0.00    -0.237 OA
ATOM     92  O   UNL     1      -4.655   2.674  10.241  1.00  0.00    -0.237 OA
ATOM     93  O   UNL     1      -6.413   1.617  11.606  1.00  0.00    -0.744 OA
ENDBRANCH  89  90
ENDBRANCH  61  84
BRANCH  73  94
ATOM     94  C   UNL     1       2.922  -1.980  17.166  1.00  0.00    -0.014 A 
ATOM     95  C   UNL     1       2.196  -1.589  18.306  1.00  0.00     0.010 A 
ATOM     96  C   UNL     1       4.235  -1.500  16.998  1.00  0.00     0.010 A 
ATOM     97  C   UNL     1       2.749  -0.689  19.223  1.00  0.00     0.020 A 
ATOM     98  C   UNL     1       4.805  -0.631  17.931  1.00  0.00     0.020 A 
ATOM     99  C   UNL     1       4.048  -0.211  19.025  1.00  0.00     0.054 A 
BRANCH  99 100
ATOM    100  S   UNL     1       4.744   0.955  20.227  1.00  0.00     0.124 S 
ATOM    101  O   UNL     1       4.001   2.177  19.930  1.00  0.00    -0.237 OA
ATOM    102  O   UNL     1       4.430   0.323  21.506  1.00  0.00    -0.237 OA
ATOM    103  O   UNL     1       6.166   0.994  19.891  1.00  0.00    -0.744 OA
ENDBRANCH  99 100
ENDBRANCH  73  94
ENDBRANCH  47  48
ENDBRANCH  40  42
ENDBRANCH  39  40
ENDBRANCH  38  39
ENDBRANCH  37  38
ENDBRANCH  36  37
ENDBRANCH   1  36
TORSDOF 23
