REMARK SMILES COc1ccc(/C=C/c2cc(OC)cc(OC)c2/C=C/C(=O)OCCOCCOCCOC(=O)c2ccc(-c3c4nc(c(-c5ccc(S(=O)(=O)[O-])cc5)c5ccc([nH]5)c(-c5ccc(S(=O)(=O)[O-])cc5)c5nc(c(-c6ccc(S(=O)(=O)[O-])cc6)c6ccc3[nH]6)C=C5)C=C4)cc2)cc1
REMARK SMILES IDX 27 1 26 2 25 3 24 4 23 5 21 6 22 7 20 8 19 9 18 10 9 11
REMARK SMILES IDX 10 12 11 13 15 14 14 15 8 16 7 17 6 18 3 19 4 20 96 21 5 22
REMARK SMILES IDX 95 23 2 24 1 25 12 26 13 27 16 28 17 29 28 30 29 31 30 32
REMARK SMILES IDX 31 33 32 34 33 35 34 36 35 37 36 38 94 39 37 40 93 41 38 42
REMARK SMILES IDX 39 43 40 44 87 45 41 46 92 47 86 48 88 49 42 50 91 51 85 52
REMARK SMILES IDX 84 53 43 55 73 56 54 57 72 58 55 59 58 60 71 61 89 62 56 63
REMARK SMILES IDX 57 64 70 66 90 67 59 68 44 69 45 70 53 71 46 72 52 73 47 74
REMARK SMILES IDX 48 75 49 76 50 77 51 78 74 79 75 80 83 81 76 82 82 83 77 84
REMARK SMILES IDX 78 85 79 86 80 87 81 88 60 89 61 90 69 91 62 92 68 93 63 94
REMARK SMILES IDX 64 95 65 96 66 97 67 98
REMARK H PARENT 88 54 58 65
REMARK Flexibility Score: inf
ROOT
ATOM      1  C   UNL     1       6.467   5.210   7.610  1.00  0.00     0.188 C 
ENDROOT
BRANCH   1   2
ATOM      2  O   UNL     1       7.495   5.352   6.635  1.00  0.00    -0.376 OA
BRANCH   2   3
ATOM      3  C   UNL     1       7.348   4.695   5.380  1.00  0.00     0.202 C 
BRANCH   3   4
ATOM      4  C   UNL     1       6.999   3.197   5.341  1.00  0.00     0.261 C 
BRANCH   4   5
ATOM      5  O   UNL     1       5.953   2.791   6.241  1.00  0.00    -0.460 OA
BRANCH   5   6
ATOM      6  C   UNL     1       6.212   1.682   6.978  1.00  0.00     0.330 C 
ATOM      7  O   UNL     1       7.194   0.961   6.872  1.00  0.00    -0.247 OA
BRANCH   6   8
ATOM      8  C   UNL     1       5.189   1.427   8.016  1.00  0.00     0.094 C 
ATOM      9  C   UNL     1       3.992   2.026   8.086  1.00  0.00     0.020 C 
BRANCH   9  10
ATOM     10  C   UNL     1       2.980   1.726   9.122  1.00  0.00     0.024 A 
ATOM     11  C   UNL     1       1.671   1.364   8.709  1.00  0.00    -0.011 A 
ATOM     12  C   UNL     1       0.701   1.022   9.666  1.00  0.00     0.055 A 
ATOM     13  C   UNL     1       0.986   1.055  11.031  1.00  0.00     0.123 A 
ATOM     14  C   UNL     1       3.245   1.790  10.508  1.00  0.00     0.130 A 
ATOM     15  C   UNL     1       2.256   1.443  11.445  1.00  0.00     0.093 A 
BRANCH  11  16
ATOM     16  C   UNL     1       1.218   1.377   7.303  1.00  0.00     0.009 C 
ATOM     17  C   UNL     1       1.816   0.682   6.322  1.00  0.00     0.009 C 
BRANCH  17  18
ATOM     18  C   UNL     1       1.470   0.782   4.896  1.00  0.00    -0.025 A 
ATOM     19  C   UNL     1       0.918   0.904   2.139  1.00  0.00     0.118 A 
ATOM     20  C   UNL     1      -0.075   1.205   3.070  1.00  0.00     0.047 A 
ATOM     21  C   UNL     1       2.197   0.572   2.579  1.00  0.00     0.047 A 
ATOM     22  C   UNL     1       0.194   1.129   4.440  1.00  0.00     0.012 A 
ATOM     23  C   UNL     1       2.468   0.505   3.950  1.00  0.00     0.012 A 
BRANCH  19  24
ATOM     24  O   UNL     1       0.556   1.006   0.823  1.00  0.00    -0.497 OA
ATOM     25  C   UNL     1       1.112  -0.009  -0.009  1.00  0.00     0.278 C 
ENDBRANCH  19  24
ENDBRANCH  17  18
ENDBRANCH  11  16
BRANCH  13  26
ATOM     26  O   UNL     1      -0.051   0.679  11.839  1.00  0.00    -0.497 OA
ATOM     27  C   UNL     1       0.117   0.881  13.238  1.00  0.00     0.278 C 
ENDBRANCH  13  26
BRANCH  14  28
ATOM     28  O   UNL     1       4.460   2.075  11.078  1.00  0.00    -0.496 OA
ATOM     29  C   UNL     1       5.068   3.304  10.692  1.00  0.00     0.278 C 
ENDBRANCH  14  28
ENDBRANCH   9  10
ENDBRANCH   6   8
ENDBRANCH   5   6
ENDBRANCH   4   5
ENDBRANCH   3   4
ENDBRANCH   2   3
ENDBRANCH   1   2
BRANCH   1  30
ATOM     30  C   UNL     1       5.002   5.467   7.204  1.00  0.00     0.188 C 
BRANCH  30  31
ATOM     31  O   UNL     1       4.807   5.579   5.811  1.00  0.00    -0.376 OA
BRANCH  31  32
ATOM     32  C   UNL     1       4.415   6.845   5.305  1.00  0.00     0.202 C 
BRANCH  32  33
ATOM     33  C   UNL     1       5.192   8.124   5.683  1.00  0.00     0.261 C 
BRANCH  33  34
ATOM     34  O   UNL     1       5.723   8.211   7.013  1.00  0.00    -0.460 OA
BRANCH  34  35
ATOM     35  C   UNL     1       4.885   8.661   7.978  1.00  0.00     0.338 C 
ATOM     36  O   UNL     1       3.713   8.954   7.848  1.00  0.00    -0.246 OA
BRANCH  35  37
ATOM     37  C   UNL     1       5.585   8.557   9.279  1.00  0.00     0.060 A 
ATOM     38  C   UNL     1       5.082   7.681  10.249  1.00  0.00     0.016 A 
ATOM     39  C   UNL     1       6.710   9.340   9.548  1.00  0.00     0.016 A 
ATOM     40  C   UNL     1       5.688   7.608  11.506  1.00  0.00     0.010 A 
ATOM     41  C   UNL     1       7.303   9.280  10.814  1.00  0.00     0.010 A 
ATOM     42  C   UNL     1       6.777   8.436  11.809  1.00  0.00    -0.014 A 
BRANCH  42  43
ATOM     43  C   UNL     1       7.255   8.547  13.210  1.00  0.00     0.031 A 
ATOM     44  C   UNL     1       6.745   9.682  14.058  1.00  0.00     0.074 A 
ATOM     45  C   UNL     1       8.113   7.651  13.730  1.00  0.00     0.049 A 
ATOM     46  N   UNL     1       7.039   9.991  15.295  1.00  0.00    -0.248 NA
ATOM     47  C   UNL     1       5.772  10.588  13.425  1.00  0.00     0.031 C 
ATOM     48  C   UNL     1       8.652   6.487  13.028  1.00  0.00     0.029 A 
ATOM     49  N   UNL     1       8.686   7.588  14.977  1.00  0.00    -0.354 N 
ATOM     50  C   UNL     1       6.294  11.128  15.587  1.00  0.00     0.074 A 
ATOM     51  C   UNL     1       5.555  11.469  14.391  1.00  0.00     0.031 C 
ATOM     52  C   UNL     1       9.486   5.829  13.854  1.00  0.00     0.029 A 
ATOM     53  C   UNL     1       9.564   6.541  15.129  1.00  0.00     0.049 A 
ATOM     54  H   UNL     1       8.488   8.233  15.694  1.00  0.00     0.167 HD
ATOM     55  C   UNL     1       6.227  11.825  16.746  1.00  0.00     0.031 A 
ATOM     56  C   UNL     1      10.353   6.207  16.169  1.00  0.00     0.031 A 
ATOM     57  C   UNL     1       6.978  11.500  17.929  1.00  0.00     0.049 A 
ATOM     58  C   UNL     1      10.317   7.040  17.426  1.00  0.00     0.074 A 
ATOM     59  C   UNL     1       6.971  12.141  19.156  1.00  0.00     0.029 A 
ATOM     60  N   UNL     1       7.880  10.452  18.031  1.00  0.00    -0.354 N 
ATOM     61  N   UNL     1       9.586   8.097  17.695  1.00  0.00    -0.248 NA
ATOM     62  C   UNL     1      11.206   6.629  18.522  1.00  0.00     0.031 C 
ATOM     63  C   UNL     1       7.908  11.513  19.983  1.00  0.00     0.029 A 
ATOM     64  C   UNL     1       8.453  10.443  19.292  1.00  0.00     0.049 A 
ATOM     65  H   UNL     1       8.082   9.809  17.314  1.00  0.00     0.167 HD
ATOM     66  C   UNL     1       9.907   8.456  19.002  1.00  0.00     0.074 A 
ATOM     67  C   UNL     1      10.887   7.499  19.471  1.00  0.00     0.031 C 
ATOM     68  C   UNL     1       9.428   9.484  19.747  1.00  0.00     0.031 A 
BRANCH  55  69
ATOM     69  C   UNL     1       5.332  13.035  16.775  1.00  0.00    -0.014 A 
ATOM     70  C   UNL     1       3.931  12.906  16.774  1.00  0.00     0.010 A 
ATOM     71  C   UNL     1       5.901  14.320  16.833  1.00  0.00     0.010 A 
ATOM     72  C   UNL     1       3.116  14.041  16.791  1.00  0.00     0.020 A 
ATOM     73  C   UNL     1       5.090  15.457  16.877  1.00  0.00     0.020 A 
ATOM     74  C   UNL     1       3.702  15.310  16.838  1.00  0.00     0.054 A 
BRANCH  74  75
ATOM     75  S   UNL     1       2.621  16.766  16.877  1.00  0.00     0.124 S 
ATOM     76  O   UNL     1       2.122  16.807  15.504  1.00  0.00    -0.237 OA
ATOM     77  O   UNL     1       1.635  16.407  17.893  1.00  0.00    -0.237 OA
ATOM     78  O   UNL     1       3.520  17.857  17.245  1.00  0.00    -0.744 OA
ENDBRANCH  74  75
ENDBRANCH  55  69
BRANCH  56  79
ATOM     79  C   UNL     1      11.264   5.033  16.067  1.00  0.00    -0.014 A 
ATOM     80  C   UNL     1      11.029   3.872  16.824  1.00  0.00     0.010 A 
ATOM     81  C   UNL     1      12.381   5.077  15.212  1.00  0.00     0.010 A 
ATOM     82  C   UNL     1      11.903   2.783  16.741  1.00  0.00     0.020 A 
ATOM     83  C   UNL     1      13.241   3.980  15.106  1.00  0.00     0.020 A 
ATOM     84  C   UNL     1      13.003   2.844  15.880  1.00  0.00     0.054 A 
BRANCH  84  85
ATOM     85  S   UNL     1      14.095   1.400  15.752  1.00  0.00     0.124 S 
ATOM     86  O   UNL     1      14.829   1.462  17.012  1.00  0.00    -0.237 OA
ATOM     87  O   UNL     1      13.146   0.297  15.625  1.00  0.00    -0.237 OA
ATOM     88  O   UNL     1      14.884   1.675  14.553  1.00  0.00    -0.744 OA
ENDBRANCH  84  85
ENDBRANCH  56  79
BRANCH  68  89
ATOM     89  C   UNL     1       9.924   9.607  21.165  1.00  0.00    -0.014 A 
ATOM     90  C   UNL     1      11.233  10.033  21.450  1.00  0.00     0.010 A 
ATOM     91  C   UNL     1       9.044   9.341  22.230  1.00  0.00     0.010 A 
ATOM     92  C   UNL     1      11.664  10.155  22.775  1.00  0.00     0.020 A 
ATOM     93  C   UNL     1       9.462   9.489  23.555  1.00  0.00     0.020 A 
ATOM     94  C   UNL     1      10.776   9.880  23.819  1.00  0.00     0.054 A 
BRANCH  94  95
ATOM     95  S   UNL     1      11.347  10.079  25.530  1.00  0.00     0.124 S 
ATOM     96  O   UNL     1      12.202   8.908  25.702  1.00  0.00    -0.237 OA
ATOM     97  O   UNL     1      12.041  11.364  25.490  1.00  0.00    -0.237 OA
ATOM     98  O   UNL     1      10.112  10.069  26.311  1.00  0.00    -0.744 OA
ENDBRANCH  94  95
ENDBRANCH  68  89
ENDBRANCH  42  43
ENDBRANCH  35  37
ENDBRANCH  34  35
ENDBRANCH  33  34
ENDBRANCH  32  33
ENDBRANCH  31  32
ENDBRANCH  30  31
ENDBRANCH   1  30
TORSDOF 26
