REMARK SMILES CO[C@@H]1C[NH2+][C@@H](O[C@@H]2C[C@@H](C(=O)OCCOCCOCCOC(=O)c3ccc(-c4c5nc(c(-c6ccc(S(=O)(=O)[O-])cc6)c6ccc([nH]6)c(-c6ccc(S(=O)(=O)[O-])cc6)c6nc(c(-c7ccc(S(=O)(=O)[O-])cc7)c7ccc4[nH]7)C=C6)C=C5)cc3)N(C(=O)OC(C)(C)C)C2)c2cc(Cl)ccc21
REMARK SMILES IDX 17 1 16 2 15 3 14 4 13 5 11 6 12 7 10 8 8 9 9 10 93 11 85 12
REMARK SMILES IDX 7 13 6 14 3 15 4 16 100 17 5 18 94 19 99 20 95 23 98 24
REMARK SMILES IDX 96 25 97 26 2 27 1 28 86 29 87 30 88 31 89 32 90 33 91 34
REMARK SMILES IDX 92 35 18 36 19 37 20 38 21 39 22 40 23 41 24 42 25 43 26 44
REMARK SMILES IDX 84 45 27 46 83 47 28 48 29 49 30 50 77 51 31 52 82 53 76 54
REMARK SMILES IDX 78 55 32 56 81 57 75 58 74 59 33 61 63 62 44 63 62 64 45 65
REMARK SMILES IDX 48 66 61 67 79 68 46 69 47 70 60 72 80 73 49 74 34 75 35 76
REMARK SMILES IDX 43 77 36 78 42 79 37 80 38 81 39 82 40 83 41 84 64 85 65 86
REMARK SMILES IDX 73 87 66 88 72 89 67 90 68 91 69 92 70 93 71 94 50 95 51 96
REMARK SMILES IDX 59 97 52 98 58 99 53 100 54 101 55 102 56 103 57 104
REMARK H PARENT 5 21 5 22 78 60 48 71
REMARK Flexibility Score: inf
ROOT
ATOM      1  C   UNL     1       2.974   4.217  -0.045  1.00  0.00     0.188 C 
ENDROOT
BRANCH   1   2
ATOM      2  O   UNL     1       4.326   4.539  -0.342  1.00  0.00    -0.376 OA
BRANCH   2   3
ATOM      3  C   UNL     1       5.248   3.474  -0.091  1.00  0.00     0.202 C 
BRANCH   3   4
ATOM      4  C   UNL     1       5.518   3.217   1.405  1.00  0.00     0.261 C 
BRANCH   4   5
ATOM      5  O   UNL     1       4.510   2.350   1.982  1.00  0.00    -0.462 OA
BRANCH   5   6
ATOM      6  C   UNL     1       3.898   2.772   3.130  1.00  0.00     0.329 C 
ATOM      7  O   UNL     1       4.250   3.760   3.761  1.00  0.00    -0.250 OA
BRANCH   6   8
ATOM      8  C   UNL     1       2.547   2.042   3.347  1.00  0.00     0.201 C 
ATOM      9  C   UNL     1       1.036   1.402   5.204  1.00  0.00     0.147 C 
ATOM     10  C   UNL     1       1.815   2.576   4.604  1.00  0.00     0.071 C 
ATOM     11  C   UNL     1       1.778   0.175   4.684  1.00  0.00     0.156 C 
ATOM     12  N   UNL     1       2.481   0.577   3.471  1.00  0.00    -0.292 N 
BRANCH   9  13
ATOM     13  O   UNL     1      -0.382   1.299   5.250  1.00  0.00    -0.320 OA
BRANCH  13  14
ATOM     14  C   UNL     1      -1.366   1.626   4.281  1.00  0.00     0.354 C 
ATOM     15  C   UNL     1      -0.359   1.465   1.535  1.00  0.00     0.203 C 
ATOM     16  C   UNL     1      -0.879   0.242   2.346  1.00  0.00     0.300 C 
ATOM     17  C   UNL     1      -0.582   2.816   2.218  1.00  0.00    -0.002 A 
ATOM     18  N   UNL     1      -1.770   0.504   3.463  1.00  0.00    -0.315 N 
ATOM     19  C   UNL     1      -1.148   2.882   3.498  1.00  0.00     0.046 A 
ATOM     20  C   UNL     1      -0.120   4.017   1.674  1.00  0.00     0.009 A 
ATOM     21  H   UNL     1      -1.801  -0.329   4.051  1.00  0.00     0.349 HD
ATOM     22  H   UNL     1      -2.681   0.737   3.068  1.00  0.00     0.349 HD
ATOM     23  C   UNL     1      -1.423   4.126   4.106  1.00  0.00     0.033 A 
ATOM     24  C   UNL     1      -0.263   5.239   2.340  1.00  0.00     0.021 A 
ATOM     25  C   UNL     1      -0.974   5.301   3.525  1.00  0.00     0.041 A 
ATOM     26  Cl  UNL     1      -1.238   6.806   4.304  1.00  0.00    -0.084 Cl
BRANCH  15  27
ATOM     27  O   UNL     1      -0.881   1.449   0.202  1.00  0.00    -0.371 OA
ATOM     28  C   UNL     1      -0.231   0.460  -0.605  1.00  0.00     0.196 C 
ENDBRANCH  15  27
ENDBRANCH  13  14
ENDBRANCH   9  13
BRANCH  12  29
ATOM     29  C   UNL     1       2.814  -0.410   2.565  1.00  0.00     0.411 C 
ATOM     30  O   UNL     1       2.671  -1.597   2.840  1.00  0.00    -0.224 OA
BRANCH  29  31
ATOM     31  O   UNL     1       3.307   0.031   1.376  1.00  0.00    -0.444 OA
BRANCH  31  32
ATOM     32  C   UNL     1       3.920  -0.943   0.474  1.00  0.00     0.106 C 
ATOM     33  C   UNL     1       5.126  -1.612   1.151  1.00  0.00     0.056 C 
ATOM     34  C   UNL     1       2.916  -1.966  -0.075  1.00  0.00     0.056 C 
ATOM     35  C   UNL     1       4.466  -0.169  -0.733  1.00  0.00     0.056 C 
ENDBRANCH  31  32
ENDBRANCH  29  31
ENDBRANCH  12  29
ENDBRANCH   6   8
ENDBRANCH   5   6
ENDBRANCH   4   5
ENDBRANCH   3   4
ENDBRANCH   2   3
ENDBRANCH   1   2
BRANCH   1  36
ATOM     36  C   UNL     1       2.188   3.630  -1.216  1.00  0.00     0.188 C 
BRANCH  36  37
ATOM     37  O   UNL     1       2.844   2.576  -1.908  1.00  0.00    -0.376 OA
BRANCH  37  38
ATOM     38  C   UNL     1       3.028   2.859  -3.298  1.00  0.00     0.202 C 
BRANCH  38  39
ATOM     39  C   UNL     1       1.745   2.731  -4.137  1.00  0.00     0.261 C 
BRANCH  39  40
ATOM     40  O   UNL     1       0.822   3.792  -3.818  1.00  0.00    -0.460 OA
BRANCH  40  41
ATOM     41  C   UNL     1      -0.352   3.431  -3.238  1.00  0.00     0.338 C 
ATOM     42  O   UNL     1      -0.791   2.297  -3.146  1.00  0.00    -0.246 OA
BRANCH  41  43
ATOM     43  C   UNL     1      -0.936   4.617  -2.558  1.00  0.00     0.060 A 
ATOM     44  C   UNL     1      -0.797   5.903  -3.088  1.00  0.00     0.016 A 
ATOM     45  C   UNL     1      -1.600   4.444  -1.338  1.00  0.00     0.016 A 
ATOM     46  C   UNL     1      -1.314   7.005  -2.398  1.00  0.00     0.010 A 
ATOM     47  C   UNL     1      -2.103   5.549  -0.639  1.00  0.00     0.010 A 
ATOM     48  C   UNL     1      -1.971   6.839  -1.168  1.00  0.00    -0.014 A 
BRANCH  48  49
ATOM     49  C   UNL     1      -2.728   7.974  -0.581  1.00  0.00     0.031 A 
ATOM     50  C   UNL     1      -2.150   8.899   0.448  1.00  0.00     0.074 A 
ATOM     51  C   UNL     1      -3.979   8.167  -1.039  1.00  0.00     0.049 A 
ATOM     52  N   UNL     1      -2.700   9.943   1.014  1.00  0.00    -0.248 NA
ATOM     53  C   UNL     1      -0.787   8.619   0.909  1.00  0.00     0.031 C 
ATOM     54  C   UNL     1      -4.626   7.332  -2.053  1.00  0.00     0.029 A 
ATOM     55  N   UNL     1      -4.912   9.126  -0.746  1.00  0.00    -0.354 N 
ATOM     56  C   UNL     1      -1.764  10.429   1.921  1.00  0.00     0.074 A 
ATOM     57  C   UNL     1      -0.619   9.545   1.848  1.00  0.00     0.031 C 
ATOM     58  C   UNL     1      -5.833   7.841  -2.331  1.00  0.00     0.029 A 
ATOM     59  C   UNL     1      -6.063   9.012  -1.489  1.00  0.00     0.049 A 
ATOM     60  H   UNL     1      -4.772   9.829  -0.070  1.00  0.00     0.167 HD
ATOM     61  C   UNL     1      -1.853  11.524   2.716  1.00  0.00     0.031 A 
ATOM     62  C   UNL     1      -7.179   9.766  -1.506  1.00  0.00     0.031 A 
ATOM     63  C   UNL     1      -2.987  12.419   2.722  1.00  0.00     0.049 A 
ATOM     64  C   UNL     1      -7.249  10.983  -0.630  1.00  0.00     0.074 A 
ATOM     65  C   UNL     1      -3.140  13.598   3.433  1.00  0.00     0.029 A 
ATOM     66  N   UNL     1      -4.149  12.251   1.981  1.00  0.00    -0.354 N 
ATOM     67  N   UNL     1      -6.335  11.460   0.180  1.00  0.00    -0.248 NA
ATOM     68  C   UNL     1      -8.487  11.772  -0.675  1.00  0.00     0.031 C 
ATOM     69  C   UNL     1      -4.418  14.099   3.182  1.00  0.00     0.029 A 
ATOM     70  C   UNL     1      -5.033  13.285   2.245  1.00  0.00     0.049 A 
ATOM     71  H   UNL     1      -4.319  11.506   1.359  1.00  0.00     0.167 HD
ATOM     72  C   UNL     1      -6.882  12.610   0.735  1.00  0.00     0.074 A 
ATOM     73  C   UNL     1      -8.197  12.772   0.149  1.00  0.00     0.031 C 
ATOM     74  C   UNL     1      -6.342  13.445   1.655  1.00  0.00     0.031 A 
BRANCH  61  75
ATOM     75  C   UNL     1      -0.702  11.868   3.637  1.00  0.00    -0.014 A 
ATOM     76  C   UNL     1      -0.913  11.914   5.031  1.00  0.00     0.010 A 
ATOM     77  C   UNL     1       0.529  12.319   3.128  1.00  0.00     0.010 A 
ATOM     78  C   UNL     1       0.059  12.444   5.887  1.00  0.00     0.020 A 
ATOM     79  C   UNL     1       1.519  12.815   3.985  1.00  0.00     0.020 A 
ATOM     80  C   UNL     1       1.266  12.902   5.356  1.00  0.00     0.054 A 
BRANCH  80  81
ATOM     81  S   UNL     1       2.497  13.633   6.473  1.00  0.00     0.124 S 
ATOM     82  O   UNL     1       1.899  14.925   6.792  1.00  0.00    -0.237 OA
ATOM     83  O   UNL     1       2.545  12.670   7.571  1.00  0.00    -0.237 OA
ATOM     84  O   UNL     1       3.708  13.691   5.656  1.00  0.00    -0.744 OA
ENDBRANCH  80  81
ENDBRANCH  61  75
BRANCH  62  85
ATOM     85  C   UNL     1      -8.273   9.397  -2.445  1.00  0.00    -0.014 A 
ATOM     86  C   UNL     1      -8.970   8.183  -2.283  1.00  0.00     0.010 A 
ATOM     87  C   UNL     1      -8.530  10.186  -3.579  1.00  0.00     0.010 A 
ATOM     88  C   UNL     1      -9.843   7.730  -3.273  1.00  0.00     0.020 A 
ATOM     89  C   UNL     1      -9.432   9.752  -4.555  1.00  0.00     0.020 A 
ATOM     90  C   UNL     1     -10.055   8.510  -4.412  1.00  0.00     0.054 A 
BRANCH  90  91
ATOM     91  S   UNL     1     -11.129   7.861  -5.721  1.00  0.00     0.124 S 
ATOM     92  O   UNL     1     -10.292   6.816  -6.305  1.00  0.00    -0.237 OA
ATOM     93  O   UNL     1     -12.293   7.392  -4.974  1.00  0.00    -0.237 OA
ATOM     94  O   UNL     1     -11.366   9.021  -6.577  1.00  0.00    -0.744 OA
ENDBRANCH  90  91
ENDBRANCH  62  85
BRANCH  74  95
ATOM     95  C   UNL     1      -7.160  14.621   2.128  1.00  0.00    -0.014 A 
ATOM     96  C   UNL     1      -6.722  15.932   1.859  1.00  0.00     0.010 A 
ATOM     97  C   UNL     1      -8.248  14.427   2.996  1.00  0.00     0.010 A 
ATOM     98  C   UNL     1      -7.312  17.022   2.505  1.00  0.00     0.020 A 
ATOM     99  C   UNL     1      -8.861  15.518   3.619  1.00  0.00     0.020 A 
ATOM    100  C   UNL     1      -8.364  16.805   3.398  1.00  0.00     0.054 A 
BRANCH 100 101
ATOM    101  S   UNL     1      -9.040  18.220   4.310  1.00  0.00     0.124 S 
ATOM    102  O   UNL     1      -7.953  18.543   5.228  1.00  0.00    -0.237 OA
ATOM    103  O   UNL     1      -9.281  19.196   3.250  1.00  0.00    -0.237 OA
ATOM    104  O   UNL     1     -10.246  17.682   4.937  1.00  0.00    -0.744 OA
ENDBRANCH 100 101
ENDBRANCH  74  95
ENDBRANCH  48  49
ENDBRANCH  41  43
ENDBRANCH  40  41
ENDBRANCH  39  40
ENDBRANCH  38  39
ENDBRANCH  37  38
ENDBRANCH  36  37
ENDBRANCH   1  36
TORSDOF 26
