REMARK SMILES CS(=O)(=O)[C@@H]1CCC[C@@H](Sc2ccc(C(=O)OCCOCCOCCOC(=O)c3ccc(-c4c5nc(c(-c6ccc(S(=O)(=O)[O-])cc6)c6ccc([nH]6)c(-c6ccc(S(=O)(=O)[O-])cc6)c6nc(c(-c7ccc(S(=O)(=O)[O-])cc7)c7ccc4[nH]7)C=C6)C=C5)cc3)cn2)C1
REMARK SMILES IDX 21 1 20 2 19 3 18 4 17 5 15 6 16 7 14 8 11 9 12 10 90 11
REMARK SMILES IDX 13 12 89 13 10 14 9 15 5 16 6 17 91 18 7 19 8 20 2 21 1 22
REMARK SMILES IDX 3 23 4 24 22 25 23 26 24 27 25 28 26 29 27 30 28 31 29 32
REMARK SMILES IDX 30 33 88 34 31 35 87 36 32 37 33 38 34 39 81 40 35 41 86 42
REMARK SMILES IDX 80 43 82 44 36 45 85 46 79 47 78 48 37 50 67 51 48 52 66 53
REMARK SMILES IDX 49 54 52 55 65 56 83 57 50 58 51 59 64 61 84 62 53 63 38 64
REMARK SMILES IDX 39 65 47 66 40 67 46 68 41 69 42 70 43 71 44 72 45 73 68 74
REMARK SMILES IDX 69 75 77 76 70 77 76 78 71 79 72 80 73 81 74 82 75 83 54 84
REMARK SMILES IDX 55 85 63 86 56 87 62 88 57 89 58 90 59 91 60 92 61 93
REMARK H PARENT 82 49 52 60
REMARK Flexibility Score: inf
ROOT
ATOM      1  C   UNL     1       5.816  -2.147   2.814  1.00  0.00     0.188 C 
ENDROOT
BRANCH   1   2
ATOM      2  O   UNL     1       5.495  -3.464   3.239  1.00  0.00    -0.376 OA
BRANCH   2   3
ATOM      3  C   UNL     1       5.426  -3.664   4.644  1.00  0.00     0.202 C 
BRANCH   3   4
ATOM      4  C   UNL     1       4.066  -3.262   5.206  1.00  0.00     0.261 C 
BRANCH   4   5
ATOM      5  O   UNL     1       3.745  -1.879   5.002  1.00  0.00    -0.460 OA
BRANCH   5   6
ATOM      6  C   UNL     1       4.420  -0.933   5.698  1.00  0.00     0.339 C 
ATOM      7  O   UNL     1       5.298  -1.117   6.517  1.00  0.00    -0.246 OA
BRANCH   6   8
ATOM      8  C   UNL     1       3.973   0.376   5.177  1.00  0.00     0.078 A 
ATOM      9  C   UNL     1       3.270   2.761   3.920  1.00  0.00     0.096 A 
ATOM     10  C   UNL     1       2.424   1.677   3.895  1.00  0.00     0.036 A 
ATOM     11  N   UNL     1       4.454   2.672   4.576  1.00  0.00    -0.249 NA
ATOM     12  C   UNL     1       2.746   0.494   4.543  1.00  0.00     0.020 A 
ATOM     13  C   UNL     1       4.788   1.494   5.185  1.00  0.00     0.128 A 
BRANCH   9  14
ATOM     14  S   UNL     1       3.007   4.266   3.011  1.00  0.00    -0.103 SA
BRANCH  14  15
ATOM     15  C   UNL     1       1.196   4.569   2.663  1.00  0.00     0.054 C 
ATOM     16  C   UNL     1       0.310   2.611   1.312  1.00  0.00     0.109 C 
ATOM     17  C   UNL     1      -0.789   2.364   2.359  1.00  0.00     0.020 C 
ATOM     18  C   UNL     1       0.715   4.076   1.288  1.00  0.00     0.034 C 
ATOM     19  C   UNL     1      -0.568   2.985   3.744  1.00  0.00     0.002 C 
ATOM     20  C   UNL     1       0.176   4.318   3.775  1.00  0.00     0.015 C 
BRANCH  16  21
ATOM     21  S   UNL     1      -0.168   1.974  -0.310  1.00  0.00     0.150 S 
ATOM     22  C   UNL     1       0.539   0.337  -0.296  1.00  0.00     0.158 C 
ATOM     23  O   UNL     1       0.522   2.731  -1.336  1.00  0.00    -0.229 OA
ATOM     24  O   UNL     1      -1.610   1.825  -0.355  1.00  0.00    -0.229 OA
ENDBRANCH  16  21
ENDBRANCH  14  15
ENDBRANCH   9  14
ENDBRANCH   6   8
ENDBRANCH   5   6
ENDBRANCH   4   5
ENDBRANCH   3   4
ENDBRANCH   2   3
ENDBRANCH   1   2
BRANCH   1  25
ATOM     25  C   UNL     1       4.732  -1.517   1.917  1.00  0.00     0.188 C 
BRANCH  25  26
ATOM     26  O   UNL     1       3.850  -2.324   1.142  1.00  0.00    -0.376 OA
BRANCH  26  27
ATOM     27  C   UNL     1       4.306  -3.570   0.634  1.00  0.00     0.202 C 
BRANCH  27  28
ATOM     28  C   UNL     1       5.411  -3.556  -0.428  1.00  0.00     0.261 C 
BRANCH  28  29
ATOM     29  O   UNL     1       6.582  -2.814  -0.060  1.00  0.00    -0.460 OA
BRANCH  29  30
ATOM     30  C   UNL     1       6.726  -1.617  -0.682  1.00  0.00     0.338 C 
ATOM     31  O   UNL     1       5.983  -1.129  -1.516  1.00  0.00    -0.246 OA
BRANCH  30  32
ATOM     32  C   UNL     1       7.847  -0.873  -0.070  1.00  0.00     0.060 A 
ATOM     33  C   UNL     1       7.604   0.430   0.387  1.00  0.00     0.016 A 
ATOM     34  C   UNL     1       9.128  -1.423   0.013  1.00  0.00     0.016 A 
ATOM     35  C   UNL     1       8.645   1.198   0.908  1.00  0.00     0.010 A 
ATOM     36  C   UNL     1      10.176  -0.642   0.510  1.00  0.00     0.010 A 
ATOM     37  C   UNL     1       9.945   0.680   0.932  1.00  0.00    -0.014 A 
BRANCH  37  38
ATOM     38  C   UNL     1      11.097   1.570   1.213  1.00  0.00     0.031 A 
ATOM     39  C   UNL     1      11.814   2.197   0.051  1.00  0.00     0.074 A 
ATOM     40  C   UNL     1      11.517   1.797   2.469  1.00  0.00     0.049 A 
ATOM     41  N   UNL     1      12.909   2.911   0.039  1.00  0.00    -0.248 NA
ATOM     42  C   UNL     1      11.216   1.982  -1.277  1.00  0.00     0.031 C 
ATOM     43  C   UNL     1      10.879   1.288   3.681  1.00  0.00     0.029 A 
ATOM     44  N   UNL     1      12.604   2.501   2.927  1.00  0.00    -0.354 N 
ATOM     45  C   UNL     1      13.140   3.219  -1.296  1.00  0.00     0.074 A 
ATOM     46  C   UNL     1      12.083   2.599  -2.065  1.00  0.00     0.031 C 
ATOM     47  C   UNL     1      11.607   1.669   4.746  1.00  0.00     0.029 A 
ATOM     48  C   UNL     1      12.779   2.416   4.287  1.00  0.00     0.049 A 
ATOM     49  H   UNL     1      13.200   3.017   2.338  1.00  0.00     0.167 HD
ATOM     50  C   UNL     1      14.145   3.949  -1.836  1.00  0.00     0.031 A 
ATOM     51  C   UNL     1      13.787   2.854   5.068  1.00  0.00     0.031 A 
ATOM     52  C   UNL     1      15.213   4.535  -1.074  1.00  0.00     0.049 A 
ATOM     53  C   UNL     1      14.939   3.599   4.445  1.00  0.00     0.074 A 
ATOM     54  C   UNL     1      16.281   5.289  -1.527  1.00  0.00     0.029 A 
ATOM     55  N   UNL     1      15.357   4.418   0.300  1.00  0.00    -0.354 N 
ATOM     56  N   UNL     1      15.138   3.899   3.183  1.00  0.00    -0.248 NA
ATOM     57  C   UNL     1      16.001   4.066   5.348  1.00  0.00     0.031 C 
ATOM     58  C   UNL     1      17.099   5.585  -0.431  1.00  0.00     0.029 A 
ATOM     59  C   UNL     1      16.509   5.066   0.711  1.00  0.00     0.049 A 
ATOM     60  H   UNL     1      14.732   3.945   0.896  1.00  0.00     0.167 HD
ATOM     61  C   UNL     1      16.333   4.612   3.145  1.00  0.00     0.074 A 
ATOM     62  C   UNL     1      16.811   4.700   4.509  1.00  0.00     0.031 C 
ATOM     63  C   UNL     1      16.970   5.151   2.075  1.00  0.00     0.031 A 
BRANCH  50  64
ATOM     64  C   UNL     1      14.152   4.096  -3.334  1.00  0.00    -0.014 A 
ATOM     65  C   UNL     1      13.195   4.889  -3.994  1.00  0.00     0.010 A 
ATOM     66  C   UNL     1      15.117   3.412  -4.094  1.00  0.00     0.010 A 
ATOM     67  C   UNL     1      13.164   4.943  -5.389  1.00  0.00     0.020 A 
ATOM     68  C   UNL     1      15.107   3.486  -5.489  1.00  0.00     0.020 A 
ATOM     69  C   UNL     1      14.113   4.230  -6.128  1.00  0.00     0.054 A 
BRANCH  69  70
ATOM     70  S   UNL     1      14.036   4.290  -7.939  1.00  0.00     0.124 S 
ATOM     71  O   UNL     1      12.905   3.409  -8.220  1.00  0.00    -0.237 OA
ATOM     72  O   UNL     1      13.808   5.708  -8.206  1.00  0.00    -0.237 OA
ATOM     73  O   UNL     1      15.340   3.783  -8.359  1.00  0.00    -0.744 OA
ENDBRANCH  69  70
ENDBRANCH  50  64
BRANCH  51  74
ATOM     74  C   UNL     1      13.760   2.562   6.527  1.00  0.00    -0.014 A 
ATOM     75  C   UNL     1      13.496   3.577   7.462  1.00  0.00     0.010 A 
ATOM     76  C   UNL     1      13.958   1.245   6.984  1.00  0.00     0.010 A 
ATOM     77  C   UNL     1      13.426   3.280   8.827  1.00  0.00     0.020 A 
ATOM     78  C   UNL     1      13.865   0.941   8.345  1.00  0.00     0.020 A 
ATOM     79  C   UNL     1      13.603   1.962   9.259  1.00  0.00     0.054 A 
BRANCH  79  80
ATOM     80  S   UNL     1      13.418   1.585  11.025  1.00  0.00     0.124 S 
ATOM     81  O   UNL     1      14.655   2.122  11.582  1.00  0.00    -0.237 OA
ATOM     82  O   UNL     1      12.198   2.308  11.377  1.00  0.00    -0.237 OA
ATOM     83  O   UNL     1      13.298   0.129  11.052  1.00  0.00    -0.744 OA
ENDBRANCH  79  80
ENDBRANCH  51  74
BRANCH  63  84
ATOM     84  C   UNL     1      18.239   5.922   2.323  1.00  0.00    -0.014 A 
ATOM     85  C   UNL     1      19.452   5.266   2.591  1.00  0.00     0.010 A 
ATOM     86  C   UNL     1      18.235   7.322   2.169  1.00  0.00     0.010 A 
ATOM     87  C   UNL     1      20.640   5.996   2.704  1.00  0.00     0.020 A 
ATOM     88  C   UNL     1      19.423   8.052   2.260  1.00  0.00     0.020 A 
ATOM     89  C   UNL     1      20.618   7.384   2.531  1.00  0.00     0.054 A 
BRANCH  89  90
ATOM     90  S   UNL     1      22.185   8.298   2.591  1.00  0.00     0.124 S 
ATOM     91  O   UNL     1      22.482   8.299   4.021  1.00  0.00    -0.237 OA
ATOM     92  O   UNL     1      23.068   7.478   1.766  1.00  0.00    -0.237 OA
ATOM     93  O   UNL     1      21.848   9.602   2.024  1.00  0.00    -0.744 OA
ENDBRANCH  89  90
ENDBRANCH  63  84
ENDBRANCH  37  38
ENDBRANCH  30  32
ENDBRANCH  29  30
ENDBRANCH  28  29
ENDBRANCH  27  28
ENDBRANCH  26  27
ENDBRANCH  25  26
ENDBRANCH   1  25
TORSDOF 23
