REMARK SMILES Cc1cc2c(=O)c3ccccc3oc2c(C(=O)OCCOCCOCCOC(=O)c2ccc(-c3c4nc(c(-c5ccc(S(=O)(=O)[O-])cc5)c5ccc([nH]5)c(-c5ccc(S(=O)(=O)[O-])cc5)c5nc(c(-c6ccc(S(=O)(=O)[O-])cc6)c6ccc3[nH]6)C=C5)C=C4)cc2)c1C
REMARK SMILES IDX 24 1 23 2 22 3 21 4 20 5 19 6 18 7 16 8 17 9 15 10 1 11 2 12
REMARK SMILES IDX 3 13 90 14 4 15 91 16 5 17 14 18 6 19 7 20 13 21 8 22 12 23
REMARK SMILES IDX 9 24 11 25 10 26 25 27 26 28 27 29 28 30 29 31 30 32 31 33
REMARK SMILES IDX 89 34 32 35 88 36 33 37 34 38 35 39 82 40 36 41 87 42 81 43
REMARK SMILES IDX 83 44 37 45 86 46 80 47 79 48 38 50 68 51 49 52 67 53 50 54
REMARK SMILES IDX 53 55 66 56 84 57 51 58 52 59 65 61 85 62 54 63 39 64 40 65
REMARK SMILES IDX 48 66 41 67 47 68 42 69 43 70 44 71 45 72 46 73 69 74 70 75
REMARK SMILES IDX 78 76 71 77 77 78 72 79 73 80 74 81 75 82 76 83 55 84 56 85
REMARK SMILES IDX 64 86 57 87 63 88 58 89 59 90 60 91 61 92 62 93
REMARK H PARENT 83 49 53 60
REMARK Flexibility Score: inf
ROOT
ATOM      1  O   UNL     1       4.548  -4.520   0.753  1.00  0.00    -0.376 OA
ENDROOT
BRANCH   1   2
ATOM      2  C   UNL     1       3.319  -4.913   1.335  1.00  0.00     0.188 C 
BRANCH   2   3
ATOM      3  C   UNL     1       2.666  -6.272   0.992  1.00  0.00     0.188 C 
BRANCH   3   4
ATOM      4  O   UNL     1       3.338  -7.173   0.136  1.00  0.00    -0.376 OA
BRANCH   4   5
ATOM      5  C   UNL     1       3.450  -6.901  -1.253  1.00  0.00     0.202 C 
BRANCH   5   6
ATOM      6  C   UNL     1       2.471  -5.995  -2.010  1.00  0.00     0.261 C 
BRANCH   6   7
ATOM      7  O   UNL     1       2.080  -4.816  -1.298  1.00  0.00    -0.460 OA
BRANCH   7   8
ATOM      8  C   UNL     1       0.743  -4.589  -1.222  1.00  0.00     0.342 C 
ATOM      9  O   UNL     1      -0.134  -5.269  -1.726  1.00  0.00    -0.246 OA
BRANCH   8  10
ATOM     10  C   UNL     1       0.464  -3.403  -0.368  1.00  0.00     0.106 A 
ATOM     11  C   UNL     1       1.307   0.337  -0.041  1.00  0.00     0.044 C 
ATOM     12  C   UNL     1       0.716  -1.031   0.165  1.00  0.00    -0.046 A 
ATOM     13  C   UNL     1      -0.253  -1.181   1.165  1.00  0.00     0.019 A 
ATOM     14  C   UNL     1       1.095  -2.151  -0.611  1.00  0.00    -0.030 A 
ATOM     15  C   UNL     1      -0.821  -2.428   1.426  1.00  0.00     0.067 A 
ATOM     16  C   UNL     1       2.215  -2.029  -1.617  1.00  0.00     0.046 C 
ATOM     17  C   UNL     1      -1.783  -2.556   2.529  1.00  0.00     0.200 A 
ATOM     18  C   UNL     1      -0.475  -3.548   0.676  1.00  0.00     0.153 A 
ATOM     19  O   UNL     1      -2.131  -1.583   3.187  1.00  0.00    -0.288 OA
ATOM     20  C   UNL     1      -2.291  -3.898   2.808  1.00  0.00     0.065 A 
ATOM     21  O   UNL     1      -0.983  -4.801   0.951  1.00  0.00    -0.455 OA
ATOM     22  C   UNL     1      -3.187  -4.109   3.862  1.00  0.00     0.016 A 
ATOM     23  C   UNL     1      -1.864  -4.947   1.998  1.00  0.00     0.138 A 
ATOM     24  C   UNL     1      -3.676  -5.388   4.098  1.00  0.00     0.001 A 
ATOM     25  C   UNL     1      -2.360  -6.228   2.239  1.00  0.00     0.048 A 
ATOM     26  C   UNL     1      -3.273  -6.440   3.278  1.00  0.00     0.004 A 
ENDBRANCH   8  10
ENDBRANCH   7   8
ENDBRANCH   6   7
ENDBRANCH   5   6
ENDBRANCH   4   5
ENDBRANCH   3   4
ENDBRANCH   2   3
ENDBRANCH   1   2
BRANCH   1  27
ATOM     27  C   UNL     1       5.680  -5.367   0.873  1.00  0.00     0.202 C 
BRANCH  27  28
ATOM     28  C   UNL     1       6.085  -5.983   2.217  1.00  0.00     0.261 C 
BRANCH  28  29
ATOM     29  O   UNL     1       5.031  -6.648   2.924  1.00  0.00    -0.460 OA
BRANCH  29  30
ATOM     30  C   UNL     1       4.636  -6.052   4.077  1.00  0.00     0.338 C 
ATOM     31  O   UNL     1       5.072  -5.021   4.564  1.00  0.00    -0.246 OA
BRANCH  30  32
ATOM     32  C   UNL     1       3.436  -6.748   4.578  1.00  0.00     0.060 A 
ATOM     33  C   UNL     1       3.489  -8.107   4.889  1.00  0.00     0.016 A 
ATOM     34  C   UNL     1       2.244  -6.025   4.731  1.00  0.00     0.016 A 
ATOM     35  C   UNL     1       2.345  -8.740   5.378  1.00  0.00     0.010 A 
ATOM     36  C   UNL     1       1.095  -6.667   5.196  1.00  0.00     0.010 A 
ATOM     37  C   UNL     1       1.146  -8.024   5.544  1.00  0.00    -0.014 A 
BRANCH  37  38
ATOM     38  C   UNL     1      -0.003  -8.666   6.224  1.00  0.00     0.031 A 
ATOM     39  C   UNL     1      -1.145  -9.251   5.453  1.00  0.00     0.074 A 
ATOM     40  C   UNL     1       0.020  -8.738   7.568  1.00  0.00     0.049 A 
ATOM     41  N   UNL     1      -2.235  -9.817   5.903  1.00  0.00    -0.248 NA
ATOM     42  C   UNL     1      -1.058  -9.188   3.988  1.00  0.00     0.031 C 
ATOM     43  C   UNL     1       1.107  -8.232   8.408  1.00  0.00     0.029 A 
ATOM     44  N   UNL     1      -0.861  -9.296   8.457  1.00  0.00    -0.354 N 
ATOM     45  C   UNL     1      -3.000 -10.121   4.782  1.00  0.00     0.074 A 
ATOM     46  C   UNL     1      -2.224  -9.714   3.629  1.00  0.00     0.031 C 
ATOM     47  C   UNL     1       0.863  -8.568   9.683  1.00  0.00     0.029 A 
ATOM     48  C   UNL     1      -0.419  -9.264   9.758  1.00  0.00     0.049 A 
ATOM     49  H   UNL     1      -1.727  -9.681   8.190  1.00  0.00     0.167 HD
ATOM     50  C   UNL     1      -4.243 -10.660   4.740  1.00  0.00     0.031 A 
ATOM     51  C   UNL     1      -0.969  -9.761  10.884  1.00  0.00     0.031 A 
ATOM     52  C   UNL     1      -4.947 -11.141   5.907  1.00  0.00     0.049 A 
ATOM     53  C   UNL     1      -2.277 -10.495  10.795  1.00  0.00     0.074 A 
ATOM     54  C   UNL     1      -6.186 -11.758   5.967  1.00  0.00     0.029 A 
ATOM     55  N   UNL     1      -4.459 -11.111   7.206  1.00  0.00    -0.354 N 
ATOM     56  N   UNL     1      -3.017 -10.723   9.737  1.00  0.00    -0.248 NA
ATOM     57  C   UNL     1      -2.817 -11.056  12.041  1.00  0.00     0.031 C 
ATOM     58  C   UNL     1      -6.466 -12.059   7.301  1.00  0.00     0.029 A 
ATOM     59  C   UNL     1      -5.367 -11.707   8.067  1.00  0.00     0.049 A 
ATOM     60  H   UNL     1      -3.595 -10.722   7.477  1.00  0.00     0.167 HD
ATOM     61  C   UNL     1      -4.102 -11.467  10.185  1.00  0.00     0.074 A 
ATOM     62  C   UNL     1      -3.909 -11.674  11.605  1.00  0.00     0.031 C 
ATOM     63  C   UNL     1      -5.164 -11.926   9.479  1.00  0.00     0.031 A 
BRANCH  50  64
ATOM     64  C   UNL     1      -4.957 -10.762   3.410  1.00  0.00    -0.014 A 
ATOM     65  C   UNL     1      -6.180 -10.081   3.232  1.00  0.00     0.010 A 
ATOM     66  C   UNL     1      -4.515 -11.627   2.395  1.00  0.00     0.010 A 
ATOM     67  C   UNL     1      -6.967 -10.299   2.098  1.00  0.00     0.020 A 
ATOM     68  C   UNL     1      -5.278 -11.815   1.236  1.00  0.00     0.020 A 
ATOM     69  C   UNL     1      -6.514 -11.175   1.111  1.00  0.00     0.054 A 
BRANCH  69  70
ATOM     70  S   UNL     1      -7.563 -11.486  -0.338  1.00  0.00     0.124 S 
ATOM     71  O   UNL     1      -8.568 -12.398   0.201  1.00  0.00    -0.237 OA
ATOM     72  O   UNL     1      -8.043 -10.149  -0.680  1.00  0.00    -0.237 OA
ATOM     73  O   UNL     1      -6.639 -12.073  -1.306  1.00  0.00    -0.744 OA
ENDBRANCH  69  70
ENDBRANCH  50  64
BRANCH  51  74
ATOM     74  C   UNL     1      -0.216  -9.645  12.163  1.00  0.00    -0.014 A 
ATOM     75  C   UNL     1       0.011  -8.388  12.752  1.00  0.00     0.010 A 
ATOM     76  C   UNL     1       0.376 -10.785  12.736  1.00  0.00     0.010 A 
ATOM     77  C   UNL     1       0.868  -8.263  13.848  1.00  0.00     0.020 A 
ATOM     78  C   UNL     1       1.206 -10.669  13.855  1.00  0.00     0.020 A 
ATOM     79  C   UNL     1       1.473  -9.404  14.383  1.00  0.00     0.054 A 
BRANCH  79  80
ATOM     80  S   UNL     1       2.636  -9.209  15.760  1.00  0.00     0.124 S 
ATOM     81  O   UNL     1       3.807  -8.654  15.086  1.00  0.00    -0.237 OA
ATOM     82  O   UNL     1       1.927  -8.292  16.648  1.00  0.00    -0.237 OA
ATOM     83  O   UNL     1       2.795 -10.569  16.270  1.00  0.00    -0.744 OA
ENDBRANCH  79  80
ENDBRANCH  51  74
BRANCH  63  84
ATOM     84  C   UNL     1      -6.219 -12.723  10.205  1.00  0.00    -0.014 A 
ATOM     85  C   UNL     1      -6.422 -14.075   9.866  1.00  0.00     0.010 A 
ATOM     86  C   UNL     1      -7.102 -12.107  11.110  1.00  0.00     0.010 A 
ATOM     87  C   UNL     1      -7.507 -14.785  10.387  1.00  0.00     0.020 A 
ATOM     88  C   UNL     1      -8.171 -12.823  11.658  1.00  0.00     0.020 A 
ATOM     89  C   UNL     1      -8.382 -14.150  11.271  1.00  0.00     0.054 A 
BRANCH  89  90
ATOM     90  S   UNL     1      -9.813 -15.073  11.898  1.00  0.00     0.124 S 
ATOM     91  O   UNL     1     -10.689 -15.112  10.731  1.00  0.00    -0.237 OA
ATOM     92  O   UNL     1      -9.223 -16.352  12.286  1.00  0.00    -0.237 OA
ATOM     93  O   UNL     1     -10.291 -14.254  13.009  1.00  0.00    -0.744 OA
ENDBRANCH  89  90
ENDBRANCH  63  84
ENDBRANCH  37  38
ENDBRANCH  30  32
ENDBRANCH  29  30
ENDBRANCH  28  29
ENDBRANCH  27  28
ENDBRANCH   1  27
TORSDOF 20
