REMARK SMILES CC1=C(CC(=O)OCCOCCOCCOC(=O)c2ccc(-c3c4nc(c(-c5ccc(S(=O)(=O)[O-])cc5)c5ccc([nH]5)c(-c5ccc(S(=O)(=O)[O-])cc5)c5nc(c(-c6ccc(S(=O)(=O)[O-])cc6)c6ccc3[nH]6)C=C5)C=C4)cc2)c2cc(F)ccc2/C1=C\c1ccc([S@@+](C)[O-])cc1
REMARK SMILES IDX 11 1 10 2 9 3 8 4 7 5 5 6 6 7 4 8 3 9 1 10 2 11 86 12 79 13
REMARK SMILES IDX 85 14 87 15 80 16 84 17 81 18 83 19 82 20 88 21 89 22 96 23
REMARK SMILES IDX 90 24 95 25 91 26 92 27 93 28 94 29 12 30 13 31 14 32 15 33
REMARK SMILES IDX 16 34 17 35 18 36 19 37 20 38 78 39 21 40 77 41 22 42 23 43
REMARK SMILES IDX 24 44 71 45 25 46 76 47 70 48 72 49 26 50 75 51 69 52 68 53
REMARK SMILES IDX 27 55 57 56 38 57 56 58 39 59 42 60 55 61 73 62 40 63 41 64
REMARK SMILES IDX 54 66 74 67 43 68 28 69 29 70 37 71 30 72 36 73 31 74 32 75
REMARK SMILES IDX 33 76 34 77 35 78 58 79 59 80 67 81 60 82 66 83 61 84 62 85
REMARK SMILES IDX 63 86 64 87 65 88 44 89 45 90 53 91 46 92 52 93 47 94 48 95
REMARK SMILES IDX 49 96 50 97 51 98
REMARK H PARENT 72 54 42 65
REMARK Flexibility Score: inf
ROOT
ATOM      1  C   UNL     1       2.695  -4.511   3.554  1.00  0.00     0.188 C 
ENDROOT
BRANCH   1   2
ATOM      2  O   UNL     1       3.994  -4.902   3.111  1.00  0.00    -0.376 OA
BRANCH   2   3
ATOM      3  C   UNL     1       4.778  -3.929   2.427  1.00  0.00     0.202 C 
BRANCH   3   4
ATOM      4  C   UNL     1       4.220  -3.510   1.066  1.00  0.00     0.261 C 
BRANCH   4   5
ATOM      5  O   UNL     1       2.957  -2.830   1.215  1.00  0.00    -0.463 OA
BRANCH   5   6
ATOM      6  C   UNL     1       2.151  -2.851   0.123  1.00  0.00     0.310 C 
ATOM      7  O   UNL     1       2.506  -3.244  -0.983  1.00  0.00    -0.252 OA
BRANCH   6   8
ATOM      8  C   UNL     1       0.704  -2.478   0.444  1.00  0.00     0.159 C 
BRANCH   8   9
ATOM      9  C   UNL     1       0.437  -1.295   1.330  1.00  0.00    -0.025 C 
ATOM     10  C   UNL     1       1.494   0.586  -0.012  1.00  0.00     0.045 C 
ATOM     11  C   UNL     1       0.777   0.005   1.160  1.00  0.00    -0.039 C 
ATOM     12  C   UNL     1       0.242   0.820   2.269  1.00  0.00    -0.014 C 
ATOM     13  C   UNL     1      -0.420  -1.363   2.531  1.00  0.00    -0.011 A 
ATOM     14  C   UNL     1      -0.489  -0.105   3.156  1.00  0.00    -0.010 A 
ATOM     15  C   UNL     1       0.349   2.161   2.377  1.00  0.00     0.017 C 
ATOM     16  C   UNL     1      -1.158  -2.424   3.034  1.00  0.00     0.048 A 
ATOM     17  C   UNL     1      -1.200   0.065   4.340  1.00  0.00     0.012 A 
ATOM     18  C   UNL     1      -1.906  -2.226   4.196  1.00  0.00     0.123 A 
ATOM     19  C   UNL     1      -1.902  -1.012   4.872  1.00  0.00     0.040 A 
ATOM     20  F   UNL     1      -2.638  -3.234   4.684  1.00  0.00    -0.207 F 
BRANCH  15  21
ATOM     21  C   UNL     1      -0.247   2.973   3.445  1.00  0.00    -0.025 A 
ATOM     22  C   UNL     1       0.402   3.095   4.678  1.00  0.00     0.013 A 
ATOM     23  C   UNL     1      -1.529   3.513   3.291  1.00  0.00     0.013 A 
ATOM     24  C   UNL     1      -0.258   3.671   5.772  1.00  0.00     0.061 A 
ATOM     25  C   UNL     1      -2.178   4.108   4.380  1.00  0.00     0.061 A 
ATOM     26  C   UNL     1      -1.559   4.170   5.635  1.00  0.00     0.152 A 
BRANCH  26  27
ATOM     27  S   UNL     1      -2.517   4.732   7.069  1.00  0.00    -0.018 S 
ATOM     28  C   UNL     1      -1.283   5.753   7.898  1.00  0.00     0.346 C 
ATOM     29  O   UNL     1      -3.636   5.689   6.522  1.00  0.00    -0.612 OA
ENDBRANCH  26  27
ENDBRANCH  15  21
ENDBRANCH   8   9
ENDBRANCH   6   8
ENDBRANCH   5   6
ENDBRANCH   4   5
ENDBRANCH   3   4
ENDBRANCH   2   3
ENDBRANCH   1   2
BRANCH   1  30
ATOM     30  C   UNL     1       2.544  -3.111   4.168  1.00  0.00     0.188 C 
BRANCH  30  31
ATOM     31  O   UNL     1       3.649  -2.780   5.006  1.00  0.00    -0.376 OA
BRANCH  31  32
ATOM     32  C   UNL     1       3.269  -2.327   6.299  1.00  0.00     0.202 C 
BRANCH  32  33
ATOM     33  C   UNL     1       3.171  -3.505   7.269  1.00  0.00     0.261 C 
BRANCH  33  34
ATOM     34  O   UNL     1       2.216  -4.506   6.870  1.00  0.00    -0.460 OA
BRANCH  34  35
ATOM     35  C   UNL     1       0.917  -4.207   7.093  1.00  0.00     0.338 C 
ATOM     36  O   UNL     1       0.471  -3.176   7.557  1.00  0.00    -0.246 OA
BRANCH  35  37
ATOM     37  C   UNL     1       0.101  -5.319   6.572  1.00  0.00     0.060 A 
ATOM     38  C   UNL     1      -0.136  -6.454   7.340  1.00  0.00     0.016 A 
ATOM     39  C   UNL     1      -0.484  -5.193   5.312  1.00  0.00     0.016 A 
ATOM     40  C   UNL     1      -0.982  -7.453   6.840  1.00  0.00     0.010 A 
ATOM     41  C   UNL     1      -1.368  -6.162   4.835  1.00  0.00     0.010 A 
ATOM     42  C   UNL     1      -1.629  -7.305   5.595  1.00  0.00    -0.014 A 
BRANCH  42  43
ATOM     43  C   UNL     1      -2.645  -8.298   5.153  1.00  0.00     0.031 A 
ATOM     44  C   UNL     1      -2.422  -9.184   3.958  1.00  0.00     0.074 A 
ATOM     45  C   UNL     1      -3.799  -8.392   5.845  1.00  0.00     0.049 A 
ATOM     46  N   UNL     1      -3.130 -10.211   3.560  1.00  0.00    -0.248 NA
ATOM     47  C   UNL     1      -1.279  -8.873   3.084  1.00  0.00     0.031 C 
ATOM     48  C   UNL     1      -4.183  -7.517   6.955  1.00  0.00     0.029 A 
ATOM     49  N   UNL     1      -4.847  -9.274   5.741  1.00  0.00    -0.354 N 
ATOM     50  C   UNL     1      -2.506 -10.684   2.412  1.00  0.00     0.074 A 
ATOM     51  C   UNL     1      -1.405  -9.790   2.132  1.00  0.00     0.031 C 
ATOM     52  C   UNL     1      -5.340  -7.951   7.477  1.00  0.00     0.029 A 
ATOM     53  C   UNL     1      -5.791  -9.122   6.730  1.00  0.00     0.049 A 
ATOM     54  H   UNL     1      -4.915  -9.950   5.028  1.00  0.00     0.167 HD
ATOM     55  C   UNL     1      -2.804 -11.786   1.681  1.00  0.00     0.031 A 
ATOM     56  C   UNL     1      -6.877  -9.862   7.035  1.00  0.00     0.031 A 
ATOM     57  C   UNL     1      -3.902 -12.672   1.972  1.00  0.00     0.049 A 
ATOM     58  C   UNL     1      -7.169 -11.101   6.237  1.00  0.00     0.074 A 
ATOM     59  C   UNL     1      -4.242 -13.852   1.333  1.00  0.00     0.029 A 
ATOM     60  N   UNL     1      -4.835 -12.481   2.980  1.00  0.00    -0.354 N 
ATOM     61  N   UNL     1      -6.498 -11.602   5.227  1.00  0.00    -0.248 NA
ATOM     62  C   UNL     1      -8.346 -11.889   6.629  1.00  0.00     0.031 C 
ATOM     63  C   UNL     1      -5.410 -14.346   1.919  1.00  0.00     0.029 A 
ATOM     64  C   UNL     1      -5.762 -13.509   2.966  1.00  0.00     0.049 A 
ATOM     65  H   UNL     1      -4.837 -11.726   3.612  1.00  0.00     0.167 HD
ATOM     66  C   UNL     1      -7.161 -12.772   4.875  1.00  0.00     0.074 A 
ATOM     67  C   UNL     1      -8.275 -12.915   5.789  1.00  0.00     0.031 C 
ATOM     68  C   UNL     1      -6.869 -13.645   3.881  1.00  0.00     0.031 A 
BRANCH  55  69
ATOM     69  C   UNL     1      -1.905 -12.148   0.526  1.00  0.00    -0.014 A 
ATOM     70  C   UNL     1      -2.402 -12.150  -0.790  1.00  0.00     0.010 A 
ATOM     71  C   UNL     1      -0.605 -12.633   0.765  1.00  0.00     0.010 A 
ATOM     72  C   UNL     1      -1.630 -12.657  -1.841  1.00  0.00     0.020 A 
ATOM     73  C   UNL     1       0.179 -13.116  -0.286  1.00  0.00     0.020 A 
ATOM     74  C   UNL     1      -0.348 -13.149  -1.579  1.00  0.00     0.054 A 
BRANCH  74  75
ATOM     75  S   UNL     1       0.626 -13.842  -2.944  1.00  0.00     0.124 S 
ATOM     76  O   UNL     1      -0.012 -15.138  -3.151  1.00  0.00    -0.237 OA
ATOM     77  O   UNL     1       0.427 -12.862  -4.009  1.00  0.00    -0.237 OA
ATOM     78  O   UNL     1       1.983 -13.893  -2.404  1.00  0.00    -0.744 OA
ENDBRANCH  74  75
ENDBRANCH  55  69
BRANCH  56  79
ATOM     79  C   UNL     1      -7.696  -9.489   8.221  1.00  0.00    -0.014 A 
ATOM     80  C   UNL     1      -8.483  -8.323   8.212  1.00  0.00     0.010 A 
ATOM     81  C   UNL     1      -7.617 -10.251   9.401  1.00  0.00     0.010 A 
ATOM     82  C   UNL     1      -9.138  -7.900   9.372  1.00  0.00     0.020 A 
ATOM     83  C   UNL     1      -8.292  -9.845  10.556  1.00  0.00     0.020 A 
ATOM     84  C   UNL     1      -9.025  -8.656  10.542  1.00  0.00     0.054 A 
BRANCH  84  85
ATOM     85  S   UNL     1      -9.839  -8.063  12.051  1.00  0.00     0.124 S 
ATOM     86  O   UNL     1      -8.927  -7.009  12.488  1.00  0.00    -0.237 OA
ATOM     87  O   UNL     1     -11.136  -7.609  11.558  1.00  0.00    -0.237 OA
ATOM     88  O   UNL     1      -9.881  -9.248  12.904  1.00  0.00    -0.744 OA
ENDBRANCH  84  85
ENDBRANCH  56  79
BRANCH  68  89
ATOM     89  C   UNL     1      -7.758 -14.847   3.700  1.00  0.00    -0.014 A 
ATOM     90  C   UNL     1      -7.253 -16.134   3.959  1.00  0.00     0.010 A 
ATOM     91  C   UNL     1      -9.037 -14.713   3.132  1.00  0.00     0.010 A 
ATOM     92  C   UNL     1      -7.993 -17.268   3.617  1.00  0.00     0.020 A 
ATOM     93  C   UNL     1      -9.791 -15.846   2.812  1.00  0.00     0.020 A 
ATOM     94  C   UNL     1      -9.252 -17.116   3.031  1.00  0.00     0.054 A 
BRANCH  94  95
ATOM     95  S   UNL     1     -10.178 -18.599   2.546  1.00  0.00     0.124 S 
ATOM     96  O   UNL     1      -9.506 -18.990   1.311  1.00  0.00    -0.237 OA
ATOM     97  O   UNL     1      -9.976 -19.492   3.684  1.00  0.00    -0.237 OA
ATOM     98  O   UNL     1     -11.546 -18.109   2.384  1.00  0.00    -0.744 OA
ENDBRANCH  94  95
ENDBRANCH  68  89
ENDBRANCH  42  43
ENDBRANCH  35  37
ENDBRANCH  34  35
ENDBRANCH  33  34
ENDBRANCH  32  33
ENDBRANCH  31  32
ENDBRANCH  30  31
ENDBRANCH   1  30
TORSDOF 23
