REMARK SMILES Cc1ccc(C)c(N2C(=O)S[C@H](CC(=O)Nc3ccc(C(=O)OCCOCCOCCOC(=O)c4ccc(-c5c6nc(c(-c7ccc(S(=O)(=O)[O-])cc7)c7ccc([nH]7)c(-c7ccc(S(=O)(=O)[O-])cc7)c7nc(c(-c8ccc(S(=O)(=O)[O-])cc8)c8ccc5[nH]8)C=C7)C=C6)cc4)c(O)c3)C2=O)c1
REMARK SMILES IDX 27 1 26 2 25 3 24 4 23 5 21 6 22 7 20 8 17 9 18 10 97 11
REMARK SMILES IDX 19 12 95 13 16 14 14 15 15 16 13 18 12 19 8 20 9 21 98 22
REMARK SMILES IDX 10 23 11 24 99 25 7 26 1 27 2 28 3 29 100 30 4 31 5 32 6 33
REMARK SMILES IDX 96 34 28 36 29 37 30 38 31 39 32 40 33 41 34 42 35 43 36 44
REMARK SMILES IDX 94 45 37 46 93 47 38 48 39 49 40 50 87 51 41 52 92 53 86 54
REMARK SMILES IDX 88 55 42 56 91 57 85 58 84 59 43 61 73 62 54 63 72 64 55 65
REMARK SMILES IDX 58 66 71 67 89 68 56 69 57 70 70 72 90 73 59 74 44 75 45 76
REMARK SMILES IDX 53 77 46 78 52 79 47 80 48 81 49 82 50 83 51 84 74 85 75 86
REMARK SMILES IDX 83 87 76 88 82 89 77 90 78 91 79 92 80 93 81 94 60 95 61 96
REMARK SMILES IDX 69 97 62 98 68 99 63 100 64 101 65 102 66 103 67 104
REMARK H PARENT 16 17 96 35 88 60 58 71
REMARK Flexibility Score: inf
ROOT
ATOM      1  C   UNL     1       1.974   2.002  -2.968  1.00  0.00     0.188 C 
ENDROOT
BRANCH   1   2
ATOM      2  O   UNL     1       2.009   1.744  -4.372  1.00  0.00    -0.376 OA
BRANCH   2   3
ATOM      3  C   UNL     1       2.325   2.865  -5.203  1.00  0.00     0.202 C 
BRANCH   3   4
ATOM      4  C   UNL     1       1.163   3.833  -5.509  1.00  0.00     0.261 C 
BRANCH   4   5
ATOM      5  O   UNL     1       0.576   4.461  -4.343  1.00  0.00    -0.460 OA
BRANCH   5   6
ATOM      6  C   UNL     1      -0.637   5.038  -4.553  1.00  0.00     0.341 C 
ATOM      7  O   UNL     1      -1.322   4.934  -5.556  1.00  0.00    -0.246 OA
BRANCH   6   8
ATOM      8  C   UNL     1      -1.157   5.726  -3.343  1.00  0.00     0.101 A 
ATOM      9  C   UNL     1      -2.247   6.719  -0.940  1.00  0.00     0.044 A 
ATOM     10  C   UNL     1      -2.956   5.824  -1.732  1.00  0.00     0.027 A 
ATOM     11  C   UNL     1      -1.106   7.300  -1.465  1.00  0.00     0.073 A 
ATOM     12  C   UNL     1      -2.399   5.289  -2.895  1.00  0.00     0.022 A 
ATOM     13  C   UNL     1      -0.588   6.821  -2.682  1.00  0.00     0.132 A 
BRANCH   9  14
ATOM     14  N   UNL     1      -2.737   7.064   0.330  1.00  0.00    -0.326 N 
ATOM     15  C   UNL     1      -3.201   6.168   1.275  1.00  0.00     0.226 C 
ATOM     16  O   UNL     1      -4.080   6.484   2.075  1.00  0.00    -0.275 OA
ATOM     17  H   UNL     1      -2.751   8.020   0.566  1.00  0.00     0.169 HD
BRANCH  15  18
ATOM     18  C   UNL     1      -2.405   4.874   1.447  1.00  0.00     0.125 C 
BRANCH  18  19
ATOM     19  C   UNL     1      -3.171   3.558   1.341  1.00  0.00     0.156 C 
ATOM     20  N   UNL     1      -1.574   1.956   0.545  1.00  0.00    -0.240 N 
ATOM     21  C   UNL     1      -2.050   2.437  -0.653  1.00  0.00     0.293 C 
ATOM     22  C   UNL     1      -2.235   2.396   1.683  1.00  0.00     0.248 C 
ATOM     23  O   UNL     1      -1.532   2.406  -1.742  1.00  0.00    -0.261 OA
ATOM     24  S   UNL     1      -3.640   3.131  -0.358  1.00  0.00    -0.050 SA
ATOM     25  O   UNL     1      -2.130   1.941   2.817  1.00  0.00    -0.273 OA
BRANCH  20  26
ATOM     26  C   UNL     1      -0.797   0.778   0.514  1.00  0.00     0.056 A 
ATOM     27  C   UNL     1       2.880  -0.247   0.237  1.00  0.00     0.044 C 
ATOM     28  C   UNL     1       1.382  -0.289   0.299  1.00  0.00    -0.049 A 
ATOM     29  C   UNL     1       0.744  -1.521   0.124  1.00  0.00     0.004 A 
ATOM     30  C   UNL     1       0.606   0.865   0.493  1.00  0.00     0.030 A 
ATOM     31  C   UNL     1      -0.645  -1.610   0.143  1.00  0.00     0.006 A 
ATOM     32  C   UNL     1      -1.434  -0.468   0.328  1.00  0.00    -0.027 A 
ATOM     33  C   UNL     1      -2.926  -0.650   0.271  1.00  0.00     0.046 C 
ENDBRANCH  20  26
ENDBRANCH  18  19
ENDBRANCH  15  18
ENDBRANCH   9  14
BRANCH  13  34
ATOM     34  O   UNL     1       0.444   7.555  -3.177  1.00  0.00    -0.507 OA
ATOM     35  H   UNL     1       0.850   7.308  -3.984  1.00  0.00     0.293 HD
ENDBRANCH  13  34
ENDBRANCH   6   8
ENDBRANCH   5   6
ENDBRANCH   4   5
ENDBRANCH   3   4
ENDBRANCH   2   3
ENDBRANCH   1   2
BRANCH   1  36
ATOM     36  C   UNL     1       3.364   2.075  -2.315  1.00  0.00     0.188 C 
BRANCH  36  37
ATOM     37  O   UNL     1       4.053   3.240  -2.729  1.00  0.00    -0.376 OA
BRANCH  37  38
ATOM     38  C   UNL     1       5.438   3.289  -2.468  1.00  0.00     0.202 C 
BRANCH  38  39
ATOM     39  C   UNL     1       5.886   3.260  -1.001  1.00  0.00     0.261 C 
BRANCH  39  40
ATOM     40  O   UNL     1       5.048   3.755   0.081  1.00  0.00    -0.460 OA
BRANCH  40  41
ATOM     41  C   UNL     1       4.195   4.800   0.158  1.00  0.00     0.338 C 
ATOM     42  O   UNL     1       3.432   4.944   1.106  1.00  0.00    -0.246 OA
BRANCH  41  43
ATOM     43  C   UNL     1       4.099   5.671  -1.012  1.00  0.00     0.060 A 
ATOM     44  C   UNL     1       2.900   5.596  -1.697  1.00  0.00     0.016 A 
ATOM     45  C   UNL     1       5.197   6.366  -1.541  1.00  0.00     0.016 A 
ATOM     46  C   UNL     1       2.905   5.997  -3.014  1.00  0.00     0.010 A 
ATOM     47  C   UNL     1       5.158   6.809  -2.871  1.00  0.00     0.010 A 
ATOM     48  C   UNL     1       4.029   6.537  -3.640  1.00  0.00    -0.014 A 
BRANCH  48  49
ATOM     49  C   UNL     1       3.801   6.917  -5.042  1.00  0.00     0.031 A 
ATOM     50  C   UNL     1       2.831   8.037  -5.180  1.00  0.00     0.074 A 
ATOM     51  C   UNL     1       4.303   6.304  -6.135  1.00  0.00     0.049 A 
ATOM     52  N   UNL     1       1.670   8.030  -5.764  1.00  0.00    -0.248 NA
ATOM     53  C   UNL     1       3.117   9.252  -4.399  1.00  0.00     0.031 C 
ATOM     54  C   UNL     1       5.332   5.267  -6.176  1.00  0.00     0.029 A 
ATOM     55  N   UNL     1       4.047   6.539  -7.465  1.00  0.00    -0.354 N 
ATOM     56  C   UNL     1       1.196   9.330  -5.624  1.00  0.00     0.074 A 
ATOM     57  C   UNL     1       2.017   9.964  -4.621  1.00  0.00     0.031 C 
ATOM     58  C   UNL     1       5.778   5.136  -7.446  1.00  0.00     0.029 A 
ATOM     59  C   UNL     1       5.014   6.014  -8.319  1.00  0.00     0.049 A 
ATOM     60  H   UNL     1       3.256   7.031  -7.783  1.00  0.00     0.167 HD
ATOM     61  C   UNL     1       0.328   9.913  -6.490  1.00  0.00     0.031 A 
ATOM     62  C   UNL     1       5.255   6.348  -9.617  1.00  0.00     0.031 A 
ATOM     63  C   UNL     1      -0.433   8.986  -7.269  1.00  0.00     0.049 A 
ATOM     64  C   UNL     1       4.033   6.973 -10.170  1.00  0.00     0.074 A 
ATOM     65  C   UNL     1      -1.358   8.000  -6.993  1.00  0.00     0.029 A 
ATOM     66  N   UNL     1      -0.077   8.810  -8.583  1.00  0.00    -0.354 N 
ATOM     67  N   UNL     1       2.940   6.322 -10.449  1.00  0.00    -0.248 NA
ATOM     68  C   UNL     1       3.892   8.416 -10.058  1.00  0.00     0.031 C 
ATOM     69  C   UNL     1      -1.190   7.023  -8.015  1.00  0.00     0.029 A 
ATOM     70  C   UNL     1      -0.192   7.475  -8.876  1.00  0.00     0.049 A 
ATOM     71  H   UNL     1       0.209   9.517  -9.205  1.00  0.00     0.167 HD
ATOM     72  C   UNL     1       1.915   7.205 -10.143  1.00  0.00     0.074 A 
ATOM     73  C   UNL     1       2.563   8.502  -9.985  1.00  0.00     0.031 C 
ATOM     74  C   UNL     1       0.676   6.760  -9.788  1.00  0.00     0.031 A 
BRANCH  61  75
ATOM     75  C   UNL     1       0.508  11.363  -6.839  1.00  0.00    -0.014 A 
ATOM     76  C   UNL     1      -0.512  12.108  -7.447  1.00  0.00     0.010 A 
ATOM     77  C   UNL     1       1.785  11.967  -6.746  1.00  0.00     0.010 A 
ATOM     78  C   UNL     1      -0.265  13.415  -7.898  1.00  0.00     0.020 A 
ATOM     79  C   UNL     1       2.024  13.278  -7.130  1.00  0.00     0.020 A 
ATOM     80  C   UNL     1       0.999  13.992  -7.723  1.00  0.00     0.054 A 
BRANCH  80  81
ATOM     81  S   UNL     1       1.325  15.672  -8.305  1.00  0.00     0.124 S 
ATOM     82  O   UNL     1       1.339  15.489  -9.752  1.00  0.00    -0.237 OA
ATOM     83  O   UNL     1       0.189  16.415  -7.766  1.00  0.00    -0.237 OA
ATOM     84  O   UNL     1       2.615  15.998  -7.700  1.00  0.00    -0.744 OA
ENDBRANCH  80  81
ENDBRANCH  61  75
BRANCH  62  85
ATOM     85  C   UNL     1       6.587   6.490 -10.275  1.00  0.00    -0.014 A 
ATOM     86  C   UNL     1       6.711   6.759 -11.655  1.00  0.00     0.010 A 
ATOM     87  C   UNL     1       7.746   6.639  -9.486  1.00  0.00     0.010 A 
ATOM     88  C   UNL     1       7.927   7.220 -12.201  1.00  0.00     0.020 A 
ATOM     89  C   UNL     1       8.959   7.080 -10.022  1.00  0.00     0.020 A 
ATOM     90  C   UNL     1       9.038   7.397 -11.373  1.00  0.00     0.054 A 
BRANCH  90  91
ATOM     91  S   UNL     1      10.547   8.177 -12.021  1.00  0.00     0.124 S 
ATOM     92  O   UNL     1      11.101   7.128 -12.870  1.00  0.00    -0.237 OA
ATOM     93  O   UNL     1      10.026   9.350 -12.717  1.00  0.00    -0.237 OA
ATOM     94  O   UNL     1      11.323   8.473 -10.816  1.00  0.00    -0.744 OA
ENDBRANCH  90  91
ENDBRANCH  62  85
BRANCH  74  95
ATOM     95  C   UNL     1       0.270   5.352 -10.155  1.00  0.00    -0.014 A 
ATOM     96  C   UNL     1       0.934   4.190  -9.719  1.00  0.00     0.010 A 
ATOM     97  C   UNL     1      -0.927   5.206 -10.882  1.00  0.00     0.010 A 
ATOM     98  C   UNL     1       0.418   2.917 -10.017  1.00  0.00     0.020 A 
ATOM     99  C   UNL     1      -1.452   3.944 -11.170  1.00  0.00     0.020 A 
ATOM    100  C   UNL     1      -0.774   2.804 -10.741  1.00  0.00     0.054 A 
BRANCH 100 101
ATOM    101  S   UNL     1      -1.462   1.159 -11.088  1.00  0.00     0.124 S 
ATOM    102  O   UNL     1      -0.490   0.601 -12.024  1.00  0.00    -0.237 OA
ATOM    103  O   UNL     1      -1.493   0.533  -9.768  1.00  0.00    -0.237 OA
ATOM    104  O   UNL     1      -2.776   1.443 -11.662  1.00  0.00    -0.744 OA
ENDBRANCH 100 101
ENDBRANCH  74  95
ENDBRANCH  48  49
ENDBRANCH  41  43
ENDBRANCH  40  41
ENDBRANCH  39  40
ENDBRANCH  38  39
ENDBRANCH  37  38
ENDBRANCH  36  37
ENDBRANCH   1  36
TORSDOF 25
