REMARK SMILES CC1=C(C(=O)OCCOCCOCCOC(=O)c2ccc(-c3c4nc(c(-c5ccc(S(=O)(=O)[O-])cc5)c5ccc([nH]5)c(-c5ccc(S(=O)(=O)[O-])cc5)c5nc(c(-c6ccc(S(=O)(=O)[O-])cc6)c6ccc3[nH]6)C=C5)C=C4)cc2)[C@H](c2ccc(Cl)cc2)n2ncnc2N1
REMARK SMILES IDX 11 1 10 2 9 3 8 4 7 5 6 6 4 7 5 8 3 9 1 10 2 11 91 12 78 13
REMARK SMILES IDX 90 14 86 16 89 17 87 18 88 19 79 20 80 21 85 22 81 23 84 24
REMARK SMILES IDX 82 25 83 26 12 27 13 28 14 29 15 30 16 31 17 32 18 33 19 34
REMARK SMILES IDX 77 35 20 36 76 37 21 38 22 39 23 40 70 41 24 42 75 43 69 44
REMARK SMILES IDX 71 45 25 46 74 47 68 48 67 49 26 51 56 52 37 53 55 54 38 55
REMARK SMILES IDX 41 56 54 57 72 58 39 59 40 60 53 62 73 63 42 64 27 65 28 66
REMARK SMILES IDX 36 67 29 68 35 69 30 70 31 71 32 72 33 73 34 74 57 75 58 76
REMARK SMILES IDX 66 77 59 78 65 79 60 80 61 81 62 82 63 83 64 84 43 85 44 86
REMARK SMILES IDX 52 87 45 88 51 89 46 90 47 91 48 92 49 93 50 94
REMARK H PARENT 91 15 71 50 41 61
REMARK Flexibility Score: inf
ROOT
ATOM      1  C   UNL     1       2.448  -0.097  -3.020  1.00  0.00     0.188 C 
ENDROOT
BRANCH   1   2
ATOM      2  C   UNL     1       1.660   0.496  -4.210  1.00  0.00     0.188 C 
BRANCH   2   3
ATOM      3  O   UNL     1       1.667   1.914  -4.307  1.00  0.00    -0.376 OA
BRANCH   3   4
ATOM      4  C   UNL     1       0.405   2.535  -4.060  1.00  0.00     0.202 C 
BRANCH   4   5
ATOM      5  C   UNL     1      -0.072   2.482  -2.601  1.00  0.00     0.261 C 
BRANCH   5   6
ATOM      6  O   UNL     1       0.051   1.159  -2.053  1.00  0.00    -0.460 OA
BRANCH   6   7
ATOM      7  C   UNL     1      -1.047   0.456  -1.732  1.00  0.00     0.338 C 
ATOM      8  O   UNL     1      -2.206   0.836  -1.832  1.00  0.00    -0.246 OA
BRANCH   7   9
ATOM      9  C   UNL     1      -0.628  -0.896  -1.305  1.00  0.00     0.085 C 
ATOM     10  C   UNL     1       0.505   0.017   0.777  1.00  0.00     0.065 C 
ATOM     11  C   UNL     1       0.095  -1.082  -0.171  1.00  0.00     0.028 C 
ATOM     12  N   UNL     1       0.570  -2.348   0.149  1.00  0.00    -0.328 N 
ATOM     13  C   UNL     1      -0.873  -2.033  -2.293  1.00  0.00     0.181 C 
ATOM     14  C   UNL     1       0.424  -3.419  -0.649  1.00  0.00     0.226 A 
ATOM     15  H   UNL     1       1.039  -2.466   1.007  1.00  0.00     0.169 HD
ATOM     16  N   UNL     1      -0.249  -3.286  -1.833  1.00  0.00    -0.219 N 
ATOM     17  N   UNL     1       0.851  -4.650  -0.524  1.00  0.00    -0.200 NA
ATOM     18  N   UNL     1      -0.208  -4.431  -2.548  1.00  0.00    -0.157 NA
ATOM     19  C   UNL     1       0.457  -5.228  -1.702  1.00  0.00     0.248 A 
BRANCH  13  20
ATOM     20  C   UNL     1      -2.340  -2.230  -2.666  1.00  0.00    -0.018 A 
ATOM     21  C   UNL     1      -3.187  -3.107  -1.970  1.00  0.00     0.008 A 
ATOM     22  C   UNL     1      -2.879  -1.479  -3.729  1.00  0.00     0.008 A 
ATOM     23  C   UNL     1      -4.532  -3.231  -2.329  1.00  0.00     0.021 A 
ATOM     24  C   UNL     1      -4.228  -1.582  -4.068  1.00  0.00     0.021 A 
ATOM     25  C   UNL     1      -5.049  -2.459  -3.366  1.00  0.00     0.041 A 
ATOM     26  Cl  UNL     1      -6.715  -2.583  -3.777  1.00  0.00    -0.084 Cl
ENDBRANCH  13  20
ENDBRANCH   7   9
ENDBRANCH   6   7
ENDBRANCH   5   6
ENDBRANCH   4   5
ENDBRANCH   3   4
ENDBRANCH   2   3
ENDBRANCH   1   2
BRANCH   1  27
ATOM     27  O   UNL     1       2.925   0.713  -1.950  1.00  0.00    -0.376 OA
BRANCH  27  28
ATOM     28  C   UNL     1       3.545   1.967  -2.202  1.00  0.00     0.202 C 
BRANCH  28  29
ATOM     29  C   UNL     1       4.801   2.035  -3.065  1.00  0.00     0.261 C 
BRANCH  29  30
ATOM     30  O   UNL     1       4.673   1.342  -4.295  1.00  0.00    -0.460 OA
BRANCH  30  31
ATOM     31  C   UNL     1       5.203   0.103  -4.283  1.00  0.00     0.338 C 
ATOM     32  O   UNL     1       5.674  -0.488  -3.318  1.00  0.00    -0.246 OA
BRANCH  31  33
ATOM     33  C   UNL     1       5.149  -0.462  -5.634  1.00  0.00     0.060 A 
ATOM     34  C   UNL     1       5.539  -1.798  -5.777  1.00  0.00     0.016 A 
ATOM     35  C   UNL     1       4.965   0.380  -6.739  1.00  0.00     0.016 A 
ATOM     36  C   UNL     1       5.989  -2.221  -7.007  1.00  0.00     0.010 A 
ATOM     37  C   UNL     1       5.430  -0.038  -7.964  1.00  0.00     0.010 A 
ATOM     38  C   UNL     1       6.031  -1.295  -8.050  1.00  0.00    -0.014 A 
BRANCH  38  39
ATOM     39  C   UNL     1       6.883  -1.596  -9.181  1.00  0.00     0.031 A 
ATOM     40  C   UNL     1       6.268  -2.331 -10.297  1.00  0.00     0.074 A 
ATOM     41  C   UNL     1       8.131  -1.093  -9.243  1.00  0.00     0.049 A 
ATOM     42  N   UNL     1       6.595  -3.493 -10.753  1.00  0.00    -0.248 NA
ATOM     43  C   UNL     1       5.088  -1.731 -10.934  1.00  0.00     0.031 C 
ATOM     44  C   UNL     1       8.730  -0.095  -8.349  1.00  0.00     0.029 A 
ATOM     45  N   UNL     1       9.079  -1.264 -10.204  1.00  0.00    -0.354 N 
ATOM     46  C   UNL     1       5.783  -3.696 -11.860  1.00  0.00     0.074 A 
ATOM     47  C   UNL     1       4.774  -2.666 -11.828  1.00  0.00     0.031 C 
ATOM     48  C   UNL     1       9.833   0.415  -8.938  1.00  0.00     0.029 A 
ATOM     49  C   UNL     1      10.070  -0.293 -10.187  1.00  0.00     0.049 A 
ATOM     50  H   UNL     1       9.063  -2.006 -10.850  1.00  0.00     0.167 HD
ATOM     51  C   UNL     1       6.122  -4.546 -12.865  1.00  0.00     0.031 A 
ATOM     52  C   UNL     1      10.961  -0.029 -11.173  1.00  0.00     0.031 A 
ATOM     53  C   UNL     1       7.193  -5.435 -12.507  1.00  0.00     0.049 A 
ATOM     54  C   UNL     1      11.011  -1.210 -12.069  1.00  0.00     0.074 A 
ATOM     55  C   UNL     1       7.375  -6.390 -11.527  1.00  0.00     0.029 A 
ATOM     56  N   UNL     1       8.444  -5.155 -13.006  1.00  0.00    -0.354 N 
ATOM     57  N   UNL     1      11.525  -2.357 -11.729  1.00  0.00    -0.248 NA
ATOM     58  C   UNL     1      10.136  -1.249 -13.233  1.00  0.00     0.031 C 
ATOM     59  C   UNL     1       8.757  -6.323 -11.187  1.00  0.00     0.029 A 
ATOM     60  C   UNL     1       9.348  -5.346 -11.990  1.00  0.00     0.049 A 
ATOM     61  H   UNL     1       8.653  -4.869 -13.924  1.00  0.00     0.167 HD
ATOM     62  C   UNL     1      10.727  -3.308 -12.348  1.00  0.00     0.074 A 
ATOM     63  C   UNL     1       9.983  -2.570 -13.362  1.00  0.00     0.031 C 
ATOM     64  C   UNL     1      10.537  -4.541 -11.789  1.00  0.00     0.031 A 
BRANCH  51  65
ATOM     65  C   UNL     1       5.705  -4.310 -14.289  1.00  0.00    -0.014 A 
ATOM     66  C   UNL     1       5.837  -5.342 -15.233  1.00  0.00     0.010 A 
ATOM     67  C   UNL     1       5.415  -3.016 -14.775  1.00  0.00     0.010 A 
ATOM     68  C   UNL     1       5.714  -5.081 -16.605  1.00  0.00     0.020 A 
ATOM     69  C   UNL     1       5.240  -2.756 -16.132  1.00  0.00     0.020 A 
ATOM     70  C   UNL     1       5.427  -3.785 -17.043  1.00  0.00     0.054 A 
BRANCH  70  71
ATOM     71  S   UNL     1       5.372  -3.431 -18.816  1.00  0.00     0.124 S 
ATOM     72  O   UNL     1       6.786  -3.496 -19.174  1.00  0.00    -0.237 OA
ATOM     73  O   UNL     1       4.536  -4.513 -19.327  1.00  0.00    -0.237 OA
ATOM     74  O   UNL     1       4.769  -2.102 -18.878  1.00  0.00    -0.744 OA
ENDBRANCH  70  71
ENDBRANCH  51  65
BRANCH  52  75
ATOM     75  C   UNL     1      11.578   1.274 -11.518  1.00  0.00    -0.014 A 
ATOM     76  C   UNL     1      12.659   1.345 -12.414  1.00  0.00     0.010 A 
ATOM     77  C   UNL     1      10.949   2.484 -11.155  1.00  0.00     0.010 A 
ATOM     78  C   UNL     1      13.056   2.572 -12.971  1.00  0.00     0.020 A 
ATOM     79  C   UNL     1      11.351   3.712 -11.689  1.00  0.00     0.020 A 
ATOM     80  C   UNL     1      12.386   3.746 -12.617  1.00  0.00     0.054 A 
BRANCH  80  81
ATOM     81  S   UNL     1      12.784   5.297 -13.473  1.00  0.00     0.124 S 
ATOM     82  O   UNL     1      14.102   5.620 -12.936  1.00  0.00    -0.237 OA
ATOM     83  O   UNL     1      12.750   4.901 -14.878  1.00  0.00    -0.237 OA
ATOM     84  O   UNL     1      11.709   6.200 -13.064  1.00  0.00    -0.744 OA
ENDBRANCH  80  81
ENDBRANCH  52  75
BRANCH  64  85
ATOM     85  C   UNL     1      11.463  -4.962 -10.668  1.00  0.00    -0.014 A 
ATOM     86  C   UNL     1      11.602  -4.232  -9.470  1.00  0.00     0.010 A 
ATOM     87  C   UNL     1      12.122  -6.200 -10.773  1.00  0.00     0.010 A 
ATOM     88  C   UNL     1      12.411  -4.703  -8.428  1.00  0.00     0.020 A 
ATOM     89  C   UNL     1      12.913  -6.687  -9.727  1.00  0.00     0.020 A 
ATOM     90  C   UNL     1      13.066  -5.928  -8.565  1.00  0.00     0.054 A 
BRANCH  90  91
ATOM     91  S   UNL     1      14.074  -6.552  -7.191  1.00  0.00     0.124 S 
ATOM     92  O   UNL     1      15.251  -5.689  -7.245  1.00  0.00    -0.237 OA
ATOM     93  O   UNL     1      13.204  -6.357  -6.032  1.00  0.00    -0.237 OA
ATOM     94  O   UNL     1      14.315  -7.950  -7.543  1.00  0.00    -0.744 OA
ENDBRANCH  90  91
ENDBRANCH  64  85
ENDBRANCH  38  39
ENDBRANCH  31  33
ENDBRANCH  30  31
ENDBRANCH  29  30
ENDBRANCH  28  29
ENDBRANCH  27  28
ENDBRANCH   1  27
TORSDOF 21
