REMARK SMILES Cc1c(Cl)cccc1NC(=O)C[C@](C)(C(=O)OCCOCCOCCOCCOC(=O)c1ccc(-c2c3nc(c(-c4ccc(S(=O)(=O)[O-])cc4)c4ccc([nH]4)c(-c4ccc(S(=O)(=O)[O-])cc4)c4nc(c(-c5ccc(S(=O)(=O)[O-])cc5)c5ccc2[nH]5)C=C4)C=C3)cc1)c1ccccc1
REMARK SMILES IDX 23 1 22 2 21 3 20 4 19 5 18 6 17 7 15 8 16 9 13 10 14 11
REMARK SMILES IDX 12 12 10 13 9 14 11 16 8 17 1 18 2 19 3 20 4 21 5 22 7 23
REMARK SMILES IDX 6 24 92 25 93 26 97 27 94 28 96 29 95 30 24 31 25 32 26 33
REMARK SMILES IDX 27 34 28 35 29 36 30 37 31 38 32 39 33 40 91 41 34 42 90 43
REMARK SMILES IDX 35 44 36 45 37 46 84 47 38 48 89 49 83 50 85 51 39 52 88 53
REMARK SMILES IDX 82 54 81 55 40 57 70 58 51 59 69 60 52 61 55 62 68 63 86 64
REMARK SMILES IDX 53 65 54 66 67 68 87 69 56 70 41 71 42 72 50 73 43 74 49 75
REMARK SMILES IDX 44 76 45 77 46 78 47 79 48 80 71 81 72 82 80 83 73 84 79 85
REMARK SMILES IDX 74 86 75 87 76 88 77 89 78 90 57 91 58 92 66 93 59 94 65 95
REMARK SMILES IDX 60 96 61 97 62 98 63 99 64 100
REMARK H PARENT 9 15 85 56 55 67
REMARK Flexibility Score: inf
ROOT
ATOM      1  O   UNL     1      -7.162  -0.642   0.457  1.00  0.00    -0.377 OA
ENDROOT
BRANCH   1   2
ATOM      2  C   UNL     1      -7.478   0.130  -0.687  1.00  0.00     0.188 C 
BRANCH   2   3
ATOM      3  C   UNL     1      -7.713  -0.617  -2.005  1.00  0.00     0.188 C 
BRANCH   3   4
ATOM      4  O   UNL     1      -8.214  -1.926  -1.851  1.00  0.00    -0.376 OA
BRANCH   4   5
ATOM      5  C   UNL     1      -7.316  -3.021  -1.797  1.00  0.00     0.202 C 
BRANCH   5   6
ATOM      6  C   UNL     1      -5.880  -2.936  -1.254  1.00  0.00     0.261 C 
BRANCH   6   7
ATOM      7  O   UNL     1      -5.284  -1.640  -1.133  1.00  0.00    -0.463 OA
BRANCH   7   8
ATOM      8  C   UNL     1      -4.354  -1.283  -2.040  1.00  0.00     0.316 C 
ATOM      9  O   UNL     1      -4.063  -1.982  -3.007  1.00  0.00    -0.251 OA
BRANCH   8  10
ATOM     10  C   UNL     1      -3.695   0.096  -1.749  1.00  0.00     0.099 C 
ATOM     11  C   UNL     1      -4.198   0.844  -0.474  1.00  0.00     0.029 C 
BRANCH  10  12
ATOM     12  C   UNL     1      -2.173  -0.187  -1.524  1.00  0.00     0.123 C 
BRANCH  12  13
ATOM     13  C   UNL     1      -1.695  -1.637  -1.390  1.00  0.00     0.225 C 
ATOM     14  N   UNL     1      -2.107  -2.534  -0.448  1.00  0.00    -0.326 N 
ATOM     15  H   UNL     1      -1.780  -3.443  -0.637  1.00  0.00     0.169 HD
ATOM     16  O   UNL     1      -0.877  -2.058  -2.220  1.00  0.00    -0.275 OA
BRANCH  14  17
ATOM     17  C   UNL     1      -2.884  -2.484   0.729  1.00  0.00     0.045 A 
ATOM     18  C   UNL     1      -3.448  -4.995   0.501  1.00  0.00     0.048 C 
ATOM     19  C   UNL     1      -3.569  -3.647   1.175  1.00  0.00    -0.009 A 
ATOM     20  C   UNL     1      -4.443  -3.537   2.285  1.00  0.00     0.046 A 
ATOM     21  Cl  UNL     1      -5.414  -4.869   2.819  1.00  0.00    -0.084 Cl
ATOM     22  C   UNL     1      -4.603  -2.332   2.964  1.00  0.00     0.021 A 
ATOM     23  C   UNL     1      -2.989  -1.314   1.482  1.00  0.00     0.026 A 
ATOM     24  C   UNL     1      -3.855  -1.228   2.579  1.00  0.00     0.004 A 
ENDBRANCH  14  17
ENDBRANCH  12  13
ENDBRANCH  10  12
BRANCH  10  25
ATOM     25  C   UNL     1      -3.995   1.095  -2.926  1.00  0.00    -0.030 A 
ATOM     26  C   UNL     1      -3.578   2.441  -2.858  1.00  0.00     0.005 A 
ATOM     27  C   UNL     1      -4.828   0.749  -4.011  1.00  0.00     0.005 A 
ATOM     28  C   UNL     1      -4.026   3.390  -3.789  1.00  0.00     0.000 A 
ATOM     29  C   UNL     1      -5.271   1.695  -4.941  1.00  0.00     0.000 A 
ATOM     30  C   UNL     1      -4.881   3.020  -4.823  1.00  0.00     0.000 A 
ENDBRANCH  10  25
ENDBRANCH   8  10
ENDBRANCH   7   8
ENDBRANCH   6   7
ENDBRANCH   5   6
ENDBRANCH   4   5
ENDBRANCH   3   4
ENDBRANCH   2   3
ENDBRANCH   1   2
BRANCH   1  31
ATOM     31  C   UNL     1      -8.174  -1.428   1.079  1.00  0.00     0.188 C 
BRANCH  31  32
ATOM     32  C   UNL     1      -9.632  -1.440   0.566  1.00  0.00     0.188 C 
BRANCH  32  33
ATOM     33  O   UNL     1     -10.031  -0.302  -0.181  1.00  0.00    -0.376 OA
BRANCH  33  34
ATOM     34  C   UNL     1     -10.733   0.737   0.481  1.00  0.00     0.202 C 
BRANCH  34  35
ATOM     35  C   UNL     1     -10.022   1.471   1.632  1.00  0.00     0.261 C 
BRANCH  35  36
ATOM     36  O   UNL     1      -9.588   0.655   2.730  1.00  0.00    -0.460 OA
BRANCH  36  37
ATOM     37  C   UNL     1     -10.543  -0.034   3.383  1.00  0.00     0.338 C 
ATOM     38  O   UNL     1     -11.747  -0.016   3.161  1.00  0.00    -0.246 OA
BRANCH  37  39
ATOM     39  C   UNL     1      -9.893  -0.965   4.318  1.00  0.00     0.060 A 
ATOM     40  C   UNL     1     -10.095  -2.341   4.150  1.00  0.00     0.016 A 
ATOM     41  C   UNL     1      -9.137  -0.480   5.388  1.00  0.00     0.016 A 
ATOM     42  C   UNL     1      -9.604  -3.234   5.098  1.00  0.00     0.010 A 
ATOM     43  C   UNL     1      -8.662  -1.376   6.348  1.00  0.00     0.010 A 
ATOM     44  C   UNL     1      -8.945  -2.749   6.234  1.00  0.00    -0.014 A 
BRANCH  44  45
ATOM     45  C   UNL     1      -8.776  -3.650   7.399  1.00  0.00     0.031 A 
ATOM     46  C   UNL     1      -9.784  -3.567   8.515  1.00  0.00     0.074 A 
ATOM     47  C   UNL     1      -7.796  -4.569   7.437  1.00  0.00     0.049 A 
ATOM     48  N   UNL     1      -9.858  -4.264   9.618  1.00  0.00    -0.248 NA
ATOM     49  C   UNL     1     -10.853  -2.565   8.364  1.00  0.00     0.031 C 
ATOM     50  C   UNL     1      -6.801  -4.781   6.389  1.00  0.00     0.029 A 
ATOM     51  N   UNL     1      -7.487  -5.503   8.392  1.00  0.00    -0.354 N 
ATOM     52  C   UNL     1     -10.973  -3.782  10.294  1.00  0.00     0.074 A 
ATOM     53  C   UNL     1     -11.522  -2.708   9.497  1.00  0.00     0.031 C 
ATOM     54  C   UNL     1      -5.993  -5.792   6.754  1.00  0.00     0.029 A 
ATOM     55  C   UNL     1      -6.392  -6.272   8.075  1.00  0.00     0.049 A 
ATOM     56  H   UNL     1      -8.001  -5.614   9.224  1.00  0.00     0.167 HD
ATOM     57  C   UNL     1     -11.499  -4.201  11.469  1.00  0.00     0.031 A 
ATOM     58  C   UNL     1      -5.777  -7.243   8.780  1.00  0.00     0.031 A 
ATOM     59  C   UNL     1     -10.938  -5.259  12.266  1.00  0.00     0.049 A 
ATOM     60  C   UNL     1      -6.331  -7.636  10.126  1.00  0.00     0.074 A 
ATOM     61  C   UNL     1     -11.393  -5.761  13.472  1.00  0.00     0.029 A 
ATOM     62  N   UNL     1      -9.795  -5.974  11.940  1.00  0.00    -0.354 N 
ATOM     63  N   UNL     1      -7.391  -7.178  10.748  1.00  0.00    -0.248 NA
ATOM     64  C   UNL     1      -5.610  -8.686  10.859  1.00  0.00     0.031 C 
ATOM     65  C   UNL     1     -10.489  -6.734  13.908  1.00  0.00     0.029 A 
ATOM     66  C   UNL     1      -9.513  -6.895  12.935  1.00  0.00     0.049 A 
ATOM     67  H   UNL     1      -9.262  -5.846  11.122  1.00  0.00     0.167 HD
ATOM     68  C   UNL     1      -7.486  -7.910  11.928  1.00  0.00     0.074 A 
ATOM     69  C   UNL     1      -6.380  -8.846  11.926  1.00  0.00     0.031 C 
ATOM     70  C   UNL     1      -8.409  -7.822  12.919  1.00  0.00     0.031 A 
BRANCH  57  71
ATOM     71  C   UNL     1     -12.719  -3.479  11.980  1.00  0.00    -0.014 A 
ATOM     72  C   UNL     1     -13.965  -3.596  11.336  1.00  0.00     0.010 A 
ATOM     73  C   UNL     1     -12.621  -2.687  13.138  1.00  0.00     0.010 A 
ATOM     74  C   UNL     1     -15.077  -2.898  11.815  1.00  0.00     0.020 A 
ATOM     75  C   UNL     1     -13.739  -2.014  13.640  1.00  0.00     0.020 A 
ATOM     76  C   UNL     1     -14.956  -2.109  12.963  1.00  0.00     0.054 A 
BRANCH  76  77
ATOM     77  S   UNL     1     -16.419  -1.226  13.571  1.00  0.00     0.124 S 
ATOM     78  O   UNL     1     -16.590  -0.191  12.554  1.00  0.00    -0.237 OA
ATOM     79  O   UNL     1     -17.440  -2.271  13.581  1.00  0.00    -0.237 OA
ATOM     80  O   UNL     1     -16.012  -0.743  14.888  1.00  0.00    -0.744 OA
ENDBRANCH  76  77
ENDBRANCH  57  71
BRANCH  58  81
ATOM     81  C   UNL     1      -4.563  -7.907   8.228  1.00  0.00    -0.014 A 
ATOM     82  C   UNL     1      -4.590  -9.261   7.851  1.00  0.00     0.010 A 
ATOM     83  C   UNL     1      -3.367  -7.181   8.077  1.00  0.00     0.010 A 
ATOM     84  C   UNL     1      -3.441  -9.879   7.347  1.00  0.00     0.020 A 
ATOM     85  C   UNL     1      -2.225  -7.786   7.545  1.00  0.00     0.020 A 
ATOM     86  C   UNL     1      -2.267  -9.136   7.192  1.00  0.00     0.054 A 
BRANCH  86  87
ATOM     87  S   UNL     1      -0.805  -9.946   6.486  1.00  0.00     0.124 S 
ATOM     88  O   UNL     1      -0.402 -10.842   7.564  1.00  0.00    -0.237 OA
ATOM     89  O   UNL     1      -1.350 -10.592   5.294  1.00  0.00    -0.237 OA
ATOM     90  O   UNL     1       0.106  -8.835   6.220  1.00  0.00    -0.744 OA
ENDBRANCH  86  87
ENDBRANCH  58  81
BRANCH  70  91
ATOM     91  C   UNL     1      -8.299  -8.796  14.065  1.00  0.00    -0.014 A 
ATOM     92  C   UNL     1      -7.262  -8.711  15.011  1.00  0.00     0.010 A 
ATOM     93  C   UNL     1      -9.291  -9.782  14.225  1.00  0.00     0.010 A 
ATOM     94  C   UNL     1      -7.199  -9.618  16.073  1.00  0.00     0.020 A 
ATOM     95  C   UNL     1      -9.250 -10.668  15.304  1.00  0.00     0.020 A 
ATOM     96  C   UNL     1      -8.194 -10.591  16.213  1.00  0.00     0.054 A 
BRANCH  96  97
ATOM     97  S   UNL     1      -8.109 -11.730  17.621  1.00  0.00     0.124 S 
ATOM     98  O   UNL     1      -6.984 -12.586  17.253  1.00  0.00    -0.237 OA
ATOM     99  O   UNL     1      -7.872 -10.830  18.747  1.00  0.00    -0.237 OA
ATOM    100  O   UNL     1      -9.416 -12.384  17.619  1.00  0.00    -0.744 OA
ENDBRANCH  96  97
ENDBRANCH  70  91
ENDBRANCH  44  45
ENDBRANCH  37  39
ENDBRANCH  36  37
ENDBRANCH  35  36
ENDBRANCH  34  35
ENDBRANCH  33  34
ENDBRANCH  32  33
ENDBRANCH  31  32
ENDBRANCH   1  31
TORSDOF 27
