REMARK SMILES O=C(Cc1cccn1-c1ccccc1F)OCCOCCOCCOCCOC(=O)c1ccc(-c2c3nc(c(-c4ccc(S(=O)(=O)[O-])cc4)c4ccc([nH]4)c(-c4ccc(S(=O)(=O)[O-])cc4)c4nc(c(-c5ccc(S(=O)(=O)[O-])cc5)c5ccc2[nH]5)C=C4)C=C3)cc1
REMARK SMILES IDX 23 1 22 2 21 3 20 4 19 5 18 6 17 7 16 8 2 9 1 10 3 11 4 12
REMARK SMILES IDX 5 13 8 14 6 15 7 16 9 17 10 18 14 19 11 20 13 21 15 22 12 23
REMARK SMILES IDX 24 24 25 25 26 26 27 27 28 28 29 29 30 30 31 31 32 32 90 33
REMARK SMILES IDX 33 34 89 35 34 36 35 37 36 38 83 39 37 40 88 41 82 42 84 43
REMARK SMILES IDX 38 44 87 45 81 46 80 47 39 49 69 50 50 51 68 52 51 53 54 54
REMARK SMILES IDX 67 55 85 56 52 57 53 58 66 60 86 61 55 62 40 63 41 64 49 65
REMARK SMILES IDX 42 66 48 67 43 68 44 69 45 70 46 71 47 72 70 73 71 74 79 75
REMARK SMILES IDX 72 76 78 77 73 78 74 79 75 80 76 81 77 82 56 83 57 84 65 85
REMARK SMILES IDX 58 86 64 87 59 88 60 89 61 90 62 91 63 92
REMARK H PARENT 84 48 54 59
REMARK Flexibility Score: inf
ROOT
ATOM      1  C   UNL     1       4.149   3.932   0.017  1.00  0.00     0.188 C 
ENDROOT
BRANCH   1   2
ATOM      2  O   UNL     1       2.817   3.934   0.502  1.00  0.00    -0.377 OA
BRANCH   2   3
ATOM      3  C   UNL     1       2.046   2.814   0.099  1.00  0.00     0.188 C 
BRANCH   3   4
ATOM      4  C   UNL     1       2.509   1.466   0.660  1.00  0.00     0.188 C 
BRANCH   4   5
ATOM      5  O   UNL     1       3.913   1.326   0.753  1.00  0.00    -0.376 OA
BRANCH   5   6
ATOM      6  C   UNL     1       4.700   0.441  -0.016  1.00  0.00     0.202 C 
BRANCH   6   7
ATOM      7  C   UNL     1       4.164  -0.215  -1.282  1.00  0.00     0.261 C 
BRANCH   7   8
ATOM      8  O   UNL     1       2.927  -0.958  -1.264  1.00  0.00    -0.463 OA
BRANCH   8   9
ATOM      9  C   UNL     1       2.269  -1.508  -0.226  1.00  0.00     0.311 C 
ATOM     10  O   UNL     1       1.040  -1.579  -0.271  1.00  0.00    -0.252 OA
BRANCH   9  11
ATOM     11  C   UNL     1       3.023  -1.962   0.995  1.00  0.00     0.177 C 
BRANCH  11  12
ATOM     12  C   UNL     1       3.884  -3.153   0.719  1.00  0.00     0.034 A 
ATOM     13  C   UNL     1       5.229  -3.227   0.397  1.00  0.00     0.024 A 
ATOM     14  N   UNL     1       3.418  -4.451   0.880  1.00  0.00    -0.318 N 
ATOM     15  C   UNL     1       5.592  -4.591   0.373  1.00  0.00     0.020 A 
ATOM     16  C   UNL     1       4.473  -5.317   0.710  1.00  0.00     0.091 A 
BRANCH  14  17
ATOM     17  C   UNL     1       2.164  -4.789   1.424  1.00  0.00     0.081 A 
ATOM     18  C   UNL     1       2.098  -5.139   2.775  1.00  0.00     0.030 A 
ATOM     19  C   UNL     1       1.005  -4.506   0.705  1.00  0.00     0.147 A 
ATOM     20  C   UNL     1       0.856  -5.147   3.411  1.00  0.00     0.002 A 
ATOM     21  C   UNL     1      -0.229  -4.501   1.343  1.00  0.00     0.041 A 
ATOM     22  F   UNL     1       1.069  -4.220  -0.603  1.00  0.00    -0.205 F 
ATOM     23  C   UNL     1      -0.302  -4.808   2.703  1.00  0.00     0.003 A 
ENDBRANCH  14  17
ENDBRANCH  11  12
ENDBRANCH   9  11
ENDBRANCH   8   9
ENDBRANCH   7   8
ENDBRANCH   6   7
ENDBRANCH   5   6
ENDBRANCH   4   5
ENDBRANCH   3   4
ENDBRANCH   2   3
ENDBRANCH   1   2
BRANCH   1  24
ATOM     24  C   UNL     1       5.244   3.899   1.105  1.00  0.00     0.188 C 
BRANCH  24  25
ATOM     25  O   UNL     1       5.032   3.536   2.467  1.00  0.00    -0.376 OA
BRANCH  25  26
ATOM     26  C   UNL     1       3.771   3.625   3.109  1.00  0.00     0.202 C 
BRANCH  26  27
ATOM     27  C   UNL     1       3.083   4.970   3.356  1.00  0.00     0.261 C 
BRANCH  27  28
ATOM     28  O   UNL     1       3.193   5.901   2.298  1.00  0.00    -0.460 OA
BRANCH  28  29
ATOM     29  C   UNL     1       4.360   6.554   2.312  1.00  0.00     0.338 C 
ATOM     30  O   UNL     1       5.306   6.400   3.090  1.00  0.00    -0.246 OA
BRANCH  29  31
ATOM     31  C   UNL     1       4.381   7.538   1.246  1.00  0.00     0.060 A 
ATOM     32  C   UNL     1       5.623   7.831   0.673  1.00  0.00     0.016 A 
ATOM     33  C   UNL     1       3.249   8.336   1.053  1.00  0.00     0.016 A 
ATOM     34  C   UNL     1       5.779   9.038   0.037  1.00  0.00     0.010 A 
ATOM     35  C   UNL     1       3.420   9.569   0.469  1.00  0.00     0.010 A 
ATOM     36  C   UNL     1       4.699   9.929   0.028  1.00  0.00    -0.014 A 
BRANCH  36  37
ATOM     37  C   UNL     1       4.953  11.296  -0.426  1.00  0.00     0.031 A 
ATOM     38  C   UNL     1       4.673  11.463  -1.904  1.00  0.00     0.074 A 
ATOM     39  C   UNL     1       5.468  12.133   0.524  1.00  0.00     0.049 A 
ATOM     40  N   UNL     1       5.214  12.288  -2.739  1.00  0.00    -0.248 NA
ATOM     41  C   UNL     1       3.737  10.526  -2.585  1.00  0.00     0.031 C 
ATOM     42  C   UNL     1       5.691  11.758   1.943  1.00  0.00     0.029 A 
ATOM     43  N   UNL     1       5.921  13.433   0.513  1.00  0.00    -0.354 N 
ATOM     44  C   UNL     1       4.592  12.089  -3.982  1.00  0.00     0.074 A 
ATOM     45  C   UNL     1       3.766  10.928  -3.856  1.00  0.00     0.031 C 
ATOM     46  C   UNL     1       6.293  12.759   2.618  1.00  0.00     0.029 A 
ATOM     47  C   UNL     1       6.493  13.884   1.728  1.00  0.00     0.049 A 
ATOM     48  H   UNL     1       5.852  14.008  -0.283  1.00  0.00     0.167 HD
ATOM     49  C   UNL     1       4.707  12.968  -5.013  1.00  0.00     0.031 A 
ATOM     50  C   UNL     1       7.124  15.066   1.993  1.00  0.00     0.031 A 
ATOM     51  C   UNL     1       5.571  14.045  -4.663  1.00  0.00     0.049 A 
ATOM     52  C   UNL     1       7.001  15.883   0.772  1.00  0.00     0.074 A 
ATOM     53  C   UNL     1       6.931  14.136  -4.518  1.00  0.00     0.029 A 
ATOM     54  N   UNL     1       4.981  15.130  -4.058  1.00  0.00    -0.354 N 
ATOM     55  N   UNL     1       5.907  16.433   0.342  1.00  0.00    -0.248 NA
ATOM     56  C   UNL     1       8.179  16.044  -0.092  1.00  0.00     0.031 C 
ATOM     57  C   UNL     1       7.101  15.054  -3.458  1.00  0.00     0.029 A 
ATOM     58  C   UNL     1       5.856  15.579  -3.096  1.00  0.00     0.049 A 
ATOM     59  H   UNL     1       4.100  15.513  -4.273  1.00  0.00     0.167 HD
ATOM     60  C   UNL     1       6.182  16.655  -0.985  1.00  0.00     0.074 A 
ATOM     61  C   UNL     1       7.623  16.708  -1.101  1.00  0.00     0.031 C 
ATOM     62  C   UNL     1       5.302  16.239  -1.933  1.00  0.00     0.031 A 
BRANCH  49  63
ATOM     63  C   UNL     1       3.919  13.076  -6.280  1.00  0.00    -0.014 A 
ATOM     64  C   UNL     1       4.484  13.848  -7.322  1.00  0.00     0.010 A 
ATOM     65  C   UNL     1       2.560  12.739  -6.371  1.00  0.00     0.010 A 
ATOM     66  C   UNL     1       3.697  14.378  -8.343  1.00  0.00     0.020 A 
ATOM     67  C   UNL     1       1.770  13.238  -7.417  1.00  0.00     0.020 A 
ATOM     68  C   UNL     1       2.334  14.099  -8.361  1.00  0.00     0.054 A 
BRANCH  68  69
ATOM     69  S   UNL     1       1.302  14.952  -9.580  1.00  0.00     0.124 S 
ATOM     70  O   UNL     1       1.250  16.308  -9.040  1.00  0.00    -0.237 OA
ATOM     71  O   UNL     1       2.072  14.798 -10.813  1.00  0.00    -0.237 OA
ATOM     72  O   UNL     1       0.045  14.209  -9.544  1.00  0.00    -0.744 OA
ENDBRANCH  68  69
ENDBRANCH  49  63
BRANCH  50  73
ATOM     73  C   UNL     1       7.970  15.639   3.104  1.00  0.00    -0.014 A 
ATOM     74  C   UNL     1       8.238  15.035   4.339  1.00  0.00     0.010 A 
ATOM     75  C   UNL     1       8.659  16.859   2.855  1.00  0.00     0.010 A 
ATOM     76  C   UNL     1       9.238  15.543   5.202  1.00  0.00     0.020 A 
ATOM     77  C   UNL     1       9.679  17.346   3.673  1.00  0.00     0.020 A 
ATOM     78  C   UNL     1       9.984  16.668   4.839  1.00  0.00     0.054 A 
BRANCH  78  79
ATOM     79  S   UNL     1      11.435  17.188   5.796  1.00  0.00     0.124 S 
ATOM     80  O   UNL     1      10.864  18.154   6.729  1.00  0.00    -0.237 OA
ATOM     81  O   UNL     1      11.905  15.938   6.388  1.00  0.00    -0.237 OA
ATOM     82  O   UNL     1      12.321  17.750   4.777  1.00  0.00    -0.744 OA
ENDBRANCH  78  79
ENDBRANCH  50  73
BRANCH  62  83
ATOM     83  C   UNL     1       3.862  16.108  -1.456  1.00  0.00    -0.014 A 
ATOM     84  C   UNL     1       3.163  17.246  -1.015  1.00  0.00     0.010 A 
ATOM     85  C   UNL     1       3.212  14.864  -1.336  1.00  0.00     0.010 A 
ATOM     86  C   UNL     1       1.874  17.146  -0.468  1.00  0.00     0.020 A 
ATOM     87  C   UNL     1       1.921  14.751  -0.791  1.00  0.00     0.020 A 
ATOM     88  C   UNL     1       1.259  15.897  -0.357  1.00  0.00     0.054 A 
BRANCH  88  89
ATOM     89  S   UNL     1      -0.400  15.798   0.381  1.00  0.00     0.124 S 
ATOM     90  O   UNL     1      -0.208  16.409   1.694  1.00  0.00    -0.237 OA
ATOM     91  O   UNL     1      -1.207  16.575  -0.556  1.00  0.00    -0.237 OA
ATOM     92  O   UNL     1      -0.689  14.365   0.406  1.00  0.00    -0.744 OA
ENDBRANCH  88  89
ENDBRANCH  62  83
ENDBRANCH  36  37
ENDBRANCH  29  31
ENDBRANCH  28  29
ENDBRANCH  27  28
ENDBRANCH  26  27
ENDBRANCH  25  26
ENDBRANCH  24  25
ENDBRANCH   1  24
TORSDOF 25
