REMARK SMILES C[C@@H](Oc1ccc(-c2ccccc2)cc1)C(=O)N1CCC[C@H](C(=O)OCCOCCOCCOCCOC(=O)c2ccc(-c3c4nc(c(-c5ccc(S(=O)(=O)[O-])cc5)c5ccc([nH]5)c(-c5ccc(S(=O)(=O)[O-])cc5)c5nc(c(-c6ccc(S(=O)(=O)[O-])cc6)c6ccc3[nH]6)C=C5)C=C4)cc2)C1
REMARK SMILES IDX 30 1 29 2 28 3 27 4 26 5 25 6 23 7 24 8 22 9 18 10 19 11
REMARK SMILES IDX 100 12 20 13 21 14 16 15 17 16 2 17 1 18 3 19 4 20 5 21
REMARK SMILES IDX 15 22 6 23 14 24 7 25 8 26 9 27 13 28 10 29 12 30 11 31
REMARK SMILES IDX 31 32 32 33 33 34 34 35 35 36 36 37 37 38 38 39 39 40 40 41
REMARK SMILES IDX 41 42 99 43 42 44 98 45 43 46 44 47 45 48 92 49 46 50 97 51
REMARK SMILES IDX 91 52 93 53 47 54 96 55 90 56 89 57 48 59 78 60 59 61 77 62
REMARK SMILES IDX 60 63 63 64 76 65 94 66 61 67 62 68 75 70 95 71 64 72 49 73
REMARK SMILES IDX 50 74 58 75 51 76 57 77 52 78 53 79 54 80 55 81 56 82 79 83
REMARK SMILES IDX 80 84 88 85 81 86 87 87 82 88 83 89 84 90 85 91 86 92 65 93
REMARK SMILES IDX 66 94 74 95 67 96 73 97 68 98 69 99 70 100 71 101 72 102
REMARK H PARENT 93 58 63 69
REMARK Flexibility Score: inf
ROOT
ATOM      1  C   UNL     1      -5.378  -1.948   1.440  1.00  0.00     0.188 C 
ENDROOT
BRANCH   1   2
ATOM      2  C   UNL     1      -4.548  -1.996   2.730  1.00  0.00     0.188 C 
BRANCH   2   3
ATOM      3  O   UNL     1      -4.587  -0.829   3.512  1.00  0.00    -0.376 OA
BRANCH   3   4
ATOM      4  C   UNL     1      -3.579   0.156   3.388  1.00  0.00     0.202 C 
BRANCH   4   5
ATOM      5  C   UNL     1      -2.699   0.377   2.140  1.00  0.00     0.261 C 
BRANCH   5   6
ATOM      6  O   UNL     1      -3.010  -0.320   0.925  1.00  0.00    -0.463 OA
BRANCH   6   7
ATOM      7  C   UNL     1      -2.197  -1.345   0.586  1.00  0.00     0.310 C 
ATOM      8  O   UNL     1      -1.348  -1.821   1.339  1.00  0.00    -0.252 OA
BRANCH   7   9
ATOM      9  C   UNL     1      -2.339  -1.841  -0.850  1.00  0.00     0.119 C 
ATOM     10  N   UNL     1      -1.425   0.151  -1.925  1.00  0.00    -0.339 N 
ATOM     11  C   UNL     1      -2.615   0.420  -2.718  1.00  0.00     0.119 C 
ATOM     12  C   UNL     1      -1.164  -1.260  -1.637  1.00  0.00     0.134 C 
ATOM     13  C   UNL     1      -3.856  -0.152  -2.056  1.00  0.00     0.022 C 
ATOM     14  C   UNL     1      -3.631  -1.607  -1.649  1.00  0.00     0.019 C 
BRANCH  10  15
ATOM     15  C   UNL     1      -0.756   1.214  -1.327  1.00  0.00     0.263 C 
ATOM     16  O   UNL     1      -1.331   2.275  -1.075  1.00  0.00    -0.271 OA
BRANCH  15  17
ATOM     17  C   UNL     1       0.740   1.043  -1.017  1.00  0.00     0.259 C 
ATOM     18  C   UNL     1       0.969   0.488   0.386  1.00  0.00     0.064 C 
BRANCH  17  19
ATOM     19  O   UNL     1       1.250   0.186  -2.050  1.00  0.00    -0.481 OA
BRANCH  19  20
ATOM     20  C   UNL     1       2.573   0.337  -2.306  1.00  0.00     0.120 A 
ATOM     21  C   UNL     1       2.964   0.991  -3.470  1.00  0.00     0.047 A 
ATOM     22  C   UNL     1       3.498  -0.327  -1.514  1.00  0.00     0.047 A 
ATOM     23  C   UNL     1       4.310   0.987  -3.840  1.00  0.00     0.012 A 
ATOM     24  C   UNL     1       4.838  -0.320  -1.878  1.00  0.00     0.012 A 
ATOM     25  C   UNL     1       5.265   0.317  -3.056  1.00  0.00    -0.018 A 
BRANCH  25  26
ATOM     26  C   UNL     1       6.676   0.233  -3.453  1.00  0.00    -0.018 A 
ATOM     27  C   UNL     1       7.420   1.381  -3.758  1.00  0.00     0.009 A 
ATOM     28  C   UNL     1       7.325  -1.014  -3.501  1.00  0.00     0.009 A 
ATOM     29  C   UNL     1       8.777   1.286  -4.077  1.00  0.00     0.001 A 
ATOM     30  C   UNL     1       8.679  -1.110  -3.817  1.00  0.00     0.001 A 
ATOM     31  C   UNL     1       9.406   0.042  -4.100  1.00  0.00     0.000 A 
ENDBRANCH  25  26
ENDBRANCH  19  20
ENDBRANCH  17  19
ENDBRANCH  15  17
ENDBRANCH  10  15
ENDBRANCH   7   9
ENDBRANCH   6   7
ENDBRANCH   5   6
ENDBRANCH   4   5
ENDBRANCH   3   4
ENDBRANCH   2   3
ENDBRANCH   1   2
BRANCH   1  32
ATOM     32  O   UNL     1      -5.694  -0.701   0.840  1.00  0.00    -0.377 OA
BRANCH  32  33
ATOM     33  C   UNL     1      -6.358   0.313   1.593  1.00  0.00     0.188 C 
BRANCH  33  34
ATOM     34  C   UNL     1      -7.232  -0.069   2.805  1.00  0.00     0.188 C 
BRANCH  34  35
ATOM     35  O   UNL     1      -7.595  -1.437   2.865  1.00  0.00    -0.376 OA
BRANCH  35  36
ATOM     36  C   UNL     1      -8.844  -1.817   2.307  1.00  0.00     0.202 C 
BRANCH  36  37
ATOM     37  C   UNL     1      -9.139  -1.444   0.845  1.00  0.00     0.261 C 
BRANCH  37  38
ATOM     38  O   UNL     1      -9.131  -0.043   0.521  1.00  0.00    -0.460 OA
BRANCH  38  39
ATOM     39  C   UNL     1      -9.963   0.773   1.200  1.00  0.00     0.338 C 
ATOM     40  O   UNL     1     -10.777   0.454   2.052  1.00  0.00    -0.246 OA
BRANCH  39  41
ATOM     41  C   UNL     1      -9.592   2.163   0.871  1.00  0.00     0.060 A 
ATOM     42  C   UNL     1      -9.097   3.000   1.880  1.00  0.00     0.016 A 
ATOM     43  C   UNL     1      -9.736   2.638  -0.434  1.00  0.00     0.016 A 
ATOM     44  C   UNL     1      -8.775   4.326   1.592  1.00  0.00     0.010 A 
ATOM     45  C   UNL     1      -9.434   3.973  -0.716  1.00  0.00     0.010 A 
ATOM     46  C   UNL     1      -8.983   4.832   0.303  1.00  0.00    -0.014 A 
BRANCH  46  47
ATOM     47  C   UNL     1      -8.916   6.293   0.061  1.00  0.00     0.031 A 
ATOM     48  C   UNL     1     -10.204   7.072   0.032  1.00  0.00     0.074 A 
ATOM     49  C   UNL     1      -7.739   6.921  -0.118  1.00  0.00     0.049 A 
ATOM     50  N   UNL     1     -10.403   8.338  -0.226  1.00  0.00    -0.248 NA
ATOM     51  C   UNL     1     -11.432   6.318   0.334  1.00  0.00     0.031 C 
ATOM     52  C   UNL     1      -6.423   6.288  -0.057  1.00  0.00     0.029 A 
ATOM     53  N   UNL     1      -7.468   8.238  -0.396  1.00  0.00    -0.354 N 
ATOM     54  C   UNL     1     -11.777   8.529  -0.132  1.00  0.00     0.074 A 
ATOM     55  C   UNL     1     -12.365   7.245   0.180  1.00  0.00     0.031 C 
ATOM     56  C   UNL     1      -5.482   7.217  -0.302  1.00  0.00     0.029 A 
ATOM     57  C   UNL     1      -6.130   8.498  -0.579  1.00  0.00     0.049 A 
ATOM     58  H   UNL     1      -8.165   8.930  -0.459  1.00  0.00     0.167 HD
ATOM     59  C   UNL     1     -12.486   9.672  -0.291  1.00  0.00     0.031 A 
ATOM     60  C   UNL     1      -5.505   9.632  -0.956  1.00  0.00     0.031 A 
ATOM     61  C   UNL     1     -11.896  10.943  -0.620  1.00  0.00     0.049 A 
ATOM     62  C   UNL     1      -6.324  10.872  -1.216  1.00  0.00     0.074 A 
ATOM     63  C   UNL     1     -12.526  12.163  -0.793  1.00  0.00     0.029 A 
ATOM     64  N   UNL     1     -10.543  11.156  -0.838  1.00  0.00    -0.354 N 
ATOM     65  N   UNL     1      -7.621  11.046  -1.104  1.00  0.00    -0.248 NA
ATOM     66  C   UNL     1      -5.594  12.073  -1.648  1.00  0.00     0.031 C 
ATOM     67  C   UNL     1     -11.563  13.099  -1.183  1.00  0.00     0.029 A 
ATOM     68  C   UNL     1     -10.322  12.480  -1.178  1.00  0.00     0.049 A 
ATOM     69  H   UNL     1      -9.844  10.468  -0.762  1.00  0.00     0.167 HD
ATOM     70  C   UNL     1      -7.856  12.380  -1.423  1.00  0.00     0.074 A 
ATOM     71  C   UNL     1      -6.566  12.972  -1.715  1.00  0.00     0.031 C 
ATOM     72  C   UNL     1      -9.032  13.056  -1.468  1.00  0.00     0.031 A 
BRANCH  59  73
ATOM     73  C   UNL     1     -13.984   9.589  -0.156  1.00  0.00    -0.014 A 
ATOM     74  C   UNL     1     -14.598   9.351   1.088  1.00  0.00     0.010 A 
ATOM     75  C   UNL     1     -14.794   9.788  -1.289  1.00  0.00     0.010 A 
ATOM     76  C   UNL     1     -15.990   9.277   1.188  1.00  0.00     0.020 A 
ATOM     77  C   UNL     1     -16.188   9.747  -1.188  1.00  0.00     0.020 A 
ATOM     78  C   UNL     1     -16.776   9.475   0.048  1.00  0.00     0.054 A 
BRANCH  78  79
ATOM     79  S   UNL     1     -18.581   9.400   0.213  1.00  0.00     0.124 S 
ATOM     80  O   UNL     1     -18.803   7.977   0.457  1.00  0.00    -0.237 OA
ATOM     81  O   UNL     1     -18.834  10.279   1.352  1.00  0.00    -0.237 OA
ATOM     82  O   UNL     1     -19.069   9.894  -1.072  1.00  0.00    -0.744 OA
ENDBRANCH  78  79
ENDBRANCH  59  73
BRANCH  60  83
ATOM     83  C   UNL     1      -4.026   9.646  -1.139  1.00  0.00    -0.014 A 
ATOM     84  C   UNL     1      -3.201  10.402  -0.288  1.00  0.00     0.010 A 
ATOM     85  C   UNL     1      -3.432   8.903  -2.176  1.00  0.00     0.010 A 
ATOM     86  C   UNL     1      -1.816  10.431  -0.482  1.00  0.00     0.020 A 
ATOM     87  C   UNL     1      -2.045   8.902  -2.354  1.00  0.00     0.020 A 
ATOM     88  C   UNL     1      -1.246   9.676  -1.511  1.00  0.00     0.054 A 
BRANCH  88  89
ATOM     89  S   UNL     1       0.558   9.695  -1.713  1.00  0.00     0.124 S 
ATOM     90  O   UNL     1       0.795  11.049  -2.203  1.00  0.00    -0.237 OA
ATOM     91  O   UNL     1       1.028   9.421  -0.357  1.00  0.00    -0.237 OA
ATOM     92  O   UNL     1       0.808   8.628  -2.680  1.00  0.00    -0.744 OA
ENDBRANCH  88  89
ENDBRANCH  60  83
BRANCH  72  93
ATOM     93  C   UNL     1      -8.982  14.525  -1.808  1.00  0.00    -0.014 A 
ATOM     94  C   UNL     1      -8.665  14.969  -3.104  1.00  0.00     0.010 A 
ATOM     95  C   UNL     1      -9.318  15.475  -0.825  1.00  0.00     0.010 A 
ATOM     96  C   UNL     1      -8.650  16.335  -3.400  1.00  0.00     0.020 A 
ATOM     97  C   UNL     1      -9.338  16.839  -1.125  1.00  0.00     0.020 A 
ATOM     98  C   UNL     1      -8.989  17.262  -2.409  1.00  0.00     0.054 A 
BRANCH  98  99
ATOM     99  S   UNL     1      -9.005  19.025  -2.832  1.00  0.00     0.124 S 
ATOM    100  O   UNL     1      -7.581  19.317  -2.974  1.00  0.00    -0.237 OA
ATOM    101  O   UNL     1      -9.778  19.050  -4.071  1.00  0.00    -0.237 OA
ATOM    102  O   UNL     1      -9.657  19.653  -1.684  1.00  0.00    -0.744 OA
ENDBRANCH  98  99
ENDBRANCH  72  93
ENDBRANCH  46  47
ENDBRANCH  39  41
ENDBRANCH  38  39
ENDBRANCH  37  38
ENDBRANCH  36  37
ENDBRANCH  35  36
ENDBRANCH  34  35
ENDBRANCH  33  34
ENDBRANCH  32  33
ENDBRANCH   1  32
TORSDOF 28
