REMARK SMILES Cc1cc(S(=O)(=O)Nc2ccc(F)c(F)c2)sc1C(=O)OCCOCCOCCOCCOC(=O)c1ccc(-c2c3nc(c(-c4ccc(S(=O)(=O)[O-])cc4)c4ccc([nH]4)c(-c4ccc(S(=O)(=O)[O-])cc4)c4nc(c(-c5ccc(S(=O)(=O)[O-])cc5)c5ccc2[nH]5)C=C4)C=C3)cc1
REMARK SMILES IDX 27 1 26 2 25 3 24 4 23 5 22 6 21 7 19 8 20 9 18 10 1 11 2 12
REMARK SMILES IDX 3 13 4 14 17 15 5 16 6 17 7 18 8 19 9 21 10 22 16 23 11 24
REMARK SMILES IDX 14 25 12 26 15 27 13 28 28 29 29 30 30 31 31 32 32 33 33 34
REMARK SMILES IDX 34 35 35 36 36 37 37 38 95 39 38 40 94 41 39 42 40 43 41 44
REMARK SMILES IDX 88 45 42 46 93 47 87 48 89 49 43 50 92 51 86 52 85 53 44 55
REMARK SMILES IDX 74 56 55 57 73 58 56 59 59 60 72 61 90 62 57 63 58 64 71 66
REMARK SMILES IDX 91 67 60 68 45 69 46 70 54 71 47 72 53 73 48 74 49 75 50 76
REMARK SMILES IDX 51 77 52 78 75 79 76 80 84 81 77 82 83 83 78 84 79 85 80 86
REMARK SMILES IDX 81 87 82 88 61 89 62 90 70 91 63 92 69 93 64 94 65 95 66 96
REMARK SMILES IDX 67 97 68 98
REMARK H PARENT 8 20 89 54 59 65
REMARK Flexibility Score: inf
ROOT
ATOM      1  O   UNL     1       1.741  -2.946   1.974  1.00  0.00    -0.377 OA
ENDROOT
BRANCH   1   2
ATOM      2  C   UNL     1       0.371  -2.612   1.861  1.00  0.00     0.188 C 
BRANCH   2   3
ATOM      3  C   UNL     1      -0.458  -3.576   0.998  1.00  0.00     0.188 C 
BRANCH   3   4
ATOM      4  O   UNL     1       0.227  -4.787   0.693  1.00  0.00    -0.376 OA
BRANCH   4   5
ATOM      5  C   UNL     1       0.585  -4.981  -0.670  1.00  0.00     0.202 C 
BRANCH   5   6
ATOM      6  C   UNL     1       1.764  -4.138  -1.172  1.00  0.00     0.261 C 
BRANCH   6   7
ATOM      7  O   UNL     1       1.603  -2.723  -1.008  1.00  0.00    -0.459 OA
BRANCH   7   8
ATOM      8  C   UNL     1       0.736  -2.050  -1.805  1.00  0.00     0.348 C 
ATOM      9  O   UNL     1       0.084  -2.574  -2.702  1.00  0.00    -0.245 OA
BRANCH   8  10
ATOM     10  C   UNL     1       0.599  -0.686  -1.304  1.00  0.00     0.116 A 
ATOM     11  C   UNL     1       2.884  -0.213  -0.173  1.00  0.00     0.046 C 
ATOM     12  C   UNL     1       1.464   0.098  -0.543  1.00  0.00    -0.024 A 
ATOM     13  C   UNL     1       0.804   1.285  -0.082  1.00  0.00     0.038 A 
ATOM     14  C   UNL     1      -0.509   1.380  -0.490  1.00  0.00     0.141 A 
ATOM     15  S   UNL     1      -0.887   0.140  -1.596  1.00  0.00    -0.115 S 
BRANCH  14  16
ATOM     16  S   UNL     1      -1.758   2.569  -0.046  1.00  0.00     0.271 S 
ATOM     17  O   UNL     1      -1.611   2.716   1.387  1.00  0.00    -0.200 OA
ATOM     18  O   UNL     1      -1.531   3.687  -0.938  1.00  0.00    -0.200 OA
BRANCH  16  19
ATOM     19  N   UNL     1      -3.320   2.051  -0.361  1.00  0.00    -0.279 N 
ATOM     20  H   UNL     1      -3.943   2.687  -0.782  1.00  0.00     0.180 HD
BRANCH  19  21
ATOM     21  C   UNL     1      -3.798   0.748  -0.058  1.00  0.00     0.052 A 
ATOM     22  C   UNL     1      -3.356  -0.008   1.034  1.00  0.00     0.030 A 
ATOM     23  C   UNL     1      -4.795   0.236  -0.892  1.00  0.00     0.069 A 
ATOM     24  C   UNL     1      -3.836  -1.309   1.226  1.00  0.00     0.044 A 
ATOM     25  C   UNL     1      -5.274  -1.054  -0.690  1.00  0.00     0.160 A 
ATOM     26  C   UNL     1      -4.785  -1.829   0.352  1.00  0.00     0.158 A 
ATOM     27  F   UNL     1      -6.206  -1.542  -1.519  1.00  0.00    -0.204 F 
ATOM     28  F   UNL     1      -5.232  -3.079   0.529  1.00  0.00    -0.204 F 
ENDBRANCH  19  21
ENDBRANCH  16  19
ENDBRANCH  14  16
ENDBRANCH   8  10
ENDBRANCH   7   8
ENDBRANCH   6   7
ENDBRANCH   5   6
ENDBRANCH   4   5
ENDBRANCH   3   4
ENDBRANCH   2   3
ENDBRANCH   1   2
BRANCH   1  29
ATOM     29  C   UNL     1       2.117  -4.056   2.789  1.00  0.00     0.188 C 
BRANCH  29  30
ATOM     30  C   UNL     1       1.083  -4.988   3.462  1.00  0.00     0.188 C 
BRANCH  30  31
ATOM     31  O   UNL     1      -0.077  -4.329   3.967  1.00  0.00    -0.376 OA
BRANCH  31  32
ATOM     32  C   UNL     1      -0.183  -4.249   5.383  1.00  0.00     0.202 C 
BRANCH  32  33
ATOM     33  C   UNL     1       0.674  -3.133   5.989  1.00  0.00     0.261 C 
BRANCH  33  34
ATOM     34  O   UNL     1       2.090  -3.332   5.859  1.00  0.00    -0.460 OA
BRANCH  34  35
ATOM     35  C   UNL     1       2.605  -4.431   6.454  1.00  0.00     0.338 C 
ATOM     36  O   UNL     1       2.009  -5.254   7.123  1.00  0.00    -0.246 OA
BRANCH  35  37
ATOM     37  C   UNL     1       4.004  -4.570   6.013  1.00  0.00     0.060 A 
ATOM     38  C   UNL     1       4.409  -5.771   5.417  1.00  0.00     0.016 A 
ATOM     39  C   UNL     1       4.910  -3.524   6.200  1.00  0.00     0.016 A 
ATOM     40  C   UNL     1       5.742  -5.942   5.043  1.00  0.00     0.010 A 
ATOM     41  C   UNL     1       6.245  -3.702   5.838  1.00  0.00     0.010 A 
ATOM     42  C   UNL     1       6.673  -4.924   5.290  1.00  0.00    -0.014 A 
BRANCH  42  43
ATOM     43  C   UNL     1       8.123  -5.193   5.154  1.00  0.00     0.031 A 
ATOM     44  C   UNL     1       8.891  -5.599   6.382  1.00  0.00     0.074 A 
ATOM     45  C   UNL     1       8.748  -5.072   3.970  1.00  0.00     0.049 A 
ATOM     46  N   UNL     1      10.168  -5.844   6.517  1.00  0.00    -0.248 NA
ATOM     47  C   UNL     1       8.113  -5.745   7.625  1.00  0.00     0.031 C 
ATOM     48  C   UNL     1       8.108  -4.714   2.706  1.00  0.00     0.029 A 
ATOM     49  N   UNL     1      10.072  -5.230   3.647  1.00  0.00    -0.354 N 
ATOM     50  C   UNL     1      10.348  -6.171   7.856  1.00  0.00     0.074 A 
ATOM     51  C   UNL     1       9.056  -6.065   8.498  1.00  0.00     0.031 C 
ATOM     52  C   UNL     1       9.046  -4.668   1.742  1.00  0.00     0.029 A 
ATOM     53  C   UNL     1      10.352  -4.966   2.328  1.00  0.00     0.049 A 
ATOM     54  H   UNL     1      10.756  -5.506   4.299  1.00  0.00     0.167 HD
ATOM     55  C   UNL     1      11.485  -6.532   8.494  1.00  0.00     0.031 A 
ATOM     56  C   UNL     1      11.531  -4.948   1.675  1.00  0.00     0.031 A 
ATOM     57  C   UNL     1      12.774  -6.611   7.863  1.00  0.00     0.049 A 
ATOM     58  C   UNL     1      12.797  -5.282   2.423  1.00  0.00     0.074 A 
ATOM     59  C   UNL     1      13.986  -6.973   8.423  1.00  0.00     0.029 A 
ATOM     60  N   UNL     1      13.020  -6.311   6.532  1.00  0.00    -0.354 N 
ATOM     61  N   UNL     1      12.947  -5.621   3.682  1.00  0.00    -0.248 NA
ATOM     62  C   UNL     1      14.052  -5.239   1.657  1.00  0.00     0.031 C 
ATOM     63  C   UNL     1      14.975  -6.845   7.442  1.00  0.00     0.029 A 
ATOM     64  C   UNL     1      14.369  -6.457   6.257  1.00  0.00     0.049 A 
ATOM     65  H   UNL     1      12.337  -6.035   5.879  1.00  0.00     0.167 HD
ATOM     66  C   UNL     1      14.308  -5.857   3.852  1.00  0.00     0.074 A 
ATOM     67  C   UNL     1      14.935  -5.633   2.565  1.00  0.00     0.031 C 
ATOM     68  C   UNL     1      14.977  -6.230   4.971  1.00  0.00     0.031 A 
BRANCH  55  69
ATOM     69  C   UNL     1      11.382  -6.837   9.963  1.00  0.00    -0.014 A 
ATOM     70  C   UNL     1      10.761  -8.015  10.418  1.00  0.00     0.010 A 
ATOM     71  C   UNL     1      11.928  -5.943  10.901  1.00  0.00     0.010 A 
ATOM     72  C   UNL     1      10.652  -8.272  11.786  1.00  0.00     0.020 A 
ATOM     73  C   UNL     1      11.843  -6.209  12.270  1.00  0.00     0.020 A 
ATOM     74  C   UNL     1      11.189  -7.364  12.704  1.00  0.00     0.054 A 
BRANCH  74  75
ATOM     75  S   UNL     1      11.044  -7.728  14.475  1.00  0.00     0.124 S 
ATOM     76  O   UNL     1       9.632  -7.447  14.724  1.00  0.00    -0.237 OA
ATOM     77  O   UNL     1      11.426  -9.136  14.546  1.00  0.00    -0.237 OA
ATOM     78  O   UNL     1      11.983  -6.799  15.098  1.00  0.00    -0.744 OA
ENDBRANCH  74  75
ENDBRANCH  55  69
BRANCH  56  79
ATOM     79  C   UNL     1      11.576  -4.585   0.233  1.00  0.00    -0.014 A 
ATOM     80  C   UNL     1      11.866  -5.554  -0.743  1.00  0.00     0.010 A 
ATOM     81  C   UNL     1      11.330  -3.260  -0.172  1.00  0.00     0.010 A 
ATOM     82  C   UNL     1      11.922  -5.203  -2.095  1.00  0.00     0.020 A 
ATOM     83  C   UNL     1      11.361  -2.910  -1.524  1.00  0.00     0.020 A 
ATOM     84  C   UNL     1      11.666  -3.883  -2.477  1.00  0.00     0.054 A 
BRANCH  84  85
ATOM     85  S   UNL     1      11.687  -3.462  -4.242  1.00  0.00     0.124 S 
ATOM     86  O   UNL     1      13.116  -3.447  -4.534  1.00  0.00    -0.237 OA
ATOM     87  O   UNL     1      10.929  -4.559  -4.838  1.00  0.00    -0.237 OA
ATOM     88  O   UNL     1      11.023  -2.161  -4.289  1.00  0.00    -0.744 OA
ENDBRANCH  84  85
ENDBRANCH  56  79
BRANCH  68  89
ATOM     89  C   UNL     1      16.462  -6.455   4.853  1.00  0.00    -0.014 A 
ATOM     90  C   UNL     1      17.356  -5.378   4.730  1.00  0.00     0.010 A 
ATOM     91  C   UNL     1      16.971  -7.765   4.933  1.00  0.00     0.010 A 
ATOM     92  C   UNL     1      18.733  -5.609   4.661  1.00  0.00     0.020 A 
ATOM     93  C   UNL     1      18.348  -7.997   4.889  1.00  0.00     0.020 A 
ATOM     94  C   UNL     1      19.220  -6.917   4.740  1.00  0.00     0.054 A 
BRANCH  94  95
ATOM     95  S   UNL     1      21.014  -7.188   4.697  1.00  0.00     0.124 S 
ATOM     96  O   UNL     1      21.317  -6.986   3.283  1.00  0.00    -0.237 OA
ATOM     97  O   UNL     1      21.517  -6.158   5.602  1.00  0.00    -0.237 OA
ATOM     98  O   UNL     1      21.168  -8.560   5.177  1.00  0.00    -0.744 OA
ENDBRANCH  94  95
ENDBRANCH  68  89
ENDBRANCH  42  43
ENDBRANCH  35  37
ENDBRANCH  34  35
ENDBRANCH  33  34
ENDBRANCH  32  33
ENDBRANCH  31  32
ENDBRANCH  30  31
ENDBRANCH  29  30
ENDBRANCH   1  29
TORSDOF 26
