REMARK SMILES C=CCN(CC(=O)OCCOCCOCCOCCOC(=O)c1ccc(-c2c3nc(c(-c4ccc(S(=O)(=O)[O-])cc4)c4ccc([nH]4)c(-c4ccc(S(=O)(=O)[O-])cc4)c4nc(c(-c5ccc(S(=O)(=O)[O-])cc5)c5ccc2[nH]5)C=C4)C=C3)cc1)C(=O)N1CCC[C@@H]1C(=O)OCC
REMARK SMILES IDX 12 1 11 2 10 3 9 4 8 5 6 6 7 7 5 8 4 9 3 10 2 11 1 12 83 13
REMARK SMILES IDX 84 14 85 15 86 16 89 17 87 18 88 19 90 20 91 21 92 22 93 23
REMARK SMILES IDX 94 24 13 25 14 26 15 27 16 28 17 29 18 30 19 31 20 32 21 33
REMARK SMILES IDX 22 34 23 35 24 36 82 37 25 38 81 39 26 40 27 41 28 42 75 43
REMARK SMILES IDX 29 44 80 45 74 46 76 47 30 48 79 49 73 50 72 51 31 53 61 54
REMARK SMILES IDX 42 55 60 56 43 57 46 58 59 59 77 60 44 61 45 62 58 64 78 65
REMARK SMILES IDX 47 66 32 67 33 68 41 69 34 70 40 71 35 72 36 73 37 74 38 75
REMARK SMILES IDX 39 76 62 77 63 78 71 79 64 80 70 81 65 82 66 83 67 84 68 85
REMARK SMILES IDX 69 86 48 87 49 88 57 89 50 90 56 91 51 92 52 93 53 94 54 95
REMARK SMILES IDX 55 96
REMARK H PARENT 76 52 46 63
REMARK Flexibility Score: inf
ROOT
ATOM      1  C   UNL     1      -4.912   4.160  -0.351  1.00  0.00     0.188 C 
ENDROOT
BRANCH   1   2
ATOM      2  O   UNL     1      -6.284   3.865  -0.277  1.00  0.00    -0.376 OA
BRANCH   2   3
ATOM      3  C   UNL     1      -6.762   2.633  -0.777  1.00  0.00     0.202 C 
BRANCH   3   4
ATOM      4  C   UNL     1      -6.016   1.787  -1.835  1.00  0.00     0.261 C 
BRANCH   4   5
ATOM      5  O   UNL     1      -4.568   1.781  -1.811  1.00  0.00    -0.462 OA
BRANCH   5   6
ATOM      6  C   UNL     1      -3.922   2.267  -2.907  1.00  0.00     0.325 C 
ATOM      7  O   UNL     1      -4.503   2.635  -3.926  1.00  0.00    -0.250 OA
BRANCH   6   8
ATOM      8  C   UNL     1      -2.372   2.237  -2.849  1.00  0.00     0.244 C 
BRANCH   8   9
ATOM      9  N   UNL     1      -1.570   2.184  -1.614  1.00  0.00    -0.310 N 
BRANCH   9  10
ATOM     10  C   UNL     1      -1.326   0.830  -1.085  1.00  0.00     0.149 C 
BRANCH  10  11
ATOM     11  C   UNL     1       0.118   0.436  -1.296  1.00  0.00    -0.013 C 
ATOM     12  C   UNL     1       0.905  -0.054  -0.325  1.00  0.00     0.006 C 
ENDBRANCH  10  11
ENDBRANCH   9  10
BRANCH   9  13
ATOM     13  C   UNL     1      -0.943   3.204  -0.922  1.00  0.00     0.321 C 
ATOM     14  O   UNL     1      -0.206   2.931   0.035  1.00  0.00    -0.248 OA
BRANCH  13  15
ATOM     15  N   UNL     1      -1.083   4.535  -1.224  1.00  0.00    -0.311 N 
ATOM     16  C   UNL     1      -2.034   5.295  -2.013  1.00  0.00     0.122 C 
ATOM     17  C   UNL     1      -0.274   5.459  -0.400  1.00  0.00     0.197 C 
ATOM     18  C   UNL     1      -1.555   6.737  -1.979  1.00  0.00     0.024 C 
ATOM     19  C   UNL     1      -0.854   6.854  -0.636  1.00  0.00     0.039 C 
BRANCH  17  20
ATOM     20  C   UNL     1       1.212   5.458  -0.766  1.00  0.00     0.328 C 
ATOM     21  O   UNL     1       2.104   5.761   0.019  1.00  0.00    -0.250 OA
BRANCH  20  22
ATOM     22  O   UNL     1       1.384   5.276  -2.108  1.00  0.00    -0.464 OA
BRANCH  22  23
ATOM     23  C   UNL     1       2.731   5.283  -2.594  1.00  0.00     0.229 C 
ATOM     24  C   UNL     1       3.395   6.645  -2.483  1.00  0.00     0.049 C 
ENDBRANCH  22  23
ENDBRANCH  20  22
ENDBRANCH  17  20
ENDBRANCH  13  15
ENDBRANCH   9  13
ENDBRANCH   8   9
ENDBRANCH   6   8
ENDBRANCH   5   6
ENDBRANCH   4   5
ENDBRANCH   3   4
ENDBRANCH   2   3
ENDBRANCH   1   2
BRANCH   1  25
ATOM     25  C   UNL     1      -3.893   3.337   0.472  1.00  0.00     0.188 C 
BRANCH  25  26
ATOM     26  O   UNL     1      -4.218   2.713   1.696  1.00  0.00    -0.377 OA
BRANCH  26  27
ATOM     27  C   UNL     1      -5.290   3.241   2.438  1.00  0.00     0.188 C 
BRANCH  27  28
ATOM     28  C   UNL     1      -5.232   4.737   2.783  1.00  0.00     0.188 C 
BRANCH  28  29
ATOM     29  O   UNL     1      -4.229   5.457   2.082  1.00  0.00    -0.376 OA
BRANCH  29  30
ATOM     30  C   UNL     1      -3.046   5.841   2.765  1.00  0.00     0.202 C 
BRANCH  30  31
ATOM     31  C   UNL     1      -2.107   4.788   3.373  1.00  0.00     0.261 C 
BRANCH  31  32
ATOM     32  O   UNL     1      -2.719   3.738   4.114  1.00  0.00    -0.460 OA
BRANCH  32  33
ATOM     33  C   UNL     1      -3.308   4.075   5.281  1.00  0.00     0.338 C 
ATOM     34  O   UNL     1      -3.396   5.174   5.775  1.00  0.00    -0.246 OA
BRANCH  33  35
ATOM     35  C   UNL     1      -4.039   2.869   5.711  1.00  0.00     0.060 A 
ATOM     36  C   UNL     1      -5.426   2.964   5.876  1.00  0.00     0.016 A 
ATOM     37  C   UNL     1      -3.374   1.647   5.858  1.00  0.00     0.016 A 
ATOM     38  C   UNL     1      -6.156   1.831   6.202  1.00  0.00     0.010 A 
ATOM     39  C   UNL     1      -4.098   0.520   6.239  1.00  0.00     0.010 A 
ATOM     40  C   UNL     1      -5.481   0.631   6.454  1.00  0.00    -0.014 A 
BRANCH  40  41
ATOM     41  C   UNL     1      -6.187  -0.365   7.279  1.00  0.00     0.031 A 
ATOM     42  C   UNL     1      -6.042  -0.226   8.768  1.00  0.00     0.074 A 
ATOM     43  C   UNL     1      -7.000  -1.280   6.730  1.00  0.00     0.049 A 
ATOM     44  N   UNL     1      -6.623  -0.896   9.725  1.00  0.00    -0.248 NA
ATOM     45  C   UNL     1      -5.119   0.823   9.239  1.00  0.00     0.031 C 
ATOM     46  C   UNL     1      -7.241  -1.450   5.298  1.00  0.00     0.029 A 
ATOM     47  N   UNL     1      -7.785  -2.230   7.325  1.00  0.00    -0.354 N 
ATOM     48  C   UNL     1      -6.131  -0.353  10.906  1.00  0.00     0.074 A 
ATOM     49  C   UNL     1      -5.181   0.674  10.550  1.00  0.00     0.031 C 
ATOM     50  C   UNL     1      -8.118  -2.454   5.125  1.00  0.00     0.029 A 
ATOM     51  C   UNL     1      -8.476  -3.007   6.430  1.00  0.00     0.049 A 
ATOM     52  H   UNL     1      -7.847  -2.344   8.301  1.00  0.00     0.167 HD
ATOM     53  C   UNL     1      -6.449  -0.681  12.179  1.00  0.00     0.031 A 
ATOM     54  C   UNL     1      -9.294  -4.053   6.652  1.00  0.00     0.031 A 
ATOM     55  C   UNL     1      -7.369  -1.733  12.509  1.00  0.00     0.049 A 
ATOM     56  C   UNL     1      -9.589  -4.447   8.075  1.00  0.00     0.074 A 
ATOM     57  C   UNL     1      -7.772  -2.165  13.758  1.00  0.00     0.029 A 
ATOM     58  N   UNL     1      -8.016  -2.531  11.575  1.00  0.00    -0.354 N 
ATOM     59  N   UNL     1      -9.138  -3.916   9.189  1.00  0.00    -0.248 NA
ATOM     60  C   UNL     1     -10.522  -5.562   8.272  1.00  0.00     0.031 C 
ATOM     61  C   UNL     1      -8.608  -3.273  13.580  1.00  0.00     0.029 A 
ATOM     62  C   UNL     1      -8.795  -3.475  12.219  1.00  0.00     0.049 A 
ATOM     63  H   UNL     1      -7.933  -2.439  10.599  1.00  0.00     0.167 HD
ATOM     64  C   UNL     1      -9.757  -4.613  10.222  1.00  0.00     0.074 A 
ATOM     65  C   UNL     1     -10.622  -5.594   9.594  1.00  0.00     0.031 C 
ATOM     66  C   UNL     1      -9.634  -4.451  11.565  1.00  0.00     0.031 A 
BRANCH  53  67
ATOM     67  C   UNL     1      -5.728   0.057  13.277  1.00  0.00    -0.014 A 
ATOM     68  C   UNL     1      -5.926   1.433  13.501  1.00  0.00     0.010 A 
ATOM     69  C   UNL     1      -4.800  -0.636  14.074  1.00  0.00     0.010 A 
ATOM     70  C   UNL     1      -5.166   2.111  14.459  1.00  0.00     0.020 A 
ATOM     71  C   UNL     1      -4.065   0.030  15.057  1.00  0.00     0.020 A 
ATOM     72  C   UNL     1      -4.236   1.405  15.227  1.00  0.00     0.054 A 
BRANCH  72  73
ATOM     73  S   UNL     1      -3.255   2.308  16.456  1.00  0.00     0.124 S 
ATOM     74  O   UNL     1      -2.348   3.080  15.611  1.00  0.00    -0.237 OA
ATOM     75  O   UNL     1      -4.268   3.085  17.165  1.00  0.00    -0.237 OA
ATOM     76  O   UNL     1      -2.623   1.250  17.242  1.00  0.00    -0.744 OA
ENDBRANCH  72  73
ENDBRANCH  53  67
BRANCH  54  77
ATOM     77  C   UNL     1      -9.873  -4.786   5.494  1.00  0.00    -0.014 A 
ATOM     78  C   UNL     1     -11.241  -4.697   5.185  1.00  0.00     0.010 A 
ATOM     79  C   UNL     1      -9.031  -5.538   4.653  1.00  0.00     0.010 A 
ATOM     80  C   UNL     1     -11.754  -5.341   4.053  1.00  0.00     0.020 A 
ATOM     81  C   UNL     1      -9.533  -6.159   3.507  1.00  0.00     0.020 A 
ATOM     82  C   UNL     1     -10.893  -6.057   3.215  1.00  0.00     0.054 A 
BRANCH  82  83
ATOM     83  S   UNL     1     -11.563  -6.798   1.700  1.00  0.00     0.124 S 
ATOM     84  O   UNL     1     -12.381  -7.886   2.227  1.00  0.00    -0.237 OA
ATOM     85  O   UNL     1     -12.298  -5.684   1.105  1.00  0.00    -0.237 OA
ATOM     86  O   UNL     1     -10.371  -7.211   0.963  1.00  0.00    -0.744 OA
ENDBRANCH  82  83
ENDBRANCH  54  77
BRANCH  66  87
ATOM     87  C   UNL     1     -10.491  -5.324  12.445  1.00  0.00    -0.014 A 
ATOM     88  C   UNL     1     -10.269  -6.708  12.557  1.00  0.00     0.010 A 
ATOM     89  C   UNL     1     -11.517  -4.730  13.204  1.00  0.00     0.010 A 
ATOM     90  C   UNL     1     -11.095  -7.489  13.369  1.00  0.00     0.020 A 
ATOM     91  C   UNL     1     -12.319  -5.501  14.046  1.00  0.00     0.020 A 
ATOM     92  C   UNL     1     -12.117  -6.880  14.105  1.00  0.00     0.054 A 
BRANCH  92  93
ATOM     93  S   UNL     1     -13.171  -7.914  15.157  1.00  0.00     0.124 S 
ATOM     94  O   UNL     1     -13.982  -8.623  14.170  1.00  0.00    -0.237 OA
ATOM     95  O   UNL     1     -12.199  -8.733  15.877  1.00  0.00    -0.237 OA
ATOM     96  O   UNL     1     -13.895  -6.948  15.979  1.00  0.00    -0.744 OA
ENDBRANCH  92  93
ENDBRANCH  66  87
ENDBRANCH  40  41
ENDBRANCH  33  35
ENDBRANCH  32  33
ENDBRANCH  31  32
ENDBRANCH  30  31
ENDBRANCH  29  30
ENDBRANCH  28  29
ENDBRANCH  27  28
ENDBRANCH  26  27
ENDBRANCH  25  26
ENDBRANCH   1  25
TORSDOF 31
