REMARK SMILES Cc1csc(CNC(=O)NC[C@H]2CC[C@@H](C(=O)OCCOCCOCCOCCOC(=O)c3ccc(-c4c5nc(c(-c6ccc(S(=O)(=O)[O-])cc6)c6ccc([nH]6)c(-c6ccc(S(=O)(=O)[O-])cc6)c6nc(c(-c7ccc(S(=O)(=O)[O-])cc7)c7ccc4[nH]7)C=C6)C=C5)cc3)CC2)n1
REMARK SMILES IDX 23 1 22 2 21 3 20 4 19 5 18 6 16 7 17 8 15 9 12 10 13 11
REMARK SMILES IDX 94 12 14 13 93 14 11 15 10 16 7 17 8 18 9 20 6 22 5 23 1 24
REMARK SMILES IDX 2 25 3 26 95 27 4 28 24 29 25 30 26 31 27 32 28 33 29 34
REMARK SMILES IDX 30 35 31 36 32 37 33 38 34 39 92 40 35 41 91 42 36 43 37 44
REMARK SMILES IDX 38 45 85 46 39 47 90 48 84 49 86 50 40 51 89 52 83 53 82 54
REMARK SMILES IDX 41 56 71 57 52 58 70 59 53 60 56 61 69 62 87 63 54 64 55 65
REMARK SMILES IDX 68 67 88 68 57 69 42 70 43 71 51 72 44 73 50 74 45 75 46 76
REMARK SMILES IDX 47 77 48 78 49 79 72 80 73 81 81 82 74 83 80 84 75 85 76 86
REMARK SMILES IDX 77 87 78 88 79 89 58 90 59 91 67 92 60 93 66 94 61 95 62 96
REMARK SMILES IDX 63 97 64 98 65 99
REMARK H PARENT 7 19 10 21 86 55 56 66
REMARK Flexibility Score: inf
ROOT
ATOM      1  C   UNL     1       1.106   5.321   7.196  1.00  0.00     0.188 C 
ENDROOT
BRANCH   1   2
ATOM      2  C   UNL     1       0.346   6.540   7.735  1.00  0.00     0.188 C 
BRANCH   2   3
ATOM      3  O   UNL     1      -1.054   6.398   7.716  1.00  0.00    -0.376 OA
BRANCH   3   4
ATOM      4  C   UNL     1      -1.810   6.951   6.658  1.00  0.00     0.202 C 
BRANCH   4   5
ATOM      5  C   UNL     1      -1.339   7.026   5.192  1.00  0.00     0.261 C 
BRANCH   5   6
ATOM      6  O   UNL     1       0.009   6.668   4.863  1.00  0.00    -0.463 OA
BRANCH   6   7
ATOM      7  C   UNL     1       0.907   7.672   4.747  1.00  0.00     0.309 C 
ATOM      8  O   UNL     1       0.683   8.827   5.095  1.00  0.00    -0.252 OA
BRANCH   7   9
ATOM      9  C   UNL     1       2.207   7.274   4.038  1.00  0.00     0.099 C 
ATOM     10  C   UNL     1       1.432   5.387   1.844  1.00  0.00     0.008 C 
ATOM     11  C   UNL     1       1.150   6.906   1.781  1.00  0.00     0.006 C 
ATOM     12  C   UNL     1       1.768   4.877   3.248  1.00  0.00     0.006 C 
ATOM     13  C   UNL     1       2.117   7.764   2.595  1.00  0.00     0.015 C 
ATOM     14  C   UNL     1       2.689   5.819   4.006  1.00  0.00     0.015 C 
BRANCH  10  15
ATOM     15  C   UNL     1       0.227   4.602   1.295  1.00  0.00     0.121 C 
BRANCH  15  16
ATOM     16  N   UNL     1       0.042   4.874  -0.110  1.00  0.00    -0.338 N 
ATOM     17  N   UNL     1       1.216   3.199  -1.291  1.00  0.00    -0.332 N 
ATOM     18  C   UNL     1       0.470   4.301  -1.235  1.00  0.00     0.315 C 
ATOM     19  H   UNL     1       1.380   2.905  -2.216  1.00  0.00     0.165 HD
ATOM     20  O   UNL     1       0.179   4.850  -2.300  1.00  0.00    -0.249 OA
ATOM     21  H   UNL     1      -0.529   5.659  -0.275  1.00  0.00     0.165 HD
BRANCH  17  22
ATOM     22  C   UNL     1       1.842   2.329  -0.318  1.00  0.00     0.185 C 
BRANCH  22  23
ATOM     23  C   UNL     1       1.102   1.028  -0.186  1.00  0.00     0.112 A 
ATOM     24  C   UNL     1      -1.968  -0.851  -0.016  1.00  0.00     0.067 C 
ATOM     25  C   UNL     1      -0.539  -0.462  -0.041  1.00  0.00     0.049 A 
ATOM     26  C   UNL     1       0.535  -1.325  -0.006  1.00  0.00     0.090 A 
ATOM     27  N   UNL     1      -0.206   0.883  -0.119  1.00  0.00    -0.245 NA
ATOM     28  S   UNL     1       1.998  -0.444  -0.083  1.00  0.00    -0.125 S 
ENDBRANCH  22  23
ENDBRANCH  17  22
ENDBRANCH  15  16
ENDBRANCH  10  15
ENDBRANCH   7   9
ENDBRANCH   6   7
ENDBRANCH   5   6
ENDBRANCH   4   5
ENDBRANCH   3   4
ENDBRANCH   2   3
ENDBRANCH   1   2
BRANCH   1  29
ATOM     29  O   UNL     1       0.434   4.378   6.376  1.00  0.00    -0.377 OA
BRANCH  29  30
ATOM     30  C   UNL     1      -0.764   3.756   6.837  1.00  0.00     0.188 C 
BRANCH  30  31
ATOM     31  C   UNL     1      -1.073   3.657   8.346  1.00  0.00     0.188 C 
BRANCH  31  32
ATOM     32  O   UNL     1       0.024   3.937   9.198  1.00  0.00    -0.376 OA
BRANCH  32  33
ATOM     33  C   UNL     1       0.764   2.839   9.708  1.00  0.00     0.202 C 
BRANCH  33  34
ATOM     34  C   UNL     1       1.413   1.871   8.706  1.00  0.00     0.261 C 
BRANCH  34  35
ATOM     35  O   UNL     1       0.536   1.222   7.772  1.00  0.00    -0.460 OA
BRANCH  35  36
ATOM     36  C   UNL     1      -0.466   0.465   8.264  1.00  0.00     0.338 C 
ATOM     37  O   UNL     1      -0.716   0.241   9.438  1.00  0.00    -0.246 OA
BRANCH  36  38
ATOM     38  C   UNL     1      -1.333   0.090   7.130  1.00  0.00     0.060 A 
ATOM     39  C   UNL     1      -2.659   0.545   7.091  1.00  0.00     0.016 A 
ATOM     40  C   UNL     1      -0.829  -0.713   6.106  1.00  0.00     0.016 A 
ATOM     41  C   UNL     1      -3.498   0.165   6.043  1.00  0.00     0.010 A 
ATOM     42  C   UNL     1      -1.675  -1.109   5.070  1.00  0.00     0.010 A 
ATOM     43  C   UNL     1      -3.024  -0.705   5.054  1.00  0.00    -0.014 A 
BRANCH  43  44
ATOM     44  C   UNL     1      -3.972  -1.407   4.153  1.00  0.00     0.031 A 
ATOM     45  C   UNL     1      -4.347  -2.820   4.515  1.00  0.00     0.074 A 
ATOM     46  C   UNL     1      -4.484  -0.824   3.053  1.00  0.00     0.049 A 
ATOM     47  N   UNL     1      -5.002  -3.711   3.821  1.00  0.00    -0.248 NA
ATOM     48  C   UNL     1      -3.922  -3.288   5.848  1.00  0.00     0.031 C 
ATOM     49  C   UNL     1      -4.293   0.572   2.662  1.00  0.00     0.029 A 
ATOM     50  N   UNL     1      -5.255  -1.351   2.044  1.00  0.00    -0.354 N 
ATOM     51  C   UNL     1      -5.062  -4.843   4.627  1.00  0.00     0.074 A 
ATOM     52  C   UNL     1      -4.346  -4.542   5.845  1.00  0.00     0.031 C 
ATOM     53  C   UNL     1      -4.903   0.782   1.480  1.00  0.00     0.029 A 
ATOM     54  C   UNL     1      -5.464  -0.479   0.998  1.00  0.00     0.049 A 
ATOM     55  H   UNL     1      -5.623  -2.264   2.067  1.00  0.00     0.167 HD
ATOM     56  C   UNL     1      -5.668  -6.026   4.375  1.00  0.00     0.031 A 
ATOM     57  C   UNL     1      -5.986  -0.697  -0.229  1.00  0.00     0.031 A 
ATOM     58  C   UNL     1      -6.364  -6.313   3.151  1.00  0.00     0.049 A 
ATOM     59  C   UNL     1      -6.487  -2.086  -0.564  1.00  0.00     0.074 A 
ATOM     60  C   UNL     1      -7.025  -7.472   2.789  1.00  0.00     0.029 A 
ATOM     61  N   UNL     1      -6.482  -5.431   2.087  1.00  0.00    -0.354 N 
ATOM     62  N   UNL     1      -6.530  -3.155   0.199  1.00  0.00    -0.248 NA
ATOM     63  C   UNL     1      -7.015  -2.300  -1.919  1.00  0.00     0.031 C 
ATOM     64  C   UNL     1      -7.481  -7.316   1.478  1.00  0.00     0.029 A 
ATOM     65  C   UNL     1      -7.177  -6.031   1.054  1.00  0.00     0.049 A 
ATOM     66  H   UNL     1      -6.124  -4.514   2.071  1.00  0.00     0.167 HD
ATOM     67  C   UNL     1      -7.161  -4.140  -0.557  1.00  0.00     0.074 A 
ATOM     68  C   UNL     1      -7.453  -3.551  -1.847  1.00  0.00     0.031 C 
ATOM     69  C   UNL     1      -7.492  -5.408  -0.208  1.00  0.00     0.031 A 
BRANCH  56  70
ATOM     70  C   UNL     1      -5.570  -7.105   5.422  1.00  0.00    -0.014 A 
ATOM     71  C   UNL     1      -6.236  -6.994   6.656  1.00  0.00     0.010 A 
ATOM     72  C   UNL     1      -4.829  -8.270   5.150  1.00  0.00     0.010 A 
ATOM     73  C   UNL     1      -6.130  -8.008   7.612  1.00  0.00     0.020 A 
ATOM     74  C   UNL     1      -4.746  -9.300   6.090  1.00  0.00     0.020 A 
ATOM     75  C   UNL     1      -5.385  -9.156   7.322  1.00  0.00     0.054 A 
BRANCH  75  76
ATOM     76  S   UNL     1      -5.286 -10.466   8.572  1.00  0.00     0.124 S 
ATOM     77  O   UNL     1      -4.450  -9.844   9.595  1.00  0.00    -0.237 OA
ATOM     78  O   UNL     1      -6.686 -10.663   8.939  1.00  0.00    -0.237 OA
ATOM     79  O   UNL     1      -4.668 -11.582   7.858  1.00  0.00    -0.744 OA
ENDBRANCH  75  76
ENDBRANCH  56  70
BRANCH  57  80
ATOM     80  C   UNL     1      -6.018   0.394  -1.253  1.00  0.00    -0.014 A 
ATOM     81  C   UNL     1      -7.237   0.890  -1.746  1.00  0.00     0.010 A 
ATOM     82  C   UNL     1      -4.823   0.924  -1.776  1.00  0.00     0.010 A 
ATOM     83  C   UNL     1      -7.255   1.864  -2.754  1.00  0.00     0.020 A 
ATOM     84  C   UNL     1      -4.833   1.917  -2.760  1.00  0.00     0.020 A 
ATOM     85  C   UNL     1      -6.053   2.373  -3.253  1.00  0.00     0.054 A 
BRANCH  85  86
ATOM     86  S   UNL     1      -6.109   3.641  -4.550  1.00  0.00     0.124 S 
ATOM     87  O   UNL     1      -6.748   2.925  -5.650  1.00  0.00    -0.237 OA
ATOM     88  O   UNL     1      -6.913   4.686  -3.923  1.00  0.00    -0.237 OA
ATOM     89  O   UNL     1      -4.705   3.982  -4.763  1.00  0.00    -0.744 OA
ENDBRANCH  85  86
ENDBRANCH  57  80
BRANCH  69  90
ATOM     90  C   UNL     1      -8.308  -6.225  -1.178  1.00  0.00    -0.014 A 
ATOM     91  C   UNL     1      -7.749  -6.782  -2.339  1.00  0.00     0.010 A 
ATOM     92  C   UNL     1      -9.640  -6.538  -0.840  1.00  0.00     0.010 A 
ATOM     93  C   UNL     1      -8.510  -7.631  -3.149  1.00  0.00     0.020 A 
ATOM     94  C   UNL     1     -10.393  -7.410  -1.629  1.00  0.00     0.020 A 
ATOM     95  C   UNL     1      -9.823  -7.948  -2.783  1.00  0.00     0.054 A 
BRANCH  95  96
ATOM     96  S   UNL     1     -10.756  -9.126  -3.800  1.00  0.00     0.124 S 
ATOM     97  O   UNL     1     -11.015  -8.347  -5.008  1.00  0.00    -0.237 OA
ATOM     98  O   UNL     1      -9.812 -10.230  -3.954  1.00  0.00    -0.237 OA
ATOM     99  O   UNL     1     -11.934  -9.429  -2.990  1.00  0.00    -0.744 OA
ENDBRANCH  95  96
ENDBRANCH  69  90
ENDBRANCH  43  44
ENDBRANCH  36  38
ENDBRANCH  35  36
ENDBRANCH  34  35
ENDBRANCH  33  34
ENDBRANCH  32  33
ENDBRANCH  31  32
ENDBRANCH  30  31
ENDBRANCH  29  30
ENDBRANCH   1  29
TORSDOF 27
