REMARK SMILES CN(CCc1cccs1)C(=O)c1cccn1CC(=O)OCCOCCOCCOCCOC(=O)c1ccc(-c2c3nc(c(-c4ccc(S(=O)(=O)[O-])cc4)c4ccc([nH]4)c(-c4ccc(S(=O)(=O)[O-])cc4)c4nc(c(-c5ccc(S(=O)(=O)[O-])cc5)c5ccc2[nH]5)C=C4)C=C3)cc1
REMARK SMILES IDX 24 1 23 2 22 3 21 4 20 5 18 6 19 7 17 8 16 9 12 10 13 11
REMARK SMILES IDX 14 12 15 13 10 14 11 15 2 16 1 17 3 18 4 19 5 20 6 21 9 22
REMARK SMILES IDX 7 23 8 24 25 25 26 26 27 27 28 28 29 29 30 30 31 31 32 32
REMARK SMILES IDX 33 33 34 34 35 35 36 36 94 37 37 38 93 39 38 40 39 41 40 42
REMARK SMILES IDX 87 43 41 44 92 45 86 46 88 47 42 48 91 49 85 50 84 51 43 53
REMARK SMILES IDX 73 54 54 55 72 56 55 57 58 58 71 59 89 60 56 61 57 62 70 64
REMARK SMILES IDX 90 65 59 66 44 67 45 68 53 69 46 70 52 71 47 72 48 73 49 74
REMARK SMILES IDX 50 75 51 76 74 77 75 78 83 79 76 80 82 81 77 82 78 83 79 84
REMARK SMILES IDX 80 85 81 86 60 87 61 88 69 89 62 90 68 91 63 92 64 93 65 94
REMARK SMILES IDX 66 95 67 96
REMARK H PARENT 88 52 58 63
REMARK Flexibility Score: inf
ROOT
ATOM      1  C   UNL     1       3.207  -3.980   6.980  1.00  0.00     0.188 C 
ENDROOT
BRANCH   1   2
ATOM      2  O   UNL     1       4.607  -3.710   6.925  1.00  0.00    -0.376 OA
BRANCH   2   3
ATOM      3  C   UNL     1       5.023  -2.369   7.059  1.00  0.00     0.202 C 
BRANCH   3   4
ATOM      4  C   UNL     1       5.081  -1.632   5.715  1.00  0.00     0.261 C 
BRANCH   4   5
ATOM      5  O   UNL     1       4.172  -2.110   4.701  1.00  0.00    -0.462 OA
BRANCH   5   6
ATOM      6  C   UNL     1       4.625  -3.115   3.905  1.00  0.00     0.326 C 
ATOM      7  O   UNL     1       5.743  -3.618   3.996  1.00  0.00    -0.250 OA
BRANCH   6   8
ATOM      8  C   UNL     1       3.682  -3.475   2.779  1.00  0.00     0.244 C 
BRANCH   8   9
ATOM      9  N   UNL     1       2.253  -3.454   3.081  1.00  0.00    -0.332 N 
ATOM     10  C   UNL     1       1.258  -2.684   2.485  1.00  0.00     0.107 A 
ATOM     11  C   UNL     1       0.076  -3.229   2.949  1.00  0.00     0.033 A 
ATOM     12  C   UNL     1       0.315  -4.221   3.904  1.00  0.00     0.020 A 
ATOM     13  C   UNL     1       1.666  -4.425   3.874  1.00  0.00     0.087 A 
BRANCH  10  14
ATOM     14  C   UNL     1       1.392  -1.669   1.444  1.00  0.00     0.270 C 
ATOM     15  O   UNL     1       2.366  -1.672   0.688  1.00  0.00    -0.267 OA
BRANCH  14  16
ATOM     16  N   UNL     1       0.355  -0.725   1.246  1.00  0.00    -0.340 N 
ATOM     17  C   UNL     1       0.422   0.037   0.005  1.00  0.00     0.147 C 
BRANCH  16  18
ATOM     18  C   UNL     1      -0.588  -0.223   2.276  1.00  0.00     0.125 C 
BRANCH  18  19
ATOM     19  C   UNL     1      -2.105  -0.356   1.955  1.00  0.00     0.068 C 
BRANCH  19  20
ATOM     20  C   UNL     1      -2.772  -1.529   2.631  1.00  0.00     0.006 A 
ATOM     21  C   UNL     1      -2.905  -1.780   3.987  1.00  0.00     0.015 A 
ATOM     22  S   UNL     1      -3.465  -2.801   1.700  1.00  0.00    -0.149 S 
ATOM     23  C   UNL     1      -3.369  -3.104   4.249  1.00  0.00     0.012 A 
ATOM     24  C   UNL     1      -3.659  -3.788   3.089  1.00  0.00     0.065 A 
ENDBRANCH  19  20
ENDBRANCH  18  19
ENDBRANCH  16  18
ENDBRANCH  14  16
ENDBRANCH  10  14
ENDBRANCH   8   9
ENDBRANCH   6   8
ENDBRANCH   5   6
ENDBRANCH   4   5
ENDBRANCH   3   4
ENDBRANCH   2   3
ENDBRANCH   1   2
BRANCH   1  25
ATOM     25  C   UNL     1       2.146  -2.867   6.774  1.00  0.00     0.188 C 
BRANCH  25  26
ATOM     26  O   UNL     1       2.311  -1.713   7.600  1.00  0.00    -0.377 OA
BRANCH  26  27
ATOM     27  C   UNL     1       1.380  -1.611   8.676  1.00  0.00     0.188 C 
BRANCH  27  28
ATOM     28  C   UNL     1       1.606  -2.681   9.749  1.00  0.00     0.188 C 
BRANCH  28  29
ATOM     29  O   UNL     1       1.453  -3.998   9.228  1.00  0.00    -0.376 OA
BRANCH  29  30
ATOM     30  C   UNL     1       0.283  -4.737   9.523  1.00  0.00     0.202 C 
BRANCH  30  31
ATOM     31  C   UNL     1      -0.965  -4.305   8.748  1.00  0.00     0.261 C 
BRANCH  31  32
ATOM     32  O   UNL     1      -1.425  -2.974   8.983  1.00  0.00    -0.460 OA
BRANCH  32  33
ATOM     33  C   UNL     1      -1.602  -2.653  10.271  1.00  0.00     0.338 C 
ATOM     34  O   UNL     1      -1.242  -3.269  11.271  1.00  0.00    -0.246 OA
BRANCH  33  35
ATOM     35  C   UNL     1      -2.412  -1.464  10.393  1.00  0.00     0.060 A 
ATOM     36  C   UNL     1      -2.087  -0.582  11.426  1.00  0.00     0.016 A 
ATOM     37  C   UNL     1      -3.657  -1.480   9.757  1.00  0.00     0.016 A 
ATOM     38  C   UNL     1      -3.083   0.222  11.925  1.00  0.00     0.010 A 
ATOM     39  C   UNL     1      -4.664  -0.708  10.289  1.00  0.00     0.010 A 
ATOM     40  C   UNL     1      -4.374   0.107  11.390  1.00  0.00    -0.014 A 
BRANCH  40  41
ATOM     41  C   UNL     1      -5.412   0.976  11.945  1.00  0.00     0.031 A 
ATOM     42  C   UNL     1      -5.430   2.316  11.215  1.00  0.00     0.074 A 
ATOM     43  C   UNL     1      -6.082   0.487  13.034  1.00  0.00     0.049 A 
ATOM     44  N   UNL     1      -5.805   3.471  11.655  1.00  0.00    -0.248 NA
ATOM     45  C   UNL     1      -4.867   2.425   9.836  1.00  0.00     0.031 C 
ATOM     46  C   UNL     1      -5.908  -0.876  13.598  1.00  0.00     0.029 A 
ATOM     47  N   UNL     1      -7.020   1.014  13.894  1.00  0.00    -0.354 N 
ATOM     48  C   UNL     1      -5.696   4.388  10.592  1.00  0.00     0.074 A 
ATOM     49  C   UNL     1      -5.025   3.712   9.527  1.00  0.00     0.031 C 
ATOM     50  C   UNL     1      -6.635  -1.030  14.727  1.00  0.00     0.029 A 
ATOM     51  C   UNL     1      -7.372   0.189  14.995  1.00  0.00     0.049 A 
ATOM     52  H   UNL     1      -7.420   1.903  13.754  1.00  0.00     0.167 HD
ATOM     53  C   UNL     1      -6.276   5.618  10.623  1.00  0.00     0.031 A 
ATOM     54  C   UNL     1      -8.166   0.486  16.070  1.00  0.00     0.031 A 
ATOM     55  C   UNL     1      -6.891   5.830  11.889  1.00  0.00     0.049 A 
ATOM     56  C   UNL     1      -8.739   1.811  15.787  1.00  0.00     0.074 A 
ATOM     57  C   UNL     1      -6.372   6.056  13.137  1.00  0.00     0.029 A 
ATOM     58  N   UNL     1      -8.199   5.422  12.002  1.00  0.00    -0.354 N 
ATOM     59  N   UNL     1      -9.667   2.057  14.913  1.00  0.00    -0.248 NA
ATOM     60  C   UNL     1      -8.188   2.979  16.490  1.00  0.00     0.031 C 
ATOM     61  C   UNL     1      -7.231   5.327  13.982  1.00  0.00     0.029 A 
ATOM     62  C   UNL     1      -8.333   4.868  13.250  1.00  0.00     0.049 A 
ATOM     63  H   UNL     1      -8.903   5.511  11.320  1.00  0.00     0.167 HD
ATOM     64  C   UNL     1      -9.521   3.406  14.707  1.00  0.00     0.074 A 
ATOM     65  C   UNL     1      -8.892   3.939  15.896  1.00  0.00     0.031 C 
ATOM     66  C   UNL     1      -9.362   3.873  13.442  1.00  0.00     0.031 A 
BRANCH  53  67
ATOM     67  C   UNL     1      -6.571   6.605   9.536  1.00  0.00    -0.014 A 
ATOM     68  C   UNL     1      -6.964   7.902   9.951  1.00  0.00     0.010 A 
ATOM     69  C   UNL     1      -6.819   6.239   8.206  1.00  0.00     0.010 A 
ATOM     70  C   UNL     1      -7.716   8.735   9.129  1.00  0.00     0.020 A 
ATOM     71  C   UNL     1      -7.540   7.094   7.356  1.00  0.00     0.020 A 
ATOM     72  C   UNL     1      -8.033   8.307   7.845  1.00  0.00     0.054 A 
BRANCH  72  73
ATOM     73  S   UNL     1      -9.165   9.325   6.864  1.00  0.00     0.124 S 
ATOM     74  O   UNL     1     -10.444   9.084   7.526  1.00  0.00    -0.237 OA
ATOM     75  O   UNL     1      -8.614  10.668   7.037  1.00  0.00    -0.237 OA
ATOM     76  O   UNL     1      -9.037   8.777   5.516  1.00  0.00    -0.744 OA
ENDBRANCH  72  73
ENDBRANCH  53  67
BRANCH  54  77
ATOM     77  C   UNL     1      -8.499  -0.090  17.430  1.00  0.00    -0.014 A 
ATOM     78  C   UNL     1      -8.152  -1.356  17.917  1.00  0.00     0.010 A 
ATOM     79  C   UNL     1      -9.149   0.764  18.367  1.00  0.00     0.010 A 
ATOM     80  C   UNL     1      -8.312  -1.680  19.290  1.00  0.00     0.020 A 
ATOM     81  C   UNL     1      -9.266   0.482  19.728  1.00  0.00     0.020 A 
ATOM     82  C   UNL     1      -8.819  -0.738  20.194  1.00  0.00     0.054 A 
BRANCH  82  83
ATOM     83  S   UNL     1      -8.778  -1.019  21.987  1.00  0.00     0.124 S 
ATOM     84  O   UNL     1     -10.039  -1.712  22.226  1.00  0.00    -0.237 OA
ATOM     85  O   UNL     1      -7.570  -1.823  22.163  1.00  0.00    -0.237 OA
ATOM     86  O   UNL     1      -8.693   0.333  22.538  1.00  0.00    -0.744 OA
ENDBRANCH  82  83
ENDBRANCH  54  77
BRANCH  66  87
ATOM     87  C   UNL     1      -9.978   3.020  12.345  1.00  0.00    -0.014 A 
ATOM     88  C   UNL     1     -11.373   2.842  12.315  1.00  0.00     0.010 A 
ATOM     89  C   UNL     1      -9.216   2.322  11.386  1.00  0.00     0.010 A 
ATOM     90  C   UNL     1     -11.985   2.007  11.368  1.00  0.00     0.020 A 
ATOM     91  C   UNL     1      -9.819   1.478  10.434  1.00  0.00     0.020 A 
ATOM     92  C   UNL     1     -11.205   1.330  10.429  1.00  0.00     0.054 A 
BRANCH  92  93
ATOM     93  S   UNL     1     -12.034   0.254   9.219  1.00  0.00     0.124 S 
ATOM     94  O   UNL     1     -12.765  -0.685  10.067  1.00  0.00    -0.237 OA
ATOM     95  O   UNL     1     -12.864   1.198   8.475  1.00  0.00    -0.237 OA
ATOM     96  O   UNL     1     -10.932  -0.335   8.459  1.00  0.00    -0.744 OA
ENDBRANCH  92  93
ENDBRANCH  66  87
ENDBRANCH  40  41
ENDBRANCH  33  35
ENDBRANCH  32  33
ENDBRANCH  31  32
ENDBRANCH  30  31
ENDBRANCH  29  30
ENDBRANCH  28  29
ENDBRANCH  27  28
ENDBRANCH  26  27
ENDBRANCH  25  26
ENDBRANCH   1  25
TORSDOF 29
