REMARK SMILES CC[C@](C)(NC(=O)CNC(=O)c1cccc(Cl)c1)C(=O)OCCOCCOCCOCCOC(=O)c1ccc(-c2c3nc(c(-c4ccc(S(=O)(=O)[O-])cc4)c4ccc([nH]4)c(-c4ccc(S(=O)(=O)[O-])cc4)c4nc(c(-c5ccc(S(=O)(=O)[O-])cc5)c5ccc2[nH]5)C=C4)C=C3)cc1
REMARK SMILES IDX 26 1 25 2 24 3 23 4 22 5 21 6 19 7 20 8 3 9 4 10 2 11 1 12
REMARK SMILES IDX 5 13 6 14 7 16 8 17 9 18 10 19 11 21 12 22 13 23 18 24 14 25
REMARK SMILES IDX 16 26 15 27 17 28 27 29 28 30 29 31 30 32 31 33 32 34 33 35
REMARK SMILES IDX 34 36 35 37 36 38 37 39 95 40 38 41 94 42 39 43 40 44 41 45
REMARK SMILES IDX 88 46 42 47 93 48 87 49 89 50 43 51 92 52 86 53 85 54 44 56
REMARK SMILES IDX 74 57 55 58 73 59 56 60 59 61 72 62 90 63 57 64 58 65 71 67
REMARK SMILES IDX 91 68 60 69 45 70 46 71 54 72 47 73 53 74 48 75 49 76 50 77
REMARK SMILES IDX 51 78 52 79 75 80 76 81 84 82 77 83 83 84 78 85 79 86 80 87
REMARK SMILES IDX 81 88 82 89 61 90 62 91 70 92 63 93 69 94 64 95 65 96 66 97
REMARK SMILES IDX 67 98 68 99
REMARK H PARENT 5 15 9 20 89 55 59 66
REMARK Flexibility Score: inf
ROOT
ATOM      1  C   UNL     1       3.906  -2.693   3.454  1.00  0.00     0.188 C 
ENDROOT
BRANCH   1   2
ATOM      2  C   UNL     1       4.916  -1.584   3.062  1.00  0.00     0.188 C 
BRANCH   2   3
ATOM      3  O   UNL     1       4.645  -0.390   3.822  1.00  0.00    -0.376 OA
BRANCH   3   4
ATOM      4  C   UNL     1       5.164   0.837   3.334  1.00  0.00     0.202 C 
BRANCH   4   5
ATOM      5  C   UNL     1       4.318   2.138   3.739  1.00  0.00     0.261 C 
BRANCH   5   6
ATOM      6  O   UNL     1       3.039   2.664   2.914  1.00  0.00    -0.462 OA
BRANCH   6   7
ATOM      7  C   UNL     1       1.909   2.994   2.253  1.00  0.00     0.331 C 
ATOM      8  O   UNL     1       1.962   4.043   1.596  1.00  0.00    -0.249 OA
BRANCH   7   9
ATOM      9  C   UNL     1       0.500   2.169   2.175  1.00  0.00     0.135 C 
ATOM     10  C   UNL     1       0.280   1.109   1.044  1.00  0.00     0.047 C 
BRANCH   9  11
ATOM     11  C   UNL     1      -0.646   3.233   1.922  1.00  0.00     0.037 C 
ATOM     12  C   UNL     1      -1.048   3.434   0.450  1.00  0.00     0.007 C 
ENDBRANCH   9  11
BRANCH   9  13
ATOM     13  N   UNL     1       0.173   1.490   3.411  1.00  0.00    -0.339 N 
ATOM     14  C   UNL     1       0.771   0.337   3.779  1.00  0.00     0.240 C 
ATOM     15  H   UNL     1      -0.509   1.882   4.004  1.00  0.00     0.164 HD
ATOM     16  O   UNL     1       0.266  -0.338   4.673  1.00  0.00    -0.273 OA
BRANCH  14  17
ATOM     17  C   UNL     1       2.164   0.075   3.212  1.00  0.00     0.216 C 
BRANCH  17  18
ATOM     18  N   UNL     1       2.701  -0.003   1.757  1.00  0.00    -0.343 N 
ATOM     19  C   UNL     1       3.388   0.536   0.666  1.00  0.00     0.251 C 
ATOM     20  H   UNL     1       2.406  -0.887   1.441  1.00  0.00     0.164 HD
ATOM     21  O   UNL     1       3.560  -0.280  -0.252  1.00  0.00    -0.269 OA
BRANCH  19  22
ATOM     22  C   UNL     1       3.881   1.926   0.325  1.00  0.00     0.041 A 
ATOM     23  C   UNL     1       5.106   2.518   0.704  1.00  0.00     0.014 A 
ATOM     24  C   UNL     1       3.171   2.614  -0.669  1.00  0.00     0.034 A 
ATOM     25  C   UNL     1       5.459   3.829   0.348  1.00  0.00     0.002 A 
ATOM     26  C   UNL     1       3.550   3.904  -1.077  1.00  0.00     0.041 A 
ATOM     27  C   UNL     1       4.662   4.536  -0.533  1.00  0.00     0.020 A 
ATOM     28  Cl  UNL     1       2.627   4.720  -2.281  1.00  0.00    -0.084 Cl
ENDBRANCH  19  22
ENDBRANCH  17  18
ENDBRANCH  14  17
ENDBRANCH   9  13
ENDBRANCH   7   9
ENDBRANCH   6   7
ENDBRANCH   5   6
ENDBRANCH   4   5
ENDBRANCH   3   4
ENDBRANCH   2   3
ENDBRANCH   1   2
BRANCH   1  29
ATOM     29  O   UNL     1       3.351  -2.572   4.764  1.00  0.00    -0.377 OA
BRANCH  29  30
ATOM     30  C   UNL     1       4.261  -2.238   5.811  1.00  0.00     0.188 C 
BRANCH  30  31
ATOM     31  C   UNL     1       5.469  -3.173   5.871  1.00  0.00     0.188 C 
BRANCH  31  32
ATOM     32  O   UNL     1       5.295  -4.475   6.420  1.00  0.00    -0.376 OA
BRANCH  32  33
ATOM     33  C   UNL     1       3.973  -4.978   6.533  1.00  0.00     0.202 C 
BRANCH  33  34
ATOM     34  C   UNL     1       3.312  -4.724   7.902  1.00  0.00     0.261 C 
BRANCH  34  35
ATOM     35  O   UNL     1       3.587  -3.438   8.487  1.00  0.00    -0.460 OA
BRANCH  35  36
ATOM     36  C   UNL     1       4.817  -3.307   9.040  1.00  0.00     0.338 C 
ATOM     37  O   UNL     1       5.629  -4.196   9.234  1.00  0.00    -0.246 OA
BRANCH  36  38
ATOM     38  C   UNL     1       5.129  -1.876   9.283  1.00  0.00     0.060 A 
ATOM     39  C   UNL     1       6.416  -1.423   8.959  1.00  0.00     0.016 A 
ATOM     40  C   UNL     1       4.240  -1.035   9.958  1.00  0.00     0.016 A 
ATOM     41  C   UNL     1       6.862  -0.183   9.415  1.00  0.00     0.010 A 
ATOM     42  C   UNL     1       4.697   0.197  10.448  1.00  0.00     0.010 A 
ATOM     43  C   UNL     1       6.038   0.578  10.253  1.00  0.00    -0.014 A 
BRANCH  43  44
ATOM     44  C   UNL     1       6.707   1.485  11.225  1.00  0.00     0.031 A 
ATOM     45  C   UNL     1       7.153   0.875  12.536  1.00  0.00     0.074 A 
ATOM     46  C   UNL     1       7.002   2.767  10.947  1.00  0.00     0.049 A 
ATOM     47  N   UNL     1       7.823   1.412  13.522  1.00  0.00    -0.248 NA
ATOM     48  C   UNL     1       6.800  -0.540  12.756  1.00  0.00     0.031 C 
ATOM     49  C   UNL     1       6.683   3.466   9.705  1.00  0.00     0.029 A 
ATOM     50  N   UNL     1       7.658   3.706  11.705  1.00  0.00    -0.354 N 
ATOM     51  C   UNL     1       7.968   0.404  14.471  1.00  0.00     0.074 A 
ATOM     52  C   UNL     1       7.294  -0.766  13.961  1.00  0.00     0.031 C 
ATOM     53  C   UNL     1       7.148   4.727   9.785  1.00  0.00     0.029 A 
ATOM     54  C   UNL     1       7.783   4.928  11.088  1.00  0.00     0.049 A 
ATOM     55  H   UNL     1       8.006   3.521  12.607  1.00  0.00     0.167 HD
ATOM     56  C   UNL     1       8.611   0.436  15.661  1.00  0.00     0.031 A 
ATOM     57  C   UNL     1       8.346   6.072  11.527  1.00  0.00     0.031 A 
ATOM     58  C   UNL     1       9.271   1.597  16.188  1.00  0.00     0.049 A 
ATOM     59  C   UNL     1       9.003   6.107  12.885  1.00  0.00     0.074 A 
ATOM     60  C   UNL     1       9.947   1.734  17.387  1.00  0.00     0.029 A 
ATOM     61  N   UNL     1       9.332   2.823  15.547  1.00  0.00    -0.354 N 
ATOM     62  N   UNL     1       9.147   5.139  13.760  1.00  0.00    -0.248 NA
ATOM     63  C   UNL     1       9.589   7.388  13.306  1.00  0.00     0.031 C 
ATOM     64  C   UNL     1      10.380   3.060  17.491  1.00  0.00     0.029 A 
ATOM     65  C   UNL     1      10.019   3.730  16.332  1.00  0.00     0.049 A 
ATOM     66  H   UNL     1       8.943   3.020  14.664  1.00  0.00     0.167 HD
ATOM     67  C   UNL     1       9.871   5.686  14.816  1.00  0.00     0.074 A 
ATOM     68  C   UNL     1      10.140   7.065  14.469  1.00  0.00     0.031 C 
ATOM     69  C   UNL     1      10.284   5.098  15.967  1.00  0.00     0.031 A 
BRANCH  56  70
ATOM     70  C   UNL     1       8.586  -0.820  16.488  1.00  0.00    -0.014 A 
ATOM     71  C   UNL     1       9.350  -1.946  16.128  1.00  0.00     0.010 A 
ATOM     72  C   UNL     1       7.782  -0.876  17.640  1.00  0.00     0.010 A 
ATOM     73  C   UNL     1       9.277  -3.119  16.884  1.00  0.00     0.020 A 
ATOM     74  C   UNL     1       7.726  -2.038  18.412  1.00  0.00     0.020 A 
ATOM     75  C   UNL     1       8.460  -3.159  18.018  1.00  0.00     0.054 A 
BRANCH  75  76
ATOM     76  S   UNL     1       8.391  -4.688  18.992  1.00  0.00     0.124 S 
ATOM     77  O   UNL     1       7.553  -5.541  18.154  1.00  0.00    -0.237 OA
ATOM     78  O   UNL     1       9.796  -5.079  19.079  1.00  0.00    -0.237 OA
ATOM     79  O   UNL     1       7.787  -4.267  20.254  1.00  0.00    -0.744 OA
ENDBRANCH  75  76
ENDBRANCH  56  70
BRANCH  57  80
ATOM     80  C   UNL     1       8.321   7.292  10.673  1.00  0.00    -0.014 A 
ATOM     81  C   UNL     1       9.502   7.786  10.089  1.00  0.00     0.010 A 
ATOM     82  C   UNL     1       7.113   7.980  10.457  1.00  0.00     0.010 A 
ATOM     83  C   UNL     1       9.477   8.952   9.318  1.00  0.00     0.020 A 
ATOM     84  C   UNL     1       7.080   9.132   9.666  1.00  0.00     0.020 A 
ATOM     85  C   UNL     1       8.265   9.617   9.110  1.00  0.00     0.054 A 
BRANCH  85  86
ATOM     86  S   UNL     1       8.245  11.097   8.059  1.00  0.00     0.124 S 
ATOM     87  O   UNL     1       8.827  12.104   8.941  1.00  0.00    -0.237 OA
ATOM     88  O   UNL     1       9.073  10.691   6.926  1.00  0.00    -0.237 OA
ATOM     89  O   UNL     1       6.828  11.275   7.751  1.00  0.00    -0.744 OA
ENDBRANCH  85  86
ENDBRANCH  57  80
BRANCH  69  90
ATOM     90  C   UNL     1      11.114   5.923  16.913  1.00  0.00    -0.014 A 
ATOM     91  C   UNL     1      10.544   6.949  17.687  1.00  0.00     0.010 A 
ATOM     92  C   UNL     1      12.482   5.629  17.065  1.00  0.00     0.010 A 
ATOM     93  C   UNL     1      11.337   7.694  18.565  1.00  0.00     0.020 A 
ATOM     94  C   UNL     1      13.272   6.354  17.960  1.00  0.00     0.020 A 
ATOM     95  C   UNL     1      12.697   7.395  18.691  1.00  0.00     0.054 A 
BRANCH  95  96
ATOM     96  S   UNL     1      13.704   8.359  19.852  1.00  0.00     0.124 S 
ATOM     97  O   UNL     1      13.915   9.600  19.113  1.00  0.00    -0.237 OA
ATOM     98  O   UNL     1      12.836   8.464  21.023  1.00  0.00    -0.237 OA
ATOM     99  O   UNL     1      14.896   7.535  20.041  1.00  0.00    -0.744 OA
ENDBRANCH  95  96
ENDBRANCH  69  90
ENDBRANCH  43  44
ENDBRANCH  36  38
ENDBRANCH  35  36
ENDBRANCH  34  35
ENDBRANCH  33  34
ENDBRANCH  32  33
ENDBRANCH  31  32
ENDBRANCH  30  31
ENDBRANCH  29  30
ENDBRANCH   1  29
TORSDOF 28
