REMARK SMILES CC(C)Cc1ccc([C@H](CF)C(=O)OCCOCCOCCOCCOC(=O)c2ccc(-c3c4nc(c(-c5ccc(S(=O)(=O)[O-])cc5)c5ccc([nH]5)c(-c5ccc(S(=O)(=O)[O-])cc5)c5nc(c(-c6ccc(S(=O)(=O)[O-])cc6)c6ccc3[nH]6)C=C5)C=C4)cc2)cc1
REMARK SMILES IDX 20 1 19 2 18 3 17 4 16 5 15 6 14 7 12 8 13 9 9 10 8 11 5 12
REMARK SMILES IDX 6 13 90 14 7 15 89 16 4 17 2 18 1 19 3 20 10 21 11 22 21 23
REMARK SMILES IDX 22 24 23 25 24 26 25 27 26 28 27 29 28 30 29 31 30 32 88 33
REMARK SMILES IDX 31 34 87 35 32 36 33 37 34 38 81 39 35 40 86 41 80 42 82 43
REMARK SMILES IDX 36 44 85 45 79 46 78 47 37 49 67 50 48 51 66 52 49 53 52 54
REMARK SMILES IDX 65 55 83 56 50 57 51 58 64 60 84 61 53 62 38 63 39 64 47 65
REMARK SMILES IDX 40 66 46 67 41 68 42 69 43 70 44 71 45 72 68 73 69 74 77 75
REMARK SMILES IDX 70 76 76 77 71 78 72 79 73 80 74 81 75 82 54 83 55 84 63 85
REMARK SMILES IDX 56 86 62 87 57 88 58 89 59 90 60 91 61 92
REMARK H PARENT 82 48 52 59
REMARK Flexibility Score: inf
ROOT
ATOM      1  O   UNL     1      -0.284   2.782  -4.226  1.00  0.00    -0.377 OA
ENDROOT
BRANCH   1   2
ATOM      2  C   UNL     1      -1.413   2.750  -5.073  1.00  0.00     0.188 C 
BRANCH   2   3
ATOM      3  C   UNL     1      -1.561   3.903  -6.079  1.00  0.00     0.188 C 
BRANCH   3   4
ATOM      4  O   UNL     1      -0.445   4.666  -6.483  1.00  0.00    -0.376 OA
BRANCH   4   5
ATOM      5  C   UNL     1       0.330   5.489  -5.627  1.00  0.00     0.202 C 
BRANCH   5   6
ATOM      6  C   UNL     1      -0.089   6.038  -4.257  1.00  0.00     0.261 C 
BRANCH   6   7
ATOM      7  O   UNL     1      -0.749   5.143  -3.366  1.00  0.00    -0.463 OA
BRANCH   7   8
ATOM      8  C   UNL     1      -2.097   5.267  -3.338  1.00  0.00     0.316 C 
ATOM      9  O   UNL     1      -2.736   6.026  -4.064  1.00  0.00    -0.251 OA
BRANCH   8  10
ATOM     10  C   UNL     1      -2.756   4.476  -2.227  1.00  0.00     0.160 C 
BRANCH  10  11
ATOM     11  C   UNL     1      -3.134   5.444  -1.135  1.00  0.00    -0.031 A 
ATOM     12  C   UNL     1      -3.807   7.142   0.974  1.00  0.00    -0.048 A 
ATOM     13  C   UNL     1      -4.714   6.178   0.517  1.00  0.00     0.004 A 
ATOM     14  C   UNL     1      -2.583   7.295   0.313  1.00  0.00     0.004 A 
ATOM     15  C   UNL     1      -4.376   5.320  -0.518  1.00  0.00     0.005 A 
ATOM     16  C   UNL     1      -2.244   6.447  -0.725  1.00  0.00     0.005 A 
BRANCH  12  17
ATOM     17  C   UNL     1      -4.039   8.012   2.180  1.00  0.00     0.038 C 
BRANCH  17  18
ATOM     18  C   UNL     1      -5.375   7.847   2.919  1.00  0.00    -0.013 C 
ATOM     19  C   UNL     1      -5.452   6.530   3.703  1.00  0.00     0.008 C 
ATOM     20  C   UNL     1      -5.553   9.019   3.882  1.00  0.00     0.008 C 
ENDBRANCH  17  18
ENDBRANCH  12  17
ENDBRANCH  10  11
BRANCH  10  21
ATOM     21  C   UNL     1      -1.998   3.298  -1.628  1.00  0.00     0.234 C 
ATOM     22  F   UNL     1      -2.813   2.660  -0.730  1.00  0.00    -0.250 F 
ENDBRANCH  10  21
ENDBRANCH   8  10
ENDBRANCH   7   8
ENDBRANCH   6   7
ENDBRANCH   5   6
ENDBRANCH   4   5
ENDBRANCH   3   4
ENDBRANCH   2   3
ENDBRANCH   1   2
BRANCH   1  23
ATOM     23  C   UNL     1       0.993   2.407  -4.729  1.00  0.00     0.188 C 
BRANCH  23  24
ATOM     24  C   UNL     1       1.189   2.127  -6.231  1.00  0.00     0.188 C 
BRANCH  24  25
ATOM     25  O   UNL     1       0.086   1.503  -6.865  1.00  0.00    -0.376 OA
BRANCH  25  26
ATOM     26  C   UNL     1       0.070   0.089  -6.978  1.00  0.00     0.202 C 
BRANCH  26  27
ATOM     27  C   UNL     1       0.163  -0.747  -5.691  1.00  0.00     0.261 C 
BRANCH  27  28
ATOM     28  O   UNL     1       1.343  -0.573  -4.891  1.00  0.00    -0.460 OA
BRANCH  28  29
ATOM     29  C   UNL     1       2.544  -0.744  -5.479  1.00  0.00     0.338 C 
ATOM     30  O   UNL     1       2.758  -1.097  -6.628  1.00  0.00    -0.246 OA
BRANCH  29  31
ATOM     31  C   UNL     1       3.575  -0.231  -4.555  1.00  0.00     0.060 A 
ATOM     32  C   UNL     1       4.391   0.833  -4.962  1.00  0.00     0.016 A 
ATOM     33  C   UNL     1       3.742  -0.811  -3.295  1.00  0.00     0.016 A 
ATOM     34  C   UNL     1       5.409   1.291  -4.127  1.00  0.00     0.010 A 
ATOM     35  C   UNL     1       4.778  -0.367  -2.470  1.00  0.00     0.010 A 
ATOM     36  C   UNL     1       5.641   0.658  -2.899  1.00  0.00    -0.014 A 
BRANCH  36  37
ATOM     37  C   UNL     1       6.908   0.910  -2.171  1.00  0.00     0.031 A 
ATOM     38  C   UNL     1       8.034  -0.075  -2.350  1.00  0.00     0.074 A 
ATOM     39  C   UNL     1       7.073   1.998  -1.398  1.00  0.00     0.049 A 
ATOM     40  N   UNL     1       9.207  -0.109  -1.774  1.00  0.00    -0.248 NA
ATOM     41  C   UNL     1       7.804  -1.169  -3.311  1.00  0.00     0.031 C 
ATOM     42  C   UNL     1       6.085   3.057  -1.198  1.00  0.00     0.029 A 
ATOM     43  N   UNL     1       8.143   2.388  -0.631  1.00  0.00    -0.354 N 
ATOM     44  C   UNL     1       9.853  -1.221  -2.302  1.00  0.00     0.074 A 
ATOM     45  C   UNL     1       8.929  -1.860  -3.212  1.00  0.00     0.031 C 
ATOM     46  C   UNL     1       6.593   3.973  -0.354  1.00  0.00     0.029 A 
ATOM     47  C   UNL     1       7.923   3.546   0.077  1.00  0.00     0.049 A 
ATOM     48  H   UNL     1       8.989   1.886  -0.592  1.00  0.00     0.167 HD
ATOM     49  C   UNL     1      11.109  -1.665  -2.061  1.00  0.00     0.031 A 
ATOM     50  C   UNL     1       8.697   4.171   0.987  1.00  0.00     0.031 A 
ATOM     51  C   UNL     1      12.018  -1.041  -1.139  1.00  0.00     0.049 A 
ATOM     52  C   UNL     1      10.048   3.587   1.328  1.00  0.00     0.074 A 
ATOM     53  C   UNL     1      13.305  -1.425  -0.806  1.00  0.00     0.029 A 
ATOM     54  N   UNL     1      11.738   0.101  -0.404  1.00  0.00    -0.354 N 
ATOM     55  N   UNL     1      10.646   2.534   0.821  1.00  0.00    -0.248 NA
ATOM     56  C   UNL     1      10.831   4.283   2.359  1.00  0.00     0.031 C 
ATOM     57  C   UNL     1      13.782  -0.548   0.172  1.00  0.00     0.029 A 
ATOM     58  C   UNL     1      12.820   0.424   0.396  1.00  0.00     0.049 A 
ATOM     59  H   UNL     1      10.894   0.606  -0.444  1.00  0.00     0.167 HD
ATOM     60  C   UNL     1      11.890   2.469   1.443  1.00  0.00     0.074 A 
ATOM     61  C   UNL     1      11.964   3.595   2.349  1.00  0.00     0.031 C 
ATOM     62  C   UNL     1      12.884   1.560   1.280  1.00  0.00     0.031 A 
BRANCH  49  63
ATOM     63  C   UNL     1      11.566  -2.898  -2.796  1.00  0.00    -0.014 A 
ATOM     64  C   UNL     1      11.822  -2.863  -4.179  1.00  0.00     0.010 A 
ATOM     65  C   UNL     1      11.793  -4.093  -2.088  1.00  0.00     0.010 A 
ATOM     66  C   UNL     1      12.272  -4.006  -4.845  1.00  0.00     0.020 A 
ATOM     67  C   UNL     1      12.271  -5.230  -2.746  1.00  0.00     0.020 A 
ATOM     68  C   UNL     1      12.497  -5.181  -4.123  1.00  0.00     0.054 A 
BRANCH  68  69
ATOM     69  S   UNL     1      13.124  -6.635  -5.008  1.00  0.00     0.124 S 
ATOM     70  O   UNL     1      11.971  -7.013  -5.822  1.00  0.00    -0.237 OA
ATOM     71  O   UNL     1      14.261  -6.091  -5.746  1.00  0.00    -0.237 OA
ATOM     72  O   UNL     1      13.466  -7.572  -3.941  1.00  0.00    -0.744 OA
ENDBRANCH  68  69
ENDBRANCH  49  63
BRANCH  50  73
ATOM     73  C   UNL     1       8.216   5.403   1.676  1.00  0.00    -0.014 A 
ATOM     74  C   UNL     1       8.879   6.632   1.501  1.00  0.00     0.010 A 
ATOM     75  C   UNL     1       7.123   5.341   2.561  1.00  0.00     0.010 A 
ATOM     76  C   UNL     1       8.486   7.761   2.227  1.00  0.00     0.020 A 
ATOM     77  C   UNL     1       6.704   6.476   3.261  1.00  0.00     0.020 A 
ATOM     78  C   UNL     1       7.403   7.675   3.105  1.00  0.00     0.054 A 
BRANCH  78  79
ATOM     79  S   UNL     1       6.907   9.154   4.032  1.00  0.00     0.124 S 
ATOM     80  O   UNL     1       7.995   9.286   4.996  1.00  0.00    -0.237 OA
ATOM     81  O   UNL     1       6.857  10.175   2.989  1.00  0.00    -0.237 OA
ATOM     82  O   UNL     1       5.611   8.785   4.596  1.00  0.00    -0.744 OA
ENDBRANCH  78  79
ENDBRANCH  50  73
BRANCH  62  83
ATOM     83  C   UNL     1      14.163   1.776   2.049  1.00  0.00    -0.014 A 
ATOM     84  C   UNL     1      14.223   1.602   3.443  1.00  0.00     0.010 A 
ATOM     85  C   UNL     1      15.340   2.103   1.350  1.00  0.00     0.010 A 
ATOM     86  C   UNL     1      15.427   1.787   4.127  1.00  0.00     0.020 A 
ATOM     87  C   UNL     1      16.554   2.255   2.025  1.00  0.00     0.020 A 
ATOM     88  C   UNL     1      16.586   2.110   3.413  1.00  0.00     0.054 A 
BRANCH  88  89
ATOM     89  S   UNL     1      18.145   2.300   4.321  1.00  0.00     0.124 S 
ATOM     90  O   UNL     1      17.931   3.557   5.032  1.00  0.00    -0.237 OA
ATOM     91  O   UNL     1      18.176   1.102   5.155  1.00  0.00    -0.237 OA
ATOM     92  O   UNL     1      19.157   2.346   3.268  1.00  0.00    -0.744 OA
ENDBRANCH  88  89
ENDBRANCH  62  83
ENDBRANCH  36  37
ENDBRANCH  29  31
ENDBRANCH  28  29
ENDBRANCH  27  28
ENDBRANCH  26  27
ENDBRANCH  25  26
ENDBRANCH  24  25
ENDBRANCH  23  24
ENDBRANCH   1  23
TORSDOF 27
