REMARK SMILES Cc1ccccc1C(=O)Nc1cc(C(=O)OCCOCCOCCOCCOC(=O)c2ccc(-c3c4nc(c(-c5ccc(S(=O)(=O)[O-])cc5)c5ccc([nH]5)c(-c5ccc(S(=O)(=O)[O-])cc5)c5nc(c(-c6ccc(S(=O)(=O)[O-])cc6)c6ccc3[nH]6)C=C5)C=C4)cc2)ccc1N1CC[NH+](CC(=O)Nc2ccc(F)cc2)CC1
REMARK SMILES IDX 21 1 20 2 19 3 18 4 17 5 16 6 14 7 15 8 13 9 11 10 12 11
REMARK SMILES IDX 93 12 92 13 91 14 10 15 8 16 9 17 7 19 1 20 2 21 3 22 4 23
REMARK SMILES IDX 6 24 5 25 94 26 95 27 110 28 96 29 109 30 97 31 98 33 99 34
REMARK SMILES IDX 100 35 101 36 102 38 103 39 108 40 104 41 107 42 105 43
REMARK SMILES IDX 106 44 22 45 23 46 24 47 25 48 26 49 27 50 28 51 29 52 30 53
REMARK SMILES IDX 31 54 32 55 90 56 33 57 89 58 34 59 35 60 36 61 83 62 37 63
REMARK SMILES IDX 88 64 82 65 84 66 38 67 87 68 81 69 80 70 39 72 69 73 50 74
REMARK SMILES IDX 68 75 51 76 54 77 67 78 85 79 52 80 53 81 66 83 86 84 55 85
REMARK SMILES IDX 40 86 41 87 49 88 42 89 48 90 43 91 44 92 45 93 46 94 47 95
REMARK SMILES IDX 70 96 71 97 79 98 72 99 78 100 73 101 74 102 75 103 76 104
REMARK SMILES IDX 77 105 56 106 57 107 65 108 58 109 64 110 59 111 60 112
REMARK SMILES IDX 61 113 62 114 63 115
REMARK H PARENT 10 18 97 32 101 37 84 71 54 82
REMARK Flexibility Score: inf
ROOT
ATOM      1  C   UNL     1       5.735  -0.172  -3.054  1.00  0.00     0.188 C 
ENDROOT
BRANCH   1   2
ATOM      2  C   UNL     1       5.613  -1.455  -2.237  1.00  0.00     0.188 C 
BRANCH   2   3
ATOM      3  O   UNL     1       5.954  -2.733  -2.763  1.00  0.00    -0.376 OA
BRANCH   3   4
ATOM      4  C   UNL     1       4.887  -3.682  -2.628  1.00  0.00     0.202 C 
BRANCH   4   5
ATOM      5  C   UNL     1       4.337  -4.029  -1.235  1.00  0.00     0.261 C 
BRANCH   5   6
ATOM      6  O   UNL     1       3.822  -2.899  -0.544  1.00  0.00    -0.460 OA
BRANCH   6   7
ATOM      7  C   UNL     1       4.452  -2.618   0.606  1.00  0.00     0.338 C 
ATOM      8  O   UNL     1       5.065  -3.360   1.331  1.00  0.00    -0.246 OA
BRANCH   7   9
ATOM      9  C   UNL     1       4.574  -1.149   0.623  1.00  0.00     0.062 A 
ATOM     10  C   UNL     1       3.831   1.092   0.162  1.00  0.00     0.065 A 
ATOM     11  C   UNL     1       3.615  -0.271   0.089  1.00  0.00     0.044 A 
ATOM     12  C   UNL     1       5.119   1.581   0.586  1.00  0.00     0.061 A 
ATOM     13  C   UNL     1       6.115   0.642   0.910  1.00  0.00     0.029 A 
ATOM     14  C   UNL     1       5.819  -0.697   1.025  1.00  0.00     0.018 A 
BRANCH  10  15
ATOM     15  N   UNL     1       2.809   2.015  -0.132  1.00  0.00    -0.320 N 
ATOM     16  C   UNL     1       1.459   2.136   0.155  1.00  0.00     0.255 C 
ATOM     17  O   UNL     1       1.018   3.291   0.008  1.00  0.00    -0.269 OA
ATOM     18  H   UNL     1       3.136   2.764  -0.681  1.00  0.00     0.170 HD
BRANCH  16  19
ATOM     19  C   UNL     1       0.463   1.113   0.643  1.00  0.00     0.043 A 
ATOM     20  C   UNL     1       1.822  -0.355   2.301  1.00  0.00     0.045 C 
ATOM     21  C   UNL     1       0.630  -0.016   1.463  1.00  0.00    -0.038 A 
ATOM     22  C   UNL     1      -0.451  -0.913   1.642  1.00  0.00     0.004 A 
ATOM     23  C   UNL     1      -1.734  -0.616   1.208  1.00  0.00     0.000 A 
ATOM     24  C   UNL     1      -0.875   1.420   0.271  1.00  0.00     0.014 A 
ATOM     25  C   UNL     1      -1.960   0.589   0.572  1.00  0.00     0.001 A 
ENDBRANCH  16  19
ENDBRANCH  10  15
BRANCH  12  26
ATOM     26  N   UNL     1       5.367   2.957   0.882  1.00  0.00    -0.359 N 
ATOM     27  C   UNL     1       6.749   3.322   1.338  1.00  0.00     0.178 C 
ATOM     28  C   UNL     1       4.352   3.473   1.805  1.00  0.00     0.178 C 
ATOM     29  C   UNL     1       6.870   4.750   1.933  1.00  0.00     0.284 C 
ATOM     30  C   UNL     1       4.537   4.979   1.999  1.00  0.00     0.284 C 
ATOM     31  N   UNL     1       5.748   5.254   2.741  1.00  0.00    -0.324 N 
ATOM     32  H   UNL     1       5.968   6.243   2.859  1.00  0.00     0.348 HD
BRANCH  31  33
ATOM     33  C   UNL     1       5.617   4.947   4.187  1.00  0.00     0.364 C 
BRANCH  33  34
ATOM     34  C   UNL     1       5.222   3.551   4.709  1.00  0.00     0.279 C 
ATOM     35  O   UNL     1       6.146   2.761   4.979  1.00  0.00    -0.268 OA
ATOM     36  N   UNL     1       3.975   3.084   5.056  1.00  0.00    -0.321 N 
ATOM     37  H   UNL     1       4.093   2.337   5.686  1.00  0.00     0.170 HD
BRANCH  36  38
ATOM     38  C   UNL     1       2.577   3.274   4.850  1.00  0.00     0.041 A 
ATOM     39  C   UNL     1       1.730   2.513   5.679  1.00  0.00     0.029 A 
ATOM     40  C   UNL     1       1.930   3.997   3.852  1.00  0.00     0.029 A 
ATOM     41  C   UNL     1       0.329   2.508   5.527  1.00  0.00     0.041 A 
ATOM     42  C   UNL     1       0.536   3.965   3.653  1.00  0.00     0.041 A 
ATOM     43  C   UNL     1      -0.258   3.235   4.508  1.00  0.00     0.123 A 
ATOM     44  F   UNL     1      -1.587   3.231   4.347  1.00  0.00    -0.207 F 
ENDBRANCH  36  38
ENDBRANCH  33  34
ENDBRANCH  31  33
ENDBRANCH  12  26
ENDBRANCH   7   9
ENDBRANCH   6   7
ENDBRANCH   5   6
ENDBRANCH   4   5
ENDBRANCH   3   4
ENDBRANCH   2   3
ENDBRANCH   1   2
BRANCH   1  45
ATOM     45  O   UNL     1       4.498   0.348  -3.551  1.00  0.00    -0.377 OA
BRANCH  45  46
ATOM     46  C   UNL     1       3.853  -0.412  -4.577  1.00  0.00     0.188 C 
BRANCH  46  47
ATOM     47  C   UNL     1       4.748  -0.708  -5.771  1.00  0.00     0.188 C 
BRANCH  47  48
ATOM     48  O   UNL     1       5.599  -1.809  -5.443  1.00  0.00    -0.376 OA
BRANCH  48  49
ATOM     49  C   UNL     1       6.956  -1.748  -5.862  1.00  0.00     0.202 C 
BRANCH  49  50
ATOM     50  C   UNL     1       7.167  -1.412  -7.337  1.00  0.00     0.261 C 
BRANCH  50  51
ATOM     51  O   UNL     1       6.918  -2.558  -8.179  1.00  0.00    -0.460 OA
BRANCH  51  52
ATOM     52  C   UNL     1       5.710  -2.590  -8.818  1.00  0.00     0.338 C 
ATOM     53  O   UNL     1       5.522  -2.096  -9.915  1.00  0.00    -0.246 OA
BRANCH  52  54
ATOM     54  C   UNL     1       4.710  -3.391  -8.051  1.00  0.00     0.060 A 
ATOM     55  C   UNL     1       3.331  -3.244  -8.255  1.00  0.00     0.016 A 
ATOM     56  C   UNL     1       5.149  -4.151  -6.983  1.00  0.00     0.016 A 
ATOM     57  C   UNL     1       2.405  -3.664  -7.274  1.00  0.00     0.010 A 
ATOM     58  C   UNL     1       4.249  -4.474  -5.989  1.00  0.00     0.010 A 
ATOM     59  C   UNL     1       2.870  -4.207  -6.079  1.00  0.00    -0.014 A 
BRANCH  59  60
ATOM     60  C   UNL     1       2.115  -4.399  -4.806  1.00  0.00     0.031 A 
ATOM     61  C   UNL     1       2.406  -5.654  -3.998  1.00  0.00     0.074 A 
ATOM     62  C   UNL     1       1.589  -3.282  -4.230  1.00  0.00     0.049 A 
ATOM     63  N   UNL     1       2.100  -5.876  -2.764  1.00  0.00    -0.248 NA
ATOM     64  C   UNL     1       3.135  -6.801  -4.562  1.00  0.00     0.031 C 
ATOM     65  C   UNL     1       1.622  -2.908  -2.811  1.00  0.00     0.029 A 
ATOM     66  N   UNL     1       0.996  -2.163  -4.792  1.00  0.00    -0.354 N 
ATOM     67  C   UNL     1       2.842  -6.968  -2.298  1.00  0.00     0.074 A 
ATOM     68  C   UNL     1       3.439  -7.528  -3.480  1.00  0.00     0.031 C 
ATOM     69  C   UNL     1       1.043  -1.715  -2.608  1.00  0.00     0.029 A 
ATOM     70  C   UNL     1       0.329  -1.409  -3.811  1.00  0.00     0.049 A 
ATOM     71  H   UNL     1       1.037  -1.928  -5.747  1.00  0.00     0.167 HD
ATOM     72  C   UNL     1       2.964  -7.193  -0.948  1.00  0.00     0.031 A 
ATOM     73  C   UNL     1      -1.038  -1.363  -3.792  1.00  0.00     0.031 A 
ATOM     74  C   UNL     1       2.043  -6.322  -0.191  1.00  0.00     0.049 A 
ATOM     75  C   UNL     1      -1.649  -2.292  -2.721  1.00  0.00     0.074 A 
ATOM     76  C   UNL     1       2.188  -5.415   0.845  1.00  0.00     0.029 A 
ATOM     77  N   UNL     1       0.733  -6.166  -0.646  1.00  0.00    -0.354 N 
ATOM     78  N   UNL     1      -0.994  -3.286  -2.150  1.00  0.00    -0.248 NA
ATOM     79  C   UNL     1      -2.967  -2.119  -2.110  1.00  0.00     0.031 C 
ATOM     80  C   UNL     1       1.022  -4.597   0.872  1.00  0.00     0.029 A 
ATOM     81  C   UNL     1       0.127  -5.065  -0.080  1.00  0.00     0.049 A 
ATOM     82  H   UNL     1       0.297  -6.767  -1.292  1.00  0.00     0.167 HD
ATOM     83  C   UNL     1      -1.722  -3.833  -1.126  1.00  0.00     0.074 A 
ATOM     84  C   UNL     1      -2.958  -3.068  -1.153  1.00  0.00     0.031 C 
ATOM     85  C   UNL     1      -1.299  -4.840  -0.294  1.00  0.00     0.031 A 
BRANCH  72  86
ATOM     86  C   UNL     1       4.040  -8.051  -0.240  1.00  0.00    -0.014 A 
ATOM     87  C   UNL     1       4.081  -8.079   1.178  1.00  0.00     0.010 A 
ATOM     88  C   UNL     1       5.077  -8.781  -0.864  1.00  0.00     0.010 A 
ATOM     89  C   UNL     1       5.074  -8.752   1.919  1.00  0.00     0.020 A 
ATOM     90  C   UNL     1       6.066  -9.494  -0.132  1.00  0.00     0.020 A 
ATOM     91  C   UNL     1       6.062  -9.469   1.260  1.00  0.00     0.054 A 
BRANCH  91  92
ATOM     92  S   UNL     1       7.289 -10.386   2.244  1.00  0.00     0.124 S 
ATOM     93  O   UNL     1       8.027  -9.318   2.914  1.00  0.00    -0.237 OA
ATOM     94  O   UNL     1       6.451 -11.208   3.114  1.00  0.00    -0.237 OA
ATOM     95  O   UNL     1       8.053 -11.130   1.245  1.00  0.00    -0.744 OA
ENDBRANCH  91  92
ENDBRANCH  72  86
BRANCH  73  96
ATOM     96  C   UNL     1      -1.520  -0.742  -5.082  1.00  0.00    -0.014 A 
ATOM     97  C   UNL     1      -1.145   0.628  -5.193  1.00  0.00     0.010 A 
ATOM     98  C   UNL     1      -1.433  -1.529  -6.252  1.00  0.00     0.010 A 
ATOM     99  C   UNL     1      -0.355   1.068  -6.270  1.00  0.00     0.020 A 
ATOM    100  C   UNL     1      -0.655  -1.080  -7.343  1.00  0.00     0.020 A 
ATOM    101  C   UNL     1      -0.050   0.182  -7.301  1.00  0.00     0.054 A 
BRANCH 101 102
ATOM    102  S   UNL     1       1.369   0.571  -8.387  1.00  0.00     0.124 S 
ATOM    103  O   UNL     1       0.828   1.606  -9.258  1.00  0.00    -0.237 OA
ATOM    104  O   UNL     1       2.388   1.006  -7.433  1.00  0.00    -0.237 OA
ATOM    105  O   UNL     1       1.651  -0.709  -9.028  1.00  0.00    -0.744 OA
ENDBRANCH 101 102
ENDBRANCH  73  96
BRANCH  85 106
ATOM    106  C   UNL     1      -2.224  -5.769   0.477  1.00  0.00    -0.014 A 
ATOM    107  C   UNL     1      -3.597  -5.865   0.226  1.00  0.00     0.010 A 
ATOM    108  C   UNL     1      -1.674  -6.737   1.363  1.00  0.00     0.010 A 
ATOM    109  C   UNL     1      -4.391  -6.814   0.876  1.00  0.00     0.020 A 
ATOM    110  C   UNL     1      -2.445  -7.731   1.969  1.00  0.00     0.020 A 
ATOM    111  C   UNL     1      -3.812  -7.741   1.742  1.00  0.00     0.054 A 
BRANCH 111 112
ATOM    112  S   UNL     1      -4.867  -8.988   2.509  1.00  0.00     0.124 S 
ATOM    113  O   UNL     1      -5.525  -8.213   3.558  1.00  0.00    -0.237 OA
ATOM    114  O   UNL     1      -5.728  -9.401   1.402  1.00  0.00    -0.237 OA
ATOM    115  O   UNL     1      -3.928 -10.004   2.974  1.00  0.00    -0.744 OA
ENDBRANCH 111 112
ENDBRANCH  85 106
ENDBRANCH  59  60
ENDBRANCH  52  54
ENDBRANCH  51  52
ENDBRANCH  50  51
ENDBRANCH  49  50
ENDBRANCH  48  49
ENDBRANCH  47  48
ENDBRANCH  46  47
ENDBRANCH  45  46
ENDBRANCH   1  45
TORSDOF 29
