REMARK SMILES C[C@H](NC(=O)CCN1C(=O)/C(=C/c2ccc([N+](=O)[O-])cc2)SC1=S)C(=O)OCCOCCOCCOCCOC(=O)c1ccc(-c2c3nc(c(-c4ccc(S(=O)(=O)[O-])cc4)c4ccc([nH]4)c(-c4ccc(S(=O)(=O)[O-])cc4)c4nc(c(-c5ccc(S(=O)(=O)[O-])cc5)c5ccc2[nH]5)C=C4)C=C3)cc1
REMARK SMILES IDX 31 1 30 2 29 3 28 4 27 5 25 6 26 7 2 8 1 9 3 10 4 11 5 13
REMARK SMILES IDX 6 14 7 15 8 16 9 17 23 18 10 19 11 20 22 21 24 22 12 23
REMARK SMILES IDX 13 24 14 25 21 26 15 27 20 28 16 29 17 30 18 31 19 32 32 33
REMARK SMILES IDX 33 34 34 35 35 36 36 37 37 38 38 39 39 40 40 41 41 42 42 43
REMARK SMILES IDX 43 44 101 45 44 46 100 47 45 48 46 49 47 50 94 51 48 52
REMARK SMILES IDX 99 53 93 54 95 55 49 56 98 57 92 58 91 59 50 61 80 62 61 63
REMARK SMILES IDX 79 64 62 65 65 66 78 67 96 68 63 69 64 70 77 72 97 73 66 74
REMARK SMILES IDX 51 75 52 76 60 77 53 78 59 79 54 80 55 81 56 82 57 83 58 84
REMARK SMILES IDX 81 85 82 86 90 87 83 88 89 89 84 90 85 91 86 92 87 93 88 94
REMARK SMILES IDX 67 95 68 96 76 97 69 98 75 99 70 100 71 101 72 102 73 103
REMARK SMILES IDX 74 104
REMARK H PARENT 3 12 95 60 65 71
REMARK Flexibility Score: inf
ROOT
ATOM      1  C   UNL     1      -2.165   0.705  -2.124  1.00  0.00     0.188 C 
ENDROOT
BRANCH   1   2
ATOM      2  O   UNL     1      -3.420   0.049  -2.023  1.00  0.00    -0.376 OA
BRANCH   2   3
ATOM      3  C   UNL     1      -3.747  -0.847  -0.970  1.00  0.00     0.202 C 
BRANCH   3   4
ATOM      4  C   UNL     1      -2.816  -1.979  -0.500  1.00  0.00     0.261 C 
BRANCH   4   5
ATOM      5  O   UNL     1      -1.433  -1.649  -0.331  1.00  0.00    -0.462 OA
BRANCH   5   6
ATOM      6  C   UNL     1      -0.603  -1.949  -1.365  1.00  0.00     0.328 C 
ATOM      7  O   UNL     1      -0.943  -2.536  -2.382  1.00  0.00    -0.250 OA
BRANCH   6   8
ATOM      8  C   UNL     1       0.741  -1.213  -1.230  1.00  0.00     0.189 C 
ATOM      9  C   UNL     1       1.840  -1.649  -2.182  1.00  0.00     0.043 C 
BRANCH   8  10
ATOM     10  N   UNL     1       1.061  -0.679   0.103  1.00  0.00    -0.343 N 
ATOM     11  C   UNL     1       1.739  -0.951   1.227  1.00  0.00     0.222 C 
ATOM     12  H   UNL     1       0.617   0.194   0.207  1.00  0.00     0.164 HD
ATOM     13  O   UNL     1       1.565  -0.145   2.150  1.00  0.00    -0.275 OA
BRANCH  11  14
ATOM     14  C   UNL     1       2.726  -2.065   1.410  1.00  0.00     0.122 C 
BRANCH  14  15
ATOM     15  C   UNL     1       2.127  -3.429   1.748  1.00  0.00     0.137 C 
BRANCH  15  16
ATOM     16  N   UNL     1       1.641  -4.207   0.605  1.00  0.00    -0.292 N 
ATOM     17  C   UNL     1       0.366  -4.741   0.669  1.00  0.00     0.266 C 
ATOM     18  C   UNL     1       2.397  -4.646  -0.459  1.00  0.00     0.148 C 
ATOM     19  O   UNL     1      -0.350  -4.785   1.659  1.00  0.00    -0.268 OA
ATOM     20  C   UNL     1      -0.040  -5.258  -0.669  1.00  0.00     0.081 C 
ATOM     21  S   UNL     1       1.333  -5.340  -1.685  1.00  0.00    -0.054 SA
ATOM     22  S   UNL     1       4.053  -4.574  -0.665  1.00  0.00    -0.052 S 
ATOM     23  C   UNL     1      -1.350  -5.399  -0.917  1.00  0.00     0.029 C 
BRANCH  23  24
ATOM     24  C   UNL     1      -2.142  -5.485  -2.166  1.00  0.00    -0.024 A 
ATOM     25  C   UNL     1      -3.531  -5.667  -2.025  1.00  0.00     0.015 A 
ATOM     26  C   UNL     1      -1.653  -5.134  -3.432  1.00  0.00     0.015 A 
ATOM     27  C   UNL     1      -4.409  -5.445  -3.094  1.00  0.00     0.086 A 
ATOM     28  C   UNL     1      -2.520  -4.901  -4.508  1.00  0.00     0.086 A 
ATOM     29  C   UNL     1      -3.898  -5.040  -4.329  1.00  0.00     0.269 A 
BRANCH  29  30
ATOM     30  N   UNL     1      -4.812  -4.721  -5.431  1.00  0.00     0.062 N 
ATOM     31  O   UNL     1      -6.025  -4.901  -5.247  1.00  0.00    -0.258 OA
ATOM     32  O   UNL     1      -4.321  -4.295  -6.487  1.00  0.00    -0.258 OA
ENDBRANCH  29  30
ENDBRANCH  23  24
ENDBRANCH  15  16
ENDBRANCH  14  15
ENDBRANCH  11  14
ENDBRANCH   8  10
ENDBRANCH   6   8
ENDBRANCH   5   6
ENDBRANCH   4   5
ENDBRANCH   3   4
ENDBRANCH   2   3
ENDBRANCH   1   2
BRANCH   1  33
ATOM     33  C   UNL     1      -1.484   1.355  -0.909  1.00  0.00     0.188 C 
BRANCH  33  34
ATOM     34  O   UNL     1      -1.975   0.917   0.335  1.00  0.00    -0.377 OA
BRANCH  34  35
ATOM     35  C   UNL     1      -2.928   1.783   0.952  1.00  0.00     0.188 C 
BRANCH  35  36
ATOM     36  C   UNL     1      -3.884   2.588   0.034  1.00  0.00     0.188 C 
BRANCH  36  37
ATOM     37  O   UNL     1      -3.269   3.263  -1.057  1.00  0.00    -0.376 OA
BRANCH  37  38
ATOM     38  C   UNL     1      -2.815   4.603  -0.912  1.00  0.00     0.202 C 
BRANCH  38  39
ATOM     39  C   UNL     1      -1.793   4.948   0.188  1.00  0.00     0.261 C 
BRANCH  39  40
ATOM     40  O   UNL     1      -2.167   4.624   1.533  1.00  0.00    -0.460 OA
BRANCH  40  41
ATOM     41  C   UNL     1      -3.326   5.131   1.995  1.00  0.00     0.338 C 
ATOM     42  O   UNL     1      -4.065   5.916   1.419  1.00  0.00    -0.246 OA
BRANCH  41  43
ATOM     43  C   UNL     1      -3.679   4.402   3.229  1.00  0.00     0.060 A 
ATOM     44  C   UNL     1      -4.909   3.733   3.284  1.00  0.00     0.016 A 
ATOM     45  C   UNL     1      -2.809   4.382   4.322  1.00  0.00     0.016 A 
ATOM     46  C   UNL     1      -5.298   3.085   4.452  1.00  0.00     0.010 A 
ATOM     47  C   UNL     1      -3.215   3.760   5.505  1.00  0.00     0.010 A 
ATOM     48  C   UNL     1      -4.481   3.152   5.586  1.00  0.00    -0.014 A 
BRANCH  48  49
ATOM     49  C   UNL     1      -5.063   2.818   6.906  1.00  0.00     0.031 A 
ATOM     50  C   UNL     1      -5.606   3.949   7.739  1.00  0.00     0.074 A 
ATOM     51  C   UNL     1      -5.157   1.548   7.333  1.00  0.00     0.049 A 
ATOM     52  N   UNL     1      -6.140   3.919   8.931  1.00  0.00    -0.248 NA
ATOM     53  C   UNL     1      -5.536   5.296   7.144  1.00  0.00     0.031 C 
ATOM     54  C   UNL     1      -4.726   0.367   6.587  1.00  0.00     0.029 A 
ATOM     55  N   UNL     1      -5.649   1.044   8.510  1.00  0.00    -0.354 N 
ATOM     56  C   UNL     1      -6.457   5.239   9.233  1.00  0.00     0.074 A 
ATOM     57  C   UNL     1      -6.030   6.048   8.114  1.00  0.00     0.031 C 
ATOM     58  C   UNL     1      -4.965  -0.727   7.331  1.00  0.00     0.029 A 
ATOM     59  C   UNL     1      -5.530  -0.321   8.617  1.00  0.00     0.049 A 
ATOM     60  H   UNL     1      -6.051   1.606   9.211  1.00  0.00     0.167 HD
ATOM     61  C   UNL     1      -7.053   5.733  10.343  1.00  0.00     0.031 A 
ATOM     62  C   UNL     1      -5.821  -1.141   9.646  1.00  0.00     0.031 A 
ATOM     63  C   UNL     1      -7.460   4.924  11.460  1.00  0.00     0.049 A 
ATOM     64  C   UNL     1      -6.405  -0.557  10.909  1.00  0.00     0.074 A 
ATOM     65  C   UNL     1      -8.079   5.324  12.630  1.00  0.00     0.029 A 
ATOM     66  N   UNL     1      -7.279   3.551  11.550  1.00  0.00    -0.354 N 
ATOM     67  N   UNL     1      -6.715   0.690  11.177  1.00  0.00    -0.248 NA
ATOM     68  C   UNL     1      -6.689  -1.495  12.004  1.00  0.00     0.031 C 
ATOM     69  C   UNL     1      -8.211   4.204  13.456  1.00  0.00     0.029 A 
ATOM     70  C   UNL     1      -7.747   3.093  12.769  1.00  0.00     0.049 A 
ATOM     71  H   UNL     1      -6.878   2.987  10.850  1.00  0.00     0.167 HD
ATOM     72  C   UNL     1      -7.260   0.680  12.457  1.00  0.00     0.074 A 
ATOM     73  C   UNL     1      -7.251  -0.698  12.902  1.00  0.00     0.031 C 
ATOM     74  C   UNL     1      -7.730   1.716  13.197  1.00  0.00     0.031 A 
BRANCH  61  75
ATOM     75  C   UNL     1      -7.257   7.223  10.419  1.00  0.00    -0.014 A 
ATOM     76  C   UNL     1      -8.188   7.881   9.596  1.00  0.00     0.010 A 
ATOM     77  C   UNL     1      -6.524   7.974  11.357  1.00  0.00     0.010 A 
ATOM     78  C   UNL     1      -8.356   9.266   9.684  1.00  0.00     0.020 A 
ATOM     79  C   UNL     1      -6.712   9.354  11.470  1.00  0.00     0.020 A 
ATOM     80  C   UNL     1      -7.617   9.993  10.622  1.00  0.00     0.054 A 
BRANCH  80  81
ATOM     81  S   UNL     1      -7.878  11.784  10.735  1.00  0.00     0.124 S 
ATOM     82  O   UNL     1      -7.276  12.256   9.490  1.00  0.00    -0.237 OA
ATOM     83  O   UNL     1      -9.332  11.890  10.809  1.00  0.00    -0.237 OA
ATOM     84  O   UNL     1      -7.165  12.164  11.952  1.00  0.00    -0.744 OA
ENDBRANCH  80  81
ENDBRANCH  61  75
BRANCH  62  85
ATOM     85  C   UNL     1      -5.544  -2.601   9.538  1.00  0.00    -0.014 A 
ATOM     86  C   UNL     1      -6.594  -3.534   9.510  1.00  0.00     0.010 A 
ATOM     87  C   UNL     1      -4.217  -3.065   9.467  1.00  0.00     0.010 A 
ATOM     88  C   UNL     1      -6.323  -4.904   9.431  1.00  0.00     0.020 A 
ATOM     89  C   UNL     1      -3.943  -4.431   9.356  1.00  0.00     0.020 A 
ATOM     90  C   UNL     1      -4.999  -5.343   9.349  1.00  0.00     0.054 A 
BRANCH  90  91
ATOM     91  S   UNL     1      -4.676  -7.122   9.194  1.00  0.00     0.124 S 
ATOM     92  O   UNL     1      -5.033  -7.614  10.520  1.00  0.00    -0.237 OA
ATOM     93  O   UNL     1      -5.576  -7.510   8.111  1.00  0.00    -0.237 OA
ATOM     94  O   UNL     1      -3.253  -7.185   8.864  1.00  0.00    -0.744 OA
ENDBRANCH  90  91
ENDBRANCH  62  85
BRANCH  74  95
ATOM     95  C   UNL     1      -8.319   1.399  14.548  1.00  0.00    -0.014 A 
ATOM     96  C   UNL     1      -7.515   0.979  15.623  1.00  0.00     0.010 A 
ATOM     97  C   UNL     1      -9.700   1.579  14.758  1.00  0.00     0.010 A 
ATOM     98  C   UNL     1      -8.086   0.708  16.869  1.00  0.00     0.020 A 
ATOM     99  C   UNL     1     -10.269   1.343  16.012  1.00  0.00     0.020 A 
ATOM    100  C   UNL     1      -9.460   0.892  17.056  1.00  0.00     0.054 A 
BRANCH 100 101
ATOM    101  S   UNL     1     -10.170   0.566  18.692  1.00  0.00     0.124 S 
ATOM    102  O   UNL     1     -10.105  -0.891  18.768  1.00  0.00    -0.237 OA
ATOM    103  O   UNL     1      -9.262   1.284  19.583  1.00  0.00    -0.237 OA
ATOM    104  O   UNL     1     -11.518   1.125  18.604  1.00  0.00    -0.744 OA
ENDBRANCH 100 101
ENDBRANCH  74  95
ENDBRANCH  48  49
ENDBRANCH  41  43
ENDBRANCH  40  41
ENDBRANCH  39  40
ENDBRANCH  38  39
ENDBRANCH  37  38
ENDBRANCH  36  37
ENDBRANCH  35  36
ENDBRANCH  34  35
ENDBRANCH  33  34
ENDBRANCH   1  33
TORSDOF 29
