REMARK SMILES O=C(OCCOCCOCCOCCOC(=O)[C@H]1CC(=O)N(CCC2=c3ccccc3=NC2)C1)c1ccc(-c2c3nc(c(-c4ccc(S(=O)(=O)[O-])cc4)c4ccc([nH]4)c(-c4ccc(S(=O)(=O)[O-])cc4)c4nc(c(-c5ccc(S(=O)(=O)[O-])cc5)c5ccc2[nH]5)C=C4)C=C3)cc1
REMARK SMILES IDX 9 1 8 2 7 3 6 4 5 5 4 6 3 7 2 8 1 9 35 10 36 11 94 12 37 13
REMARK SMILES IDX 93 14 38 15 39 16 40 17 87 18 41 19 92 20 86 21 88 22 42 23
REMARK SMILES IDX 91 24 85 25 84 26 43 28 73 29 54 30 72 31 55 32 58 33 71 34
REMARK SMILES IDX 89 35 56 36 57 37 70 39 90 40 59 41 44 42 45 43 53 44 46 45
REMARK SMILES IDX 52 46 47 47 48 48 49 49 50 50 51 51 74 52 75 53 83 54 76 55
REMARK SMILES IDX 82 56 77 57 78 58 79 59 80 60 81 61 60 62 61 63 69 64 62 65
REMARK SMILES IDX 68 66 63 67 64 68 65 69 66 70 67 71 10 72 11 73 12 74 13 75
REMARK SMILES IDX 14 76 15 77 16 78 17 79 18 80 19 81 34 82 20 83 22 84 21 85
REMARK SMILES IDX 23 86 24 87 25 88 26 89 33 90 27 91 31 92 32 93 28 94 30 95
REMARK SMILES IDX 29 96
REMARK H PARENT 88 27 58 38
REMARK Flexibility Score: inf
ROOT
ATOM      1  O   UNL     1       7.230  -2.255   7.056  1.00  0.00    -0.377 OA
ENDROOT
BRANCH   1   2
ATOM      2  C   UNL     1       8.144  -2.565   8.103  1.00  0.00     0.188 C 
BRANCH   2   3
ATOM      3  C   UNL     1       8.587  -1.383   8.968  1.00  0.00     0.188 C 
BRANCH   3   4
ATOM      4  O   UNL     1       7.497  -0.749   9.630  1.00  0.00    -0.376 OA
BRANCH   4   5
ATOM      5  C   UNL     1       7.395   0.672   9.509  1.00  0.00     0.202 C 
BRANCH   5   6
ATOM      6  C   UNL     1       8.532   1.477  10.137  1.00  0.00     0.261 C 
BRANCH   6   7
ATOM      7  O   UNL     1       8.731   1.131  11.510  1.00  0.00    -0.460 OA
BRANCH   7   8
ATOM      8  C   UNL     1       9.408  -0.022  11.746  1.00  0.00     0.338 C 
ATOM      9  O   UNL     1      10.474  -0.352  11.266  1.00  0.00    -0.246 OA
BRANCH   8  10
ATOM     10  C   UNL     1       8.555  -0.855  12.631  1.00  0.00     0.060 A 
ATOM     11  C   UNL     1       9.110  -1.733  13.560  1.00  0.00     0.016 A 
ATOM     12  C   UNL     1       7.163  -0.774  12.489  1.00  0.00     0.016 A 
ATOM     13  C   UNL     1       8.254  -2.475  14.383  1.00  0.00     0.010 A 
ATOM     14  C   UNL     1       6.319  -1.565  13.226  1.00  0.00     0.010 A 
ATOM     15  C   UNL     1       6.862  -2.378  14.215  1.00  0.00    -0.014 A 
BRANCH  15  16
ATOM     16  C   UNL     1       5.889  -2.846  15.210  1.00  0.00     0.031 A 
ATOM     17  C   UNL     1       5.009  -4.016  14.929  1.00  0.00     0.074 A 
ATOM     18  C   UNL     1       5.640  -1.983  16.214  1.00  0.00     0.049 A 
ATOM     19  N   UNL     1       4.068  -4.516  15.680  1.00  0.00    -0.248 NA
ATOM     20  C   UNL     1       5.176  -4.693  13.632  1.00  0.00     0.031 C 
ATOM     21  C   UNL     1       6.355  -0.715  16.412  1.00  0.00     0.029 A 
ATOM     22  N   UNL     1       4.699  -1.991  17.202  1.00  0.00    -0.354 N 
ATOM     23  C   UNL     1       3.543  -5.582  14.964  1.00  0.00     0.074 A 
ATOM     24  C   UNL     1       4.230  -5.624  13.693  1.00  0.00     0.031 C 
ATOM     25  C   UNL     1       5.824  -0.068  17.455  1.00  0.00     0.029 A 
ATOM     26  C   UNL     1       4.737  -0.871  17.998  1.00  0.00     0.049 A 
ATOM     27  H   UNL     1       4.056  -2.726  17.332  1.00  0.00     0.167 HD
ATOM     28  C   UNL     1       2.581  -6.444  15.368  1.00  0.00     0.031 A 
ATOM     29  C   UNL     1       3.990  -0.537  19.066  1.00  0.00     0.031 A 
ATOM     30  C   UNL     1       1.911  -6.308  16.639  1.00  0.00     0.049 A 
ATOM     31  C   UNL     1       2.979  -1.534  19.536  1.00  0.00     0.074 A 
ATOM     32  C   UNL     1       1.028  -7.184  17.240  1.00  0.00     0.029 A 
ATOM     33  N   UNL     1       2.027  -5.210  17.484  1.00  0.00    -0.354 N 
ATOM     34  N   UNL     1       2.646  -2.674  18.976  1.00  0.00    -0.248 NA
ATOM     35  C   UNL     1       2.272  -1.238  20.784  1.00  0.00     0.031 C 
ATOM     36  C   UNL     1       0.540  -6.573  18.398  1.00  0.00     0.029 A 
ATOM     37  C   UNL     1       1.187  -5.357  18.573  1.00  0.00     0.049 A 
ATOM     38  H   UNL     1       2.621  -4.439  17.330  1.00  0.00     0.167 HD
ATOM     39  C   UNL     1       1.693  -3.242  19.805  1.00  0.00     0.074 A 
ATOM     40  C   UNL     1       1.521  -2.326  20.919  1.00  0.00     0.031 C 
ATOM     41  C   UNL     1       1.022  -4.410  19.655  1.00  0.00     0.031 A 
BRANCH  28  42
ATOM     42  C   UNL     1       2.216  -7.610  14.481  1.00  0.00    -0.014 A 
ATOM     43  C   UNL     1       0.887  -7.779  14.046  1.00  0.00     0.010 A 
ATOM     44  C   UNL     1       3.151  -8.622  14.193  1.00  0.00     0.010 A 
ATOM     45  C   UNL     1       0.494  -8.945  13.379  1.00  0.00     0.020 A 
ATOM     46  C   UNL     1       2.771  -9.776  13.498  1.00  0.00     0.020 A 
ATOM     47  C   UNL     1       1.437  -9.942  13.119  1.00  0.00     0.054 A 
BRANCH  47  48
ATOM     48  S   UNL     1       0.900 -11.468  12.297  1.00  0.00     0.124 S 
ATOM     49  O   UNL     1       0.134 -12.133  13.346  1.00  0.00    -0.237 OA
ATOM     50  O   UNL     1       0.122 -10.965  11.167  1.00  0.00    -0.237 OA
ATOM     51  O   UNL     1       2.156 -12.121  11.933  1.00  0.00    -0.744 OA
ENDBRANCH  47  48
ENDBRANCH  28  42
BRANCH  29  52
ATOM     52  C   UNL     1       4.332   0.719  19.785  1.00  0.00    -0.014 A 
ATOM     53  C   UNL     1       4.096   1.973  19.185  1.00  0.00     0.010 A 
ATOM     54  C   UNL     1       5.131   0.653  20.939  1.00  0.00     0.010 A 
ATOM     55  C   UNL     1       4.731   3.120  19.672  1.00  0.00     0.020 A 
ATOM     56  C   UNL     1       5.747   1.803  21.443  1.00  0.00     0.020 A 
ATOM     57  C   UNL     1       5.578   3.020  20.779  1.00  0.00     0.054 A 
BRANCH  57  58
ATOM     58  S   UNL     1       6.525   4.483  21.287  1.00  0.00     0.124 S 
ATOM     59  O   UNL     1       7.482   4.616  20.192  1.00  0.00    -0.237 OA
ATOM     60  O   UNL     1       5.497   5.518  21.354  1.00  0.00    -0.237 OA
ATOM     61  O   UNL     1       7.098   4.093  22.572  1.00  0.00    -0.744 OA
ENDBRANCH  57  58
ENDBRANCH  29  52
BRANCH  41  62
ATOM     62  C   UNL     1      -0.014  -4.755  20.690  1.00  0.00    -0.014 A 
ATOM     63  C   UNL     1       0.163  -5.886  21.508  1.00  0.00     0.010 A 
ATOM     64  C   UNL     1      -1.239  -4.066  20.717  1.00  0.00     0.010 A 
ATOM     65  C   UNL     1      -0.894  -6.368  22.279  1.00  0.00     0.020 A 
ATOM     66  C   UNL     1      -2.286  -4.524  21.516  1.00  0.00     0.020 A 
ATOM     67  C   UNL     1      -2.119  -5.693  22.263  1.00  0.00     0.054 A 
BRANCH  67  68
ATOM     68  S   UNL     1      -3.509  -6.394  23.190  1.00  0.00     0.124 S 
ATOM     69  O   UNL     1      -3.837  -7.579  22.402  1.00  0.00    -0.237 OA
ATOM     70  O   UNL     1      -2.918  -6.652  24.501  1.00  0.00    -0.237 OA
ATOM     71  O   UNL     1      -4.511  -5.330  23.164  1.00  0.00    -0.744 OA
ENDBRANCH  67  68
ENDBRANCH  41  62
ENDBRANCH  15  16
ENDBRANCH   8  10
ENDBRANCH   7   8
ENDBRANCH   6   7
ENDBRANCH   5   6
ENDBRANCH   4   5
ENDBRANCH   3   4
ENDBRANCH   2   3
ENDBRANCH   1   2
BRANCH   1  72
ATOM     72  C   UNL     1       6.075  -1.505   7.412  1.00  0.00     0.188 C 
BRANCH  72  73
ATOM     73  C   UNL     1       5.075  -2.063   8.436  1.00  0.00     0.188 C 
BRANCH  73  74
ATOM     74  O   UNL     1       5.582  -3.171   9.143  1.00  0.00    -0.376 OA
BRANCH  74  75
ATOM     75  C   UNL     1       5.128  -4.452   8.737  1.00  0.00     0.202 C 
BRANCH  75  76
ATOM     76  C   UNL     1       5.125  -4.886   7.250  1.00  0.00     0.261 C 
BRANCH  76  77
ATOM     77  O   UNL     1       5.091  -3.869   6.226  1.00  0.00    -0.463 OA
BRANCH  77  78
ATOM     78  C   UNL     1       3.913  -3.539   5.649  1.00  0.00     0.311 C 
ATOM     79  O   UNL     1       2.832  -4.004   5.988  1.00  0.00    -0.252 OA
BRANCH  78  80
ATOM     80  C   UNL     1       4.026  -2.466   4.564  1.00  0.00     0.128 C 
ATOM     81  C   UNL     1       3.396  -1.152   5.036  1.00  0.00     0.117 C 
ATOM     82  C   UNL     1       5.426  -2.087   4.083  1.00  0.00     0.135 C 
ATOM     83  C   UNL     1       4.302  -0.065   4.515  1.00  0.00     0.223 C 
ATOM     84  N   UNL     1       5.439  -0.640   3.979  1.00  0.00    -0.341 N 
ATOM     85  O   UNL     1       4.064   1.135   4.583  1.00  0.00    -0.275 OA
BRANCH  84  86
ATOM     86  C   UNL     1       6.515   0.128   3.345  1.00  0.00     0.124 C 
BRANCH  86  87
ATOM     87  C   UNL     1       7.681   0.599   4.249  1.00  0.00     0.055 C 
BRANCH  87  88
ATOM     88  C   UNL     1       8.826  -0.343   4.511  1.00  0.00    -0.038 C 
ATOM     89  C   UNL     1       9.921  -0.097   5.236  1.00  0.00     0.001 A 
ATOM     90  C   UNL     1       8.919  -1.718   3.921  1.00  0.00     0.174 C 
ATOM     91  C   UNL     1      10.461   1.031   5.930  1.00  0.00     0.010 A 
ATOM     92  C   UNL     1      10.645  -1.380   5.196  1.00  0.00     0.065 A 
ATOM     93  N   UNL     1      10.168  -2.319   4.441  1.00  0.00    -0.280 NA
ATOM     94  C   UNL     1      11.610   0.881   6.614  1.00  0.00     0.001 A 
ATOM     95  C   UNL     1      11.853  -1.492   6.039  1.00  0.00     0.028 A 
ATOM     96  C   UNL     1      12.276  -0.408   6.708  1.00  0.00     0.002 A 
ENDBRANCH  87  88
ENDBRANCH  86  87
ENDBRANCH  84  86
ENDBRANCH  78  80
ENDBRANCH  77  78
ENDBRANCH  76  77
ENDBRANCH  75  76
ENDBRANCH  74  75
ENDBRANCH  73  74
ENDBRANCH  72  73
ENDBRANCH   1  72
TORSDOF 26
