REMARK SMILES O=C(OCCOCCOCCOCCOC(=O)c1cc(N2CCN(c3ccc(F)cc3)CC2)ccc1NC(=O)C1CCCC1)c1ccc(-c2c3nc(c(-c4ccc(S(=O)(=O)[O-])cc4)c4ccc([nH]4)c(-c4ccc(S(=O)(=O)[O-])cc4)c4nc(c(-c5ccc(S(=O)(=O)[O-])cc5)c5ccc2[nH]5)C=C4)C=C3)cc1
REMARK SMILES IDX 8 1 7 2 6 3 5 4 4 5 3 6 2 7 1 8 45 9 46 10 104 11 47 12
REMARK SMILES IDX 103 13 48 14 49 15 50 16 97 17 51 18 102 19 96 20 98 21
REMARK SMILES IDX 52 22 101 23 95 24 94 25 53 27 83 28 64 29 82 30 65 31 68 32
REMARK SMILES IDX 81 33 99 34 66 35 67 36 80 38 100 39 69 40 54 41 55 42 63 43
REMARK SMILES IDX 56 44 62 45 57 46 58 47 59 48 60 49 61 50 84 51 85 52 93 53
REMARK SMILES IDX 86 54 92 55 87 56 88 57 89 58 90 59 91 60 70 61 71 62 79 63
REMARK SMILES IDX 72 64 78 65 73 66 74 67 75 68 76 69 77 70 9 71 10 72 11 73
REMARK SMILES IDX 12 74 13 75 14 76 15 77 16 78 17 79 18 80 19 81 36 82 20 83
REMARK SMILES IDX 35 84 34 85 37 86 38 87 39 89 40 90 41 91 44 92 42 93 43 94
REMARK SMILES IDX 21 95 22 96 33 97 23 98 32 99 24 100 25 101 26 102 31 103
REMARK SMILES IDX 27 104 30 105 28 106 29 107
REMARK H PARENT 98 26 68 37 37 88
REMARK Flexibility Score: inf
ROOT
ATOM      1  C   UNL     1       1.964   1.440  -2.307  1.00  0.00     0.188 C 
ENDROOT
BRANCH   1   2
ATOM      2  C   UNL     1       2.408   0.236  -1.478  1.00  0.00     0.188 C 
BRANCH   2   3
ATOM      3  O   UNL     1       3.745   0.398  -1.034  1.00  0.00    -0.376 OA
BRANCH   3   4
ATOM      4  C   UNL     1       4.559  -0.726  -0.748  1.00  0.00     0.202 C 
BRANCH   4   5
ATOM      5  C   UNL     1       3.957  -1.866   0.067  1.00  0.00     0.261 C 
BRANCH   5   6
ATOM      6  O   UNL     1       2.590  -1.703   0.488  1.00  0.00    -0.460 OA
BRANCH   6   7
ATOM      7  C   UNL     1       2.041  -0.997   1.503  1.00  0.00     0.338 C 
ATOM      8  O   UNL     1       0.839  -1.123   1.727  1.00  0.00    -0.246 OA
BRANCH   7   9
ATOM      9  C   UNL     1       2.818  -0.085   2.377  1.00  0.00     0.060 A 
ATOM     10  C   UNL     1       3.811   0.780   1.932  1.00  0.00     0.016 A 
ATOM     11  C   UNL     1       2.438  -0.001   3.721  1.00  0.00     0.016 A 
ATOM     12  C   UNL     1       4.576   1.527   2.808  1.00  0.00     0.010 A 
ATOM     13  C   UNL     1       3.125   0.839   4.601  1.00  0.00     0.010 A 
ATOM     14  C   UNL     1       4.254   1.542   4.158  1.00  0.00    -0.014 A 
BRANCH  14  15
ATOM     15  C   UNL     1       5.223   2.130   5.101  1.00  0.00     0.031 A 
ATOM     16  C   UNL     1       5.934   1.189   6.033  1.00  0.00     0.074 A 
ATOM     17  C   UNL     1       5.559   3.431   5.020  1.00  0.00     0.049 A 
ATOM     18  N   UNL     1       6.750   1.453   7.014  1.00  0.00    -0.248 NA
ATOM     19  C   UNL     1       5.687  -0.252   5.832  1.00  0.00     0.031 C 
ATOM     20  C   UNL     1       5.032   4.387   4.040  1.00  0.00     0.029 A 
ATOM     21  N   UNL     1       6.458   4.166   5.744  1.00  0.00    -0.354 N 
ATOM     22  C   UNL     1       7.050   0.223   7.590  1.00  0.00     0.074 A 
ATOM     23  C   UNL     1       6.335  -0.789   6.851  1.00  0.00     0.031 C 
ATOM     24  C   UNL     1       5.658   5.564   4.191  1.00  0.00     0.029 A 
ATOM     25  C   UNL     1       6.553   5.477   5.337  1.00  0.00     0.049 A 
ATOM     26  H   UNL     1       6.986   3.793   6.486  1.00  0.00     0.167 HD
ATOM     27  C   UNL     1       7.846  -0.030   8.653  1.00  0.00     0.031 A 
ATOM     28  C   UNL     1       7.260   6.494   5.864  1.00  0.00     0.031 A 
ATOM     29  C   UNL     1       8.562   1.004   9.345  1.00  0.00     0.049 A 
ATOM     30  C   UNL     1       8.077   6.205   7.095  1.00  0.00     0.074 A 
ATOM     31  C   UNL     1       9.361   0.904  10.467  1.00  0.00     0.029 A 
ATOM     32  N   UNL     1       8.569   2.339   8.959  1.00  0.00    -0.354 N 
ATOM     33  N   UNL     1       8.275   5.056   7.700  1.00  0.00    -0.248 NA
ATOM     34  C   UNL     1       8.748   7.346   7.726  1.00  0.00     0.031 C 
ATOM     35  C   UNL     1       9.810   2.190  10.788  1.00  0.00     0.029 A 
ATOM     36  C   UNL     1       9.344   3.079   9.829  1.00  0.00     0.049 A 
ATOM     37  H   UNL     1       8.091   2.703   8.179  1.00  0.00     0.167 HD
ATOM     38  C   UNL     1       9.110   5.331   8.775  1.00  0.00     0.074 A 
ATOM     39  C   UNL     1       9.394   6.754   8.721  1.00  0.00     0.031 C 
ATOM     40  C   UNL     1       9.598   4.495   9.725  1.00  0.00     0.031 A 
BRANCH  27  41
ATOM     41  C   UNL     1       7.882  -1.445   9.164  1.00  0.00    -0.014 A 
ATOM     42  C   UNL     1       8.503  -2.484   8.448  1.00  0.00     0.010 A 
ATOM     43  C   UNL     1       7.225  -1.747  10.371  1.00  0.00     0.010 A 
ATOM     44  C   UNL     1       8.418  -3.805   8.901  1.00  0.00     0.020 A 
ATOM     45  C   UNL     1       7.163  -3.061  10.843  1.00  0.00     0.020 A 
ATOM     46  C   UNL     1       7.741  -4.085  10.092  1.00  0.00     0.054 A 
BRANCH  46  47
ATOM     47  S   UNL     1       7.631  -5.808  10.652  1.00  0.00     0.124 S 
ATOM     48  O   UNL     1       6.664  -6.368   9.712  1.00  0.00    -0.237 OA
ATOM     49  O   UNL     1       9.003  -6.283  10.498  1.00  0.00    -0.237 OA
ATOM     50  O   UNL     1       7.165  -5.695  12.032  1.00  0.00    -0.744 OA
ENDBRANCH  46  47
ENDBRANCH  27  41
BRANCH  28  51
ATOM     51  C   UNL     1       7.176   7.863   5.279  1.00  0.00    -0.014 A 
ATOM     52  C   UNL     1       8.304   8.477   4.708  1.00  0.00     0.010 A 
ATOM     53  C   UNL     1       5.955   8.567   5.286  1.00  0.00     0.010 A 
ATOM     54  C   UNL     1       8.218   9.768   4.172  1.00  0.00     0.020 A 
ATOM     55  C   UNL     1       5.857   9.843   4.724  1.00  0.00     0.020 A 
ATOM     56  C   UNL     1       6.994  10.442   4.183  1.00  0.00     0.054 A 
BRANCH  56  57
ATOM     57  S   UNL     1       6.896  12.101   3.451  1.00  0.00     0.124 S 
ATOM     58  O   UNL     1       7.606  12.909   4.437  1.00  0.00    -0.237 OA
ATOM     59  O   UNL     1       7.575  11.921   2.170  1.00  0.00    -0.237 OA
ATOM     60  O   UNL     1       5.459  12.348   3.356  1.00  0.00    -0.744 OA
ENDBRANCH  56  57
ENDBRANCH  28  51
BRANCH  40  61
ATOM     61  C   UNL     1      10.524   5.095  10.742  1.00  0.00    -0.014 A 
ATOM     62  C   UNL     1      10.043   5.933  11.763  1.00  0.00     0.010 A 
ATOM     63  C   UNL     1      11.891   4.765  10.700  1.00  0.00     0.010 A 
ATOM     64  C   UNL     1      10.925   6.461  12.706  1.00  0.00     0.020 A 
ATOM     65  C   UNL     1      12.768   5.266  11.660  1.00  0.00     0.020 A 
ATOM     66  C   UNL     1      12.282   6.125  12.648  1.00  0.00     0.054 A 
BRANCH  66  67
ATOM     67  S   UNL     1      13.400   6.790  13.908  1.00  0.00     0.124 S 
ATOM     68  O   UNL     1      13.544   8.179  13.481  1.00  0.00    -0.237 OA
ATOM     69  O   UNL     1      12.649   6.586  15.144  1.00  0.00    -0.237 OA
ATOM     70  O   UNL     1      14.601   5.968  13.773  1.00  0.00    -0.744 OA
ENDBRANCH  66  67
ENDBRANCH  40  61
ENDBRANCH  14  15
ENDBRANCH   7   9
ENDBRANCH   6   7
ENDBRANCH   5   6
ENDBRANCH   4   5
ENDBRANCH   3   4
ENDBRANCH   2   3
ENDBRANCH   1   2
BRANCH   1  71
ATOM     71  O   UNL     1       2.713   1.663  -3.496  1.00  0.00    -0.377 OA
BRANCH  71  72
ATOM     72  C   UNL     1       4.132   1.652  -3.363  1.00  0.00     0.188 C 
BRANCH  72  73
ATOM     73  C   UNL     1       4.810   2.602  -2.341  1.00  0.00     0.188 C 
BRANCH  73  74
ATOM     74  O   UNL     1       3.909   3.421  -1.610  1.00  0.00    -0.376 OA
BRANCH  74  75
ATOM     75  C   UNL     1       3.950   4.809  -1.927  1.00  0.00     0.202 C 
BRANCH  75  76
ATOM     76  C   UNL     1       3.380   5.177  -3.304  1.00  0.00     0.261 C 
BRANCH  76  77
ATOM     77  O   UNL     1       3.955   4.476  -4.426  1.00  0.00    -0.460 OA
BRANCH  77  78
ATOM     78  C   UNL     1       5.249   4.693  -4.759  1.00  0.00     0.340 C 
ATOM     79  O   UNL     1       6.008   5.498  -4.250  1.00  0.00    -0.246 OA
BRANCH  78  80
ATOM     80  C   UNL     1       5.647   3.621  -5.717  1.00  0.00     0.085 A 
ATOM     81  C   UNL     1       6.763   2.829  -5.348  1.00  0.00     0.043 A 
ATOM     82  C   UNL     1       4.872   3.295  -6.851  1.00  0.00     0.055 A 
ATOM     83  C   UNL     1       7.100   1.670  -6.055  1.00  0.00     0.038 A 
ATOM     84  C   UNL     1       5.311   2.210  -7.614  1.00  0.00     0.029 A 
ATOM     85  C   UNL     1       6.381   1.398  -7.211  1.00  0.00     0.028 A 
BRANCH  82  86
ATOM     86  N   UNL     1       3.677   4.019  -7.105  1.00  0.00    -0.325 N 
ATOM     87  C   UNL     1       2.744   4.052  -8.102  1.00  0.00     0.227 C 
ATOM     88  H   UNL     1       3.470   4.655  -6.383  1.00  0.00     0.169 HD
ATOM     89  O   UNL     1       1.758   4.778  -7.948  1.00  0.00    -0.274 OA
BRANCH  87  90
ATOM     90  C   UNL     1       2.926   3.249  -9.363  1.00  0.00     0.079 C 
ATOM     91  C   UNL     1       2.372   1.830  -9.243  1.00  0.00     0.013 C 
ATOM     92  C   UNL     1       2.150   3.742 -10.583  1.00  0.00     0.013 C 
ATOM     93  C   UNL     1       2.494   1.324 -10.672  1.00  0.00     0.001 C 
ATOM     94  C   UNL     1       2.223   2.553 -11.546  1.00  0.00     0.001 C 
ENDBRANCH  87  90
ENDBRANCH  82  86
BRANCH  83  95
ATOM     95  N   UNL     1       8.108   0.837  -5.624  1.00  0.00    -0.368 N 
ATOM     96  C   UNL     1       7.815  -0.387  -4.845  1.00  0.00     0.138 C 
ATOM     97  C   UNL     1       9.396   0.874  -6.330  1.00  0.00     0.138 C 
ATOM     98  C   UNL     1       8.174  -1.707  -5.593  1.00  0.00     0.138 C 
ATOM     99  C   UNL     1       9.646  -0.421  -7.127  1.00  0.00     0.138 C 
ATOM    100  N   UNL     1       9.473  -1.611  -6.281  1.00  0.00    -0.368 N 
BRANCH 100 101
ATOM    101  C   UNL     1      10.554  -2.378  -5.900  1.00  0.00     0.037 A 
ATOM    102  C   UNL     1      10.493  -3.780  -5.961  1.00  0.00     0.029 A 
ATOM    103  C   UNL     1      11.764  -1.800  -5.485  1.00  0.00     0.029 A 
ATOM    104  C   UNL     1      11.609  -4.571  -5.657  1.00  0.00     0.041 A 
ATOM    105  C   UNL     1      12.876  -2.583  -5.160  1.00  0.00     0.041 A 
ATOM    106  C   UNL     1      12.791  -3.962  -5.261  1.00  0.00     0.123 A 
ATOM    107  F   UNL     1      13.864  -4.715  -4.980  1.00  0.00    -0.207 F 
ENDBRANCH 100 101
ENDBRANCH  83  95
ENDBRANCH  78  80
ENDBRANCH  77  78
ENDBRANCH  76  77
ENDBRANCH  75  76
ENDBRANCH  74  75
ENDBRANCH  73  74
ENDBRANCH  72  73
ENDBRANCH  71  72
ENDBRANCH   1  71
TORSDOF 27
