REMARK SMILES CSc1nc(O)nc(C)c1C(=O)N1C[C@@H](O)C[C@@H]1C(=O)OCCOCCOCCOCCOC(=O)c1ccc(-c2c3nc(c(-c4ccc(S(=O)(=O)[O-])cc4)c4ccc([nH]4)c(-c4ccc(S(=O)(=O)[O-])cc4)c4nc(c(-c5ccc(S(=O)(=O)[O-])cc5)c5ccc2[nH]5)C=C4)C=C3)cc1
REMARK SMILES IDX 27 1 26 2 25 3 24 4 23 5 22 6 21 7 19 8 20 9 18 10 13 11
REMARK SMILES IDX 14 12 15 13 17 14 11 15 12 16 10 17 3 18 4 19 5 20 8 21 7 22
REMARK SMILES IDX 9 23 2 24 1 25 6 26 16 28 28 30 29 31 30 32 31 33 32 34
REMARK SMILES IDX 33 35 34 36 35 37 36 38 37 39 95 40 38 41 94 42 39 43 40 44
REMARK SMILES IDX 41 45 88 46 42 47 93 48 87 49 89 50 43 51 92 52 86 53 85 54
REMARK SMILES IDX 44 56 74 57 55 58 73 59 56 60 59 61 72 62 90 63 57 64 58 65
REMARK SMILES IDX 71 67 91 68 60 69 45 70 46 71 54 72 47 73 53 74 48 75 49 76
REMARK SMILES IDX 50 77 51 78 52 79 75 80 76 81 84 82 77 83 83 84 78 85 79 86
REMARK SMILES IDX 80 87 81 88 82 89 61 90 62 91 70 92 63 93 69 94 64 95 65 96
REMARK SMILES IDX 66 97 67 98 68 99
REMARK H PARENT 6 27 16 29 89 55 59 66
REMARK Flexibility Score: inf
ROOT
ATOM      1  O   UNL     1       5.911  -3.335  -2.760  1.00  0.00    -0.377 OA
ENDROOT
BRANCH   1   2
ATOM      2  C   UNL     1       4.967  -2.672  -3.575  1.00  0.00     0.188 C 
BRANCH   2   3
ATOM      3  C   UNL     1       4.656  -1.250  -3.077  1.00  0.00     0.188 C 
BRANCH   3   4
ATOM      4  O   UNL     1       5.501  -0.612  -2.133  1.00  0.00    -0.376 OA
BRANCH   4   5
ATOM      5  C   UNL     1       5.860  -1.222  -0.900  1.00  0.00     0.202 C 
BRANCH   5   6
ATOM      6  C   UNL     1       5.018  -2.273  -0.145  1.00  0.00     0.261 C 
BRANCH   6   7
ATOM      7  O   UNL     1       4.014  -2.956  -0.897  1.00  0.00    -0.462 OA
BRANCH   7   8
ATOM      8  C   UNL     1       2.745  -2.491  -0.792  1.00  0.00     0.329 C 
ATOM      9  O   UNL     1       2.381  -1.634  -0.001  1.00  0.00    -0.250 OA
BRANCH   8  10
ATOM     10  C   UNL     1       1.849  -3.177  -1.828  1.00  0.00     0.198 C 
ATOM     11  N   UNL     1       0.945  -2.238  -2.535  1.00  0.00    -0.322 N 
ATOM     12  C   UNL     1      -0.389  -2.804  -2.506  1.00  0.00     0.152 C 
ATOM     13  C   UNL     1      -0.423  -3.538  -1.169  1.00  0.00     0.136 C 
ATOM     14  C   UNL     1       0.949  -4.202  -1.141  1.00  0.00     0.071 C 
BRANCH  11  15
ATOM     15  C   UNL     1       1.350  -1.515  -3.647  1.00  0.00     0.259 C 
ATOM     16  O   UNL     1       1.955  -2.108  -4.536  1.00  0.00    -0.269 OA
BRANCH  15  17
ATOM     17  C   UNL     1       1.149  -0.012  -3.705  1.00  0.00     0.093 A 
ATOM     18  C   UNL     1       0.567   0.772  -2.692  1.00  0.00     0.116 A 
ATOM     19  N   UNL     1       0.471   2.125  -2.744  1.00  0.00    -0.188 NA
ATOM     20  C   UNL     1       0.960   2.708  -3.819  1.00  0.00     0.315 A 
ATOM     21  C   UNL     1       1.631   0.748  -4.794  1.00  0.00     0.058 A 
ATOM     22  N   UNL     1       1.522   2.108  -4.853  1.00  0.00    -0.200 NA
ATOM     23  C   UNL     1       2.286   0.244  -6.050  1.00  0.00     0.068 C 
BRANCH  18  24
ATOM     24  S   UNL     1      -0.244   0.190  -1.213  1.00  0.00    -0.109 SA
ATOM     25  C   UNL     1       0.875   0.875   0.030  1.00  0.00     0.092 C 
ENDBRANCH  18  24
BRANCH  20  26
ATOM     26  O   UNL     1       0.860   4.057  -3.917  1.00  0.00    -0.479 OA
ATOM     27  H   UNL     1       0.472   4.550  -3.221  1.00  0.00     0.297 HD
ENDBRANCH  20  26
ENDBRANCH  15  17
ENDBRANCH  11  15
BRANCH  13  28
ATOM     28  O   UNL     1      -1.478  -4.473  -1.076  1.00  0.00    -0.391 OA
ATOM     29  H   UNL     1      -1.403  -5.118  -1.797  1.00  0.00     0.211 HD
ENDBRANCH  13  28
ENDBRANCH   8  10
ENDBRANCH   7   8
ENDBRANCH   6   7
ENDBRANCH   5   6
ENDBRANCH   4   5
ENDBRANCH   3   4
ENDBRANCH   2   3
ENDBRANCH   1   2
BRANCH   1  30
ATOM     30  C   UNL     1       7.250  -3.293  -3.228  1.00  0.00     0.188 C 
BRANCH  30  31
ATOM     31  C   UNL     1       7.765  -1.979  -3.859  1.00  0.00     0.188 C 
BRANCH  31  32
ATOM     32  O   UNL     1       6.936  -1.461  -4.896  1.00  0.00    -0.376 OA
BRANCH  32  33
ATOM     33  C   UNL     1       7.324  -1.681  -6.244  1.00  0.00     0.202 C 
BRANCH  33  34
ATOM     34  C   UNL     1       7.228  -3.119  -6.779  1.00  0.00     0.261 C 
BRANCH  34  35
ATOM     35  O   UNL     1       7.960  -4.121  -6.060  1.00  0.00    -0.460 OA
BRANCH  35  36
ATOM     36  C   UNL     1       9.297  -3.972  -5.950  1.00  0.00     0.338 C 
ATOM     37  O   UNL     1       9.982  -3.095  -6.447  1.00  0.00    -0.246 OA
BRANCH  36  38
ATOM     38  C   UNL     1       9.764  -4.944  -4.939  1.00  0.00     0.060 A 
ATOM     39  C   UNL     1      10.324  -4.470  -3.744  1.00  0.00     0.016 A 
ATOM     40  C   UNL     1       9.620  -6.316  -5.159  1.00  0.00     0.016 A 
ATOM     41  C   UNL     1      10.761  -5.368  -2.772  1.00  0.00     0.010 A 
ATOM     42  C   UNL     1      10.108  -7.216  -4.210  1.00  0.00     0.010 A 
ATOM     43  C   UNL     1      10.713  -6.743  -3.032  1.00  0.00    -0.014 A 
BRANCH  43  44
ATOM     44  C   UNL     1      11.562  -7.654  -2.233  1.00  0.00     0.031 A 
ATOM     45  C   UNL     1      12.985  -7.841  -2.684  1.00  0.00     0.074 A 
ATOM     46  C   UNL     1      11.107  -8.282  -1.137  1.00  0.00     0.049 A 
ATOM     47  N   UNL     1      13.912  -8.621  -2.199  1.00  0.00    -0.248 NA
ATOM     48  C   UNL     1      13.419  -7.031  -3.837  1.00  0.00     0.031 C 
ATOM     49  C   UNL     1       9.776  -8.124  -0.556  1.00  0.00     0.029 A 
ATOM     50  N   UNL     1      11.732  -9.188  -0.316  1.00  0.00    -0.354 N 
ATOM     51  C   UNL     1      15.037  -8.393  -2.981  1.00  0.00     0.074 A 
ATOM     52  C   UNL     1      14.673  -7.423  -3.988  1.00  0.00     0.031 C 
ATOM     53  C   UNL     1       9.681  -8.917   0.526  1.00  0.00     0.029 A 
ATOM     54  C   UNL     1      10.930  -9.661   0.692  1.00  0.00     0.049 A 
ATOM     55  H   UNL     1      12.667  -9.471  -0.440  1.00  0.00     0.167 HD
ATOM     56  C   UNL     1      16.268  -8.940  -2.872  1.00  0.00     0.031 A 
ATOM     57  C   UNL     1      11.171 -10.602   1.627  1.00  0.00     0.031 A 
ATOM     58  C   UNL     1      16.619  -9.934  -1.899  1.00  0.00     0.049 A 
ATOM     59  C   UNL     1      12.509 -11.291   1.661  1.00  0.00     0.074 A 
ATOM     60  C   UNL     1      17.834 -10.571  -1.723  1.00  0.00     0.029 A 
ATOM     61  N   UNL     1      15.753 -10.444  -0.945  1.00  0.00    -0.354 N 
ATOM     62  N   UNL     1      13.558 -11.085   0.900  1.00  0.00    -0.248 NA
ATOM     63  C   UNL     1      12.697 -12.339   2.675  1.00  0.00     0.031 C 
ATOM     64  C   UNL     1      17.686 -11.505  -0.694  1.00  0.00     0.029 A 
ATOM     65  C   UNL     1      16.398 -11.407  -0.191  1.00  0.00     0.049 A 
ATOM     66  H   UNL     1      14.818 -10.161  -0.822  1.00  0.00     0.167 HD
ATOM     67  C   UNL     1      14.535 -11.968   1.351  1.00  0.00     0.074 A 
ATOM     68  C   UNL     1      13.954 -12.704   2.455  1.00  0.00     0.031 C 
ATOM     69  C   UNL     1      15.800 -12.145   0.893  1.00  0.00     0.031 A 
BRANCH  56  70
ATOM     70  C   UNL     1      17.307  -8.495  -3.861  1.00  0.00    -0.014 A 
ATOM     71  C   UNL     1      17.887  -7.217  -3.774  1.00  0.00     0.010 A 
ATOM     72  C   UNL     1      17.719  -9.371  -4.881  1.00  0.00     0.010 A 
ATOM     73  C   UNL     1      18.842  -6.812  -4.708  1.00  0.00     0.020 A 
ATOM     74  C   UNL     1      18.692  -8.978  -5.803  1.00  0.00     0.020 A 
ATOM     75  C   UNL     1      19.241  -7.697  -5.715  1.00  0.00     0.054 A 
BRANCH  75  76
ATOM     76  S   UNL     1      20.487  -7.140  -6.909  1.00  0.00     0.124 S 
ATOM     77  O   UNL     1      19.833  -5.983  -7.515  1.00  0.00    -0.237 OA
ATOM     78  O   UNL     1      21.629  -6.840  -6.051  1.00  0.00    -0.237 OA
ATOM     79  O   UNL     1      20.657  -8.288  -7.796  1.00  0.00    -0.744 OA
ENDBRANCH  75  76
ENDBRANCH  56  70
BRANCH  57  80
ATOM     80  C   UNL     1      10.100 -10.942   2.601  1.00  0.00    -0.014 A 
ATOM     81  C   UNL     1      10.164 -10.465   3.921  1.00  0.00     0.010 A 
ATOM     82  C   UNL     1       8.969 -11.670   2.188  1.00  0.00     0.010 A 
ATOM     83  C   UNL     1       9.099 -10.682   4.802  1.00  0.00     0.020 A 
ATOM     84  C   UNL     1       7.895 -11.873   3.060  1.00  0.00     0.020 A 
ATOM     85  C   UNL     1       7.963 -11.365   4.358  1.00  0.00     0.054 A 
BRANCH  85  86
ATOM     86  S   UNL     1       6.552 -11.529   5.488  1.00  0.00     0.124 S 
ATOM     87  O   UNL     1       7.140 -12.240   6.619  1.00  0.00    -0.237 OA
ATOM     88  O   UNL     1       6.196 -10.133   5.734  1.00  0.00    -0.237 OA
ATOM     89  O   UNL     1       5.575 -12.289   4.712  1.00  0.00    -0.744 OA
ENDBRANCH  85  86
ENDBRANCH  57  80
BRANCH  69  90
ATOM     90  C   UNL     1      16.662 -13.171   1.577  1.00  0.00    -0.014 A 
ATOM     91  C   UNL     1      16.475 -14.544   1.343  1.00  0.00     0.010 A 
ATOM     92  C   UNL     1      17.745 -12.750   2.373  1.00  0.00     0.010 A 
ATOM     93  C   UNL     1      17.350 -15.479   1.903  1.00  0.00     0.020 A 
ATOM     94  C   UNL     1      18.635 -13.680   2.914  1.00  0.00     0.020 A 
ATOM     95  C   UNL     1      18.430 -15.040   2.677  1.00  0.00     0.054 A 
BRANCH  95  96
ATOM     96  S   UNL     1      19.572 -16.278   3.351  1.00  0.00     0.124 S 
ATOM     97  O   UNL     1      18.689 -17.091   4.183  1.00  0.00    -0.237 OA
ATOM     98  O   UNL     1      20.075 -16.930   2.145  1.00  0.00    -0.237 OA
ATOM     99  O   UNL     1      20.555 -15.483   4.084  1.00  0.00    -0.744 OA
ENDBRANCH  95  96
ENDBRANCH  69  90
ENDBRANCH  43  44
ENDBRANCH  36  38
ENDBRANCH  35  36
ENDBRANCH  34  35
ENDBRANCH  33  34
ENDBRANCH  32  33
ENDBRANCH  31  32
ENDBRANCH  30  31
ENDBRANCH   1  30
TORSDOF 28
