REMARK SMILES O=C(OCCOCCOCCOCCOC(=O)[C@H]1CC[C@H](CNC(=O)c2ccccc2O)O1)c1ccc(-c2c3nc(c(-c4ccc(S(=O)(=O)[O-])cc4)c4ccc([nH]4)c(-c4ccc(S(=O)(=O)[O-])cc4)c4nc(c(-c5ccc(S(=O)(=O)[O-])cc5)c5ccc2[nH]5)C=C4)C=C3)cc1
REMARK SMILES IDX 10 1 9 2 8 3 7 4 6 5 5 6 4 7 3 8 2 9 1 10 34 11 35 12 93 13
REMARK SMILES IDX 36 14 92 15 37 16 38 17 39 18 86 19 40 20 91 21 85 22 87 23
REMARK SMILES IDX 41 24 90 25 84 26 83 27 42 29 72 30 53 31 71 32 54 33 57 34
REMARK SMILES IDX 70 35 88 36 55 37 56 38 69 40 89 41 58 42 43 43 44 44 52 45
REMARK SMILES IDX 45 46 51 47 46 48 47 49 48 50 49 51 50 52 73 53 74 54 82 55
REMARK SMILES IDX 75 56 81 57 76 58 77 59 78 60 79 61 80 62 59 63 60 64 68 65
REMARK SMILES IDX 61 66 67 67 62 68 63 69 64 70 65 71 66 72 11 73 12 74 13 75
REMARK SMILES IDX 14 76 15 77 16 78 17 79 18 80 19 81 33 82 20 83 21 84 22 85
REMARK SMILES IDX 23 86 24 87 25 89 26 90 27 91 31 92 28 93 30 94 29 95 32 96
REMARK H PARENT 87 28 57 39 23 88 32 97
REMARK Flexibility Score: inf
ROOT
ATOM      1  C   UNL     1       6.343  -0.329  -4.340  1.00  0.00     0.188 C 
ENDROOT
BRANCH   1   2
ATOM      2  O   UNL     1       6.466   1.083  -4.472  1.00  0.00    -0.377 OA
BRANCH   2   3
ATOM      3  C   UNL     1       7.715   1.647  -4.100  1.00  0.00     0.188 C 
BRANCH   3   4
ATOM      4  C   UNL     1       8.288   1.158  -2.773  1.00  0.00     0.188 C 
BRANCH   4   5
ATOM      5  O   UNL     1       8.657  -0.220  -2.817  1.00  0.00    -0.376 OA
BRANCH   5   6
ATOM      6  C   UNL     1       8.319  -1.019  -1.683  1.00  0.00     0.202 C 
BRANCH   6   7
ATOM      7  C   UNL     1       9.153  -0.765  -0.426  1.00  0.00     0.261 C 
BRANCH   7   8
ATOM      8  O   UNL     1       9.628   0.583  -0.317  1.00  0.00    -0.460 OA
BRANCH   8   9
ATOM      9  C   UNL     1      10.751   1.125  -0.851  1.00  0.00     0.338 C 
ATOM     10  O   UNL     1      10.973   2.315  -0.628  1.00  0.00    -0.246 OA
BRANCH   9  11
ATOM     11  C   UNL     1      11.725   0.389  -1.721  1.00  0.00     0.060 A 
ATOM     12  C   UNL     1      11.464  -0.779  -2.440  1.00  0.00     0.016 A 
ATOM     13  C   UNL     1      12.998   0.968  -1.866  1.00  0.00     0.016 A 
ATOM     14  C   UNL     1      12.424  -1.393  -3.224  1.00  0.00     0.010 A 
ATOM     15  C   UNL     1      13.982   0.357  -2.648  1.00  0.00     0.010 A 
ATOM     16  C   UNL     1      13.699  -0.852  -3.291  1.00  0.00    -0.014 A 
BRANCH  16  17
ATOM     17  C   UNL     1      14.757  -1.736  -3.798  1.00  0.00     0.031 A 
ATOM     18  C   UNL     1      15.588  -2.449  -2.774  1.00  0.00     0.074 A 
ATOM     19  C   UNL     1      14.820  -2.030  -5.107  1.00  0.00     0.049 A 
ATOM     20  N   UNL     1      16.593  -3.261  -2.939  1.00  0.00    -0.248 NA
ATOM     21  C   UNL     1      15.219  -2.229  -1.361  1.00  0.00     0.031 C 
ATOM     22  C   UNL     1      13.905  -1.522  -6.133  1.00  0.00     0.029 A 
ATOM     23  N   UNL     1      15.661  -2.863  -5.789  1.00  0.00    -0.354 N 
ATOM     24  C   UNL     1      17.006  -3.605  -1.657  1.00  0.00     0.074 A 
ATOM     25  C   UNL     1      16.147  -2.920  -0.723  1.00  0.00     0.031 C 
ATOM     26  C   UNL     1      14.227  -2.073  -7.315  1.00  0.00     0.029 A 
ATOM     27  C   UNL     1      15.410  -2.907  -7.139  1.00  0.00     0.049 A 
ATOM     28  H   UNL     1      16.377  -3.382  -5.356  1.00  0.00     0.167 HD
ATOM     29  C   UNL     1      18.031  -4.412  -1.303  1.00  0.00     0.031 A 
ATOM     30  C   UNL     1      16.096  -3.527  -8.116  1.00  0.00     0.031 A 
ATOM     31  C   UNL     1      18.867  -5.061  -2.273  1.00  0.00     0.049 A 
ATOM     32  C   UNL     1      17.313  -4.315  -7.711  1.00  0.00     0.074 A 
ATOM     33  C   UNL     1      19.986  -5.842  -2.071  1.00  0.00     0.029 A 
ATOM     34  N   UNL     1      18.661  -4.991  -3.647  1.00  0.00    -0.354 N 
ATOM     35  N   UNL     1      17.771  -4.556  -6.502  1.00  0.00    -0.248 NA
ATOM     36  C   UNL     1      18.111  -4.902  -8.790  1.00  0.00     0.031 C 
ATOM     37  C   UNL     1      20.494  -6.191  -3.328  1.00  0.00     0.029 A 
ATOM     38  C   UNL     1      19.646  -5.694  -4.310  1.00  0.00     0.049 A 
ATOM     39  H   UNL     1      17.920  -4.511  -4.083  1.00  0.00     0.167 HD
ATOM     40  C   UNL     1      18.899  -5.346  -6.673  1.00  0.00     0.074 A 
ATOM     41  C   UNL     1      19.043  -5.550  -8.104  1.00  0.00     0.031 C 
ATOM     42  C   UNL     1      19.740  -5.863  -5.741  1.00  0.00     0.031 A 
BRANCH  29  43
ATOM     43  C   UNL     1      18.346  -4.508   0.167  1.00  0.00    -0.014 A 
ATOM     44  C   UNL     1      17.482  -5.146   1.078  1.00  0.00     0.010 A 
ATOM     45  C   UNL     1      19.500  -3.870   0.656  1.00  0.00     0.010 A 
ATOM     46  C   UNL     1      17.733  -5.085   2.453  1.00  0.00     0.020 A 
ATOM     47  C   UNL     1      19.772  -3.834   2.026  1.00  0.00     0.020 A 
ATOM     48  C   UNL     1      18.872  -4.419   2.918  1.00  0.00     0.054 A 
BRANCH  48  49
ATOM     49  S   UNL     1      19.160  -4.326   4.707  1.00  0.00     0.124 S 
ATOM     50  O   UNL     1      18.135  -3.373   5.128  1.00  0.00    -0.237 OA
ATOM     51  O   UNL     1      18.948  -5.705   5.138  1.00  0.00    -0.237 OA
ATOM     52  O   UNL     1      20.536  -3.847   4.813  1.00  0.00    -0.744 OA
ENDBRANCH  48  49
ENDBRANCH  29  43
BRANCH  30  53
ATOM     53  C   UNL     1      15.680  -3.378  -9.539  1.00  0.00    -0.014 A 
ATOM     54  C   UNL     1      15.214  -4.479 -10.278  1.00  0.00     0.010 A 
ATOM     55  C   UNL     1      15.719  -2.113 -10.159  1.00  0.00     0.010 A 
ATOM     56  C   UNL     1      14.802  -4.319 -11.606  1.00  0.00     0.020 A 
ATOM     57  C   UNL     1      15.281  -1.944 -11.476  1.00  0.00     0.020 A 
ATOM     58  C   UNL     1      14.832  -3.051 -12.195  1.00  0.00     0.054 A 
BRANCH  58  59
ATOM     59  S   UNL     1      14.239  -2.860 -13.900  1.00  0.00     0.124 S 
ATOM     60  O   UNL     1      15.281  -3.541 -14.663  1.00  0.00    -0.237 OA
ATOM     61  O   UNL     1      12.943  -3.532 -13.858  1.00  0.00    -0.237 OA
ATOM     62  O   UNL     1      14.177  -1.412 -14.082  1.00  0.00    -0.744 OA
ENDBRANCH  58  59
ENDBRANCH  30  53
BRANCH  42  63
ATOM     63  C   UNL     1      20.853  -6.738  -6.244  1.00  0.00    -0.014 A 
ATOM     64  C   UNL     1      21.959  -6.199  -6.921  1.00  0.00     0.010 A 
ATOM     65  C   UNL     1      20.814  -8.116  -5.963  1.00  0.00     0.010 A 
ATOM     66  C   UNL     1      22.997  -7.033  -7.339  1.00  0.00     0.020 A 
ATOM     67  C   UNL     1      21.865  -8.946  -6.348  1.00  0.00     0.020 A 
ATOM     68  C   UNL     1      22.944  -8.401  -7.047  1.00  0.00     0.054 A 
BRANCH  68  69
ATOM     69  S   UNL     1      24.328  -9.453  -7.553  1.00  0.00     0.124 S 
ATOM     70  O   UNL     1      24.136  -9.531  -8.999  1.00  0.00    -0.237 OA
ATOM     71  O   UNL     1      25.490  -8.685  -7.113  1.00  0.00    -0.237 OA
ATOM     72  O   UNL     1      24.100 -10.700  -6.825  1.00  0.00    -0.744 OA
ENDBRANCH  68  69
ENDBRANCH  42  63
ENDBRANCH  16  17
ENDBRANCH   9  11
ENDBRANCH   8   9
ENDBRANCH   7   8
ENDBRANCH   6   7
ENDBRANCH   5   6
ENDBRANCH   4   5
ENDBRANCH   3   4
ENDBRANCH   2   3
ENDBRANCH   1   2
BRANCH   1  73
ATOM     73  C   UNL     1       7.348  -1.259  -5.074  1.00  0.00     0.188 C 
BRANCH  73  74
ATOM     74  O   UNL     1       8.425  -0.590  -5.715  1.00  0.00    -0.376 OA
BRANCH  74  75
ATOM     75  C   UNL     1       8.308  -0.456  -7.130  1.00  0.00     0.202 C 
BRANCH  75  76
ATOM     76  C   UNL     1       7.113   0.377  -7.619  1.00  0.00     0.261 C 
BRANCH  76  77
ATOM     77  O   UNL     1       5.827  -0.098  -7.166  1.00  0.00    -0.461 OA
BRANCH  77  78
ATOM     78  C   UNL     1       5.370  -1.281  -7.653  1.00  0.00     0.335 C 
ATOM     79  O   UNL     1       5.889  -1.897  -8.578  1.00  0.00    -0.249 OA
BRANCH  78  80
ATOM     80  C   UNL     1       4.152  -1.768  -6.822  1.00  0.00     0.228 C 
ATOM     81  C   UNL     1       3.381  -2.865  -7.521  1.00  0.00     0.047 C 
ATOM     82  O   UNL     1       4.480  -2.326  -5.536  1.00  0.00    -0.361 OA
ATOM     83  C   UNL     1       4.073  -4.108  -7.011  1.00  0.00     0.037 C 
ATOM     84  C   UNL     1       4.391  -3.764  -5.566  1.00  0.00     0.138 C 
BRANCH  84  85
ATOM     85  C   UNL     1       3.351  -4.203  -4.514  1.00  0.00     0.148 C 
BRANCH  85  86
ATOM     86  N   UNL     1       3.015  -5.616  -4.571  1.00  0.00    -0.349 N 
ATOM     87  C   UNL     1       2.744  -6.513  -3.572  1.00  0.00     0.255 C 
ATOM     88  H   UNL     1       2.975  -5.991  -5.481  1.00  0.00     0.163 HD
ATOM     89  O   UNL     1       2.482  -7.676  -3.880  1.00  0.00    -0.269 OA
BRANCH  87  90
ATOM     90  C   UNL     1       2.822  -6.159  -2.139  1.00  0.00     0.081 A 
ATOM     91  C   UNL     1       3.575  -7.021  -1.324  1.00  0.00     0.018 A 
ATOM     92  C   UNL     1       2.104  -5.115  -1.548  1.00  0.00     0.128 A 
ATOM     93  C   UNL     1       3.643  -6.816   0.054  1.00  0.00     0.001 A 
ATOM     94  C   UNL     1       2.177  -4.906  -0.166  1.00  0.00     0.047 A 
ATOM     95  C   UNL     1       2.948  -5.756   0.631  1.00  0.00     0.004 A 
BRANCH  92  96
ATOM     96  O   UNL     1       1.296  -4.308  -2.299  1.00  0.00    -0.507 OA
ATOM     97  H   UNL     1       1.236  -4.436  -3.225  1.00  0.00     0.293 HD
ENDBRANCH  92  96
ENDBRANCH  87  90
ENDBRANCH  85  86
ENDBRANCH  84  85
ENDBRANCH  78  80
ENDBRANCH  77  78
ENDBRANCH  76  77
ENDBRANCH  75  76
ENDBRANCH  74  75
ENDBRANCH  73  74
ENDBRANCH   1  73
TORSDOF 27
