REMARK SMILES CCOc1ccc2nc(S[C@@H](C(=O)OCCOCCOCCOCCOC(=O)c3ccc(-c4c5nc(c(-c6ccc(S(=O)(=O)[O-])cc6)c6ccc([nH]6)c(-c6ccc(S(=O)(=O)[O-])cc6)c6nc(c(-c7ccc(S(=O)(=O)[O-])cc7)c7ccc4[nH]7)C=C6)C=C5)cc3)c3ccccc3)[nH]c2c1
REMARK SMILES IDX 19 1 18 2 17 3 16 4 15 5 14 6 12 7 13 8 11 9 10 10 9 11 4 12
REMARK SMILES IDX 5 13 97 14 6 15 96 16 7 17 95 18 8 19 3 21 2 22 1 23 89 24
REMARK SMILES IDX 90 25 94 26 91 27 93 28 92 29 20 30 21 31 22 32 23 33 24 34
REMARK SMILES IDX 25 35 26 36 27 37 28 38 29 39 30 40 88 41 31 42 87 43 32 44
REMARK SMILES IDX 33 45 34 46 81 47 35 48 86 49 80 50 82 51 36 52 85 53 79 54
REMARK SMILES IDX 78 55 37 57 67 58 48 59 66 60 49 61 52 62 65 63 83 64 50 65
REMARK SMILES IDX 51 66 64 68 84 69 53 70 38 71 39 72 47 73 40 74 46 75 41 76
REMARK SMILES IDX 42 77 43 78 44 79 45 80 68 81 69 82 77 83 70 84 76 85 71 86
REMARK SMILES IDX 72 87 73 88 74 89 75 90 54 91 55 92 63 93 56 94 62 95 57 96
REMARK SMILES IDX 58 97 59 98 60 99 61 100
REMARK H PARENT 95 20 82 56 52 67
REMARK Flexibility Score: inf
ROOT
ATOM      1  C   UNL     1       5.354   3.332   5.386  1.00  0.00     0.188 C 
ENDROOT
BRANCH   1   2
ATOM      2  C   UNL     1       4.354   3.091   6.538  1.00  0.00     0.188 C 
BRANCH   2   3
ATOM      3  O   UNL     1       3.996   4.089   7.472  1.00  0.00    -0.376 OA
BRANCH   3   4
ATOM      4  C   UNL     1       4.934   4.949   8.082  1.00  0.00     0.202 C 
BRANCH   4   5
ATOM      5  C   UNL     1       6.367   4.520   8.444  1.00  0.00     0.261 C 
BRANCH   5   6
ATOM      6  O   UNL     1       6.896   3.393   7.718  1.00  0.00    -0.462 OA
BRANCH   6   7
ATOM      7  C   UNL     1       7.232   2.282   8.412  1.00  0.00     0.324 C 
ATOM      8  O   UNL     1       7.174   2.239   9.640  1.00  0.00    -0.251 OA
BRANCH   7   9
ATOM      9  C   UNL     1       7.633   1.040   7.575  1.00  0.00     0.194 C 
BRANCH   9  10
ATOM     10  S   UNL     1       7.956   1.240   5.792  1.00  0.00    -0.068 SA
BRANCH  10  11
ATOM     11  C   UNL     1       6.830   0.374   4.765  1.00  0.00     0.167 A 
ATOM     12  C   UNL     1       2.991  -0.105   2.403  1.00  0.00     0.121 A 
ATOM     13  C   UNL     1       3.902   0.035   1.355  1.00  0.00     0.049 A 
ATOM     14  C   UNL     1       3.434  -0.252   3.730  1.00  0.00     0.074 A 
ATOM     15  C   UNL     1       5.286   0.079   1.607  1.00  0.00     0.034 A 
ATOM     16  C   UNL     1       4.816  -0.150   3.960  1.00  0.00     0.070 A 
ATOM     17  C   UNL     1       5.739   0.043   2.939  1.00  0.00     0.090 A 
ATOM     18  N   UNL     1       5.576  -0.068   5.114  1.00  0.00    -0.333 N 
ATOM     19  N   UNL     1       6.990   0.295   3.458  1.00  0.00    -0.223 NA
ATOM     20  H   UNL     1       5.272  -0.287   6.024  1.00  0.00     0.169 HD
BRANCH  12  21
ATOM     21  O   UNL     1       1.662   0.198   2.233  1.00  0.00    -0.494 OA
BRANCH  21  22
ATOM     22  C   UNL     1       0.904  -0.685   1.403  1.00  0.00     0.226 C 
ATOM     23  C   UNL     1       0.845  -0.238  -0.050  1.00  0.00     0.049 C 
ENDBRANCH  21  22
ENDBRANCH  12  21
ENDBRANCH  10  11
ENDBRANCH   9  10
BRANCH   9  24
ATOM     24  C   UNL     1       6.859  -0.216   7.931  1.00  0.00    -0.023 A 
ATOM     25  C   UNL     1       5.631  -0.185   8.614  1.00  0.00     0.005 A 
ATOM     26  C   UNL     1       7.381  -1.463   7.545  1.00  0.00     0.005 A 
ATOM     27  C   UNL     1       4.942  -1.365   8.884  1.00  0.00     0.000 A 
ATOM     28  C   UNL     1       6.679  -2.637   7.795  1.00  0.00     0.000 A 
ATOM     29  C   UNL     1       5.461  -2.587   8.467  1.00  0.00     0.000 A 
ENDBRANCH   9  24
ENDBRANCH   7   9
ENDBRANCH   6   7
ENDBRANCH   5   6
ENDBRANCH   4   5
ENDBRANCH   3   4
ENDBRANCH   2   3
ENDBRANCH   1   2
BRANCH   1  30
ATOM     30  O   UNL     1       5.265   4.276   4.353  1.00  0.00    -0.377 OA
BRANCH  30  31
ATOM     31  C   UNL     1       4.779   5.545   4.678  1.00  0.00     0.188 C 
BRANCH  31  32
ATOM     32  C   UNL     1       3.260   5.576   4.539  1.00  0.00     0.188 C 
BRANCH  32  33
ATOM     33  O   UNL     1       2.679   4.282   4.594  1.00  0.00    -0.376 OA
BRANCH  33  34
ATOM     34  C   UNL     1       2.498   3.545   3.384  1.00  0.00     0.202 C 
BRANCH  34  35
ATOM     35  C   UNL     1       3.587   3.370   2.301  1.00  0.00     0.261 C 
BRANCH  35  36
ATOM     36  O   UNL     1       4.338   4.510   1.893  1.00  0.00    -0.460 OA
BRANCH  36  37
ATOM     37  C   UNL     1       3.704   5.509   1.258  1.00  0.00     0.338 C 
ATOM     38  O   UNL     1       2.540   5.568   0.936  1.00  0.00    -0.246 OA
BRANCH  37  39
ATOM     39  C   UNL     1       4.678   6.620   1.255  1.00  0.00     0.060 A 
ATOM     40  C   UNL     1       4.336   7.792   1.938  1.00  0.00     0.016 A 
ATOM     41  C   UNL     1       5.943   6.465   0.676  1.00  0.00     0.016 A 
ATOM     42  C   UNL     1       5.253   8.829   2.027  1.00  0.00     0.010 A 
ATOM     43  C   UNL     1       6.848   7.523   0.725  1.00  0.00     0.010 A 
ATOM     44  C   UNL     1       6.482   8.718   1.365  1.00  0.00    -0.014 A 
BRANCH  44  45
ATOM     45  C   UNL     1       7.224   9.960   1.084  1.00  0.00     0.031 A 
ATOM     46  C   UNL     1       6.915  10.651  -0.214  1.00  0.00     0.074 A 
ATOM     47  C   UNL     1       8.076  10.483   1.981  1.00  0.00     0.049 A 
ATOM     48  N   UNL     1       7.410  11.753  -0.706  1.00  0.00    -0.248 NA
ATOM     49  C   UNL     1       5.902  10.009  -1.075  1.00  0.00     0.031 C 
ATOM     50  C   UNL     1       8.380   9.913   3.293  1.00  0.00     0.029 A 
ATOM     51  N   UNL     1       8.836  11.620   1.919  1.00  0.00    -0.354 N 
ATOM     52  C   UNL     1       6.777  11.929  -1.931  1.00  0.00     0.074 A 
ATOM     53  C   UNL     1       5.885  10.812  -2.125  1.00  0.00     0.031 C 
ATOM     54  C   UNL     1       9.273  10.705   3.913  1.00  0.00     0.029 A 
ATOM     55  C   UNL     1       9.626  11.812   3.026  1.00  0.00     0.049 A 
ATOM     56  H   UNL     1       8.818  12.240   1.155  1.00  0.00     0.167 HD
ATOM     57  C   UNL     1       6.928  12.941  -2.814  1.00  0.00     0.031 A 
ATOM     58  C   UNL     1      10.544  12.766   3.273  1.00  0.00     0.031 A 
ATOM     59  C   UNL     1       7.842  14.028  -2.609  1.00  0.00     0.049 A 
ATOM     60  C   UNL     1      10.760  13.838   2.234  1.00  0.00     0.074 A 
ATOM     61  C   UNL     1       8.095  15.108  -3.432  1.00  0.00     0.029 A 
ATOM     62  N   UNL     1       8.662  14.165  -1.496  1.00  0.00    -0.354 N 
ATOM     63  N   UNL     1      10.152  14.002   1.081  1.00  0.00    -0.248 NA
ATOM     64  C   UNL     1      11.774  14.857   2.531  1.00  0.00     0.031 C 
ATOM     65  C   UNL     1       9.116  15.864  -2.848  1.00  0.00     0.029 A 
ATOM     66  C   UNL     1       9.441  15.298  -1.623  1.00  0.00     0.049 A 
ATOM     67  H   UNL     1       8.685  13.545  -0.732  1.00  0.00     0.167 HD
ATOM     68  C   UNL     1      10.685  15.163   0.531  1.00  0.00     0.074 A 
ATOM     69  C   UNL     1      11.658  15.662   1.483  1.00  0.00     0.031 C 
ATOM     70  C   UNL     1      10.394  15.769  -0.647  1.00  0.00     0.031 A 
BRANCH  57  71
ATOM     71  C   UNL     1       6.132  12.877  -4.090  1.00  0.00    -0.014 A 
ATOM     72  C   UNL     1       4.734  13.036  -4.094  1.00  0.00     0.010 A 
ATOM     73  C   UNL     1       6.798  12.663  -5.310  1.00  0.00     0.010 A 
ATOM     74  C   UNL     1       4.015  12.950  -5.290  1.00  0.00     0.020 A 
ATOM     75  C   UNL     1       6.087  12.607  -6.511  1.00  0.00     0.020 A 
ATOM     76  C   UNL     1       4.697  12.738  -6.492  1.00  0.00     0.054 A 
BRANCH  76  77
ATOM     77  S   UNL     1       3.743  12.666  -8.032  1.00  0.00     0.124 S 
ATOM     78  O   UNL     1       3.039  11.393  -7.893  1.00  0.00    -0.237 OA
ATOM     79  O   UNL     1       2.906  13.859  -7.944  1.00  0.00    -0.237 OA
ATOM     80  O   UNL     1       4.764  12.700  -9.076  1.00  0.00    -0.744 OA
ENDBRANCH  76  77
ENDBRANCH  57  71
BRANCH  58  81
ATOM     81  C   UNL     1      11.334  12.736   4.535  1.00  0.00    -0.014 A 
ATOM     82  C   UNL     1      11.175  13.733   5.513  1.00  0.00     0.010 A 
ATOM     83  C   UNL     1      12.251  11.694   4.769  1.00  0.00     0.010 A 
ATOM     84  C   UNL     1      11.927  13.696   6.692  1.00  0.00     0.020 A 
ATOM     85  C   UNL     1      12.982  11.636   5.959  1.00  0.00     0.020 A 
ATOM     86  C   UNL     1      12.823  12.646   6.909  1.00  0.00     0.054 A 
BRANCH  86  87
ATOM     87  S   UNL     1      13.751  12.594   8.468  1.00  0.00     0.124 S 
ATOM     88  O   UNL     1      14.682  13.706   8.305  1.00  0.00    -0.237 OA
ATOM     89  O   UNL     1      12.700  12.787   9.464  1.00  0.00    -0.237 OA
ATOM     90  O   UNL     1      14.357  11.264   8.463  1.00  0.00    -0.744 OA
ENDBRANCH  86  87
ENDBRANCH  58  81
BRANCH  70  91
ATOM     91  C   UNL     1      11.090  17.068  -0.950  1.00  0.00    -0.014 A 
ATOM     92  C   UNL     1      12.453  17.111  -1.287  1.00  0.00     0.010 A 
ATOM     93  C   UNL     1      10.335  18.256  -0.979  1.00  0.00     0.010 A 
ATOM     94  C   UNL     1      13.056  18.326  -1.621  1.00  0.00     0.020 A 
ATOM     95  C   UNL     1      10.925  19.466  -1.346  1.00  0.00     0.020 A 
ATOM     96  C   UNL     1      12.286  19.495  -1.653  1.00  0.00     0.054 A 
BRANCH  96  97
ATOM     97  S   UNL     1      13.080  21.047  -2.149  1.00  0.00     0.124 S 
ATOM     98  O   UNL     1      13.922  21.340  -0.992  1.00  0.00    -0.237 OA
ATOM     99  O   UNL     1      13.793  20.666  -3.365  1.00  0.00    -0.237 OA
ATOM    100  O   UNL     1      11.959  21.962  -2.351  1.00  0.00    -0.744 OA
ENDBRANCH  96  97
ENDBRANCH  70  91
ENDBRANCH  44  45
ENDBRANCH  37  39
ENDBRANCH  36  37
ENDBRANCH  35  36
ENDBRANCH  34  35
ENDBRANCH  33  34
ENDBRANCH  32  33
ENDBRANCH  31  32
ENDBRANCH  30  31
ENDBRANCH   1  30
TORSDOF 28
