REMARK SMILES COc1cccc([C@H]2CC(c3ccc(S(C)(=O)=O)cc3)=NN2c2ccc(C(=O)OCCOCCOCCOCCOC(=O)c3ccc(-c4c5nc(c(-c6ccc(S(=O)(=O)[O-])cc6)c6ccc([nH]6)c(-c6ccc(S(=O)(=O)[O-])cc6)c6nc(c(-c7ccc(S(=O)(=O)[O-])cc7)c7ccc4[nH]7)C=C6)C=C5)cc3)cc2)c1
REMARK SMILES IDX 35 1 34 2 33 3 32 4 31 5 30 6 29 7 27 8 28 9 26 10 23 11
REMARK SMILES IDX 24 12 105 13 25 14 104 15 22 16 8 17 9 18 10 19 21 20 7 21
REMARK SMILES IDX 3 22 4 23 106 24 5 25 6 26 2 27 1 28 11 29 12 30 20 31 13 32
REMARK SMILES IDX 19 33 14 34 15 35 16 36 17 37 18 38 36 39 37 40 38 41 39 42
REMARK SMILES IDX 40 43 41 44 42 45 43 46 44 47 45 48 103 49 46 50 102 51
REMARK SMILES IDX 47 52 48 53 49 54 96 55 50 56 101 57 95 58 97 59 51 60
REMARK SMILES IDX 100 61 94 62 93 63 52 65 82 66 63 67 81 68 64 69 67 70 80 71
REMARK SMILES IDX 98 72 65 73 66 74 79 76 99 77 68 78 53 79 54 80 62 81 55 82
REMARK SMILES IDX 61 83 56 84 57 85 58 86 59 87 60 88 83 89 84 90 92 91 85 92
REMARK SMILES IDX 91 93 86 94 87 95 88 96 89 97 90 98 69 99 70 100 78 101
REMARK SMILES IDX 71 102 77 103 72 104 73 105 74 106 75 107 76 108
REMARK H PARENT 97 64 67 75
REMARK Flexibility Score: inf
ROOT
ATOM      1  O   UNL     1       6.719  -8.953   4.461  1.00  0.00    -0.377 OA
ENDROOT
BRANCH   1   2
ATOM      2  C   UNL     1       6.504  -7.570   4.703  1.00  0.00     0.188 C 
BRANCH   2   3
ATOM      3  C   UNL     1       5.675  -7.122   5.927  1.00  0.00     0.188 C 
BRANCH   3   4
ATOM      4  O   UNL     1       5.356  -8.166   6.829  1.00  0.00    -0.376 OA
BRANCH   4   5
ATOM      5  C   UNL     1       4.028  -8.649   6.890  1.00  0.00     0.202 C 
BRANCH   5   6
ATOM      6  C   UNL     1       3.366  -9.201   5.618  1.00  0.00     0.261 C 
BRANCH   6   7
ATOM      7  O   UNL     1       3.579  -8.452   4.417  1.00  0.00    -0.460 OA
BRANCH   7   8
ATOM      8  C   UNL     1       2.910  -7.284   4.296  1.00  0.00     0.338 C 
ATOM      9  O   UNL     1       2.141  -6.797   5.106  1.00  0.00    -0.246 OA
BRANCH   8  10
ATOM     10  C   UNL     1       3.436  -6.576   3.104  1.00  0.00     0.060 A 
ATOM     11  C   UNL     1       4.412  -5.154   0.881  1.00  0.00     0.060 A 
ATOM     12  C   UNL     1       4.287  -4.529   2.128  1.00  0.00     0.029 A 
ATOM     13  C   UNL     1       4.120  -6.525   0.791  1.00  0.00     0.029 A 
ATOM     14  C   UNL     1       3.768  -5.222   3.225  1.00  0.00     0.018 A 
ATOM     15  C   UNL     1       3.654  -7.242   1.897  1.00  0.00     0.018 A 
BRANCH  11  16
ATOM     16  N   UNL     1       4.723  -4.417  -0.259  1.00  0.00    -0.257 N 
ATOM     17  C   UNL     1       3.808  -4.364  -1.404  1.00  0.00     0.144 C 
ATOM     18  C   UNL     1       4.461  -3.313  -2.305  1.00  0.00     0.091 C 
ATOM     19  C   UNL     1       5.583  -2.857  -1.413  1.00  0.00     0.071 C 
ATOM     20  N   UNL     1       5.694  -3.462  -0.271  1.00  0.00    -0.176 NA
BRANCH  17  21
ATOM     21  C   UNL     1       2.384  -3.994  -0.997  1.00  0.00    -0.019 A 
ATOM     22  C   UNL     1       0.764  -2.460  -0.011  1.00  0.00     0.119 A 
ATOM     23  C   UNL     1      -0.241  -3.409  -0.181  1.00  0.00     0.046 A 
ATOM     24  C   UNL     1       2.075  -2.760  -0.393  1.00  0.00     0.052 A 
ATOM     25  C   UNL     1       0.049  -4.641  -0.764  1.00  0.00     0.004 A 
ATOM     26  C   UNL     1       1.352  -4.930  -1.173  1.00  0.00     0.006 A 
BRANCH  22  27
ATOM     27  O   UNL     1       0.389  -1.297   0.604  1.00  0.00    -0.497 OA
ATOM     28  C   UNL     1       0.966  -0.125   0.038  1.00  0.00     0.278 C 
ENDBRANCH  22  27
ENDBRANCH  17  21
BRANCH  19  29
ATOM     29  C   UNL     1       6.513  -1.821  -1.878  1.00  0.00    -0.002 A 
ATOM     30  C   UNL     1       7.862  -2.148  -2.047  1.00  0.00     0.011 A 
ATOM     31  C   UNL     1       6.039  -0.546  -2.198  1.00  0.00     0.011 A 
ATOM     32  C   UNL     1       8.746  -1.197  -2.563  1.00  0.00     0.021 A 
ATOM     33  C   UNL     1       6.926   0.414  -2.690  1.00  0.00     0.021 A 
ATOM     34  C   UNL     1       8.273   0.083  -2.873  1.00  0.00     0.067 A 
BRANCH  34  35
ATOM     35  S   UNL     1       9.394   1.284  -3.556  1.00  0.00     0.175 S 
ATOM     36  C   UNL     1      10.619   1.520  -2.297  1.00  0.00     0.163 C 
ATOM     37  O   UNL     1      10.027   0.663  -4.703  1.00  0.00    -0.224 OA
ATOM     38  O   UNL     1       8.667   2.534  -3.693  1.00  0.00    -0.224 OA
ENDBRANCH  34  35
ENDBRANCH  19  29
ENDBRANCH  11  16
ENDBRANCH   8  10
ENDBRANCH   7   8
ENDBRANCH   6   7
ENDBRANCH   5   6
ENDBRANCH   4   5
ENDBRANCH   3   4
ENDBRANCH   2   3
ENDBRANCH   1   2
BRANCH   1  39
ATOM     39  C   UNL     1       7.058  -9.828   5.532  1.00  0.00     0.188 C 
BRANCH  39  40
ATOM     40  C   UNL     1       7.835  -9.324   6.772  1.00  0.00     0.188 C 
BRANCH  40  41
ATOM     41  O   UNL     1       8.261  -7.975   6.693  1.00  0.00    -0.376 OA
BRANCH  41  42
ATOM     42  C   UNL     1       9.638  -7.727   6.488  1.00  0.00     0.202 C 
BRANCH  42  43
ATOM     43  C   UNL     1      10.268  -8.250   5.190  1.00  0.00     0.261 C 
BRANCH  43  44
ATOM     44  O   UNL     1      10.057  -9.636   4.888  1.00  0.00    -0.460 OA
BRANCH  44  45
ATOM     45  C   UNL     1      10.623 -10.547   5.708  1.00  0.00     0.338 C 
ATOM     46  O   UNL     1      11.296 -10.325   6.702  1.00  0.00    -0.246 OA
BRANCH  45  47
ATOM     47  C   UNL     1      10.132 -11.876   5.293  1.00  0.00     0.060 A 
ATOM     48  C   UNL     1       9.383 -12.649   6.191  1.00  0.00     0.016 A 
ATOM     49  C   UNL     1      10.399 -12.345   4.005  1.00  0.00     0.016 A 
ATOM     50  C   UNL     1       8.925 -13.912   5.811  1.00  0.00     0.010 A 
ATOM     51  C   UNL     1       9.960 -13.616   3.634  1.00  0.00     0.010 A 
ATOM     52  C   UNL     1       9.251 -14.419   4.546  1.00  0.00    -0.014 A 
BRANCH  52  53
ATOM     53  C   UNL     1       9.043 -15.854   4.236  1.00  0.00     0.031 A 
ATOM     54  C   UNL     1      10.223 -16.780   4.364  1.00  0.00     0.074 A 
ATOM     55  C   UNL     1       7.849 -16.325   3.837  1.00  0.00     0.049 A 
ATOM     56  N   UNL     1      10.323 -18.044   4.052  1.00  0.00    -0.248 NA
ATOM     57  C   UNL     1      11.458 -16.194   4.914  1.00  0.00     0.031 C 
ATOM     58  C   UNL     1       6.621 -15.540   3.724  1.00  0.00     0.029 A 
ATOM     59  N   UNL     1       7.482 -17.585   3.436  1.00  0.00    -0.354 N 
ATOM     60  C   UNL     1      11.634 -18.401   4.348  1.00  0.00     0.074 A 
ATOM     61  C   UNL     1      12.297 -17.215   4.841  1.00  0.00     0.031 C 
ATOM     62  C   UNL     1       5.637 -16.335   3.268  1.00  0.00     0.029 A 
ATOM     63  C   UNL     1       6.176 -17.671   3.014  1.00  0.00     0.049 A 
ATOM     64  H   UNL     1       8.095 -18.355   3.448  1.00  0.00     0.167 HD
ATOM     65  C   UNL     1      12.231 -19.609   4.222  1.00  0.00     0.031 A 
ATOM     66  C   UNL     1       5.505 -18.700   2.458  1.00  0.00     0.031 A 
ATOM     67  C   UNL     1      11.570 -20.781   3.713  1.00  0.00     0.049 A 
ATOM     68  C   UNL     1       6.214 -20.015   2.247  1.00  0.00     0.074 A 
ATOM     69  C   UNL     1      12.082 -22.056   3.555  1.00  0.00     0.029 A 
ATOM     70  N   UNL     1      10.256 -20.819   3.271  1.00  0.00    -0.354 N 
ATOM     71  N   UNL     1       7.449 -20.345   2.546  1.00  0.00    -0.248 NA
ATOM     72  C   UNL     1       5.436 -21.099   1.629  1.00  0.00     0.031 C 
ATOM     73  C   UNL     1      11.099 -22.848   2.955  1.00  0.00     0.029 A 
ATOM     74  C   UNL     1       9.949 -22.088   2.813  1.00  0.00     0.049 A 
ATOM     75  H   UNL     1       9.634 -20.056   3.282  1.00  0.00     0.167 HD
ATOM     76  C   UNL     1       7.583 -21.684   2.188  1.00  0.00     0.074 A 
ATOM     77  C   UNL     1       6.302 -22.103   1.658  1.00  0.00     0.031 C 
ATOM     78  C   UNL     1       8.666 -22.494   2.294  1.00  0.00     0.031 A 
BRANCH  65  79
ATOM     79  C   UNL     1      13.686 -19.710   4.599  1.00  0.00    -0.014 A 
ATOM     80  C   UNL     1      14.106 -19.607   5.938  1.00  0.00     0.010 A 
ATOM     81  C   UNL     1      14.647 -19.945   3.598  1.00  0.00     0.010 A 
ATOM     82  C   UNL     1      15.462 -19.699   6.263  1.00  0.00     0.020 A 
ATOM     83  C   UNL     1      16.000 -20.071   3.923  1.00  0.00     0.020 A 
ATOM     84  C   UNL     1      16.401 -19.931   5.252  1.00  0.00     0.054 A 
BRANCH  84  85
ATOM     85  S   UNL     1      18.150 -20.073   5.708  1.00  0.00     0.124 S 
ATOM     86  O   UNL     1      18.479 -18.697   6.074  1.00  0.00    -0.237 OA
ATOM     87  O   UNL     1      18.115 -21.026   6.814  1.00  0.00    -0.237 OA
ATOM     88  O   UNL     1      18.789 -20.561   4.488  1.00  0.00    -0.744 OA
ENDBRANCH  84  85
ENDBRANCH  65  79
BRANCH  66  89
ATOM     89  C   UNL     1       4.085 -18.526   2.038  1.00  0.00    -0.014 A 
ATOM     90  C   UNL     1       3.050 -19.213   2.697  1.00  0.00     0.010 A 
ATOM     91  C   UNL     1       3.761 -17.672   0.967  1.00  0.00     0.010 A 
ATOM     92  C   UNL     1       1.723 -19.062   2.284  1.00  0.00     0.020 A 
ATOM     93  C   UNL     1       2.433 -17.494   0.571  1.00  0.00     0.020 A 
ATOM     94  C   UNL     1       1.422 -18.200   1.226  1.00  0.00     0.054 A 
BRANCH  94  95
ATOM     95  S   UNL     1      -0.314 -17.980   0.744  1.00  0.00     0.124 S 
ATOM     96  O   UNL     1      -0.623 -19.264   0.124  1.00  0.00    -0.237 OA
ATOM     97  O   UNL     1      -0.965 -17.721   2.026  1.00  0.00    -0.237 OA
ATOM     98  O   UNL     1      -0.274 -16.838  -0.168  1.00  0.00    -0.744 OA
ENDBRANCH  94  95
ENDBRANCH  66  89
BRANCH  78  99
ATOM     99  C   UNL     1       8.507 -23.936   1.883  1.00  0.00    -0.014 A 
ATOM    100  C   UNL     1       8.367 -24.309   0.535  1.00  0.00     0.010 A 
ATOM    101  C   UNL     1       8.571 -24.941   2.868  1.00  0.00     0.010 A 
ATOM    102  C   UNL     1       8.262 -25.659   0.183  1.00  0.00     0.020 A 
ATOM    103  C   UNL     1       8.500 -26.291   2.517  1.00  0.00     0.020 A 
ATOM    104  C   UNL     1       8.333 -26.641   1.176  1.00  0.00     0.054 A 
BRANCH 104 105
ATOM    105  S   UNL     1       8.244 -28.386   0.687  1.00  0.00     0.124 S 
ATOM    106  O   UNL     1       6.843 -28.523   0.299  1.00  0.00    -0.237 OA
ATOM    107  O   UNL     1       9.210 -28.460  -0.407  1.00  0.00    -0.237 OA
ATOM    108  O   UNL     1       8.628 -29.107   1.899  1.00  0.00    -0.744 OA
ENDBRANCH 104 105
ENDBRANCH  78  99
ENDBRANCH  52  53
ENDBRANCH  45  47
ENDBRANCH  44  45
ENDBRANCH  43  44
ENDBRANCH  42  43
ENDBRANCH  41  42
ENDBRANCH  40  41
ENDBRANCH  39  40
ENDBRANCH   1  39
TORSDOF 28
