REMARK SMILES Cc1ccc(S(=O)(=O)N2c3ccc(C(=O)OCCOCCOCCOCCOC(=O)c4ccc(-c5c6nc(c(-c7ccc(S(=O)(=O)[O-])cc7)c7ccc([nH]7)c(-c7ccc(S(=O)(=O)[O-])cc7)c7nc(c(-c8ccc(S(=O)(=O)[O-])cc8)c8ccc5[nH]8)C=C7)C=C6)cc4)cc3C[C@H]2C)cc1
REMARK SMILES IDX 23 1 22 2 21 3 20 4 19 5 18 6 17 7 16 8 14 9 15 10 13 11
REMARK SMILES IDX 9 12 10 13 94 14 11 15 92 16 93 17 95 18 12 19 91 20 6 21
REMARK SMILES IDX 7 22 8 23 5 24 1 25 2 26 3 27 97 28 4 29 96 30 24 31 25 32
REMARK SMILES IDX 26 33 27 34 28 35 29 36 30 37 31 38 32 39 90 40 33 41 89 42
REMARK SMILES IDX 34 43 35 44 36 45 83 46 37 47 88 48 82 49 84 50 38 51 87 52
REMARK SMILES IDX 81 53 80 54 39 56 69 57 50 58 68 59 51 60 54 61 67 62 85 63
REMARK SMILES IDX 52 64 53 65 66 67 86 68 55 69 40 70 41 71 49 72 42 73 48 74
REMARK SMILES IDX 43 75 44 76 45 77 46 78 47 79 70 80 71 81 79 82 72 83 78 84
REMARK SMILES IDX 73 85 74 86 75 87 76 88 77 89 56 90 57 91 65 92 58 93 64 94
REMARK SMILES IDX 59 95 60 96 61 97 62 98 63 99
REMARK H PARENT 84 55 54 66
REMARK Flexibility Score: inf
ROOT
ATOM      1  C   UNL     1     -10.213   4.640   2.419  1.00  0.00     0.188 C 
ENDROOT
BRANCH   1   2
ATOM      2  O   UNL     1      -9.104   3.926   1.902  1.00  0.00    -0.377 OA
BRANCH   2   3
ATOM      3  C   UNL     1      -8.104   4.655   1.222  1.00  0.00     0.188 C 
BRANCH   3   4
ATOM      4  C   UNL     1      -8.344   5.369  -0.133  1.00  0.00     0.188 C 
BRANCH   4   5
ATOM      5  O   UNL     1      -9.564   5.353  -0.846  1.00  0.00    -0.376 OA
BRANCH   5   6
ATOM      6  C   UNL     1     -10.249   4.127  -0.920  1.00  0.00     0.202 C 
BRANCH   6   7
ATOM      7  C   UNL     1     -10.207   3.414  -2.252  1.00  0.00     0.261 C 
BRANCH   7   8
ATOM      8  O   UNL     1      -9.368   2.278  -2.075  1.00  0.00    -0.460 OA
BRANCH   8   9
ATOM      9  C   UNL     1      -8.234   2.372  -2.749  1.00  0.00     0.338 C 
ATOM     10  O   UNL     1      -8.062   2.833  -3.875  1.00  0.00    -0.246 OA
BRANCH   9  11
ATOM     11  C   UNL     1      -7.176   2.183  -1.760  1.00  0.00     0.060 A 
ATOM     12  N   UNL     1      -3.716   1.831   0.496  1.00  0.00    -0.263 N 
ATOM     13  C   UNL     1      -5.055   1.988  -0.038  1.00  0.00     0.055 A 
ATOM     14  C   UNL     1      -2.991   3.059  -0.041  1.00  0.00     0.101 C 
ATOM     15  C   UNL     1      -6.179   1.234   0.250  1.00  0.00     0.028 A 
ATOM     16  C   UNL     1      -5.039   2.894  -1.095  1.00  0.00    -0.021 A 
ATOM     17  C   UNL     1      -3.741   3.572  -1.265  1.00  0.00     0.063 C 
ATOM     18  C   UNL     1      -2.995   4.100   1.086  1.00  0.00     0.032 C 
ATOM     19  C   UNL     1      -7.262   1.342  -0.627  1.00  0.00     0.018 A 
ATOM     20  C   UNL     1      -6.079   3.000  -1.972  1.00  0.00     0.021 A 
BRANCH  12  21
ATOM     21  S   UNL     1      -3.151   0.263   0.001  1.00  0.00     0.264 S 
ATOM     22  O   UNL     1      -3.261   0.187  -1.444  1.00  0.00    -0.201 OA
ATOM     23  O   UNL     1      -3.797  -0.722   0.848  1.00  0.00    -0.201 OA
BRANCH  21  24
ATOM     24  C   UNL     1      -1.414   0.090   0.320  1.00  0.00     0.088 A 
ATOM     25  C   UNL     1       2.843  -0.304  -0.014  1.00  0.00     0.044 C 
ATOM     26  C   UNL     1       1.359  -0.186   0.148  1.00  0.00    -0.051 A 
ATOM     27  C   UNL     1       0.532  -1.284  -0.107  1.00  0.00     0.005 A 
ATOM     28  C   UNL     1       0.790   1.012   0.591  1.00  0.00     0.005 A 
ATOM     29  C   UNL     1      -0.852  -1.140  -0.048  1.00  0.00     0.022 A 
ATOM     30  C   UNL     1      -0.592   1.130   0.733  1.00  0.00     0.022 A 
ENDBRANCH  21  24
ENDBRANCH  12  21
ENDBRANCH   9  11
ENDBRANCH   8   9
ENDBRANCH   7   8
ENDBRANCH   6   7
ENDBRANCH   5   6
ENDBRANCH   4   5
ENDBRANCH   3   4
ENDBRANCH   2   3
ENDBRANCH   1   2
BRANCH   1  31
ATOM     31  C   UNL     1     -10.004   5.972   3.075  1.00  0.00     0.188 C 
BRANCH  31  32
ATOM     32  O   UNL     1      -9.987   6.988   2.077  1.00  0.00    -0.376 OA
BRANCH  32  33
ATOM     33  C   UNL     1      -9.871   8.292   2.637  1.00  0.00     0.202 C 
BRANCH  33  34
ATOM     34  C   UNL     1     -10.929   8.637   3.707  1.00  0.00     0.261 C 
BRANCH  34  35
ATOM     35  O   UNL     1     -12.241   8.512   3.128  1.00  0.00    -0.460 OA
BRANCH  35  36
ATOM     36  C   UNL     1     -13.113   7.688   3.778  1.00  0.00     0.338 C 
ATOM     37  O   UNL     1     -13.373   7.740   4.965  1.00  0.00    -0.246 OA
BRANCH  36  38
ATOM     38  C   UNL     1     -13.594   6.649   2.820  1.00  0.00     0.060 A 
ATOM     39  C   UNL     1     -14.210   5.464   3.258  1.00  0.00     0.016 A 
ATOM     40  C   UNL     1     -13.209   6.765   1.490  1.00  0.00     0.016 A 
ATOM     41  C   UNL     1     -14.299   4.348   2.400  1.00  0.00     0.010 A 
ATOM     42  C   UNL     1     -13.232   5.650   0.685  1.00  0.00     0.010 A 
ATOM     43  C   UNL     1     -13.732   4.413   1.129  1.00  0.00    -0.014 A 
BRANCH  43  44
ATOM     44  C   UNL     1     -13.454   3.270   0.225  1.00  0.00     0.031 A 
ATOM     45  C   UNL     1     -13.838   3.410  -1.220  1.00  0.00     0.074 A 
ATOM     46  C   UNL     1     -12.492   2.389   0.615  1.00  0.00     0.049 A 
ATOM     47  N   UNL     1     -13.518   2.605  -2.171  1.00  0.00    -0.248 NA
ATOM     48  C   UNL     1     -14.546   4.581  -1.741  1.00  0.00     0.031 C 
ATOM     49  C   UNL     1     -11.635   1.517  -0.188  1.00  0.00     0.029 A 
ATOM     50  N   UNL     1     -12.035   2.118   1.899  1.00  0.00    -0.354 N 
ATOM     51  C   UNL     1     -13.581   3.293  -3.377  1.00  0.00     0.074 A 
ATOM     52  C   UNL     1     -14.289   4.505  -3.051  1.00  0.00     0.031 C 
ATOM     53  C   UNL     1     -10.875   0.723   0.587  1.00  0.00     0.029 A 
ATOM     54  C   UNL     1     -11.397   0.867   1.920  1.00  0.00     0.049 A 
ATOM     55  H   UNL     1     -12.144   2.712   2.676  1.00  0.00     0.167 HD
ATOM     56  C   UNL     1     -12.880   2.814  -4.459  1.00  0.00     0.031 A 
ATOM     57  C   UNL     1     -12.031  -0.132   2.587  1.00  0.00     0.031 A 
ATOM     58  C   UNL     1     -12.318   1.463  -4.163  1.00  0.00     0.049 A 
ATOM     59  C   UNL     1     -12.693  -1.018   1.499  1.00  0.00     0.074 A 
ATOM     60  C   UNL     1     -11.070   0.866  -4.242  1.00  0.00     0.029 A 
ATOM     61  N   UNL     1     -13.099   0.543  -3.434  1.00  0.00    -0.354 N 
ATOM     62  N   UNL     1     -13.136  -0.573   0.330  1.00  0.00    -0.248 NA
ATOM     63  C   UNL     1     -12.503  -2.470   1.469  1.00  0.00     0.031 C 
ATOM     64  C   UNL     1     -11.056  -0.245  -3.330  1.00  0.00     0.029 A 
ATOM     65  C   UNL     1     -12.320  -0.389  -2.759  1.00  0.00     0.049 A 
ATOM     66  H   UNL     1     -14.083   0.559  -3.406  1.00  0.00     0.167 HD
ATOM     67  C   UNL     1     -13.030  -1.567  -0.625  1.00  0.00     0.074 A 
ATOM     68  C   UNL     1     -12.722  -2.757   0.171  1.00  0.00     0.031 C 
ATOM     69  C   UNL     1     -12.950  -1.481  -2.003  1.00  0.00     0.031 A 
BRANCH  56  70
ATOM     70  C   UNL     1     -12.508   3.665  -5.702  1.00  0.00    -0.014 A 
ATOM     71  C   UNL     1     -11.535   3.216  -6.627  1.00  0.00     0.010 A 
ATOM     72  C   UNL     1     -13.054   4.931  -6.021  1.00  0.00     0.010 A 
ATOM     73  C   UNL     1     -11.153   3.952  -7.775  1.00  0.00     0.020 A 
ATOM     74  C   UNL     1     -12.687   5.681  -7.164  1.00  0.00     0.020 A 
ATOM     75  C   UNL     1     -11.745   5.179  -8.049  1.00  0.00     0.054 A 
BRANCH  75  76
ATOM     76  S   UNL     1     -11.334   6.059  -9.587  1.00  0.00     0.124 S 
ATOM     77  O   UNL     1      -9.906   6.325  -9.438  1.00  0.00    -0.237 OA
ATOM     78  O   UNL     1     -11.687   5.083 -10.615  1.00  0.00    -0.237 OA
ATOM     79  O   UNL     1     -12.188   7.246  -9.550  1.00  0.00    -0.744 OA
ENDBRANCH  75  76
ENDBRANCH  56  70
BRANCH  57  80
ATOM     80  C   UNL     1     -12.299   0.374   4.002  1.00  0.00    -0.014 A 
ATOM     81  C   UNL     1     -11.114   0.541   4.787  1.00  0.00     0.010 A 
ATOM     82  C   UNL     1     -13.369   1.238   4.326  1.00  0.00     0.010 A 
ATOM     83  C   UNL     1     -10.931   1.627   5.670  1.00  0.00     0.020 A 
ATOM     84  C   UNL     1     -13.192   2.328   5.229  1.00  0.00     0.020 A 
ATOM     85  C   UNL     1     -11.954   2.552   5.841  1.00  0.00     0.054 A 
BRANCH  85  86
ATOM     86  S   UNL     1     -11.601   4.092   6.767  1.00  0.00     0.124 S 
ATOM     87  O   UNL     1     -10.938   3.601   7.973  1.00  0.00    -0.237 OA
ATOM     88  O   UNL     1     -10.736   4.822   5.842  1.00  0.00    -0.237 OA
ATOM     89  O   UNL     1     -12.923   4.670   6.977  1.00  0.00    -0.744 OA
ENDBRANCH  85  86
ENDBRANCH  57  80
BRANCH  69  90
ATOM     90  C   UNL     1     -13.575  -2.553  -2.872  1.00  0.00    -0.014 A 
ATOM     91  C   UNL     1     -14.523  -3.450  -2.366  1.00  0.00     0.010 A 
ATOM     92  C   UNL     1     -13.417  -2.497  -4.283  1.00  0.00     0.010 A 
ATOM     93  C   UNL     1     -15.251  -4.277  -3.220  1.00  0.00     0.020 A 
ATOM     94  C   UNL     1     -14.180  -3.277  -5.146  1.00  0.00     0.020 A 
ATOM     95  C   UNL     1     -15.079  -4.180  -4.602  1.00  0.00     0.054 A 
BRANCH  95  96
ATOM     96  S   UNL     1     -16.090  -5.214  -5.678  1.00  0.00     0.124 S 
ATOM     97  O   UNL     1     -15.400  -6.497  -5.583  1.00  0.00    -0.237 OA
ATOM     98  O   UNL     1     -17.402  -5.156  -5.036  1.00  0.00    -0.237 OA
ATOM     99  O   UNL     1     -16.009  -4.551  -6.977  1.00  0.00    -0.744 OA
ENDBRANCH  95  96
ENDBRANCH  69  90
ENDBRANCH  43  44
ENDBRANCH  36  38
ENDBRANCH  35  36
ENDBRANCH  34  35
ENDBRANCH  33  34
ENDBRANCH  32  33
ENDBRANCH  31  32
ENDBRANCH   1  31
TORSDOF 25
