REMARK SMILES CC[NH2+][C@]1(C(=O)OCCOCCOCCOCCOC(=O)c2ccc(-c3c4nc(c(-c5ccc(S(=O)(=O)[O-])cc5)c5ccc([nH]5)c(-c5ccc(S(=O)(=O)[O-])cc5)c5nc(c(-c6ccc(S(=O)(=O)[O-])cc6)c6ccc3[nH]6)C=C5)C=C4)cc2)CCC[C@H]1CCSc1n[nH]c(=O)n1C
REMARK SMILES IDX 12 1 11 2 10 3 9 4 8 5 7 6 5 7 6 8 4 9 82 10 85 11 83 12
REMARK SMILES IDX 84 13 3 14 2 17 1 18 86 19 87 20 88 21 89 22 90 23 94 24
REMARK SMILES IDX 91 25 92 26 95 27 93 29 13 30 14 31 15 32 16 33 17 34 18 35
REMARK SMILES IDX 19 36 20 37 21 38 22 39 23 40 81 41 24 42 80 43 25 44 26 45
REMARK SMILES IDX 27 46 74 47 28 48 79 49 73 50 75 51 29 52 78 53 72 54 71 55
REMARK SMILES IDX 30 57 60 58 41 59 59 60 42 61 45 62 58 63 76 64 43 65 44 66
REMARK SMILES IDX 57 68 77 69 46 70 31 71 32 72 40 73 33 74 39 75 34 76 35 77
REMARK SMILES IDX 36 78 37 79 38 80 61 81 62 82 70 83 63 84 69 85 64 86 65 87
REMARK SMILES IDX 66 88 67 89 68 90 47 91 48 92 56 93 49 94 55 95 50 96 51 97
REMARK SMILES IDX 52 98 53 99 54 100
REMARK H PARENT 3 15 3 16 91 28 75 56 45 67
REMARK Flexibility Score: inf
ROOT
ATOM      1  C   UNL     1       0.132   1.000  -1.702  1.00  0.00     0.188 C 
ENDROOT
BRANCH   1   2
ATOM      2  C   UNL     1      -0.068   0.045  -0.512  1.00  0.00     0.188 C 
BRANCH   2   3
ATOM      3  O   UNL     1       0.875   0.138   0.542  1.00  0.00    -0.376 OA
BRANCH   3   4
ATOM      4  C   UNL     1       1.978  -0.751   0.560  1.00  0.00     0.202 C 
BRANCH   4   5
ATOM      5  C   UNL     1       2.927  -0.748  -0.654  1.00  0.00     0.261 C 
BRANCH   5   6
ATOM      6  O   UNL     1       2.350  -0.998  -1.950  1.00  0.00    -0.459 OA
BRANCH   6   7
ATOM      7  C   UNL     1       1.563  -2.091  -2.065  1.00  0.00     0.368 C 
ATOM      8  O   UNL     1       1.285  -2.804  -1.113  1.00  0.00    -0.245 OA
BRANCH   7   9
ATOM      9  C   UNL     1       0.974  -2.319  -3.465  1.00  0.00     0.197 C 
ATOM     10  C   UNL     1       1.740  -1.487  -4.518  1.00  0.00     0.081 C 
ATOM     11  C   UNL     1       1.202  -3.797  -3.935  1.00  0.00     0.063 C 
ATOM     12  C   UNL     1       1.413  -2.175  -5.823  1.00  0.00     0.008 C 
ATOM     13  C   UNL     1       1.471  -3.657  -5.466  1.00  0.00     0.011 C 
BRANCH   9  14
ATOM     14  N   UNL     1      -0.460  -1.858  -3.471  1.00  0.00    -0.332 N 
ATOM     15  H   UNL     1      -0.689  -1.562  -2.522  1.00  0.00     0.347 HD
ATOM     16  H   UNL     1      -0.491  -1.126  -4.181  1.00  0.00     0.347 HD
BRANCH  14  17
ATOM     17  C   UNL     1      -1.480  -2.812  -3.885  1.00  0.00     0.257 C 
ATOM     18  C   UNL     1      -2.882  -2.237  -3.773  1.00  0.00     0.071 C 
ENDBRANCH  14  17
ENDBRANCH   9  14
BRANCH  11  19
ATOM     19  C   UNL     1       2.333  -4.624  -3.287  1.00  0.00     0.022 C 
BRANCH  19  20
ATOM     20  C   UNL     1       2.287  -5.145  -1.830  1.00  0.00     0.079 C 
BRANCH  20  21
ATOM     21  S   UNL     1       0.977  -5.918  -0.836  1.00  0.00    -0.086 SA
BRANCH  21  22
ATOM     22  C   UNL     1      -0.630  -5.570  -1.337  1.00  0.00     0.191 A 
ATOM     23  N   UNL     1      -1.270  -6.373  -2.144  1.00  0.00    -0.146 NA
ATOM     24  N   UNL     1      -1.424  -4.637  -0.746  1.00  0.00    -0.273 N 
ATOM     25  N   UNL     1      -2.572  -5.951  -2.076  1.00  0.00    -0.226 N 
ATOM     26  C   UNL     1      -2.692  -4.880  -1.207  1.00  0.00     0.343 A 
ATOM     27  C   UNL     1      -1.147  -3.501   0.091  1.00  0.00     0.157 C 
ATOM     28  H   UNL     1      -3.318  -6.354  -2.575  1.00  0.00     0.195 HD
ATOM     29  O   UNL     1      -3.726  -4.286  -0.945  1.00  0.00    -0.246 OA
ENDBRANCH  21  22
ENDBRANCH  20  21
ENDBRANCH  19  20
ENDBRANCH  11  19
ENDBRANCH   7   9
ENDBRANCH   6   7
ENDBRANCH   5   6
ENDBRANCH   4   5
ENDBRANCH   3   4
ENDBRANCH   2   3
ENDBRANCH   1   2
BRANCH   1  30
ATOM     30  O   UNL     1       1.124   2.008  -1.651  1.00  0.00    -0.377 OA
BRANCH  30  31
ATOM     31  C   UNL     1       1.463   2.570  -0.394  1.00  0.00     0.188 C 
BRANCH  31  32
ATOM     32  C   UNL     1       0.342   2.911   0.612  1.00  0.00     0.188 C 
BRANCH  32  33
ATOM     33  O   UNL     1      -0.967   2.574   0.176  1.00  0.00    -0.376 OA
BRANCH  33  34
ATOM     34  C   UNL     1      -1.806   3.627  -0.263  1.00  0.00     0.202 C 
BRANCH  34  35
ATOM     35  C   UNL     1      -1.393   4.373  -1.540  1.00  0.00     0.261 C 
BRANCH  35  36
ATOM     36  O   UNL     1      -0.059   4.896  -1.574  1.00  0.00    -0.460 OA
BRANCH  36  37
ATOM     37  C   UNL     1       0.285   5.828  -0.659  1.00  0.00     0.338 C 
ATOM     38  O   UNL     1      -0.430   6.311   0.201  1.00  0.00    -0.246 OA
BRANCH  37  39
ATOM     39  C   UNL     1       1.756   5.984  -0.737  1.00  0.00     0.060 A 
ATOM     40  C   UNL     1       2.532   5.748   0.409  1.00  0.00     0.016 A 
ATOM     41  C   UNL     1       2.370   6.253  -1.963  1.00  0.00     0.016 A 
ATOM     42  C   UNL     1       3.925   5.787   0.331  1.00  0.00     0.010 A 
ATOM     43  C   UNL     1       3.761   6.340  -2.030  1.00  0.00     0.010 A 
ATOM     44  C   UNL     1       4.540   6.138  -0.877  1.00  0.00    -0.014 A 
BRANCH  44  45
ATOM     45  C   UNL     1       5.950   6.589  -0.873  1.00  0.00     0.031 A 
ATOM     46  C   UNL     1       6.191   8.060  -0.670  1.00  0.00     0.074 A 
ATOM     47  C   UNL     1       6.980   5.746  -1.060  1.00  0.00     0.049 A 
ATOM     48  N   UNL     1       7.310   8.732  -0.703  1.00  0.00    -0.248 NA
ATOM     49  C   UNL     1       4.998   8.884  -0.402  1.00  0.00     0.031 C 
ATOM     50  C   UNL     1       6.875   4.298  -1.227  1.00  0.00     0.029 A 
ATOM     51  N   UNL     1       8.325   6.002  -1.158  1.00  0.00    -0.354 N 
ATOM     52  C   UNL     1       6.954  10.057  -0.478  1.00  0.00     0.074 A 
ATOM     53  C   UNL     1       5.517  10.098  -0.332  1.00  0.00     0.031 C 
ATOM     54  C   UNL     1       8.107   3.796  -1.433  1.00  0.00     0.029 A 
ATOM     55  C   UNL     1       9.078   4.890  -1.448  1.00  0.00     0.049 A 
ATOM     56  H   UNL     1       8.714   6.898  -1.032  1.00  0.00     0.167 HD
ATOM     57  C   UNL     1       7.752  11.146  -0.406  1.00  0.00     0.031 A 
ATOM     58  C   UNL     1      10.393   4.777  -1.728  1.00  0.00     0.031 A 
ATOM     59  C   UNL     1       9.176  11.102  -0.583  1.00  0.00     0.049 A 
ATOM     60  C   UNL     1      11.259   6.013  -1.711  1.00  0.00     0.074 A 
ATOM     61  C   UNL     1      10.082  12.144  -0.509  1.00  0.00     0.029 A 
ATOM     62  N   UNL     1       9.899   9.959  -0.890  1.00  0.00    -0.354 N 
ATOM     63  N   UNL     1      10.919   7.255  -1.455  1.00  0.00    -0.248 NA
ATOM     64  C   UNL     1      12.686   5.833  -2.015  1.00  0.00     0.031 C 
ATOM     65  C   UNL     1      11.345  11.642  -0.839  1.00  0.00     0.029 A 
ATOM     66  C   UNL     1      11.236  10.274  -1.044  1.00  0.00     0.049 A 
ATOM     67  H   UNL     1       9.516   9.057  -0.984  1.00  0.00     0.167 HD
ATOM     68  C   UNL     1      12.094   7.998  -1.540  1.00  0.00     0.074 A 
ATOM     69  C   UNL     1      13.154   7.065  -1.860  1.00  0.00     0.031 C 
ATOM     70  C   UNL     1      12.279   9.330  -1.363  1.00  0.00     0.031 A 
BRANCH  57  71
ATOM     71  C   UNL     1       7.085  12.476  -0.186  1.00  0.00    -0.014 A 
ATOM     72  C   UNL     1       6.472  12.798   1.039  1.00  0.00     0.010 A 
ATOM     73  C   UNL     1       7.074  13.422  -1.227  1.00  0.00     0.010 A 
ATOM     74  C   UNL     1       5.820  14.023   1.202  1.00  0.00     0.020 A 
ATOM     75  C   UNL     1       6.451  14.661  -1.057  1.00  0.00     0.020 A 
ATOM     76  C   UNL     1       5.811  14.945   0.151  1.00  0.00     0.054 A 
BRANCH  76  77
ATOM     77  S   UNL     1       4.967  16.532   0.393  1.00  0.00     0.124 S 
ATOM     78  O   UNL     1       3.563  16.130   0.381  1.00  0.00    -0.237 OA
ATOM     79  O   UNL     1       5.483  16.973   1.686  1.00  0.00    -0.237 OA
ATOM     80  O   UNL     1       5.396  17.331  -0.752  1.00  0.00    -0.744 OA
ENDBRANCH  76  77
ENDBRANCH  57  71
BRANCH  58  81
ATOM     81  C   UNL     1      10.964   3.447  -2.084  1.00  0.00    -0.014 A 
ATOM     82  C   UNL     1      11.851   2.784  -1.219  1.00  0.00     0.010 A 
ATOM     83  C   UNL     1      10.604   2.828  -3.296  1.00  0.00     0.010 A 
ATOM     84  C   UNL     1      12.370   1.530  -1.560  1.00  0.00     0.020 A 
ATOM     85  C   UNL     1      11.098   1.563  -3.628  1.00  0.00     0.020 A 
ATOM     86  C   UNL     1      11.982   0.923  -2.759  1.00  0.00     0.054 A 
BRANCH  86  87
ATOM     87  S   UNL     1      12.604  -0.738  -3.141  1.00  0.00     0.124 S 
ATOM     88  O   UNL     1      14.005  -0.476  -3.452  1.00  0.00    -0.237 OA
ATOM     89  O   UNL     1      12.355  -1.460  -1.896  1.00  0.00    -0.237 OA
ATOM     90  O   UNL     1      11.779  -1.160  -4.271  1.00  0.00    -0.744 OA
ENDBRANCH  86  87
ENDBRANCH  58  81
BRANCH  70  91
ATOM     91  C   UNL     1      13.683   9.868  -1.470  1.00  0.00    -0.014 A 
ATOM     92  C   UNL     1      14.335   9.973  -2.711  1.00  0.00     0.010 A 
ATOM     93  C   UNL     1      14.321  10.361  -0.317  1.00  0.00     0.010 A 
ATOM     94  C   UNL     1      15.609  10.544  -2.792  1.00  0.00     0.020 A 
ATOM     95  C   UNL     1      15.581  10.960  -0.398  1.00  0.00     0.020 A 
ATOM     96  C   UNL     1      16.221  11.038  -1.635  1.00  0.00     0.054 A 
BRANCH  96  97
ATOM     97  S   UNL     1      17.846  11.831  -1.778  1.00  0.00     0.124 S 
ATOM     98  O   UNL     1      18.720  10.691  -2.040  1.00  0.00    -0.237 OA
ATOM     99  O   UNL     1      17.657  12.749  -2.899  1.00  0.00    -0.237 OA
ATOM    100  O   UNL     1      18.035  12.474  -0.479  1.00  0.00    -0.744 OA
ENDBRANCH  96  97
ENDBRANCH  70  91
ENDBRANCH  44  45
ENDBRANCH  37  39
ENDBRANCH  36  37
ENDBRANCH  35  36
ENDBRANCH  34  35
ENDBRANCH  33  34
ENDBRANCH  32  33
ENDBRANCH  31  32
ENDBRANCH  30  31
ENDBRANCH   1  30
TORSDOF 29
