REMARK SMILES CCC(CC)COc1cc2c(cc1Cl)C=C(C(=O)OCCOCCOCCOCCOC(=O)c1ccc(-c3c4nc(c(-c5ccc(S(=O)(=O)[O-])cc5)c5ccc([nH]5)c(-c5ccc(S(=O)(=O)[O-])cc5)c5nc(c(-c6ccc(S(=O)(=O)[O-])cc6)c6ccc3[nH]6)C=C5)C=C4)cc1)[C@@H](C(F)(F)F)O2
REMARK SMILES IDX 24 1 23 2 22 3 21 4 20 5 19 6 17 7 18 8 16 9 8 10 9 11 13 12
REMARK SMILES IDX 10 13 12 14 14 15 11 16 99 17 15 18 94 19 7 20 6 21 3 22
REMARK SMILES IDX 2 23 1 24 4 25 5 26 95 27 96 28 97 29 98 30 25 31 26 32
REMARK SMILES IDX 27 33 28 34 29 35 30 36 31 37 32 38 33 39 34 40 35 41 93 42
REMARK SMILES IDX 36 43 92 44 37 45 38 46 39 47 86 48 40 49 91 50 85 51 87 52
REMARK SMILES IDX 41 53 90 54 84 55 83 56 42 58 72 59 53 60 71 61 54 62 57 63
REMARK SMILES IDX 70 64 88 65 55 66 56 67 69 69 89 70 58 71 43 72 44 73 52 74
REMARK SMILES IDX 45 75 51 76 46 77 47 78 48 79 49 80 50 81 73 82 74 83 82 84
REMARK SMILES IDX 75 85 81 86 76 87 77 88 78 89 79 90 80 91 59 92 60 93 68 94
REMARK SMILES IDX 61 95 67 96 62 97 63 98 64 99 65 100 66 101
REMARK H PARENT 87 57 57 68
REMARK Flexibility Score: inf
ROOT
ATOM      1  C   UNL     1      -3.698   6.372   0.007  1.00  0.00     0.188 C 
ENDROOT
BRANCH   1   2
ATOM      2  C   UNL     1      -2.985   6.865   1.277  1.00  0.00     0.188 C 
BRANCH   2   3
ATOM      3  O   UNL     1      -3.324   8.195   1.656  1.00  0.00    -0.376 OA
BRANCH   3   4
ATOM      4  C   UNL     1      -2.319   9.187   1.481  1.00  0.00     0.202 C 
BRANCH   4   5
ATOM      5  C   UNL     1      -2.074   9.627   0.029  1.00  0.00     0.261 C 
BRANCH   5   6
ATOM      6  O   UNL     1      -1.694   8.562  -0.856  1.00  0.00    -0.460 OA
BRANCH   6   7
ATOM      7  C   UNL     1      -0.501   7.990  -0.610  1.00  0.00     0.338 C 
ATOM      8  O   UNL     1       0.299   8.330   0.247  1.00  0.00    -0.246 OA
BRANCH   7   9
ATOM      9  C   UNL     1      -0.366   6.763  -1.420  1.00  0.00     0.087 C 
ATOM     10  C   UNL     1       0.962   2.271  -3.176  1.00  0.00     0.141 A 
ATOM     11  C   UNL     1      -0.008   3.200  -3.574  1.00  0.00     0.095 A 
ATOM     12  C   UNL     1       1.826   2.578  -2.116  1.00  0.00     0.083 A 
ATOM     13  C   UNL     1      -0.163   4.388  -2.852  1.00  0.00     0.131 A 
ATOM     14  C   UNL     1       1.594   3.705  -1.335  1.00  0.00     0.036 A 
ATOM     15  Cl  UNL     1       3.187   1.595  -1.716  1.00  0.00    -0.080 Cl
ATOM     16  C   UNL     1       0.590   4.603  -1.695  1.00  0.00     0.019 A 
ATOM     17  O   UNL     1      -1.084   5.296  -3.303  1.00  0.00    -0.475 OA
ATOM     18  C   UNL     1       0.350   5.774  -0.876  1.00  0.00     0.027 C 
ATOM     19  C   UNL     1      -0.976   6.668  -2.796  1.00  0.00     0.316 C 
BRANCH  10  20
ATOM     20  O   UNL     1       1.107   1.092  -3.859  1.00  0.00    -0.492 OA
BRANCH  20  21
ATOM     21  C   UNL     1       0.129   0.089  -3.497  1.00  0.00     0.233 C 
BRANCH  21  22
ATOM     22  C   UNL     1       0.510  -0.672  -2.200  1.00  0.00     0.026 C 
BRANCH  22  23
ATOM     23  C   UNL     1      -0.128  -0.011  -0.955  1.00  0.00     0.003 C 
ATOM     24  C   UNL     1       0.529  -0.439   0.351  1.00  0.00     0.004 C 
ENDBRANCH  22  23
BRANCH  22  25
ATOM     25  C   UNL     1       0.190  -2.181  -2.284  1.00  0.00     0.003 C 
ATOM     26  C   UNL     1      -1.287  -2.540  -2.341  1.00  0.00     0.004 C 
ENDBRANCH  22  25
ENDBRANCH  21  22
ENDBRANCH  20  21
ENDBRANCH  10  20
BRANCH  19  27
ATOM     27  C   UNL     1      -0.213   7.566  -3.781  1.00  0.00     0.430 C 
ATOM     28  F   UNL     1      -0.712   7.466  -5.033  1.00  0.00    -0.167 F 
ATOM     29  F   UNL     1      -0.293   8.866  -3.416  1.00  0.00    -0.167 F 
ATOM     30  F   UNL     1       1.101   7.242  -3.836  1.00  0.00    -0.167 F 
ENDBRANCH  19  27
ENDBRANCH   7   9
ENDBRANCH   6   7
ENDBRANCH   5   6
ENDBRANCH   4   5
ENDBRANCH   3   4
ENDBRANCH   2   3
ENDBRANCH   1   2
BRANCH   1  31
ATOM     31  O   UNL     1      -4.362   7.356  -0.763  1.00  0.00    -0.377 OA
BRANCH  31  32
ATOM     32  C   UNL     1      -5.460   8.067  -0.192  1.00  0.00     0.188 C 
BRANCH  32  33
ATOM     33  C   UNL     1      -6.082   7.689   1.172  1.00  0.00     0.188 C 
BRANCH  33  34
ATOM     34  O   UNL     1      -5.979   6.312   1.514  1.00  0.00    -0.376 OA
BRANCH  34  35
ATOM     35  C   UNL     1      -7.193   5.575   1.519  1.00  0.00     0.202 C 
BRANCH  35  36
ATOM     36  C   UNL     1      -7.688   5.198   0.119  1.00  0.00     0.261 C 
BRANCH  36  37
ATOM     37  O   UNL     1      -8.018   6.306  -0.731  1.00  0.00    -0.460 OA
BRANCH  37  38
ATOM     38  C   UNL     1      -8.998   7.147  -0.327  1.00  0.00     0.338 C 
ATOM     39  O   UNL     1      -9.671   7.063   0.684  1.00  0.00    -0.246 OA
BRANCH  38  40
ATOM     40  C   UNL     1      -8.961   8.309  -1.238  1.00  0.00     0.060 A 
ATOM     41  C   UNL     1      -9.024   8.114  -2.620  1.00  0.00     0.016 A 
ATOM     42  C   UNL     1      -8.783   9.594  -0.708  1.00  0.00     0.016 A 
ATOM     43  C   UNL     1      -8.919   9.210  -3.476  1.00  0.00     0.010 A 
ATOM     44  C   UNL     1      -8.664  10.688  -1.568  1.00  0.00     0.010 A 
ATOM     45  C   UNL     1      -8.746  10.505  -2.957  1.00  0.00    -0.014 A 
BRANCH  45  46
ATOM     46  C   UNL     1      -8.836  11.674  -3.863  1.00  0.00     0.031 A 
ATOM     47  C   UNL     1      -7.619  12.364  -4.398  1.00  0.00     0.074 A 
ATOM     48  C   UNL     1     -10.066  12.099  -4.208  1.00  0.00     0.049 A 
ATOM     49  N   UNL     1      -7.555  13.343  -5.263  1.00  0.00    -0.248 NA
ATOM     50  C   UNL     1      -6.311  11.903  -3.909  1.00  0.00     0.031 C 
ATOM     51  C   UNL     1     -11.316  11.492  -3.745  1.00  0.00     0.029 A 
ATOM     52  N   UNL     1     -10.472  13.121  -5.027  1.00  0.00    -0.354 N 
ATOM     53  C   UNL     1      -6.203  13.605  -5.446  1.00  0.00     0.074 A 
ATOM     54  C   UNL     1      -5.481  12.708  -4.567  1.00  0.00     0.031 C 
ATOM     55  C   UNL     1     -12.348  12.139  -4.303  1.00  0.00     0.029 A 
ATOM     56  C   UNL     1     -11.838  13.223  -5.139  1.00  0.00     0.049 A 
ATOM     57  H   UNL     1      -9.846  13.723  -5.490  1.00  0.00     0.167 HD
ATOM     58  C   UNL     1      -5.629  14.501  -6.284  1.00  0.00     0.031 A 
ATOM     59  C   UNL     1     -12.603  14.085  -5.838  1.00  0.00     0.031 A 
ATOM     60  C   UNL     1      -6.367  15.402  -7.136  1.00  0.00     0.049 A 
ATOM     61  C   UNL     1     -11.941  15.110  -6.711  1.00  0.00     0.074 A 
ATOM     62  C   UNL     1      -5.866  16.319  -8.045  1.00  0.00     0.029 A 
ATOM     63  N   UNL     1      -7.749  15.512  -7.181  1.00  0.00    -0.354 N 
ATOM     64  N   UNL     1     -10.661  15.297  -6.925  1.00  0.00    -0.248 NA
ATOM     65  C   UNL     1     -12.817  16.030  -7.450  1.00  0.00     0.031 C 
ATOM     66  C   UNL     1      -6.938  17.035  -8.581  1.00  0.00     0.029 A 
ATOM     67  C   UNL     1      -8.115  16.510  -8.072  1.00  0.00     0.049 A 
ATOM     68  H   UNL     1      -8.378  14.964  -6.659  1.00  0.00     0.167 HD
ATOM     69  C   UNL     1     -10.577  16.339  -7.841  1.00  0.00     0.074 A 
ATOM     70  C   UNL     1     -11.936  16.737  -8.149  1.00  0.00     0.031 C 
ATOM     71  C   UNL     1      -9.469  16.906  -8.377  1.00  0.00     0.031 A 
BRANCH  58  72
ATOM     72  C   UNL     1      -4.123  14.564  -6.356  1.00  0.00    -0.014 A 
ATOM     73  C   UNL     1      -3.449  15.730  -5.943  1.00  0.00     0.010 A 
ATOM     74  C   UNL     1      -3.391  13.540  -6.983  1.00  0.00     0.010 A 
ATOM     75  C   UNL     1      -2.082  15.887  -6.191  1.00  0.00     0.020 A 
ATOM     76  C   UNL     1      -2.018  13.682  -7.208  1.00  0.00     0.020 A 
ATOM     77  C   UNL     1      -1.377  14.865  -6.833  1.00  0.00     0.054 A 
BRANCH  77  78
ATOM     78  S   UNL     1       0.386  15.107  -7.185  1.00  0.00     0.124 S 
ATOM     79  O   UNL     1       0.354  16.059  -8.290  1.00  0.00    -0.237 OA
ATOM     80  O   UNL     1       0.895  15.626  -5.918  1.00  0.00    -0.237 OA
ATOM     81  O   UNL     1       0.853  13.765  -7.530  1.00  0.00    -0.744 OA
ENDBRANCH  77  78
ENDBRANCH  58  72
BRANCH  59  82
ATOM     82  C   UNL     1     -14.083  13.951  -5.760  1.00  0.00    -0.014 A 
ATOM     83  C   UNL     1     -14.757  14.222  -4.554  1.00  0.00     0.010 A 
ATOM     84  C   UNL     1     -14.807  13.439  -6.850  1.00  0.00     0.010 A 
ATOM     85  C   UNL     1     -16.114  13.922  -4.418  1.00  0.00     0.020 A 
ATOM     86  C   UNL     1     -16.173  13.167  -6.727  1.00  0.00     0.020 A 
ATOM     87  C   UNL     1     -16.809  13.380  -5.502  1.00  0.00     0.054 A 
BRANCH  87  88
ATOM     88  S   UNL     1     -18.552  12.929  -5.280  1.00  0.00     0.124 S 
ATOM     89  O   UNL     1     -18.446  11.705  -4.491  1.00  0.00    -0.237 OA
ATOM     90  O   UNL     1     -19.093  14.088  -4.574  1.00  0.00    -0.237 OA
ATOM     91  O   UNL     1     -19.037  12.754  -6.646  1.00  0.00    -0.744 OA
ENDBRANCH  87  88
ENDBRANCH  59  82
BRANCH  71  92
ATOM     92  C   UNL     1      -9.643  18.032  -9.364  1.00  0.00    -0.014 A 
ATOM     93  C   UNL     1      -9.256  17.848 -10.705  1.00  0.00     0.010 A 
ATOM     94  C   UNL     1     -10.027  19.314  -8.933  1.00  0.00     0.010 A 
ATOM     95  C   UNL     1      -9.194  18.933 -11.582  1.00  0.00     0.020 A 
ATOM     96  C   UNL     1      -9.994  20.398  -9.816  1.00  0.00     0.020 A 
ATOM     97  C   UNL     1      -9.546  20.206 -11.126  1.00  0.00     0.054 A 
BRANCH  97  98
ATOM     98  S   UNL     1      -9.383  21.615 -12.257  1.00  0.00     0.124 S 
ATOM     99  O   UNL     1      -7.937  21.811 -12.298  1.00  0.00    -0.237 OA
ATOM    100  O   UNL     1      -9.986  21.110 -13.489  1.00  0.00    -0.237 OA
ATOM    101  O   UNL     1     -10.138  22.677 -11.594  1.00  0.00    -0.744 OA
ENDBRANCH  97  98
ENDBRANCH  71  92
ENDBRANCH  45  46
ENDBRANCH  38  40
ENDBRANCH  37  38
ENDBRANCH  36  37
ENDBRANCH  35  36
ENDBRANCH  34  35
ENDBRANCH  33  34
ENDBRANCH  32  33
ENDBRANCH  31  32
ENDBRANCH   1  31
TORSDOF 29
