REMARK SMILES C=CCN(CC(=O)OCCOCCOCCOCCOC(=O)c1ccc(-c2c3nc(c(-c4ccc(S(=O)(=O)[O-])cc4)c4ccc([nH]4)c(-c4ccc(S(=O)(=O)[O-])cc4)c4nc(c(-c5ccc(S(=O)(=O)[O-])cc5)c5ccc2[nH]5)C=C4)C=C3)cc1)c1nccn(C)c1=O
REMARK SMILES IDX 14 1 13 2 12 3 11 4 10 5 9 6 8 7 6 8 7 9 5 10 4 11 3 12 2 13
REMARK SMILES IDX 1 14 83 15 84 16 89 17 85 18 87 19 90 20 86 21 88 22 15 23
REMARK SMILES IDX 16 24 17 25 18 26 19 27 20 28 21 29 22 30 23 31 24 32 82 33
REMARK SMILES IDX 25 34 81 35 26 36 27 37 28 38 75 39 29 40 80 41 74 42 76 43
REMARK SMILES IDX 30 44 79 45 73 46 72 47 31 49 61 50 42 51 60 52 43 53 46 54
REMARK SMILES IDX 59 55 77 56 44 57 45 58 58 60 78 61 47 62 32 63 33 64 41 65
REMARK SMILES IDX 34 66 40 67 35 68 36 69 37 70 38 71 39 72 62 73 63 74 71 75
REMARK SMILES IDX 64 76 70 77 65 78 66 79 67 80 68 81 69 82 48 83 49 84 57 85
REMARK SMILES IDX 50 86 56 87 51 88 52 89 53 90 54 91 55 92
REMARK H PARENT 76 48 46 59
REMARK Flexibility Score: inf
ROOT
ATOM      1  O   UNL     1      -5.475   2.245  -1.492  1.00  0.00    -0.377 OA
ENDROOT
BRANCH   1   2
ATOM      2  C   UNL     1      -4.340   2.059  -2.325  1.00  0.00     0.188 C 
BRANCH   2   3
ATOM      3  C   UNL     1      -4.697   1.825  -3.811  1.00  0.00     0.188 C 
BRANCH   3   4
ATOM      4  O   UNL     1      -5.931   1.196  -4.157  1.00  0.00    -0.376 OA
BRANCH   4   5
ATOM      5  C   UNL     1      -6.462   0.238  -3.255  1.00  0.00     0.202 C 
BRANCH   5   6
ATOM      6  C   UNL     1      -5.594  -1.001  -2.971  1.00  0.00     0.261 C 
BRANCH   6   7
ATOM      7  O   UNL     1      -4.186  -0.702  -2.816  1.00  0.00    -0.462 OA
BRANCH   7   8
ATOM      8  C   UNL     1      -3.309  -1.309  -3.652  1.00  0.00     0.325 C 
ATOM      9  O   UNL     1      -3.597  -2.283  -4.344  1.00  0.00    -0.250 OA
BRANCH   8  10
ATOM     10  C   UNL     1      -1.928  -0.624  -3.767  1.00  0.00     0.241 C 
BRANCH  10  11
ATOM     11  N   UNL     1      -1.453   0.256  -2.671  1.00  0.00    -0.337 N 
BRANCH  11  12
ATOM     12  C   UNL     1      -1.349  -0.389  -1.350  1.00  0.00     0.146 C 
BRANCH  12  13
ATOM     13  C   UNL     1       0.057  -0.881  -1.110  1.00  0.00    -0.014 C 
ATOM     14  C   UNL     1       0.816  -0.500  -0.071  1.00  0.00     0.006 C 
ENDBRANCH  12  13
ENDBRANCH  11  12
BRANCH  11  15
ATOM     15  C   UNL     1      -0.787   1.496  -2.872  1.00  0.00     0.196 A 
ATOM     16  N   UNL     1       0.065   1.909  -1.960  1.00  0.00    -0.233 NA
ATOM     17  C   UNL     1      -1.059   2.432  -4.121  1.00  0.00     0.293 A 
ATOM     18  C   UNL     1       0.723   3.091  -2.119  1.00  0.00     0.131 A 
ATOM     19  N   UNL     1      -0.415   3.677  -4.086  1.00  0.00    -0.314 N 
ATOM     20  O   UNL     1      -1.811   2.088  -5.021  1.00  0.00    -0.265 OA
ATOM     21  C   UNL     1       0.497   3.962  -3.101  1.00  0.00     0.109 A 
ATOM     22  C   UNL     1      -0.714   4.697  -5.077  1.00  0.00     0.153 C 
ENDBRANCH  11  15
ENDBRANCH  10  11
ENDBRANCH   8  10
ENDBRANCH   7   8
ENDBRANCH   6   7
ENDBRANCH   5   6
ENDBRANCH   4   5
ENDBRANCH   3   4
ENDBRANCH   2   3
ENDBRANCH   1   2
BRANCH   1  23
ATOM     23  C   UNL     1      -5.621   3.558  -0.982  1.00  0.00     0.188 C 
BRANCH  23  24
ATOM     24  C   UNL     1      -5.901   4.596  -2.075  1.00  0.00     0.188 C 
BRANCH  24  25
ATOM     25  O   UNL     1      -4.885   4.655  -3.074  1.00  0.00    -0.376 OA
BRANCH  25  26
ATOM     26  C   UNL     1      -3.946   5.719  -3.017  1.00  0.00     0.202 C 
BRANCH  26  27
ATOM     27  C   UNL     1      -2.783   5.508  -2.038  1.00  0.00     0.261 C 
BRANCH  27  28
ATOM     28  O   UNL     1      -3.174   5.481  -0.665  1.00  0.00    -0.460 OA
BRANCH  28  29
ATOM     29  C   UNL     1      -3.739   6.610  -0.190  1.00  0.00     0.338 C 
ATOM     30  O   UNL     1      -3.847   7.683  -0.755  1.00  0.00    -0.246 OA
BRANCH  29  31
ATOM     31  C   UNL     1      -4.427   6.221   1.046  1.00  0.00     0.060 A 
ATOM     32  C   UNL     1      -5.819   6.351   1.092  1.00  0.00     0.016 A 
ATOM     33  C   UNL     1      -3.713   5.647   2.102  1.00  0.00     0.016 A 
ATOM     34  C   UNL     1      -6.510   5.903   2.209  1.00  0.00     0.010 A 
ATOM     35  C   UNL     1      -4.403   5.231   3.236  1.00  0.00     0.010 A 
ATOM     36  C   UNL     1      -5.797   5.381   3.296  1.00  0.00    -0.014 A 
BRANCH  36  37
ATOM     37  C   UNL     1      -6.496   5.218   4.582  1.00  0.00     0.031 A 
ATOM     38  C   UNL     1      -6.520   6.402   5.504  1.00  0.00     0.074 A 
ATOM     39  C   UNL     1      -7.109   4.064   4.889  1.00  0.00     0.049 A 
ATOM     40  N   UNL     1      -7.095   6.532   6.667  1.00  0.00    -0.248 NA
ATOM     41  C   UNL     1      -5.798   7.604   5.047  1.00  0.00     0.031 C 
ATOM     42  C   UNL     1      -7.157   2.877   4.036  1.00  0.00     0.029 A 
ATOM     43  N   UNL     1      -7.808   3.705   6.010  1.00  0.00    -0.354 N 
ATOM     44  C   UNL     1      -6.812   7.829   7.077  1.00  0.00     0.074 A 
ATOM     45  C   UNL     1      -5.988   8.436   6.058  1.00  0.00     0.031 C 
ATOM     46  C   UNL     1      -7.845   1.912   4.674  1.00  0.00     0.029 A 
ATOM     47  C   UNL     1      -8.263   2.410   5.982  1.00  0.00     0.049 A 
ATOM     48  H   UNL     1      -7.970   4.317   6.764  1.00  0.00     0.167 HD
ATOM     49  C   UNL     1      -7.208   8.456   8.207  1.00  0.00     0.031 A 
ATOM     50  C   UNL     1      -8.930   1.711   6.921  1.00  0.00     0.031 A 
ATOM     51  C   UNL     1      -7.987   7.815   9.229  1.00  0.00     0.049 A 
ATOM     52  C   UNL     1      -9.303   2.409   8.203  1.00  0.00     0.074 A 
ATOM     53  C   UNL     1      -8.446   8.341  10.422  1.00  0.00     0.029 A 
ATOM     54  N   UNL     1      -8.407   6.492   9.181  1.00  0.00    -0.354 N 
ATOM     55  N   UNL     1      -9.069   3.651   8.563  1.00  0.00    -0.248 NA
ATOM     56  C   UNL     1     -10.040   1.621   9.199  1.00  0.00     0.031 C 
ATOM     57  C   UNL     1      -9.095   7.317  11.121  1.00  0.00     0.029 A 
ATOM     58  C   UNL     1      -9.096   6.173  10.336  1.00  0.00     0.049 A 
ATOM     59  H   UNL     1      -8.238   5.873   8.434  1.00  0.00     0.167 HD
ATOM     60  C   UNL     1      -9.651   3.800   9.817  1.00  0.00     0.074 A 
ATOM     61  C   UNL     1     -10.260   2.525  10.144  1.00  0.00     0.031 C 
ATOM     62  C   UNL     1      -9.684   4.889  10.627  1.00  0.00     0.031 A 
BRANCH  49  63
ATOM     63  C   UNL     1      -6.755   9.876   8.401  1.00  0.00    -0.014 A 
ATOM     64  C   UNL     1      -7.269  10.921   7.609  1.00  0.00     0.010 A 
ATOM     65  C   UNL     1      -5.790  10.171   9.380  1.00  0.00     0.010 A 
ATOM     66  C   UNL     1      -6.794  12.226   7.765  1.00  0.00     0.020 A 
ATOM     67  C   UNL     1      -5.332  11.480   9.557  1.00  0.00     0.020 A 
ATOM     68  C   UNL     1      -5.825  12.496   8.736  1.00  0.00     0.054 A 
BRANCH  68  69
ATOM     69  S   UNL     1      -5.231  14.200   8.923  1.00  0.00     0.124 S 
ATOM     70  O   UNL     1      -4.408  14.364   7.727  1.00  0.00    -0.237 OA
ATOM     71  O   UNL     1      -6.472  14.971   8.942  1.00  0.00    -0.237 OA
ATOM     72  O   UNL     1      -4.497  14.175  10.185  1.00  0.00    -0.744 OA
ENDBRANCH  68  69
ENDBRANCH  49  63
BRANCH  50  73
ATOM     73  C   UNL     1      -9.268   0.280   6.686  1.00  0.00    -0.014 A 
ATOM     74  C   UNL     1     -10.600  -0.128   6.495  1.00  0.00     0.010 A 
ATOM     75  C   UNL     1      -8.246  -0.686   6.633  1.00  0.00     0.010 A 
ATOM     76  C   UNL     1     -10.904  -1.475   6.271  1.00  0.00     0.020 A 
ATOM     77  C   UNL     1      -8.543  -2.030   6.383  1.00  0.00     0.020 A 
ATOM     78  C   UNL     1      -9.872  -2.417   6.213  1.00  0.00     0.054 A 
BRANCH  78  79
ATOM     79  S   UNL     1     -10.285  -4.151   5.865  1.00  0.00     0.124 S 
ATOM     80  O   UNL     1     -10.895  -4.576   7.121  1.00  0.00    -0.237 OA
ATOM     81  O   UNL     1     -11.193  -4.036   4.727  1.00  0.00    -0.237 OA
ATOM     82  O   UNL     1      -8.990  -4.756   5.561  1.00  0.00    -0.744 OA
ENDBRANCH  78  79
ENDBRANCH  50  73
BRANCH  62  83
ATOM     83  C   UNL     1     -10.425   4.755  11.929  1.00  0.00    -0.014 A 
ATOM     84  C   UNL     1      -9.894   4.010  12.995  1.00  0.00     0.010 A 
ATOM     85  C   UNL     1     -11.637   5.448  12.106  1.00  0.00     0.010 A 
ATOM     86  C   UNL     1     -10.579   3.936  14.210  1.00  0.00     0.020 A 
ATOM     87  C   UNL     1     -12.309   5.400  13.328  1.00  0.00     0.020 A 
ATOM     88  C   UNL     1     -11.782   4.633  14.369  1.00  0.00     0.054 A 
BRANCH  88  89
ATOM     89  S   UNL     1     -12.627   4.560  15.971  1.00  0.00     0.124 S 
ATOM     90  O   UNL     1     -13.187   3.212  15.957  1.00  0.00    -0.237 OA
ATOM     91  O   UNL     1     -11.537   4.780  16.919  1.00  0.00    -0.237 OA
ATOM     92  O   UNL     1     -13.606   5.643  15.895  1.00  0.00    -0.744 OA
ENDBRANCH  88  89
ENDBRANCH  62  83
ENDBRANCH  36  37
ENDBRANCH  29  31
ENDBRANCH  28  29
ENDBRANCH  27  28
ENDBRANCH  26  27
ENDBRANCH  25  26
ENDBRANCH  24  25
ENDBRANCH  23  24
ENDBRANCH   1  23
TORSDOF 27
