REMARK SMILES COc1ccccc1[C@@H]1CN(C(=O)c2cnn3ccccc23)C[C@H]1C(=O)OCCOCCOCCOCCOC(=O)c1ccc(-c2c3nc(c(-c4ccc(S(=O)(=O)[O-])cc4)c4ccc([nH]4)c(-c4ccc(S(=O)(=O)[O-])cc4)c4nc(c(-c5ccc(S(=O)(=O)[O-])cc5)c5ccc2[nH]5)C=C4)C=C3)cc1
REMARK SMILES IDX 34 1 33 2 32 3 31 4 30 5 29 6 28 7 27 8 25 9 26 10 24 11
REMARK SMILES IDX 9 12 10 13 11 14 23 15 8 16 3 17 4 18 5 19 7 20 6 21 2 22
REMARK SMILES IDX 1 23 12 24 13 25 14 26 15 27 22 28 16 29 17 30 21 31 18 32
REMARK SMILES IDX 20 33 19 34 35 35 36 36 37 37 38 38 39 39 40 40 41 41 42 42
REMARK SMILES IDX 43 43 101 44 44 45 100 46 45 47 46 48 47 49 94 50 48 51
REMARK SMILES IDX 99 52 93 53 95 54 49 55 98 56 92 57 91 58 50 60 80 61 61 62
REMARK SMILES IDX 79 63 62 64 65 65 78 66 96 67 63 68 64 69 77 71 97 72 66 73
REMARK SMILES IDX 51 74 52 75 60 76 53 77 59 78 54 79 55 80 56 81 57 82 58 83
REMARK SMILES IDX 81 84 82 85 90 86 83 87 89 88 84 89 85 90 86 91 87 92 88 93
REMARK SMILES IDX 67 94 68 95 76 96 69 97 75 98 70 99 71 100 72 101 73 102
REMARK SMILES IDX 74 103
REMARK H PARENT 95 59 65 70
REMARK Flexibility Score: inf
ROOT
ATOM      1  C   UNL     1       4.393   1.688   5.812  1.00  0.00     0.188 C 
ENDROOT
BRANCH   1   2
ATOM      2  O   UNL     1       3.995   0.953   4.665  1.00  0.00    -0.377 OA
BRANCH   2   3
ATOM      3  C   UNL     1       2.634   1.013   4.286  1.00  0.00     0.188 C 
BRANCH   3   4
ATOM      4  C   UNL     1       1.723  -0.156   4.706  1.00  0.00     0.188 C 
BRANCH   4   5
ATOM      5  O   UNL     1       2.188  -1.189   5.561  1.00  0.00    -0.376 OA
BRANCH   5   6
ATOM      6  C   UNL     1       3.550  -1.579   5.536  1.00  0.00     0.202 C 
BRANCH   6   7
ATOM      7  C   UNL     1       4.222  -1.989   4.211  1.00  0.00     0.261 C 
BRANCH   7   8
ATOM      8  O   UNL     1       4.008  -1.129   3.066  1.00  0.00    -0.463 OA
BRANCH   8   9
ATOM      9  C   UNL     1       3.080  -1.560   2.192  1.00  0.00     0.311 C 
ATOM     10  O   UNL     1       2.504  -2.644   2.292  1.00  0.00    -0.252 OA
BRANCH   9  11
ATOM     11  C   UNL     1       2.798  -0.681   0.986  1.00  0.00     0.128 C 
ATOM     12  C   UNL     1       3.047   0.840   0.803  1.00  0.00     0.058 C 
ATOM     13  C   UNL     1       3.491   0.976  -0.657  1.00  0.00     0.129 C 
ATOM     14  N   UNL     1       4.163  -0.273  -0.930  1.00  0.00    -0.337 N 
ATOM     15  C   UNL     1       3.590  -1.340  -0.142  1.00  0.00     0.135 C 
BRANCH  12  16
ATOM     16  C   UNL     1       1.994   1.932   1.066  1.00  0.00    -0.000 A 
ATOM     17  C   UNL     1       0.616   1.980   0.786  1.00  0.00     0.122 A 
ATOM     18  C   UNL     1      -0.131   3.114   1.204  1.00  0.00     0.047 A 
ATOM     19  C   UNL     1       0.441   4.225   1.811  1.00  0.00     0.004 A 
ATOM     20  C   UNL     1       2.560   3.123   1.633  1.00  0.00     0.008 A 
ATOM     21  C   UNL     1       1.806   4.244   1.994  1.00  0.00     0.001 A 
BRANCH  17  22
ATOM     22  O   UNL     1      -0.247   1.175   0.115  1.00  0.00    -0.496 OA
ATOM     23  C   UNL     1       0.010  -0.086  -0.442  1.00  0.00     0.278 C 
ENDBRANCH  17  22
ENDBRANCH  12  16
BRANCH  14  24
ATOM     24  C   UNL     1       5.080  -0.567  -1.920  1.00  0.00     0.257 C 
ATOM     25  O   UNL     1       5.394  -1.730  -2.167  1.00  0.00    -0.269 OA
BRANCH  24  26
ATOM     26  C   UNL     1       5.610   0.517  -2.715  1.00  0.00     0.085 A 
ATOM     27  C   UNL     1       5.678   0.532  -4.122  1.00  0.00     0.150 A 
ATOM     28  C   UNL     1       6.231   1.694  -2.339  1.00  0.00     0.079 A 
ATOM     29  N   UNL     1       6.203   1.651  -4.615  1.00  0.00    -0.176 NA
ATOM     30  N   UNL     1       6.541   2.381  -3.521  1.00  0.00    -0.240 N 
ATOM     31  C   UNL     1       6.595   2.315  -1.103  1.00  0.00     0.029 A 
ATOM     32  C   UNL     1       7.117   3.651  -3.511  1.00  0.00     0.113 A 
ATOM     33  C   UNL     1       7.133   3.550  -1.108  1.00  0.00     0.004 A 
ATOM     34  C   UNL     1       7.404   4.256  -2.347  1.00  0.00     0.020 A 
ENDBRANCH  24  26
ENDBRANCH  14  24
ENDBRANCH   9  11
ENDBRANCH   8   9
ENDBRANCH   7   8
ENDBRANCH   6   7
ENDBRANCH   5   6
ENDBRANCH   4   5
ENDBRANCH   3   4
ENDBRANCH   2   3
ENDBRANCH   1   2
BRANCH   1  35
ATOM     35  C   UNL     1       3.421   1.740   7.007  1.00  0.00     0.188 C 
BRANCH  35  36
ATOM     36  O   UNL     1       2.051   1.872   6.652  1.00  0.00    -0.376 OA
BRANCH  36  37
ATOM     37  C   UNL     1       1.397   3.128   6.710  1.00  0.00     0.202 C 
BRANCH  37  38
ATOM     38  C   UNL     1       1.855   4.257   5.789  1.00  0.00     0.261 C 
BRANCH  38  39
ATOM     39  O   UNL     1       3.253   4.407   5.638  1.00  0.00    -0.460 OA
BRANCH  39  40
ATOM     40  C   UNL     1       3.894   4.844   6.731  1.00  0.00     0.338 C 
ATOM     41  O   UNL     1       3.467   4.839   7.886  1.00  0.00    -0.246 OA
BRANCH  40  42
ATOM     42  C   UNL     1       5.141   5.482   6.321  1.00  0.00     0.060 A 
ATOM     43  C   UNL     1       5.966   5.934   7.347  1.00  0.00     0.016 A 
ATOM     44  C   UNL     1       5.295   5.910   4.989  1.00  0.00     0.016 A 
ATOM     45  C   UNL     1       6.775   7.011   7.086  1.00  0.00     0.010 A 
ATOM     46  C   UNL     1       6.104   6.990   4.733  1.00  0.00     0.010 A 
ATOM     47  C   UNL     1       6.756   7.584   5.806  1.00  0.00    -0.014 A 
BRANCH  47  48
ATOM     48  C   UNL     1       7.561   8.766   5.604  1.00  0.00     0.031 A 
ATOM     49  C   UNL     1       8.999   8.464   5.709  1.00  0.00     0.074 A 
ATOM     50  C   UNL     1       7.058   9.983   5.329  1.00  0.00     0.049 A 
ATOM     51  N   UNL     1       9.765   8.731   6.711  1.00  0.00    -0.248 NA
ATOM     52  C   UNL     1       9.591   7.556   4.713  1.00  0.00     0.031 C 
ATOM     53  C   UNL     1       5.683  10.351   4.991  1.00  0.00     0.029 A 
ATOM     54  N   UNL     1       7.726  11.160   5.203  1.00  0.00    -0.354 N 
ATOM     55  C   UNL     1      11.013   8.254   6.349  1.00  0.00     0.074 A 
ATOM     56  C   UNL     1      10.798   7.354   5.243  1.00  0.00     0.031 C 
ATOM     57  C   UNL     1       5.678  11.596   4.457  1.00  0.00     0.029 A 
ATOM     58  C   UNL     1       7.019  12.154   4.540  1.00  0.00     0.049 A 
ATOM     59  H   UNL     1       8.636  11.296   5.553  1.00  0.00     0.167 HD
ATOM     60  C   UNL     1      12.140   8.887   6.768  1.00  0.00     0.031 A 
ATOM     61  C   UNL     1       7.531  13.307   4.033  1.00  0.00     0.031 A 
ATOM     62  C   UNL     1      11.883   9.753   7.892  1.00  0.00     0.049 A 
ATOM     63  C   UNL     1       8.808  13.571   4.746  1.00  0.00     0.074 A 
ATOM     64  C   UNL     1      11.326   9.569   9.144  1.00  0.00     0.029 A 
ATOM     65  N   UNL     1      11.822  11.106   7.645  1.00  0.00    -0.354 N 
ATOM     66  N   UNL     1       8.859  13.883   6.011  1.00  0.00    -0.248 NA
ATOM     67  C   UNL     1      10.034  13.011   4.196  1.00  0.00     0.031 C 
ATOM     68  C   UNL     1      10.532  10.731   9.368  1.00  0.00     0.029 A 
ATOM     69  C   UNL     1      10.715  11.597   8.289  1.00  0.00     0.049 A 
ATOM     70  H   UNL     1      12.459  11.627   7.104  1.00  0.00     0.167 HD
ATOM     71  C   UNL     1       9.922  13.146   6.514  1.00  0.00     0.074 A 
ATOM     72  C   UNL     1      10.665  12.701   5.334  1.00  0.00     0.031 C 
ATOM     73  C   UNL     1       9.939  12.723   7.814  1.00  0.00     0.031 A 
BRANCH  60  74
ATOM     74  C   UNL     1      13.326   9.070   5.859  1.00  0.00    -0.014 A 
ATOM     75  C   UNL     1      14.486   9.678   6.371  1.00  0.00     0.010 A 
ATOM     76  C   UNL     1      13.237   8.931   4.456  1.00  0.00     0.010 A 
ATOM     77  C   UNL     1      15.475  10.177   5.515  1.00  0.00     0.020 A 
ATOM     78  C   UNL     1      14.235   9.381   3.598  1.00  0.00     0.020 A 
ATOM     79  C   UNL     1      15.336  10.031   4.133  1.00  0.00     0.054 A 
BRANCH  79  80
ATOM     80  S   UNL     1      16.576  10.748   3.033  1.00  0.00     0.124 S 
ATOM     81  O   UNL     1      16.389  12.176   3.265  1.00  0.00    -0.237 OA
ATOM     82  O   UNL     1      17.813  10.174   3.554  1.00  0.00    -0.237 OA
ATOM     83  O   UNL     1      16.178  10.267   1.712  1.00  0.00    -0.744 OA
ENDBRANCH  79  80
ENDBRANCH  60  74
BRANCH  61  84
ATOM     84  C   UNL     1       7.168  13.979   2.756  1.00  0.00    -0.014 A 
ATOM     85  C   UNL     1       7.707  15.235   2.410  1.00  0.00     0.010 A 
ATOM     86  C   UNL     1       6.511  13.256   1.739  1.00  0.00     0.010 A 
ATOM     87  C   UNL     1       7.655  15.710   1.086  1.00  0.00     0.020 A 
ATOM     88  C   UNL     1       6.447  13.726   0.422  1.00  0.00     0.020 A 
ATOM     89  C   UNL     1       7.045  14.939   0.094  1.00  0.00     0.054 A 
BRANCH  89  90
ATOM     90  S   UNL     1       7.152  15.452  -1.647  1.00  0.00     0.124 S 
ATOM     91  O   UNL     1       6.257  16.605  -1.688  1.00  0.00    -0.237 OA
ATOM     92  O   UNL     1       8.573  15.746  -1.807  1.00  0.00    -0.237 OA
ATOM     93  O   UNL     1       6.682  14.277  -2.381  1.00  0.00    -0.744 OA
ENDBRANCH  89  90
ENDBRANCH  61  84
BRANCH  73  94
ATOM     94  C   UNL     1       8.943  13.318   8.784  1.00  0.00    -0.014 A 
ATOM     95  C   UNL     1       7.544  13.289   8.611  1.00  0.00     0.010 A 
ATOM     96  C   UNL     1       9.452  13.830   9.991  1.00  0.00     0.010 A 
ATOM     97  C   UNL     1       6.687  13.807   9.595  1.00  0.00     0.020 A 
ATOM     98  C   UNL     1       8.605  14.327  10.984  1.00  0.00     0.020 A 
ATOM     99  C   UNL     1       7.227  14.331  10.774  1.00  0.00     0.054 A 
BRANCH  99 100
ATOM    100  S   UNL     1       6.121  15.010  12.042  1.00  0.00     0.124 S 
ATOM    101  O   UNL     1       5.566  16.188  11.382  1.00  0.00    -0.237 OA
ATOM    102  O   UNL     1       5.180  13.915  12.272  1.00  0.00    -0.237 OA
ATOM    103  O   UNL     1       7.013  15.294  13.166  1.00  0.00    -0.744 OA
ENDBRANCH  99 100
ENDBRANCH  73  94
ENDBRANCH  47  48
ENDBRANCH  40  42
ENDBRANCH  39  40
ENDBRANCH  38  39
ENDBRANCH  37  38
ENDBRANCH  36  37
ENDBRANCH  35  36
ENDBRANCH   1  35
TORSDOF 27
