REMARK SMILES O=C(OCCOCCOCCOCCOC(=O)c1c[nH]c(=O)c(-c2cccc([N+](=O)[O-])c2)c1)c1ccc(-c2c3nc(c(-c4ccc(S(=O)(=O)[O-])cc4)c4ccc([nH]4)c(-c4ccc(S(=O)(=O)[O-])cc4)c4nc(c(-c5ccc(S(=O)(=O)[O-])cc5)c5ccc2[nH]5)C=C4)C=C3)cc1
REMARK SMILES IDX 8 1 7 2 6 3 5 4 4 5 3 6 2 7 1 8 34 9 35 10 93 11 36 12 92 13
REMARK SMILES IDX 37 14 38 15 39 16 86 17 40 18 91 19 85 20 87 21 41 22 90 23
REMARK SMILES IDX 84 24 83 25 42 27 72 28 53 29 71 30 54 31 57 32 70 33 88 34
REMARK SMILES IDX 55 35 56 36 69 38 89 39 58 40 43 41 44 42 52 43 45 44 51 45
REMARK SMILES IDX 46 46 47 47 48 48 49 49 50 50 73 51 74 52 82 53 75 54 81 55
REMARK SMILES IDX 76 56 77 57 78 58 79 59 80 60 59 61 60 62 68 63 61 64 67 65
REMARK SMILES IDX 62 66 63 67 64 68 65 69 66 70 9 71 10 72 11 73 12 74 13 75
REMARK SMILES IDX 14 76 15 77 16 78 17 79 18 80 19 81 33 82 20 83 23 84 21 85
REMARK SMILES IDX 22 87 24 88 25 89 32 90 26 91 28 92 27 93 29 94 30 95 31 96
REMARK H PARENT 87 26 57 37 20 86
REMARK Flexibility Score: inf
ROOT
ATOM      1  C   UNL     1       1.892  -0.441   2.769  1.00  0.00     0.188 C 
ENDROOT
BRANCH   1   2
ATOM      2  C   UNL     1       2.321   0.472   1.620  1.00  0.00     0.188 C 
BRANCH   2   3
ATOM      3  O   UNL     1       3.657   0.170   1.215  1.00  0.00    -0.376 OA
BRANCH   3   4
ATOM      4  C   UNL     1       4.444   1.288   0.812  1.00  0.00     0.202 C 
BRANCH   4   5
ATOM      5  C   UNL     1       4.277   1.668  -0.660  1.00  0.00     0.261 C 
BRANCH   5   6
ATOM      6  O   UNL     1       2.926   1.494  -1.109  1.00  0.00    -0.460 OA
BRANCH   6   7
ATOM      7  C   UNL     1       2.399   0.414  -1.740  1.00  0.00     0.338 C 
ATOM      8  O   UNL     1       1.227   0.477  -2.109  1.00  0.00    -0.246 OA
BRANCH   7   9
ATOM      9  C   UNL     1       3.153  -0.851  -2.027  1.00  0.00     0.060 A 
ATOM     10  C   UNL     1       4.243  -1.334  -1.299  1.00  0.00     0.016 A 
ATOM     11  C   UNL     1       2.660  -1.655  -3.069  1.00  0.00     0.016 A 
ATOM     12  C   UNL     1       4.856  -2.542  -1.610  1.00  0.00     0.010 A 
ATOM     13  C   UNL     1       3.254  -2.884  -3.377  1.00  0.00     0.010 A 
ATOM     14  C   UNL     1       4.367  -3.321  -2.652  1.00  0.00    -0.014 A 
BRANCH  14  15
ATOM     15  C   UNL     1       5.122  -4.527  -3.033  1.00  0.00     0.031 A 
ATOM     16  C   UNL     1       6.012  -4.447  -4.236  1.00  0.00     0.074 A 
ATOM     17  C   UNL     1       5.088  -5.617  -2.245  1.00  0.00     0.049 A 
ATOM     18  N   UNL     1       6.718  -5.385  -4.802  1.00  0.00    -0.248 NA
ATOM     19  C   UNL     1       6.136  -3.125  -4.879  1.00  0.00     0.031 C 
ATOM     20  C   UNL     1       4.349  -5.727  -0.983  1.00  0.00     0.029 A 
ATOM     21  N   UNL     1       5.702  -6.834  -2.377  1.00  0.00    -0.354 N 
ATOM     22  C   UNL     1       7.338  -4.780  -5.888  1.00  0.00     0.074 A 
ATOM     23  C   UNL     1       6.941  -3.392  -5.896  1.00  0.00     0.031 C 
ATOM     24  C   UNL     1       4.556  -6.947  -0.458  1.00  0.00     0.029 A 
ATOM     25  C   UNL     1       5.381  -7.723  -1.376  1.00  0.00     0.049 A 
ATOM     26  H   UNL     1       6.314  -7.052  -3.116  1.00  0.00     0.167 HD
ATOM     27  C   UNL     1       8.150  -5.351  -6.805  1.00  0.00     0.031 A 
ATOM     28  C   UNL     1       5.684  -9.030  -1.255  1.00  0.00     0.031 A 
ATOM     29  C   UNL     1       8.517  -6.738  -6.770  1.00  0.00     0.049 A 
ATOM     30  C   UNL     1       6.504  -9.664  -2.349  1.00  0.00     0.074 A 
ATOM     31  C   UNL     1       9.297  -7.447  -7.663  1.00  0.00     0.029 A 
ATOM     32  N   UNL     1       8.118  -7.628  -5.783  1.00  0.00    -0.354 N 
ATOM     33  N   UNL     1       7.057  -9.095  -3.397  1.00  0.00    -0.248 NA
ATOM     34  C   UNL     1       6.723 -11.113  -2.264  1.00  0.00     0.031 C 
ATOM     35  C   UNL     1       9.320  -8.782  -7.246  1.00  0.00     0.029 A 
ATOM     36  C   UNL     1       8.604  -8.890  -6.062  1.00  0.00     0.049 A 
ATOM     37  H   UNL     1       7.569  -7.395  -4.999  1.00  0.00     0.167 HD
ATOM     38  C   UNL     1       7.691 -10.116  -4.093  1.00  0.00     0.074 A 
ATOM     39  C   UNL     1       7.482 -11.331  -3.329  1.00  0.00     0.031 C 
ATOM     40  C   UNL     1       8.372 -10.067  -5.264  1.00  0.00     0.031 A 
BRANCH  27  41
ATOM     41  C   UNL     1       8.612  -4.500  -7.953  1.00  0.00    -0.014 A 
ATOM     42  C   UNL     1       9.618  -3.530  -7.798  1.00  0.00     0.010 A 
ATOM     43  C   UNL     1       8.037  -4.696  -9.222  1.00  0.00     0.010 A 
ATOM     44  C   UNL     1      10.028  -2.760  -8.890  1.00  0.00     0.020 A 
ATOM     45  C   UNL     1       8.458  -3.942 -10.320  1.00  0.00     0.020 A 
ATOM     46  C   UNL     1       9.446  -2.972 -10.145  1.00  0.00     0.054 A 
BRANCH  46  47
ATOM     47  S   UNL     1      10.027  -1.989 -11.555  1.00  0.00     0.124 S 
ATOM     48  O   UNL     1       9.470  -0.672 -11.255  1.00  0.00    -0.237 OA
ATOM     49  O   UNL     1      11.480  -2.096 -11.441  1.00  0.00    -0.237 OA
ATOM     50  O   UNL     1       9.445  -2.663 -12.713  1.00  0.00    -0.744 OA
ENDBRANCH  46  47
ENDBRANCH  27  41
BRANCH  28  51
ATOM     51  C   UNL     1       5.130  -9.844  -0.134  1.00  0.00    -0.014 A 
ATOM     52  C   UNL     1       5.970 -10.468   0.804  1.00  0.00     0.010 A 
ATOM     53  C   UNL     1       3.738 -10.038  -0.029  1.00  0.00     0.010 A 
ATOM     54  C   UNL     1       5.434 -11.296   1.800  1.00  0.00     0.020 A 
ATOM     55  C   UNL     1       3.196 -10.836   0.982  1.00  0.00     0.020 A 
ATOM     56  C   UNL     1       4.050 -11.479   1.877  1.00  0.00     0.054 A 
BRANCH  56  57
ATOM     57  S   UNL     1       3.372 -12.554   3.173  1.00  0.00     0.124 S 
ATOM     58  O   UNL     1       3.695 -13.883   2.663  1.00  0.00    -0.237 OA
ATOM     59  O   UNL     1       4.114 -12.132   4.357  1.00  0.00    -0.237 OA
ATOM     60  O   UNL     1       1.950 -12.216   3.186  1.00  0.00    -0.744 OA
ENDBRANCH  56  57
ENDBRANCH  28  51
BRANCH  40  61
ATOM     61  C   UNL     1       8.948 -11.358  -5.772  1.00  0.00    -0.014 A 
ATOM     62  C   UNL     1       8.120 -12.337  -6.347  1.00  0.00     0.010 A 
ATOM     63  C   UNL     1      10.340 -11.554  -5.745  1.00  0.00     0.010 A 
ATOM     64  C   UNL     1       8.675 -13.505  -6.870  1.00  0.00     0.020 A 
ATOM     65  C   UNL     1      10.900 -12.708  -6.293  1.00  0.00     0.020 A 
ATOM     66  C   UNL     1      10.062 -13.681  -6.843  1.00  0.00     0.054 A 
BRANCH  66  67
ATOM     67  S   UNL     1      10.765 -15.176  -7.588  1.00  0.00     0.124 S 
ATOM     68  O   UNL     1      10.441 -16.192  -6.591  1.00  0.00    -0.237 OA
ATOM     69  O   UNL     1      10.037 -15.278  -8.850  1.00  0.00    -0.237 OA
ATOM     70  O   UNL     1      12.186 -14.861  -7.719  1.00  0.00    -0.744 OA
ENDBRANCH  66  67
ENDBRANCH  40  61
ENDBRANCH  14  15
ENDBRANCH   7   9
ENDBRANCH   6   7
ENDBRANCH   5   6
ENDBRANCH   4   5
ENDBRANCH   3   4
ENDBRANCH   2   3
ENDBRANCH   1   2
BRANCH   1  71
ATOM     71  O   UNL     1       2.599  -0.248   3.994  1.00  0.00    -0.377 OA
BRANCH  71  72
ATOM     72  C   UNL     1       4.020  -0.261   3.926  1.00  0.00     0.188 C 
BRANCH  72  73
ATOM     73  C   UNL     1       4.736  -1.498   3.336  1.00  0.00     0.188 C 
BRANCH  73  74
ATOM     74  O   UNL     1       3.879  -2.561   2.946  1.00  0.00    -0.376 OA
BRANCH  74  75
ATOM     75  C   UNL     1       3.913  -3.721   3.775  1.00  0.00     0.202 C 
BRANCH  75  76
ATOM     76  C   UNL     1       3.154  -3.554   5.095  1.00  0.00     0.261 C 
BRANCH  76  77
ATOM     77  O   UNL     1       3.683  -2.542   5.971  1.00  0.00    -0.460 OA
BRANCH  77  78
ATOM     78  C   UNL     1       4.960  -2.660   6.401  1.00  0.00     0.339 C 
ATOM     79  O   UNL     1       5.727  -3.588   6.204  1.00  0.00    -0.246 OA
BRANCH  78  80
ATOM     80  C   UNL     1       5.338  -1.365   7.021  1.00  0.00     0.077 A 
ATOM     81  C   UNL     1       6.448  -0.734   6.607  1.00  0.00     0.101 A 
ATOM     82  C   UNL     1       4.480  -0.725   7.990  1.00  0.00     0.031 A 
ATOM     83  N   UNL     1       6.731   0.534   7.061  1.00  0.00    -0.328 N 
ATOM     84  C   UNL     1       4.771   0.477   8.524  1.00  0.00     0.048 A 
ATOM     85  C   UNL     1       5.958   1.222   7.977  1.00  0.00     0.255 A 
ATOM     86  H   UNL     1       7.536   0.979   6.712  1.00  0.00     0.169 HD
ATOM     87  O   UNL     1       6.239   2.366   8.319  1.00  0.00    -0.269 OA
BRANCH  84  88
ATOM     88  C   UNL     1       3.962   0.956   9.660  1.00  0.00    -0.006 A 
ATOM     89  C   UNL     1       3.715   0.061  10.722  1.00  0.00     0.009 A 
ATOM     90  C   UNL     1       3.438   2.252   9.734  1.00  0.00     0.094 A 
ATOM     91  C   UNL     1       2.931   0.422  11.813  1.00  0.00     0.008 A 
ATOM     92  C   UNL     1       2.655   2.616  10.844  1.00  0.00     0.270 A 
ATOM     93  C   UNL     1       2.393   1.702  11.876  1.00  0.00     0.085 A 
BRANCH  92  94
ATOM     94  N   UNL     1       2.094   3.969  10.936  1.00  0.00     0.062 N 
ATOM     95  O   UNL     1       1.413   4.242  11.936  1.00  0.00    -0.258 OA
ATOM     96  O   UNL     1       2.328   4.761  10.013  1.00  0.00    -0.258 OA
ENDBRANCH  92  94
ENDBRANCH  84  88
ENDBRANCH  78  80
ENDBRANCH  77  78
ENDBRANCH  76  77
ENDBRANCH  75  76
ENDBRANCH  74  75
ENDBRANCH  73  74
ENDBRANCH  72  73
ENDBRANCH  71  72
ENDBRANCH   1  71
TORSDOF 25
