REMARK SMILES CCc1c(C)nc(Nc2ccc(Cl)cc2Cl)nc1OCC(=O)OCCOCCOCCOCCOC(=O)c1ccc(-c2c3nc(c(-c4ccc(S(=O)(=O)[O-])cc4)c4ccc([nH]4)c(-c4ccc(S(=O)(=O)[O-])cc4)c4nc(c(-c5ccc(S(=O)(=O)[O-])cc5)c5ccc2[nH]5)C=C4)C=C3)cc1
REMARK SMILES IDX 28 1 27 2 26 3 25 4 24 5 23 6 21 7 22 8 20 9 19 10 18 11
REMARK SMILES IDX 3 12 4 13 5 14 6 15 17 16 7 17 2 18 1 19 8 20 9 22 10 23
REMARK SMILES IDX 15 24 11 25 14 26 16 27 12 28 13 29 29 30 30 31 31 32 32 33
REMARK SMILES IDX 33 34 34 35 35 36 36 37 37 38 38 39 39 40 97 41 40 42 96 43
REMARK SMILES IDX 41 44 42 45 43 46 90 47 44 48 95 49 89 50 91 51 45 52 94 53
REMARK SMILES IDX 88 54 87 55 46 57 76 58 57 59 75 60 58 61 61 62 74 63 92 64
REMARK SMILES IDX 59 65 60 66 73 68 93 69 62 70 47 71 48 72 56 73 49 74 55 75
REMARK SMILES IDX 50 76 51 77 52 78 53 79 54 80 77 81 78 82 86 83 79 84 85 85
REMARK SMILES IDX 80 86 81 87 82 88 83 89 84 90 63 91 64 92 72 93 65 94 71 95
REMARK SMILES IDX 66 96 67 97 68 98 69 99 70 100
REMARK H PARENT 8 21 91 56 61 67
REMARK Flexibility Score: inf
ROOT
ATOM      1  C   UNL     1       1.615  -2.593   1.215  1.00  0.00     0.188 C 
ENDROOT
BRANCH   1   2
ATOM      2  C   UNL     1       1.601  -1.147   0.696  1.00  0.00     0.188 C 
BRANCH   2   3
ATOM      3  O   UNL     1       1.929  -0.095   1.580  1.00  0.00    -0.376 OA
BRANCH   3   4
ATOM      4  C   UNL     1       1.163   0.144   2.744  1.00  0.00     0.202 C 
BRANCH   4   5
ATOM      5  C   UNL     1      -0.293  -0.335   2.921  1.00  0.00     0.261 C 
BRANCH   5   6
ATOM      6  O   UNL     1      -0.857  -1.143   1.871  1.00  0.00    -0.461 OA
BRANCH   6   7
ATOM      7  C   UNL     1      -1.566  -0.503   0.900  1.00  0.00     0.344 C 
ATOM      8  O   UNL     1      -1.855   0.688   0.921  1.00  0.00    -0.248 OA
BRANCH   7   9
ATOM      9  C   UNL     1      -1.987  -1.459  -0.238  1.00  0.00     0.353 C 
BRANCH   9  10
ATOM     10  O   UNL     1      -1.168  -2.494  -0.729  1.00  0.00    -0.465 OA
BRANCH  10  11
ATOM     11  C   UNL     1      -0.235  -2.491  -1.715  1.00  0.00     0.222 A 
ATOM     12  C   UNL     1       0.342  -1.433  -2.409  1.00  0.00     0.035 A 
ATOM     13  C   UNL     1       1.492  -1.792  -3.137  1.00  0.00     0.050 A 
ATOM     14  C   UNL     1       2.342  -0.807  -3.894  1.00  0.00     0.067 C 
ATOM     15  N   UNL     1       1.942  -3.062  -3.255  1.00  0.00    -0.218 NA
ATOM     16  N   UNL     1       0.203  -3.771  -1.873  1.00  0.00    -0.177 NA
ATOM     17  C   UNL     1       1.264  -4.030  -2.645  1.00  0.00     0.230 A 
BRANCH  12  18
ATOM     18  C   UNL     1      -0.158  -0.012  -2.483  1.00  0.00     0.040 C 
ATOM     19  C   UNL     1       0.523   1.031  -1.602  1.00  0.00     0.009 C 
ENDBRANCH  12  18
BRANCH  17  20
ATOM     20  N   UNL     1       1.670  -5.361  -2.776  1.00  0.00    -0.323 N 
ATOM     21  H   UNL     1       1.070  -6.037  -2.384  1.00  0.00     0.170 HD
BRANCH  20  22
ATOM     22  C   UNL     1       2.828  -5.852  -3.398  1.00  0.00     0.060 A 
ATOM     23  C   UNL     1       4.008  -5.969  -2.652  1.00  0.00     0.029 A 
ATOM     24  C   UNL     1       2.849  -6.332  -4.719  1.00  0.00     0.066 A 
ATOM     25  C   UNL     1       5.210  -6.378  -3.244  1.00  0.00     0.023 A 
ATOM     26  C   UNL     1       4.041  -6.766  -5.315  1.00  0.00     0.043 A 
ATOM     27  Cl  UNL     1       1.401  -6.416  -5.662  1.00  0.00    -0.082 Cl
ATOM     28  C   UNL     1       5.225  -6.749  -4.583  1.00  0.00     0.042 A 
ATOM     29  Cl  UNL     1       6.707  -7.195  -5.336  1.00  0.00    -0.084 Cl
ENDBRANCH  20  22
ENDBRANCH  17  20
ENDBRANCH  10  11
ENDBRANCH   9  10
ENDBRANCH   7   9
ENDBRANCH   6   7
ENDBRANCH   5   6
ENDBRANCH   4   5
ENDBRANCH   3   4
ENDBRANCH   2   3
ENDBRANCH   1   2
BRANCH   1  30
ATOM     30  O   UNL     1       2.912  -3.156   1.380  1.00  0.00    -0.377 OA
BRANCH  30  31
ATOM     31  C   UNL     1       3.715  -2.402   2.263  1.00  0.00     0.188 C 
BRANCH  31  32
ATOM     32  C   UNL     1       4.832  -1.604   1.569  1.00  0.00     0.188 C 
BRANCH  32  33
ATOM     33  O   UNL     1       4.660  -1.114   0.243  1.00  0.00    -0.376 OA
BRANCH  33  34
ATOM     34  C   UNL     1       4.430  -2.017  -0.840  1.00  0.00     0.202 C 
BRANCH  34  35
ATOM     35  C   UNL     1       5.412  -3.148  -1.096  1.00  0.00     0.261 C 
BRANCH  35  36
ATOM     36  O   UNL     1       5.276  -4.160  -0.088  1.00  0.00    -0.460 OA
BRANCH  36  37
ATOM     37  C   UNL     1       6.391  -4.401   0.625  1.00  0.00     0.338 C 
ATOM     38  O   UNL     1       7.523  -4.011   0.375  1.00  0.00    -0.246 OA
BRANCH  37  39
ATOM     39  C   UNL     1       6.016  -4.981   1.924  1.00  0.00     0.060 A 
ATOM     40  C   UNL     1       6.513  -4.323   3.057  1.00  0.00     0.016 A 
ATOM     41  C   UNL     1       5.207  -6.115   2.049  1.00  0.00     0.016 A 
ATOM     42  C   UNL     1       6.235  -4.814   4.320  1.00  0.00     0.010 A 
ATOM     43  C   UNL     1       4.973  -6.644   3.323  1.00  0.00     0.010 A 
ATOM     44  C   UNL     1       5.529  -6.014   4.450  1.00  0.00    -0.014 A 
BRANCH  44  45
ATOM     45  C   UNL     1       5.680  -6.713   5.741  1.00  0.00     0.031 A 
ATOM     46  C   UNL     1       6.868  -7.625   5.886  1.00  0.00     0.074 A 
ATOM     47  C   UNL     1       4.905  -6.393   6.790  1.00  0.00     0.049 A 
ATOM     48  N   UNL     1       7.341  -8.207   6.954  1.00  0.00    -0.248 NA
ATOM     49  C   UNL     1       7.643  -7.894   4.660  1.00  0.00     0.031 C 
ATOM     50  C   UNL     1       3.783  -5.454   6.759  1.00  0.00     0.029 A 
ATOM     51  N   UNL     1       4.973  -6.795   8.097  1.00  0.00    -0.354 N 
ATOM     52  C   UNL     1       8.474  -8.894   6.532  1.00  0.00     0.074 A 
ATOM     53  C   UNL     1       8.598  -8.693   5.108  1.00  0.00     0.031 C 
ATOM     54  C   UNL     1       3.276  -5.342   7.999  1.00  0.00     0.029 A 
ATOM     55  C   UNL     1       4.024  -6.214   8.902  1.00  0.00     0.049 A 
ATOM     56  H   UNL     1       5.640  -7.440   8.428  1.00  0.00     0.167 HD
ATOM     57  C   UNL     1       9.342  -9.621   7.273  1.00  0.00     0.031 A 
ATOM     58  C   UNL     1       3.795  -6.375  10.220  1.00  0.00     0.031 A 
ATOM     59  C   UNL     1       9.183  -9.837   8.684  1.00  0.00     0.049 A 
ATOM     60  C   UNL     1       4.719  -7.272  11.003  1.00  0.00     0.074 A 
ATOM     61  C   UNL     1       9.975 -10.582   9.537  1.00  0.00     0.029 A 
ATOM     62  N   UNL     1       8.151  -9.310   9.448  1.00  0.00    -0.354 N 
ATOM     63  N   UNL     1       5.786  -7.920  10.594  1.00  0.00    -0.248 NA
ATOM     64  C   UNL     1       4.418  -7.444  12.430  1.00  0.00     0.031 C 
ATOM     65  C   UNL     1       9.386 -10.557  10.806  1.00  0.00     0.029 A 
ATOM     66  C   UNL     1       8.271  -9.733  10.759  1.00  0.00     0.049 A 
ATOM     67  H   UNL     1       7.439  -8.721   9.108  1.00  0.00     0.167 HD
ATOM     68  C   UNL     1       6.302  -8.552  11.721  1.00  0.00     0.074 A 
ATOM     69  C   UNL     1       5.442  -8.185  12.829  1.00  0.00     0.031 C 
ATOM     70  C   UNL     1       7.388  -9.359  11.836  1.00  0.00     0.031 A 
BRANCH  57  71
ATOM     71  C   UNL     1      10.496 -10.269   6.555  1.00  0.00    -0.014 A 
ATOM     72  C   UNL     1      11.554  -9.506   6.026  1.00  0.00     0.010 A 
ATOM     73  C   UNL     1      10.529 -11.668   6.419  1.00  0.00     0.010 A 
ATOM     74  C   UNL     1      12.609 -10.129   5.352  1.00  0.00     0.020 A 
ATOM     75  C   UNL     1      11.597 -12.297   5.773  1.00  0.00     0.020 A 
ATOM     76  C   UNL     1      12.624 -11.522   5.232  1.00  0.00     0.054 A 
BRANCH  76  77
ATOM     77  S   UNL     1      14.024 -12.308   4.388  1.00  0.00     0.124 S 
ATOM     78  O   UNL     1      13.800 -11.915   2.999  1.00  0.00    -0.237 OA
ATOM     79  O   UNL     1      15.176 -11.688   5.038  1.00  0.00    -0.237 OA
ATOM     80  O   UNL     1      13.845 -13.730   4.669  1.00  0.00    -0.744 OA
ENDBRANCH  76  77
ENDBRANCH  57  71
BRANCH  58  81
ATOM     81  C   UNL     1       2.644  -5.690  10.872  1.00  0.00    -0.014 A 
ATOM     82  C   UNL     1       2.840  -4.708  11.859  1.00  0.00     0.010 A 
ATOM     83  C   UNL     1       1.328  -6.038  10.513  1.00  0.00     0.010 A 
ATOM     84  C   UNL     1       1.746  -4.107  12.491  1.00  0.00     0.020 A 
ATOM     85  C   UNL     1       0.232  -5.418  11.118  1.00  0.00     0.020 A 
ATOM     86  C   UNL     1       0.448  -4.465  12.114  1.00  0.00     0.054 A 
BRANCH  86  87
ATOM     87  S   UNL     1      -0.957  -3.648  12.920  1.00  0.00     0.124 S 
ATOM     88  O   UNL     1      -0.917  -4.223  14.260  1.00  0.00    -0.237 OA
ATOM     89  O   UNL     1      -0.596  -2.236  12.823  1.00  0.00    -0.237 OA
ATOM     90  O   UNL     1      -2.100  -4.046  12.101  1.00  0.00    -0.744 OA
ENDBRANCH  86  87
ENDBRANCH  58  81
BRANCH  70  91
ATOM     91  C   UNL     1       7.719  -9.863  13.217  1.00  0.00    -0.014 A 
ATOM     92  C   UNL     1       6.894 -10.789  13.879  1.00  0.00     0.010 A 
ATOM     93  C   UNL     1       8.891  -9.411  13.852  1.00  0.00     0.010 A 
ATOM     94  C   UNL     1       7.199 -11.202  15.178  1.00  0.00     0.020 A 
ATOM     95  C   UNL     1       9.220  -9.852  15.134  1.00  0.00     0.020 A 
ATOM     96  C   UNL     1       8.357 -10.725  15.799  1.00  0.00     0.054 A 
BRANCH  96  97
ATOM     97  S   UNL     1       8.729 -11.271  17.487  1.00  0.00     0.124 S 
ATOM     98  O   UNL     1       7.737 -10.537  18.267  1.00  0.00    -0.237 OA
ATOM     99  O   UNL     1       8.524 -12.716  17.408  1.00  0.00    -0.237 OA
ATOM    100  O   UNL     1      10.114 -10.854  17.689  1.00  0.00    -0.744 OA
ENDBRANCH  96  97
ENDBRANCH  70  91
ENDBRANCH  44  45
ENDBRANCH  37  39
ENDBRANCH  36  37
ENDBRANCH  35  36
ENDBRANCH  34  35
ENDBRANCH  33  34
ENDBRANCH  32  33
ENDBRANCH  31  32
ENDBRANCH  30  31
ENDBRANCH   1  30
TORSDOF 28
