REMARK SMILES COc1ccc([C@H]2CC(c3ccc(S(C)(=O)=O)cc3)=NN2c2ccc(C(=O)OCCOCCOCCOCCOC(=O)c3ccc(-c4c5nc(c(-c6ccc(S(=O)(=O)[O-])cc6)c6ccc([nH]6)c(-c6ccc(S(=O)(=O)[O-])cc6)c6nc(c(-c7ccc(S(=O)(=O)[O-])cc7)c7ccc4[nH]7)C=C6)C=C5)cc3)cc2)cc1
REMARK SMILES IDX 34 1 33 2 32 3 31 4 30 5 29 6 28 7 26 8 27 9 25 10 22 11
REMARK SMILES IDX 23 12 104 13 24 14 103 15 21 16 7 17 8 18 9 19 20 20 6 21
REMARK SMILES IDX 3 22 4 23 106 24 5 25 105 26 2 27 1 28 10 29 11 30 19 31
REMARK SMILES IDX 12 32 18 33 13 34 14 35 15 36 16 37 17 38 35 39 36 40 37 41
REMARK SMILES IDX 38 42 39 43 40 44 41 45 42 46 43 47 44 48 102 49 45 50
REMARK SMILES IDX 101 51 46 52 47 53 48 54 95 55 49 56 100 57 94 58 96 59
REMARK SMILES IDX 50 60 99 61 93 62 92 63 51 65 81 66 62 67 80 68 63 69 66 70
REMARK SMILES IDX 79 71 97 72 64 73 65 74 78 76 98 77 67 78 52 79 53 80 61 81
REMARK SMILES IDX 54 82 60 83 55 84 56 85 57 86 58 87 59 88 82 89 83 90 91 91
REMARK SMILES IDX 84 92 90 93 85 94 86 95 87 96 88 97 89 98 68 99 69 100
REMARK SMILES IDX 77 101 70 102 76 103 71 104 72 105 73 106 74 107 75 108
REMARK H PARENT 96 64 66 75
REMARK Flexibility Score: inf
ROOT
ATOM      1  O   UNL     1       2.386 -12.069   5.747  1.00  0.00    -0.377 OA
ENDROOT
BRANCH   1   2
ATOM      2  C   UNL     1       3.506 -11.240   5.471  1.00  0.00     0.188 C 
BRANCH   2   3
ATOM      3  C   UNL     1       4.175 -10.451   6.617  1.00  0.00     0.188 C 
BRANCH   3   4
ATOM      4  O   UNL     1       3.700 -10.782   7.909  1.00  0.00    -0.376 OA
BRANCH   4   5
ATOM      5  C   UNL     1       2.837  -9.885   8.582  1.00  0.00     0.202 C 
BRANCH   5   6
ATOM      6  C   UNL     1       1.521  -9.458   7.914  1.00  0.00     0.261 C 
BRANCH   6   7
ATOM      7  O   UNL     1       1.595  -9.110   6.525  1.00  0.00    -0.460 OA
BRANCH   7   8
ATOM      8  C   UNL     1       2.211  -7.947   6.224  1.00  0.00     0.338 C 
ATOM      9  O   UNL     1       2.716  -7.166   7.013  1.00  0.00    -0.246 OA
BRANCH   8  10
ATOM     10  C   UNL     1       2.359  -7.854   4.753  1.00  0.00     0.060 A 
ATOM     11  C   UNL     1       2.676  -7.484   1.974  1.00  0.00     0.060 A 
ATOM     12  C   UNL     1       3.756  -7.310   2.849  1.00  0.00     0.029 A 
ATOM     13  C   UNL     1       1.467  -7.956   2.513  1.00  0.00     0.029 A 
ATOM     14  C   UNL     1       3.594  -7.457   4.231  1.00  0.00     0.018 A 
ATOM     15  C   UNL     1       1.308  -8.161   3.889  1.00  0.00     0.018 A 
BRANCH  11  16
ATOM     16  N   UNL     1       2.801  -7.152   0.630  1.00  0.00    -0.257 N 
ATOM     17  C   UNL     1       1.756  -6.479  -0.142  1.00  0.00     0.144 C 
ATOM     18  C   UNL     1       2.315  -6.503  -1.567  1.00  0.00     0.091 C 
ATOM     19  C   UNL     1       3.618  -7.207  -1.330  1.00  0.00     0.071 C 
ATOM     20  N   UNL     1       3.881  -7.547  -0.107  1.00  0.00    -0.176 NA
BRANCH  17  21
ATOM     21  C   UNL     1       1.486  -5.050   0.313  1.00  0.00    -0.023 A 
ATOM     22  C   UNL     1       0.866  -2.351   0.837  1.00  0.00     0.118 A 
ATOM     23  C   UNL     1      -0.120  -3.330   0.936  1.00  0.00     0.047 A 
ATOM     24  C   UNL     1       2.181  -2.723   0.568  1.00  0.00     0.047 A 
ATOM     25  C   UNL     1       0.183  -4.668   0.668  1.00  0.00     0.010 A 
ATOM     26  C   UNL     1       2.491  -4.066   0.317  1.00  0.00     0.010 A 
BRANCH  22  27
ATOM     27  O   UNL     1       0.470  -1.062   1.075  1.00  0.00    -0.497 OA
ATOM     28  C   UNL     1       0.997  -0.117   0.146  1.00  0.00     0.278 C 
ENDBRANCH  22  27
ENDBRANCH  17  21
BRANCH  19  29
ATOM     29  C   UNL     1       4.494  -7.477  -2.472  1.00  0.00    -0.002 A 
ATOM     30  C   UNL     1       4.541  -8.764  -3.015  1.00  0.00     0.011 A 
ATOM     31  C   UNL     1       5.192  -6.419  -3.059  1.00  0.00     0.011 A 
ATOM     32  C   UNL     1       5.285  -8.993  -4.175  1.00  0.00     0.021 A 
ATOM     33  C   UNL     1       5.950  -6.649  -4.208  1.00  0.00     0.021 A 
ATOM     34  C   UNL     1       5.990  -7.934  -4.761  1.00  0.00     0.067 A 
BRANCH  34  35
ATOM     35  S   UNL     1       6.899  -8.216  -6.264  1.00  0.00     0.175 S 
ATOM     36  C   UNL     1       8.151  -9.387  -5.811  1.00  0.00     0.163 C 
ATOM     37  O   UNL     1       5.988  -8.854  -7.194  1.00  0.00    -0.224 OA
ATOM     38  O   UNL     1       7.570  -6.977  -6.612  1.00  0.00    -0.224 OA
ENDBRANCH  34  35
ENDBRANCH  19  29
ENDBRANCH  11  16
ENDBRANCH   8  10
ENDBRANCH   7   8
ENDBRANCH   6   7
ENDBRANCH   5   6
ENDBRANCH   4   5
ENDBRANCH   3   4
ENDBRANCH   2   3
ENDBRANCH   1   2
BRANCH   1  39
ATOM     39  C   UNL     1       2.382 -12.927   6.884  1.00  0.00     0.188 C 
BRANCH  39  40
ATOM     40  C   UNL     1       3.694 -13.486   7.482  1.00  0.00     0.188 C 
BRANCH  40  41
ATOM     41  O   UNL     1       4.858 -13.192   6.729  1.00  0.00    -0.376 OA
BRANCH  41  42
ATOM     42  C   UNL     1       5.455 -14.247   5.999  1.00  0.00     0.202 C 
BRANCH  42  43
ATOM     43  C   UNL     1       4.618 -14.895   4.887  1.00  0.00     0.261 C 
BRANCH  43  44
ATOM     44  O   UNL     1       3.311 -15.356   5.257  1.00  0.00    -0.460 OA
BRANCH  44  45
ATOM     45  C   UNL     1       3.242 -16.389   6.130  1.00  0.00     0.338 C 
ATOM     46  O   UNL     1       4.168 -16.974   6.647  1.00  0.00    -0.246 OA
BRANCH  45  47
ATOM     47  C   UNL     1       1.816 -16.559   6.492  1.00  0.00     0.060 A 
ATOM     48  C   UNL     1       1.423 -16.395   7.827  1.00  0.00     0.016 A 
ATOM     49  C   UNL     1       0.874 -16.863   5.508  1.00  0.00     0.016 A 
ATOM     50  C   UNL     1       0.086 -16.571   8.187  1.00  0.00     0.010 A 
ATOM     51  C   UNL     1      -0.460 -17.060   5.873  1.00  0.00     0.010 A 
ATOM     52  C   UNL     1      -0.853 -16.949   7.218  1.00  0.00    -0.014 A 
BRANCH  52  53
ATOM     53  C   UNL     1      -2.195 -17.427   7.634  1.00  0.00     0.031 A 
ATOM     54  C   UNL     1      -2.422 -18.912   7.722  1.00  0.00     0.074 A 
ATOM     55  C   UNL     1      -3.187 -16.570   7.935  1.00  0.00     0.049 A 
ATOM     56  N   UNL     1      -3.516 -19.569   8.005  1.00  0.00    -0.248 NA
ATOM     57  C   UNL     1      -1.256 -19.771   7.449  1.00  0.00     0.031 C 
ATOM     58  C   UNL     1      -3.078 -15.112   7.933  1.00  0.00     0.029 A 
ATOM     59  N   UNL     1      -4.490 -16.811   8.294  1.00  0.00    -0.354 N 
ATOM     60  C   UNL     1      -3.175 -20.915   7.931  1.00  0.00     0.074 A 
ATOM     61  C   UNL     1      -1.783 -20.982   7.548  1.00  0.00     0.031 C 
ATOM     62  C   UNL     1      -4.271 -14.587   8.267  1.00  0.00     0.029 A 
ATOM     63  C   UNL     1      -5.235 -15.668   8.467  1.00  0.00     0.049 A 
ATOM     64  H   UNL     1      -4.856 -17.716   8.417  1.00  0.00     0.167 HD
ATOM     65  C   UNL     1      -3.952 -22.000   8.164  1.00  0.00     0.031 A 
ATOM     66  C   UNL     1      -6.549 -15.514   8.731  1.00  0.00     0.031 A 
ATOM     67  C   UNL     1      -5.341 -21.929   8.528  1.00  0.00     0.049 A 
ATOM     68  C   UNL     1      -7.414 -16.738   8.909  1.00  0.00     0.074 A 
ATOM     69  C   UNL     1      -6.212 -22.969   8.802  1.00  0.00     0.029 A 
ATOM     70  N   UNL     1      -6.067 -20.754   8.660  1.00  0.00    -0.354 N 
ATOM     71  N   UNL     1      -7.073 -18.004   8.861  1.00  0.00    -0.248 NA
ATOM     72  C   UNL     1      -8.840 -16.509   9.184  1.00  0.00     0.031 C 
ATOM     73  C   UNL     1      -7.480 -22.426   9.031  1.00  0.00     0.029 A 
ATOM     74  C   UNL     1      -7.382 -21.045   8.979  1.00  0.00     0.049 A 
ATOM     75  H   UNL     1      -5.701 -19.848   8.543  1.00  0.00     0.167 HD
ATOM     76  C   UNL     1      -8.235 -18.721   9.135  1.00  0.00     0.074 A 
ATOM     77  C   UNL     1      -9.283 -17.747   9.359  1.00  0.00     0.031 C 
ATOM     78  C   UNL     1      -8.416 -20.064   9.200  1.00  0.00     0.031 A 
BRANCH  65  79
ATOM     79  C   UNL     1      -3.324 -23.358   7.987  1.00  0.00    -0.014 A 
ATOM     80  C   UNL     1      -2.342 -23.834   8.875  1.00  0.00     0.010 A 
ATOM     81  C   UNL     1      -3.751 -24.186   6.933  1.00  0.00     0.010 A 
ATOM     82  C   UNL     1      -1.773 -25.097   8.689  1.00  0.00     0.020 A 
ATOM     83  C   UNL     1      -3.209 -25.463   6.763  1.00  0.00     0.020 A 
ATOM     84  C   UNL     1      -2.211 -25.904   7.634  1.00  0.00     0.054 A 
BRANCH  84  85
ATOM     85  S   UNL     1      -1.476 -27.550   7.435  1.00  0.00     0.124 S 
ATOM     86  O   UNL     1      -0.124 -27.224   6.987  1.00  0.00    -0.237 OA
ATOM     87  O   UNL     1      -1.573 -28.107   8.781  1.00  0.00    -0.237 OA
ATOM     88  O   UNL     1      -2.325 -28.192   6.434  1.00  0.00    -0.744 OA
ENDBRANCH  84  85
ENDBRANCH  65  79
BRANCH  66  89
ATOM     89  C   UNL     1      -7.136 -14.148   8.823  1.00  0.00    -0.014 A 
ATOM     90  C   UNL     1      -7.624 -13.653  10.045  1.00  0.00     0.010 A 
ATOM     91  C   UNL     1      -7.218 -13.333   7.678  1.00  0.00     0.010 A 
ATOM     92  C   UNL     1      -8.194 -12.378  10.118  1.00  0.00     0.020 A 
ATOM     93  C   UNL     1      -7.758 -12.046   7.752  1.00  0.00     0.020 A 
ATOM     94  C   UNL     1      -8.253 -11.580   8.971  1.00  0.00     0.054 A 
BRANCH  94  95
ATOM     95  S   UNL     1      -8.947  -9.909   9.102  1.00  0.00     0.124 S 
ATOM     96  O   UNL     1     -10.367 -10.183   9.298  1.00  0.00    -0.237 OA
ATOM     97  O   UNL     1      -8.241  -9.367  10.260  1.00  0.00    -0.237 OA
ATOM     98  O   UNL     1      -8.599  -9.292   7.824  1.00  0.00    -0.744 OA
ENDBRANCH  94  95
ENDBRANCH  66  89
BRANCH  78  99
ATOM     99  C   UNL     1      -9.788 -20.570   9.574  1.00  0.00    -0.014 A 
ATOM    100  C   UNL     1     -10.879 -20.459   8.694  1.00  0.00     0.010 A 
ATOM    101  C   UNL     1      -9.968 -21.225  10.807  1.00  0.00     0.010 A 
ATOM    102  C   UNL     1     -12.132 -20.964   9.055  1.00  0.00     0.020 A 
ATOM    103  C   UNL     1     -11.210 -21.761  11.157  1.00  0.00     0.020 A 
ATOM    104  C   UNL     1     -12.289 -21.614  10.284  1.00  0.00     0.054 A 
BRANCH 104 105
ATOM    105  S   UNL     1     -13.914 -22.298  10.709  1.00  0.00     0.124 S 
ATOM    106  O   UNL     1     -14.696 -21.091  10.962  1.00  0.00    -0.237 OA
ATOM    107  O   UNL     1     -14.274 -23.039   9.502  1.00  0.00    -0.237 OA
ATOM    108  O   UNL     1     -13.647 -23.125  11.884  1.00  0.00    -0.744 OA
ENDBRANCH 104 105
ENDBRANCH  78  99
ENDBRANCH  52  53
ENDBRANCH  45  47
ENDBRANCH  44  45
ENDBRANCH  43  44
ENDBRANCH  42  43
ENDBRANCH  41  42
ENDBRANCH  40  41
ENDBRANCH  39  40
ENDBRANCH   1  39
TORSDOF 28
