REMARK SMILES CCCC[C@@H](C(=O)OCCOCCOCCOCCOC(=O)c1ccc(-c2c3nc(c(-c4ccc(S(=O)(=O)[O-])cc4)c4ccc([nH]4)c(-c4ccc(S(=O)(=O)[O-])cc4)c4nc(c(-c5ccc(S(=O)(=O)[O-])cc5)c5ccc2[nH]5)C=C4)C=C3)cc1)[C@@]1(O)CCC[C@H](CC)C1
REMARK SMILES IDX 14 1 13 2 12 3 11 4 10 5 9 6 8 7 6 8 7 9 5 10 4 11 3 12 2 13
REMARK SMILES IDX 1 14 83 15 85 16 91 17 86 18 88 19 87 20 84 21 89 23 90 24
REMARK SMILES IDX 15 25 16 26 17 27 18 28 19 29 20 30 21 31 22 32 23 33 24 34
REMARK SMILES IDX 82 35 25 36 81 37 26 38 27 39 28 40 75 41 29 42 80 43 74 44
REMARK SMILES IDX 76 45 30 46 79 47 73 48 72 49 31 51 61 52 42 53 60 54 43 55
REMARK SMILES IDX 46 56 59 57 77 58 44 59 45 60 58 62 78 63 47 64 32 65 33 66
REMARK SMILES IDX 41 67 34 68 40 69 35 70 36 71 37 72 38 73 39 74 62 75 63 76
REMARK SMILES IDX 71 77 64 78 70 79 65 80 66 81 67 82 68 83 69 84 48 85 49 86
REMARK SMILES IDX 57 87 50 88 56 89 51 90 52 91 53 92 54 93 55 94
REMARK H PARENT 84 22 76 50 46 61
REMARK Flexibility Score: inf
ROOT
ATOM      1  O   UNL     1       0.153  -4.745  -2.845  1.00  0.00    -0.377 OA
ENDROOT
BRANCH   1   2
ATOM      2  C   UNL     1      -0.226  -5.303  -1.605  1.00  0.00     0.188 C 
BRANCH   2   3
ATOM      3  C   UNL     1      -1.622  -5.949  -1.585  1.00  0.00     0.188 C 
BRANCH   3   4
ATOM      4  O   UNL     1      -2.429  -5.957  -2.750  1.00  0.00    -0.376 OA
BRANCH   4   5
ATOM      5  C   UNL     1      -2.470  -4.808  -3.586  1.00  0.00     0.202 C 
BRANCH   5   6
ATOM      6  C   UNL     1      -2.671  -3.392  -3.006  1.00  0.00     0.261 C 
BRANCH   6   7
ATOM      7  O   UNL     1      -1.769  -2.956  -1.966  1.00  0.00    -0.463 OA
BRANCH   7   8
ATOM      8  C   UNL     1      -2.243  -2.899  -0.700  1.00  0.00     0.311 C 
ATOM      9  O   UNL     1      -3.379  -3.257  -0.393  1.00  0.00    -0.252 OA
BRANCH   8  10
ATOM     10  C   UNL     1      -1.258  -2.332   0.348  1.00  0.00     0.131 C 
BRANCH  10  11
ATOM     11  C   UNL     1       0.234  -2.140  -0.018  1.00  0.00     0.018 C 
BRANCH  11  12
ATOM     12  C   UNL     1       0.672  -1.437  -1.305  1.00  0.00     0.001 C 
BRANCH  12  13
ATOM     13  C   UNL     1       0.362   0.057  -1.372  1.00  0.00    -0.003 C 
ATOM     14  C   UNL     1       0.982   0.857  -0.232  1.00  0.00     0.004 C 
ENDBRANCH  12  13
ENDBRANCH  11  12
ENDBRANCH  10  11
BRANCH  10  15
ATOM     15  C   UNL     1      -1.459  -3.082   1.752  1.00  0.00     0.078 C 
ATOM     16  C   UNL     1      -1.184  -4.604   1.854  1.00  0.00     0.036 C 
ATOM     17  C   UNL     1      -0.709  -2.378   2.906  1.00  0.00     0.039 C 
ATOM     18  C   UNL     1       0.258  -5.037   2.108  1.00  0.00     0.003 C 
ATOM     19  C   UNL     1       0.758  -2.805   3.117  1.00  0.00    -0.009 C 
ATOM     20  C   UNL     1       0.852  -4.318   3.315  1.00  0.00     0.004 C 
BRANCH  15  21
ATOM     21  O   UNL     1      -2.855  -2.926   2.116  1.00  0.00    -0.389 OA
ATOM     22  H   UNL     1      -3.413  -3.342   1.441  1.00  0.00     0.211 HD
ENDBRANCH  15  21
BRANCH  19  23
ATOM     23  C   UNL     1       1.388  -2.017   4.274  1.00  0.00     0.000 C 
ATOM     24  C   UNL     1       1.744  -0.597   3.840  1.00  0.00     0.004 C 
ENDBRANCH  19  23
ENDBRANCH  10  15
ENDBRANCH   8  10
ENDBRANCH   7   8
ENDBRANCH   6   7
ENDBRANCH   5   6
ENDBRANCH   4   5
ENDBRANCH   3   4
ENDBRANCH   2   3
ENDBRANCH   1   2
BRANCH   1  25
ATOM     25  C   UNL     1       0.960  -5.567  -3.673  1.00  0.00     0.188 C 
BRANCH  25  26
ATOM     26  C   UNL     1       0.623  -7.069  -3.697  1.00  0.00     0.188 C 
BRANCH  26  27
ATOM     27  O   UNL     1       0.641  -7.672  -2.406  1.00  0.00    -0.376 OA
BRANCH  27  28
ATOM     28  C   UNL     1       1.812  -8.351  -1.975  1.00  0.00     0.202 C 
BRANCH  28  29
ATOM     29  C   UNL     1       3.081  -7.521  -1.718  1.00  0.00     0.261 C 
BRANCH  29  30
ATOM     30  O   UNL     1       3.606  -6.766  -2.819  1.00  0.00    -0.460 OA
BRANCH  30  31
ATOM     31  C   UNL     1       3.853  -7.398  -3.985  1.00  0.00     0.338 C 
ATOM     32  O   UNL     1       3.750  -8.590  -4.213  1.00  0.00    -0.246 OA
BRANCH  31  33
ATOM     33  C   UNL     1       4.060  -6.348  -5.006  1.00  0.00     0.060 A 
ATOM     34  C   UNL     1       3.217  -6.304  -6.127  1.00  0.00     0.016 A 
ATOM     35  C   UNL     1       5.056  -5.386  -4.831  1.00  0.00     0.016 A 
ATOM     36  C   UNL     1       3.381  -5.306  -7.088  1.00  0.00     0.010 A 
ATOM     37  C   UNL     1       5.242  -4.409  -5.810  1.00  0.00     0.010 A 
ATOM     38  C   UNL     1       4.427  -4.385  -6.956  1.00  0.00    -0.014 A 
BRANCH  38  39
ATOM     39  C   UNL     1       4.856  -3.566  -8.113  1.00  0.00     0.031 A 
ATOM     40  C   UNL     1       5.970  -4.109  -8.964  1.00  0.00     0.074 A 
ATOM     41  C   UNL     1       4.309  -2.368  -8.384  1.00  0.00     0.049 A 
ATOM     42  N   UNL     1       6.645  -3.528  -9.919  1.00  0.00    -0.248 NA
ATOM     43  C   UNL     1       6.385  -5.497  -8.688  1.00  0.00     0.031 C 
ATOM     44  C   UNL     1       3.177  -1.770  -7.679  1.00  0.00     0.029 A 
ATOM     45  N   UNL     1       4.658  -1.428  -9.322  1.00  0.00    -0.354 N 
ATOM     46  C   UNL     1       7.577  -4.469 -10.342  1.00  0.00     0.074 A 
ATOM     47  C   UNL     1       7.394  -5.651  -9.530  1.00  0.00     0.031 C 
ATOM     48  C   UNL     1       2.939  -0.550  -8.196  1.00  0.00     0.029 A 
ATOM     49  C   UNL     1       3.932  -0.264  -9.231  1.00  0.00     0.049 A 
ATOM     50  H   UNL     1       5.360  -1.574  -9.996  1.00  0.00     0.167 HD
ATOM     51  C   UNL     1       8.507  -4.356 -11.318  1.00  0.00     0.031 A 
ATOM     52  C   UNL     1       4.083   0.909  -9.881  1.00  0.00     0.031 A 
ATOM     53  C   UNL     1       8.697  -3.168 -12.102  1.00  0.00     0.049 A 
ATOM     54  C   UNL     1       5.194   1.050 -10.895  1.00  0.00     0.074 A 
ATOM     55  C   UNL     1       9.616  -2.943 -13.111  1.00  0.00     0.029 A 
ATOM     56  N   UNL     1       7.959  -2.003 -11.960  1.00  0.00    -0.354 N 
ATOM     57  N   UNL     1       6.073   0.157 -11.286  1.00  0.00    -0.248 NA
ATOM     58  C   UNL     1       5.334   2.356 -11.556  1.00  0.00     0.031 C 
ATOM     59  C   UNL     1       9.473  -1.620 -13.538  1.00  0.00     0.029 A 
ATOM     60  C   UNL     1       8.415  -1.047 -12.848  1.00  0.00     0.049 A 
ATOM     61  H   UNL     1       7.220  -1.876 -11.322  1.00  0.00     0.167 HD
ATOM     62  C   UNL     1       6.839   0.779 -12.268  1.00  0.00     0.074 A 
ATOM     63  C   UNL     1       6.323   2.125 -12.409  1.00  0.00     0.031 C 
ATOM     64  C   UNL     1       7.870   0.280 -12.993  1.00  0.00     0.031 A 
BRANCH  51  65
ATOM     65  C   UNL     1       9.417  -5.532 -11.550  1.00  0.00    -0.014 A 
ATOM     66  C   UNL     1       8.936  -6.728 -12.114  1.00  0.00     0.010 A 
ATOM     67  C   UNL     1      10.781  -5.429 -11.222  1.00  0.00     0.010 A 
ATOM     68  C   UNL     1       9.796  -7.811 -12.309  1.00  0.00     0.020 A 
ATOM     69  C   UNL     1      11.650  -6.499 -11.445  1.00  0.00     0.020 A 
ATOM     70  C   UNL     1      11.148  -7.690 -11.973  1.00  0.00     0.054 A 
BRANCH  70  71
ATOM     71  S   UNL     1      12.244  -9.105 -12.259  1.00  0.00     0.124 S 
ATOM     72  O   UNL     1      11.801 -10.042 -11.229  1.00  0.00    -0.237 OA
ATOM     73  O   UNL     1      11.923  -9.485 -13.633  1.00  0.00    -0.237 OA
ATOM     74  O   UNL     1      13.583  -8.554 -12.064  1.00  0.00    -0.744 OA
ENDBRANCH  70  71
ENDBRANCH  51  65
BRANCH  52  75
ATOM     75  C   UNL     1       3.184   2.058  -9.576  1.00  0.00    -0.014 A 
ATOM     76  C   UNL     1       2.275   2.532 -10.539  1.00  0.00     0.010 A 
ATOM     77  C   UNL     1       3.240   2.695  -8.322  1.00  0.00     0.010 A 
ATOM     78  C   UNL     1       1.454   3.630 -10.261  1.00  0.00     0.020 A 
ATOM     79  C   UNL     1       2.400   3.773  -8.030  1.00  0.00     0.020 A 
ATOM     80  C   UNL     1       1.520   4.242  -9.006  1.00  0.00     0.054 A 
BRANCH  80  81
ATOM     81  S   UNL     1       0.414   5.637  -8.654  1.00  0.00     0.124 S 
ATOM     82  O   UNL     1       0.986   6.694  -9.481  1.00  0.00    -0.237 OA
ATOM     83  O   UNL     1      -0.884   5.125  -9.088  1.00  0.00    -0.237 OA
ATOM     84  O   UNL     1       0.550   5.826  -7.212  1.00  0.00    -0.744 OA
ENDBRANCH  80  81
ENDBRANCH  52  75
BRANCH  64  85
ATOM     85  C   UNL     1       8.475   1.149 -14.063  1.00  0.00    -0.014 A 
ATOM     86  C   UNL     1       9.318   2.228 -13.747  1.00  0.00     0.010 A 
ATOM     87  C   UNL     1       8.290   0.795 -15.414  1.00  0.00     0.010 A 
ATOM     88  C   UNL     1       9.961   2.939 -14.765  1.00  0.00     0.020 A 
ATOM     89  C   UNL     1       8.953   1.484 -16.430  1.00  0.00     0.020 A 
ATOM     90  C   UNL     1       9.783   2.556 -16.099  1.00  0.00     0.054 A 
BRANCH  90  91
ATOM     91  S   UNL     1      10.705   3.434 -17.391  1.00  0.00     0.124 S 
ATOM     92  O   UNL     1      10.031   4.729 -17.420  1.00  0.00    -0.237 OA
ATOM     93  O   UNL     1      12.066   3.445 -16.859  1.00  0.00    -0.237 OA
ATOM     94  O   UNL     1      10.514   2.606 -18.579  1.00  0.00    -0.744 OA
ENDBRANCH  90  91
ENDBRANCH  64  85
ENDBRANCH  38  39
ENDBRANCH  31  33
ENDBRANCH  30  31
ENDBRANCH  29  30
ENDBRANCH  28  29
ENDBRANCH  27  28
ENDBRANCH  26  27
ENDBRANCH  25  26
ENDBRANCH   1  25
TORSDOF 29
