REMARK SMILES Cc1nn(-c2ccccc2)c(C)c1CNC(=O)[C@@H]1[C@@H](C(=O)OCCOCCOCCOCCOC(=O)c2ccc(-c3c4nc(c(-c5ccc(S(=O)(=O)[O-])cc5)c5ccc([nH]5)c(-c5ccc(S(=O)(=O)[O-])cc5)c5nc(c(-c6ccc(S(=O)(=O)[O-])cc6)c6ccc3[nH]6)C=C5)C=C4)cc2)[C@@H]2C=C[C@H]1C2
REMARK SMILES IDX 27 1 26 2 25 3 24 4 23 5 22 6 20 7 21 8 19 9 18 10 100 11
REMARK SMILES IDX 97 12 99 13 101 14 98 15 16 16 15 17 17 19 14 20 13 21 1 22
REMARK SMILES IDX 2 23 3 24 4 25 11 26 12 27 5 28 6 29 10 30 7 31 9 32 8 33
REMARK SMILES IDX 28 34 29 35 30 36 31 37 32 38 33 39 34 40 35 41 36 42 37 43
REMARK SMILES IDX 38 44 96 45 39 46 95 47 40 48 41 49 42 50 89 51 43 52 94 53
REMARK SMILES IDX 88 54 90 55 44 56 93 57 87 58 86 59 45 61 75 62 56 63 74 64
REMARK SMILES IDX 57 65 60 66 73 67 91 68 58 69 59 70 72 72 92 73 61 74 46 75
REMARK SMILES IDX 47 76 55 77 48 78 54 79 49 80 50 81 51 82 52 83 53 84 76 85
REMARK SMILES IDX 77 86 85 87 78 88 84 89 79 90 80 91 81 92 82 93 83 94 62 95
REMARK SMILES IDX 63 96 71 97 64 98 70 99 65 100 66 101 67 102 68 103 69 104
REMARK H PARENT 15 18 90 60 60 71
REMARK Flexibility Score: inf
ROOT
ATOM      1  C   UNL     1      -4.206   6.201  -5.001  1.00  0.00     0.188 C 
ENDROOT
BRANCH   1   2
ATOM      2  C   UNL     1      -3.695   5.737  -6.357  1.00  0.00     0.188 C 
BRANCH   2   3
ATOM      3  O   UNL     1      -4.126   4.439  -6.757  1.00  0.00    -0.376 OA
BRANCH   3   4
ATOM      4  C   UNL     1      -3.814   3.349  -5.890  1.00  0.00     0.202 C 
BRANCH   4   5
ATOM      5  C   UNL     1      -2.325   3.080  -5.624  1.00  0.00     0.261 C 
BRANCH   5   6
ATOM      6  O   UNL     1      -1.655   4.013  -4.735  1.00  0.00    -0.463 OA
BRANCH   6   7
ATOM      7  C   UNL     1      -0.697   4.802  -5.283  1.00  0.00     0.310 C 
ATOM      8  O   UNL     1      -0.440   4.827  -6.484  1.00  0.00    -0.252 OA
BRANCH   7   9
ATOM      9  C   UNL     1       0.093   5.650  -4.305  1.00  0.00     0.119 C 
ATOM     10  C   UNL     1       0.383   5.070  -2.884  1.00  0.00     0.100 C 
ATOM     11  C   UNL     1       0.185   6.322  -1.984  1.00  0.00     0.025 C 
ATOM     12  C   UNL     1      -0.546   7.026  -3.985  1.00  0.00     0.027 C 
ATOM     13  C   UNL     1       1.068   7.479  -2.416  1.00  0.00    -0.027 C 
ATOM     14  C   UNL     1      -1.127   6.842  -2.576  1.00  0.00     0.017 C 
ATOM     15  C   UNL     1       0.611   7.922  -3.599  1.00  0.00    -0.027 C 
BRANCH  10  16
ATOM     16  C   UNL     1       1.784   4.483  -2.759  1.00  0.00     0.224 C 
ATOM     17  N   UNL     1       1.971   3.286  -2.131  1.00  0.00    -0.352 N 
ATOM     18  H   UNL     1       2.901   2.964  -2.129  1.00  0.00     0.163 HD
ATOM     19  O   UNL     1       2.776   5.023  -3.250  1.00  0.00    -0.275 OA
BRANCH  17  20
ATOM     20  C   UNL     1       1.029   2.412  -1.470  1.00  0.00     0.155 C 
BRANCH  20  21
ATOM     21  C   UNL     1       0.708   1.199  -2.291  1.00  0.00     0.016 A 
ATOM     22  C   UNL     1       0.521  -0.553  -0.359  1.00  0.00     0.069 C 
ATOM     23  C   UNL     1       0.386  -0.084  -1.764  1.00  0.00     0.065 A 
ATOM     24  N   UNL     1      -0.097  -0.906  -2.699  1.00  0.00    -0.173 NA
ATOM     25  N   UNL     1       0.058  -0.243  -3.867  1.00  0.00    -0.237 N 
ATOM     26  C   UNL     1       0.605   1.020  -3.667  1.00  0.00     0.046 A 
ATOM     27  C   UNL     1       0.876   1.959  -4.781  1.00  0.00     0.067 C 
BRANCH  25  28
ATOM     28  C   UNL     1      -0.438  -0.793  -5.083  1.00  0.00     0.065 A 
ATOM     29  C   UNL     1      -1.653  -1.488  -5.072  1.00  0.00     0.028 A 
ATOM     30  C   UNL     1       0.212  -0.554  -6.302  1.00  0.00     0.028 A 
ATOM     31  C   UNL     1      -2.259  -1.839  -6.282  1.00  0.00     0.002 A 
ATOM     32  C   UNL     1      -0.394  -0.913  -7.505  1.00  0.00     0.002 A 
ATOM     33  C   UNL     1      -1.639  -1.536  -7.495  1.00  0.00     0.000 A 
ENDBRANCH  25  28
ENDBRANCH  20  21
ENDBRANCH  17  20
ENDBRANCH  10  16
ENDBRANCH   7   9
ENDBRANCH   6   7
ENDBRANCH   5   6
ENDBRANCH   4   5
ENDBRANCH   3   4
ENDBRANCH   2   3
ENDBRANCH   1   2
BRANCH   1  34
ATOM     34  O   UNL     1      -3.733   5.374  -3.943  1.00  0.00    -0.377 OA
BRANCH  34  35
ATOM     35  C   UNL     1      -4.626   5.008  -2.890  1.00  0.00     0.188 C 
BRANCH  35  36
ATOM     36  C   UNL     1      -6.078   5.452  -3.033  1.00  0.00     0.188 C 
BRANCH  36  37
ATOM     37  O   UNL     1      -6.315   6.866  -3.136  1.00  0.00    -0.376 OA
BRANCH  37  38
ATOM     38  C   UNL     1      -5.392   7.797  -2.562  1.00  0.00     0.202 C 
BRANCH  38  39
ATOM     39  C   UNL     1      -5.732   8.229  -1.148  1.00  0.00     0.261 C 
BRANCH  39  40
ATOM     40  O   UNL     1      -5.533   7.108  -0.305  1.00  0.00    -0.460 OA
BRANCH  40  41
ATOM     41  C   UNL     1      -6.605   6.287  -0.223  1.00  0.00     0.338 C 
ATOM     42  O   UNL     1      -7.726   6.492  -0.647  1.00  0.00    -0.246 OA
BRANCH  41  43
ATOM     43  C   UNL     1      -6.200   5.073   0.526  1.00  0.00     0.060 A 
ATOM     44  C   UNL     1      -7.304   4.479   1.127  1.00  0.00     0.016 A 
ATOM     45  C   UNL     1      -4.944   5.127   1.149  1.00  0.00     0.016 A 
ATOM     46  C   UNL     1      -7.311   4.502   2.495  1.00  0.00     0.010 A 
ATOM     47  C   UNL     1      -4.952   5.172   2.516  1.00  0.00     0.010 A 
ATOM     48  C   UNL     1      -6.175   4.990   3.151  1.00  0.00    -0.014 A 
BRANCH  48  49
ATOM     49  C   UNL     1      -6.305   5.254   4.557  1.00  0.00     0.031 A 
ATOM     50  C   UNL     1      -6.247   4.020   5.345  1.00  0.00     0.074 A 
ATOM     51  C   UNL     1      -6.407   6.485   5.079  1.00  0.00     0.049 A 
ATOM     52  N   UNL     1      -7.235   3.369   5.856  1.00  0.00    -0.248 NA
ATOM     53  C   UNL     1      -4.963   3.305   5.340  1.00  0.00     0.031 C 
ATOM     54  C   UNL     1      -6.171   7.781   4.439  1.00  0.00     0.029 A 
ATOM     55  N   UNL     1      -6.645   6.810   6.372  1.00  0.00    -0.354 N 
ATOM     56  C   UNL     1      -6.651   2.260   6.443  1.00  0.00     0.074 A 
ATOM     57  C   UNL     1      -5.332   2.143   5.873  1.00  0.00     0.031 C 
ATOM     58  C   UNL     1      -6.046   8.724   5.404  1.00  0.00     0.029 A 
ATOM     59  C   UNL     1      -6.324   8.116   6.697  1.00  0.00     0.049 A 
ATOM     60  H   UNL     1      -7.015   6.172   7.025  1.00  0.00     0.167 HD
ATOM     61  C   UNL     1      -7.157   1.713   7.580  1.00  0.00     0.031 A 
ATOM     62  C   UNL     1      -6.195   8.601   7.956  1.00  0.00     0.031 A 
ATOM     63  C   UNL     1      -8.501   2.159   7.845  1.00  0.00     0.049 A 
ATOM     64  C   UNL     1      -6.920   7.673   8.867  1.00  0.00     0.074 A 
ATOM     65  C   UNL     1      -9.701   2.088   7.165  1.00  0.00     0.029 A 
ATOM     66  N   UNL     1      -8.656   3.148   8.791  1.00  0.00    -0.354 N 
ATOM     67  N   UNL     1      -8.213   7.502   8.838  1.00  0.00    -0.248 NA
ATOM     68  C   UNL     1      -6.175   6.599   9.509  1.00  0.00     0.031 C 
ATOM     69  C   UNL     1     -10.364   3.319   7.442  1.00  0.00     0.029 A 
ATOM     70  C   UNL     1      -9.554   4.064   8.303  1.00  0.00     0.049 A 
ATOM     71  H   UNL     1      -8.203   3.190   9.664  1.00  0.00     0.167 HD
ATOM     72  C   UNL     1      -8.410   6.147   9.074  1.00  0.00     0.074 A 
ATOM     73  C   UNL     1      -7.132   5.668   9.592  1.00  0.00     0.031 C 
ATOM     74  C   UNL     1      -9.496   5.490   8.565  1.00  0.00     0.031 A 
BRANCH  61  75
ATOM     75  C   UNL     1      -6.260   1.147   8.650  1.00  0.00    -0.014 A 
ATOM     76  C   UNL     1      -6.843   0.519   9.763  1.00  0.00     0.010 A 
ATOM     77  C   UNL     1      -4.882   1.449   8.733  1.00  0.00     0.010 A 
ATOM     78  C   UNL     1      -6.098   0.276  10.924  1.00  0.00     0.020 A 
ATOM     79  C   UNL     1      -4.119   1.164   9.859  1.00  0.00     0.020 A 
ATOM     80  C   UNL     1      -4.744   0.618  10.966  1.00  0.00     0.054 A 
BRANCH  80  81
ATOM     81  S   UNL     1      -3.823   0.439  12.509  1.00  0.00     0.124 S 
ATOM     82  O   UNL     1      -4.457   1.449  13.350  1.00  0.00    -0.237 OA
ATOM     83  O   UNL     1      -4.089  -0.950  12.868  1.00  0.00    -0.237 OA
ATOM     84  O   UNL     1      -2.444   0.725  12.117  1.00  0.00    -0.744 OA
ENDBRANCH  80  81
ENDBRANCH  61  75
BRANCH  62  85
ATOM     85  C   UNL     1      -5.184   9.581   8.421  1.00  0.00    -0.014 A 
ATOM     86  C   UNL     1      -5.285  10.192   9.683  1.00  0.00     0.010 A 
ATOM     87  C   UNL     1      -3.968   9.725   7.719  1.00  0.00     0.010 A 
ATOM     88  C   UNL     1      -4.193  10.882  10.240  1.00  0.00     0.020 A 
ATOM     89  C   UNL     1      -2.881  10.418   8.261  1.00  0.00     0.020 A 
ATOM     90  C   UNL     1      -2.993  10.977   9.530  1.00  0.00     0.054 A 
BRANCH  90  91
ATOM     91  S   UNL     1      -1.540  11.731  10.316  1.00  0.00     0.124 S 
ATOM     92  O   UNL     1      -1.909  13.143  10.359  1.00  0.00    -0.237 OA
ATOM     93  O   UNL     1      -1.488  11.051  11.607  1.00  0.00    -0.237 OA
ATOM     94  O   UNL     1      -0.445  11.404   9.403  1.00  0.00    -0.744 OA
ENDBRANCH  90  91
ENDBRANCH  62  85
BRANCH  74  95
ATOM     95  C   UNL     1     -10.619   6.323   7.984  1.00  0.00    -0.014 A 
ATOM     96  C   UNL     1     -10.461   7.140   6.846  1.00  0.00     0.010 A 
ATOM     97  C   UNL     1     -11.911   6.150   8.509  1.00  0.00     0.010 A 
ATOM     98  C   UNL     1     -11.564   7.779   6.261  1.00  0.00     0.020 A 
ATOM     99  C   UNL     1     -13.018   6.772   7.921  1.00  0.00     0.020 A 
ATOM    100  C   UNL     1     -12.838   7.588   6.803  1.00  0.00     0.054 A 
BRANCH 100 101
ATOM    101  S   UNL     1     -14.272   8.362   6.000  1.00  0.00     0.124 S 
ATOM    102  O   UNL     1     -14.076   9.778   6.296  1.00  0.00    -0.237 OA
ATOM    103  O   UNL     1     -14.103   7.983   4.598  1.00  0.00    -0.237 OA
ATOM    104  O   UNL     1     -15.419   7.744   6.664  1.00  0.00    -0.744 OA
ENDBRANCH 100 101
ENDBRANCH  74  95
ENDBRANCH  48  49
ENDBRANCH  41  43
ENDBRANCH  40  41
ENDBRANCH  39  40
ENDBRANCH  38  39
ENDBRANCH  37  38
ENDBRANCH  36  37
ENDBRANCH  35  36
ENDBRANCH  34  35
ENDBRANCH   1  34
TORSDOF 27
