REMARK SMILES Cc1cc(-c2ccc(/C=C/C(=O)OCCOCCOCCOCCOC(=O)c3ccc(-c4c5nc(c(-c6ccc(S(=O)(=O)[O-])cc6)c6ccc([nH]6)c(-c6ccc(S(=O)(=O)[O-])cc6)c6nc(c(-c7ccc(S(=O)(=O)[O-])cc7)c7ccc4[nH]7)C=C6)C=C5)cc3)o2)c(C)cc1Br
REMARK SMILES IDX 20 1 19 2 18 3 17 4 16 5 15 6 14 7 13 8 11 9 12 10 10 11
REMARK SMILES IDX 9 12 8 13 5 14 6 15 88 16 7 17 4 18 1 19 2 20 3 21 92 22
REMARK SMILES IDX 91 23 93 24 89 25 90 26 21 27 22 28 23 29 24 30 25 31 26 32
REMARK SMILES IDX 27 33 28 34 29 35 87 36 30 37 86 38 31 39 32 40 33 41 80 42
REMARK SMILES IDX 34 43 85 44 79 45 81 46 35 47 84 48 78 49 77 50 36 52 66 53
REMARK SMILES IDX 47 54 65 55 48 56 51 57 64 58 82 59 49 60 50 61 63 63 83 64
REMARK SMILES IDX 52 65 37 66 38 67 46 68 39 69 45 70 40 71 41 72 42 73 43 74
REMARK SMILES IDX 44 75 67 76 68 77 76 78 69 79 75 80 70 81 71 82 72 83 73 84
REMARK SMILES IDX 74 85 53 86 54 87 62 88 55 89 61 90 56 91 57 92 58 93 59 94
REMARK SMILES IDX 60 95
REMARK H PARENT 81 51 51 62
REMARK Flexibility Score: inf
ROOT
ATOM      1  C   UNL     1      -4.693  -8.026   8.660  1.00  0.00     0.188 C 
ENDROOT
BRANCH   1   2
ATOM      2  O   UNL     1      -3.971  -7.250   7.704  1.00  0.00    -0.377 OA
BRANCH   2   3
ATOM      3  C   UNL     1      -4.571  -6.100   7.128  1.00  0.00     0.188 C 
BRANCH   3   4
ATOM      4  C   UNL     1      -5.888  -6.305   6.358  1.00  0.00     0.188 C 
BRANCH   4   5
ATOM      5  O   UNL     1      -6.497  -7.561   6.607  1.00  0.00    -0.376 OA
BRANCH   5   6
ATOM      6  C   UNL     1      -6.444  -8.553   5.596  1.00  0.00     0.202 C 
BRANCH   6   7
ATOM      7  C   UNL     1      -5.077  -9.036   5.087  1.00  0.00     0.261 C 
BRANCH   7   8
ATOM      8  O   UNL     1      -4.109  -8.020   4.800  1.00  0.00    -0.460 OA
BRANCH   8   9
ATOM      9  C   UNL     1      -4.285  -7.276   3.688  1.00  0.00     0.330 C 
ATOM     10  O   UNL     1      -5.218  -7.358   2.905  1.00  0.00    -0.247 OA
BRANCH   9  11
ATOM     11  C   UNL     1      -3.254  -6.217   3.604  1.00  0.00     0.097 C 
ATOM     12  C   UNL     1      -2.079  -6.288   4.247  1.00  0.00     0.054 C 
BRANCH  12  13
ATOM     13  C   UNL     1      -1.115  -5.250   4.134  1.00  0.00     0.127 A 
ATOM     14  C   UNL     1      -0.222  -3.264   3.694  1.00  0.00     0.135 A 
ATOM     15  C   UNL     1       0.817  -4.062   4.109  1.00  0.00     0.051 A 
ATOM     16  O   UNL     1      -1.388  -3.965   3.705  1.00  0.00    -0.457 OA
ATOM     17  C   UNL     1       0.245  -5.317   4.416  1.00  0.00     0.051 A 
BRANCH  14  18
ATOM     18  C   UNL     1      -0.287  -1.891   3.218  1.00  0.00     0.020 A 
ATOM     19  C   UNL     1       0.975  -0.067   0.123  1.00  0.00     0.045 C 
ATOM     20  C   UNL     1       0.323  -0.287   1.458  1.00  0.00    -0.036 A 
ATOM     21  C   UNL     1       0.278  -1.597   1.965  1.00  0.00     0.016 A 
ATOM     22  C   UNL     1      -0.180   0.746   2.257  1.00  0.00     0.021 A 
ATOM     23  C   UNL     1      -0.763   0.465   3.500  1.00  0.00     0.020 A 
ATOM     24  Br  UNL     1      -0.088   2.571   1.734  1.00  0.00    -0.051 Br
ATOM     25  C   UNL     1      -0.828  -0.850   3.992  1.00  0.00    -0.039 A 
ATOM     26  C   UNL     1      -1.460  -1.103   5.333  1.00  0.00     0.045 C 
ENDBRANCH  14  18
ENDBRANCH  12  13
ENDBRANCH   9  11
ENDBRANCH   8   9
ENDBRANCH   7   8
ENDBRANCH   6   7
ENDBRANCH   5   6
ENDBRANCH   4   5
ENDBRANCH   3   4
ENDBRANCH   2   3
ENDBRANCH   1   2
BRANCH   1  27
ATOM     27  C   UNL     1      -6.002  -7.538   9.329  1.00  0.00     0.188 C 
BRANCH  27  28
ATOM     28  O   UNL     1      -6.226  -6.138   9.255  1.00  0.00    -0.376 OA
BRANCH  28  29
ATOM     29  C   UNL     1      -6.127  -5.405  10.464  1.00  0.00     0.202 C 
BRANCH  29  30
ATOM     30  C   UNL     1      -4.710  -5.265  11.031  1.00  0.00     0.261 C 
BRANCH  30  31
ATOM     31  O   UNL     1      -4.017  -6.494  11.290  1.00  0.00    -0.460 OA
BRANCH  31  32
ATOM     32  C   UNL     1      -4.528  -7.313  12.246  1.00  0.00     0.338 C 
ATOM     33  O   UNL     1      -5.511  -7.125  12.919  1.00  0.00    -0.246 OA
BRANCH  32  34
ATOM     34  C   UNL     1      -3.763  -8.582  12.166  1.00  0.00     0.060 A 
ATOM     35  C   UNL     1      -2.368  -8.568  12.243  1.00  0.00     0.016 A 
ATOM     36  C   UNL     1      -4.449  -9.785  11.956  1.00  0.00     0.016 A 
ATOM     37  C   UNL     1      -1.659  -9.765  12.130  1.00  0.00     0.010 A 
ATOM     38  C   UNL     1      -3.735 -10.982  11.835  1.00  0.00     0.010 A 
ATOM     39  C   UNL     1      -2.336 -10.984  11.943  1.00  0.00    -0.014 A 
BRANCH  39  40
ATOM     40  C   UNL     1      -1.592 -12.263  12.061  1.00  0.00     0.031 A 
ATOM     41  C   UNL     1      -1.218 -13.091  10.869  1.00  0.00     0.074 A 
ATOM     42  C   UNL     1      -1.257 -12.674  13.300  1.00  0.00     0.049 A 
ATOM     43  N   UNL     1      -0.491 -14.179  10.830  1.00  0.00    -0.248 NA
ATOM     44  C   UNL     1      -1.720 -12.655   9.558  1.00  0.00     0.031 C 
ATOM     45  C   UNL     1      -1.589 -11.955  14.532  1.00  0.00     0.029 A 
ATOM     46  N   UNL     1      -0.557 -13.773  13.732  1.00  0.00    -0.354 N 
ATOM     47  C   UNL     1      -0.426 -14.550   9.493  1.00  0.00     0.074 A 
ATOM     48  C   UNL     1      -1.229 -13.596   8.757  1.00  0.00     0.031 C 
ATOM     49  C   UNL     1      -1.063 -12.610  15.576  1.00  0.00     0.029 A 
ATOM     50  C   UNL     1      -0.388 -13.813  15.096  1.00  0.00     0.049 A 
ATOM     51  H   UNL     1      -0.210 -14.465  13.124  1.00  0.00     0.167 HD
ATOM     52  C   UNL     1       0.257 -15.582   8.939  1.00  0.00     0.031 A 
ATOM     53  C   UNL     1       0.246 -14.707  15.882  1.00  0.00     0.031 A 
ATOM     54  C   UNL     1       1.038 -16.535   9.693  1.00  0.00     0.049 A 
ATOM     55  C   UNL     1       0.960 -15.865  15.245  1.00  0.00     0.074 A 
ATOM     56  C   UNL     1       1.804 -17.583   9.210  1.00  0.00     0.029 A 
ATOM     57  N   UNL     1       1.150 -16.570  11.076  1.00  0.00    -0.354 N 
ATOM     58  N   UNL     1       1.085 -16.149  13.971  1.00  0.00    -0.248 NA
ATOM     59  C   UNL     1       1.632 -16.813  16.144  1.00  0.00     0.031 C 
ATOM     60  C   UNL     1       2.305 -18.300  10.297  1.00  0.00     0.029 A 
ATOM     61  C   UNL     1       1.934 -17.647  11.461  1.00  0.00     0.049 A 
ATOM     62  H   UNL     1       0.734 -15.925  11.693  1.00  0.00     0.167 HD
ATOM     63  C   UNL     1       1.868 -17.297  13.914  1.00  0.00     0.074 A 
ATOM     64  C   UNL     1       2.204 -17.642  15.280  1.00  0.00     0.031 C 
ATOM     65  C   UNL     1       2.267 -17.996  12.823  1.00  0.00     0.031 A 
BRANCH  52  66
ATOM     66  C   UNL     1       0.232 -15.748   7.438  1.00  0.00    -0.014 A 
ATOM     67  C   UNL     1      -0.325 -16.909   6.867  1.00  0.00     0.010 A 
ATOM     68  C   UNL     1       0.910 -14.839   6.605  1.00  0.00     0.010 A 
ATOM     69  C   UNL     1      -0.166 -17.179   5.504  1.00  0.00     0.020 A 
ATOM     70  C   UNL     1       1.044 -15.091   5.236  1.00  0.00     0.020 A 
ATOM     71  C   UNL     1       0.529 -16.273   4.699  1.00  0.00     0.054 A 
BRANCH  71  72
ATOM     72  S   UNL     1       0.769 -16.665   2.944  1.00  0.00     0.124 S 
ATOM     73  O   UNL     1       1.756 -17.739   2.999  1.00  0.00    -0.237 OA
ATOM     74  O   UNL     1      -0.572 -17.060   2.520  1.00  0.00    -0.237 OA
ATOM     75  O   UNL     1       1.247 -15.407   2.374  1.00  0.00    -0.744 OA
ENDBRANCH  71  72
ENDBRANCH  52  66
BRANCH  53  76
ATOM     76  C   UNL     1       0.271 -14.480  17.354  1.00  0.00    -0.014 A 
ATOM     77  C   UNL     1      -0.920 -14.528  18.103  1.00  0.00     0.010 A 
ATOM     78  C   UNL     1       1.465 -14.106  17.994  1.00  0.00     0.010 A 
ATOM     79  C   UNL     1      -0.931 -14.142  19.445  1.00  0.00     0.020 A 
ATOM     80  C   UNL     1       1.464 -13.753  19.348  1.00  0.00     0.020 A 
ATOM     81  C   UNL     1       0.260 -13.741  20.054  1.00  0.00     0.054 A 
BRANCH  81  82
ATOM     82  S   UNL     1       0.206 -13.173  21.776  1.00  0.00     0.124 S 
ATOM     83  O   UNL     1      -0.435 -11.868  21.640  1.00  0.00    -0.237 OA
ATOM     84  O   UNL     1      -0.598 -14.205  22.425  1.00  0.00    -0.237 OA
ATOM     85  O   UNL     1       1.612 -13.141  22.170  1.00  0.00    -0.744 OA
ENDBRANCH  81  82
ENDBRANCH  53  76
BRANCH  65  86
ATOM     86  C   UNL     1       3.115 -19.227  13.031  1.00  0.00    -0.014 A 
ATOM     87  C   UNL     1       4.431 -19.263  12.530  1.00  0.00     0.010 A 
ATOM     88  C   UNL     1       2.567 -20.397  13.588  1.00  0.00     0.010 A 
ATOM     89  C   UNL     1       5.163 -20.453  12.535  1.00  0.00     0.020 A 
ATOM     90  C   UNL     1       3.310 -21.581  13.627  1.00  0.00     0.020 A 
ATOM     91  C   UNL     1       4.591 -21.609  13.071  1.00  0.00     0.054 A 
BRANCH  91  92
ATOM     92  S   UNL     1       5.534 -23.158  13.012  1.00  0.00     0.124 S 
ATOM     93  O   UNL     1       5.460 -23.510  11.597  1.00  0.00    -0.237 OA
ATOM     94  O   UNL     1       6.852 -22.749  13.492  1.00  0.00    -0.237 OA
ATOM     95  O   UNL     1       4.799 -24.043  13.913  1.00  0.00    -0.744 OA
ENDBRANCH  91  92
ENDBRANCH  65  86
ENDBRANCH  39  40
ENDBRANCH  32  34
ENDBRANCH  31  32
ENDBRANCH  30  31
ENDBRANCH  29  30
ENDBRANCH  28  29
ENDBRANCH  27  28
ENDBRANCH   1  27
TORSDOF 25
