REMARK SMILES CCC(CC)(NC(=O)Nc1ccccc1)C(=O)OCCOCCOCCOCCOC(=O)c1ccc(-c2c3nc(c(-c4ccc(S(=O)(=O)[O-])cc4)c4ccc([nH]4)c(-c4ccc(S(=O)(=O)[O-])cc4)c4nc(c(-c5ccc(S(=O)(=O)[O-])cc5)c5ccc2[nH]5)C=C4)C=C3)cc1
REMARK SMILES IDX 25 1 24 2 23 3 22 4 21 5 20 6 19 7 18 8 16 9 17 10 3 11 2 12
REMARK SMILES IDX 1 13 4 14 5 15 6 16 7 17 8 19 9 20 10 22 11 23 15 24 12 25
REMARK SMILES IDX 14 26 13 27 26 28 27 29 28 30 29 31 30 32 31 33 32 34 33 35
REMARK SMILES IDX 34 36 92 37 35 38 91 39 36 40 37 41 38 42 85 43 39 44 90 45
REMARK SMILES IDX 84 46 86 47 40 48 89 49 83 50 82 51 41 53 71 54 52 55 70 56
REMARK SMILES IDX 53 57 56 58 69 59 87 60 54 61 55 62 68 64 88 65 57 66 42 67
REMARK SMILES IDX 43 68 51 69 44 70 50 71 45 72 46 73 47 74 48 75 49 76 72 77
REMARK SMILES IDX 73 78 81 79 74 80 80 81 75 82 76 83 77 84 78 85 79 86 58 87
REMARK SMILES IDX 59 88 67 89 60 90 66 91 61 92 62 93 63 94 64 95 65 96
REMARK H PARENT 6 18 9 21 86 52 56 63
REMARK Flexibility Score: inf
ROOT
ATOM      1  C   UNL     1       4.242  -1.122  -6.046  1.00  0.00     0.188 C 
ENDROOT
BRANCH   1   2
ATOM      2  O   UNL     1       3.144  -0.305  -5.668  1.00  0.00    -0.377 OA
BRANCH   2   3
ATOM      3  C   UNL     1       3.256   0.410  -4.440  1.00  0.00     0.188 C 
BRANCH   3   4
ATOM      4  C   UNL     1       4.486   0.085  -3.520  1.00  0.00     0.188 C 
BRANCH   4   5
ATOM      5  O   UNL     1       4.683  -1.356  -3.508  1.00  0.00    -0.376 OA
BRANCH   5   6
ATOM      6  C   UNL     1       4.992  -2.381  -2.534  1.00  0.00     0.202 C 
BRANCH   6   7
ATOM      7  C   UNL     1       4.002  -3.763  -2.356  1.00  0.00     0.261 C 
BRANCH   7   8
ATOM      8  O   UNL     1       2.508  -3.949  -1.842  1.00  0.00    -0.461 OA
BRANCH   8   9
ATOM      9  C   UNL     1       1.662  -3.715  -0.723  1.00  0.00     0.331 C 
ATOM     10  O   UNL     1       1.757  -4.354   0.324  1.00  0.00    -0.249 OA
BRANCH   9  11
ATOM     11  C   UNL     1       0.410  -2.636  -0.969  1.00  0.00     0.139 C 
BRANCH  11  12
ATOM     12  C   UNL     1       0.186  -1.110  -0.577  1.00  0.00     0.037 C 
ATOM     13  C   UNL     1       0.414  -0.561   0.802  1.00  0.00     0.007 C 
ENDBRANCH  11  12
BRANCH  11  14
ATOM     14  C   UNL     1      -0.860  -3.439  -0.598  1.00  0.00     0.037 C 
ATOM     15  C   UNL     1      -2.220  -2.871  -0.993  1.00  0.00     0.007 C 
ENDBRANCH  11  14
BRANCH  11  16
ATOM     16  N   UNL     1       0.640  -2.492  -2.353  1.00  0.00    -0.322 N 
ATOM     17  C   UNL     1       1.801  -1.917  -2.707  1.00  0.00     0.320 C 
ATOM     18  H   UNL     1      -0.014  -2.795  -3.023  1.00  0.00     0.166 HD
ATOM     19  O   UNL     1       2.076  -2.021  -3.900  1.00  0.00    -0.248 OA
ATOM     20  N   UNL     1       2.650  -1.292  -1.795  1.00  0.00    -0.308 N 
ATOM     21  H   UNL     1       2.973  -0.492  -2.270  1.00  0.00     0.171 HD
BRANCH  20  22
ATOM     22  C   UNL     1       3.309  -1.224  -0.477  1.00  0.00     0.042 A 
ATOM     23  C   UNL     1       3.953  -0.010  -0.168  1.00  0.00     0.026 A 
ATOM     24  C   UNL     1       3.711  -2.274   0.371  1.00  0.00     0.026 A 
ATOM     25  C   UNL     1       4.916   0.122   0.857  1.00  0.00     0.002 A 
ATOM     26  C   UNL     1       4.569  -2.135   1.477  1.00  0.00     0.002 A 
ATOM     27  C   UNL     1       5.200  -0.935   1.705  1.00  0.00     0.000 A 
ENDBRANCH  20  22
ENDBRANCH  11  16
ENDBRANCH   9  11
ENDBRANCH   8   9
ENDBRANCH   7   8
ENDBRANCH   6   7
ENDBRANCH   5   6
ENDBRANCH   4   5
ENDBRANCH   3   4
ENDBRANCH   2   3
ENDBRANCH   1   2
BRANCH   1  28
ATOM     28  C   UNL     1       5.535  -0.325  -6.277  1.00  0.00     0.188 C 
BRANCH  28  29
ATOM     29  O   UNL     1       5.499   0.917  -6.970  1.00  0.00    -0.376 OA
BRANCH  29  30
ATOM     30  C   UNL     1       4.291   1.385  -7.539  1.00  0.00     0.202 C 
BRANCH  30  31
ATOM     31  C   UNL     1       3.596   0.579  -8.658  1.00  0.00     0.261 C 
BRANCH  31  32
ATOM     32  O   UNL     1       3.931  -0.806  -8.843  1.00  0.00    -0.460 OA
BRANCH  32  33
ATOM     33  C   UNL     1       5.203  -1.112  -9.213  1.00  0.00     0.338 C 
ATOM     34  O   UNL     1       6.059  -0.339  -9.554  1.00  0.00    -0.246 OA
BRANCH  33  35
ATOM     35  C   UNL     1       5.440  -2.569  -8.942  1.00  0.00     0.060 A 
ATOM     36  C   UNL     1       6.602  -2.950  -8.250  1.00  0.00     0.016 A 
ATOM     37  C   UNL     1       4.543  -3.552  -9.364  1.00  0.00     0.016 A 
ATOM     38  C   UNL     1       6.888  -4.293  -8.008  1.00  0.00     0.010 A 
ATOM     39  C   UNL     1       4.862  -4.906  -9.183  1.00  0.00     0.010 A 
ATOM     40  C   UNL     1       6.058  -5.281  -8.543  1.00  0.00    -0.014 A 
BRANCH  40  41
ATOM     41  C   UNL     1       6.591  -6.660  -8.681  1.00  0.00     0.031 A 
ATOM     42  C   UNL     1       7.246  -7.026  -9.990  1.00  0.00     0.074 A 
ATOM     43  C   UNL     1       6.559  -7.548  -7.671  1.00  0.00     0.049 A 
ATOM     44  N   UNL     1       7.735  -8.173 -10.383  1.00  0.00    -0.248 NA
ATOM     45  C   UNL     1       7.369  -5.948 -10.988  1.00  0.00     0.031 C 
ATOM     46  C   UNL     1       6.035  -7.291  -6.330  1.00  0.00     0.029 A 
ATOM     47  N   UNL     1       6.979  -8.855  -7.624  1.00  0.00    -0.354 N 
ATOM     48  C   UNL     1       8.200  -7.961 -11.677  1.00  0.00     0.074 A 
ATOM     49  C   UNL     1       7.926  -6.582 -12.009  1.00  0.00     0.031 C 
ATOM     50  C   UNL     1       6.145  -8.415  -5.598  1.00  0.00     0.029 A 
ATOM     51  C   UNL     1       6.707  -9.480  -6.429  1.00  0.00     0.049 A 
ATOM     52  H   UNL     1       7.432  -9.303  -8.375  1.00  0.00     0.167 HD
ATOM     53  C   UNL     1       8.799  -8.838 -12.515  1.00  0.00     0.031 A 
ATOM     54  C   UNL     1       6.859 -10.770  -6.064  1.00  0.00     0.031 A 
ATOM     55  C   UNL     1       9.068 -10.211 -12.183  1.00  0.00     0.049 A 
ATOM     56  C   UNL     1       7.442 -11.752  -7.052  1.00  0.00     0.074 A 
ATOM     57  C   UNL     1       9.682 -11.177 -12.960  1.00  0.00     0.029 A 
ATOM     58  N   UNL     1       8.732 -10.816 -10.982  1.00  0.00    -0.354 N 
ATOM     59  N   UNL     1       7.889 -11.537  -8.268  1.00  0.00    -0.248 NA
ATOM     60  C   UNL     1       7.543 -13.154  -6.618  1.00  0.00     0.031 C 
ATOM     61  C   UNL     1       9.653 -12.385 -12.257  1.00  0.00     0.029 A 
ATOM     62  C   UNL     1       9.091 -12.152 -11.011  1.00  0.00     0.049 A 
ATOM     63  H   UNL     1       8.301 -10.363 -10.221  1.00  0.00     0.167 HD
ATOM     64  C   UNL     1       8.349 -12.768  -8.728  1.00  0.00     0.074 A 
ATOM     65  C   UNL     1       8.148 -13.717  -7.654  1.00  0.00     0.031 C 
ATOM     66  C   UNL     1       8.888 -13.085  -9.932  1.00  0.00     0.031 A 
BRANCH  53  67
ATOM     67  C   UNL     1       9.166  -8.359 -13.895  1.00  0.00    -0.014 A 
ATOM     68  C   UNL     1      10.232  -7.467 -14.106  1.00  0.00     0.010 A 
ATOM     69  C   UNL     1       8.473  -8.872 -15.008  1.00  0.00     0.010 A 
ATOM     70  C   UNL     1      10.589  -7.086 -15.403  1.00  0.00     0.020 A 
ATOM     71  C   UNL     1       8.845  -8.517 -16.307  1.00  0.00     0.020 A 
ATOM     72  C   UNL     1       9.897  -7.620 -16.495  1.00  0.00     0.054 A 
BRANCH  72  73
ATOM     73  S   UNL     1      10.425  -7.159 -18.169  1.00  0.00     0.124 S 
ATOM     74  O   UNL     1      10.024  -5.756 -18.237  1.00  0.00    -0.237 OA
ATOM     75  O   UNL     1      11.865  -7.399 -18.125  1.00  0.00    -0.237 OA
ATOM     76  O   UNL     1       9.672  -8.063 -19.034  1.00  0.00    -0.744 OA
ENDBRANCH  72  73
ENDBRANCH  53  67
BRANCH  54  77
ATOM     77  C   UNL     1       6.405 -11.233  -4.720  1.00  0.00    -0.014 A 
ATOM     78  C   UNL     1       7.322 -11.724  -3.774  1.00  0.00     0.010 A 
ATOM     79  C   UNL     1       5.035 -11.223  -4.396  1.00  0.00     0.010 A 
ATOM     80  C   UNL     1       6.876 -12.224  -2.546  1.00  0.00     0.020 A 
ATOM     81  C   UNL     1       4.589 -11.688  -3.156  1.00  0.00     0.020 A 
ATOM     82  C   UNL     1       5.511 -12.201  -2.244  1.00  0.00     0.054 A 
BRANCH  82  83
ATOM     83  S   UNL     1       4.960 -12.831  -0.634  1.00  0.00     0.124 S 
ATOM     84  O   UNL     1       5.162 -14.268  -0.784  1.00  0.00    -0.237 OA
ATOM     85  O   UNL     1       5.865 -12.157   0.293  1.00  0.00    -0.237 OA
ATOM     86  O   UNL     1       3.566 -12.399  -0.557  1.00  0.00    -0.744 OA
ENDBRANCH  82  83
ENDBRANCH  54  77
BRANCH  66  87
ATOM     87  C   UNL     1       9.339 -14.509 -10.144  1.00  0.00    -0.014 A 
ATOM     88  C   UNL     1       8.413 -15.560 -10.268  1.00  0.00     0.010 A 
ATOM     89  C   UNL     1      10.712 -14.788 -10.281  1.00  0.00     0.010 A 
ATOM     90  C   UNL     1       8.854 -16.868 -10.487  1.00  0.00     0.020 A 
ATOM     91  C   UNL     1      11.155 -16.088 -10.535  1.00  0.00     0.020 A 
ATOM     92  C   UNL     1      10.223 -17.124 -10.621  1.00  0.00     0.054 A 
BRANCH  92  93
ATOM     93  S   UNL     1      10.765 -18.824 -10.945  1.00  0.00     0.124 S 
ATOM     94  O   UNL     1      10.510 -19.474  -9.662  1.00  0.00    -0.237 OA
ATOM     95  O   UNL     1       9.892 -19.234 -12.042  1.00  0.00    -0.237 OA
ATOM     96  O   UNL     1      12.175 -18.678 -11.299  1.00  0.00    -0.744 OA
ENDBRANCH  92  93
ENDBRANCH  66  87
ENDBRANCH  40  41
ENDBRANCH  33  35
ENDBRANCH  32  33
ENDBRANCH  31  32
ENDBRANCH  30  31
ENDBRANCH  29  30
ENDBRANCH  28  29
ENDBRANCH   1  28
TORSDOF 27
