REMARK SMILES CCCCc1cc(S(F)(F)(F)(F)F)cc2c1O[C@@H](C(F)(F)F)C(C(=O)OCCOCCOCCOCCOC(=O)c1ccc(-c3c4nc(c(-c5ccc(S(=O)(=O)[O-])cc5)c5ccc([nH]5)c(-c5ccc(S(=O)(=O)[O-])cc5)c5nc(c(-c6ccc(S(=O)(=O)[O-])cc6)c6ccc3[nH]6)C=C5)C=C4)cc1)=C2
REMARK SMILES IDX 32 1 31 2 30 3 29 4 28 5 27 6 26 7 24 8 25 9 23 10 5 11 6 12
REMARK SMILES IDX 16 13 7 14 15 15 17 16 14 17 101 18 18 19 4 20 3 21 2 22
REMARK SMILES IDX 1 23 8 24 9 25 10 26 11 27 12 28 13 29 19 30 20 31 21 32
REMARK SMILES IDX 22 33 33 34 34 35 35 36 36 37 37 38 38 39 39 40 40 41 41 42
REMARK SMILES IDX 42 43 100 44 43 45 99 46 44 47 45 48 46 49 93 50 47 51 98 52
REMARK SMILES IDX 92 53 94 54 48 55 97 56 91 57 90 58 49 60 79 61 60 62 78 63
REMARK SMILES IDX 61 64 64 65 77 66 95 67 62 68 63 69 76 71 96 72 65 73 50 74
REMARK SMILES IDX 51 75 59 76 52 77 58 78 53 79 54 80 55 81 56 82 57 83 80 84
REMARK SMILES IDX 81 85 89 86 82 87 88 88 83 89 84 90 85 91 86 92 87 93 66 94
REMARK SMILES IDX 67 95 75 96 68 97 74 98 69 99 70 100 71 101 72 102 73 103
REMARK H PARENT 94 59 64 70
REMARK Flexibility Score: inf
ROOT
ATOM      1  O   UNL     1      -5.643  -7.036  -0.052  1.00  0.00    -0.377 OA
ENDROOT
BRANCH   1   2
ATOM      2  C   UNL     1      -4.271  -7.224  -0.370  1.00  0.00     0.188 C 
BRANCH   2   3
ATOM      3  C   UNL     1      -3.605  -8.041   0.724  1.00  0.00     0.188 C 
BRANCH   3   4
ATOM      4  O   UNL     1      -4.244  -9.305   0.827  1.00  0.00    -0.376 OA
BRANCH   4   5
ATOM      5  C   UNL     1      -5.615  -9.117   1.145  1.00  0.00     0.202 C 
BRANCH   5   6
ATOM      6  C   UNL     1      -5.732  -8.381   2.470  1.00  0.00     0.261 C 
BRANCH   6   7
ATOM      7  O   UNL     1      -5.093  -7.117   2.367  1.00  0.00    -0.460 OA
BRANCH   7   8
ATOM      8  C   UNL     1      -3.710  -7.044   2.055  1.00  0.00     0.338 C 
ATOM      9  O   UNL     1      -3.043  -8.110   1.868  1.00  0.00    -0.246 OA
BRANCH   8  10
ATOM     10  C   UNL     1      -3.026  -5.691   1.945  1.00  0.00     0.087 C 
ATOM     11  C   UNL     1      -0.977  -2.055   2.119  1.00  0.00    -0.004 A 
ATOM     12  C   UNL     1      -1.682  -0.865   2.122  1.00  0.00     0.032 A 
ATOM     13  C   UNL     1      -1.677  -3.237   2.115  1.00  0.00     0.131 A 
ATOM     14  C   UNL     1      -3.052  -0.858   2.127  1.00  0.00     0.108 A 
ATOM     15  C   UNL     1      -3.060  -3.269   2.101  1.00  0.00     0.019 A 
ATOM     16  O   UNL     1      -0.967  -4.407   2.225  1.00  0.00    -0.475 OA
ATOM     17  C   UNL     1      -3.738  -2.055   2.110  1.00  0.00     0.036 A 
ATOM     18  C   UNL     1      -3.708  -4.569   2.137  1.00  0.00     0.027 C 
ATOM     19  C   UNL     1      -1.543  -5.594   1.611  1.00  0.00     0.316 C 
BRANCH  11  20
ATOM     20  C   UNL     1       0.543  -2.055   2.119  1.00  0.00     0.039 C 
BRANCH  20  21
ATOM     21  C   UNL     1       1.050  -2.454   0.742  1.00  0.00     0.005 C 
BRANCH  21  22
ATOM     22  C   UNL     1       0.543  -1.461  -0.291  1.00  0.00    -0.003 C 
ATOM     23  C   UNL     1       1.050  -0.069   0.052  1.00  0.00     0.004 C 
ENDBRANCH  21  22
ENDBRANCH  20  21
ENDBRANCH  11  20
BRANCH  14  24
ATOM     24  S   UNL     1      -3.955   0.710   2.156  1.00  0.00     0.310 S 
ATOM     25  F   UNL     1      -4.007   0.723   3.741  1.00  0.00    -0.094 F 
ATOM     26  F   UNL     1      -5.305  -0.102   2.187  1.00  0.00    -0.094 F 
ATOM     27  F   UNL     1      -4.732   2.056   2.181  1.00  0.00    -0.094 F 
ATOM     28  F   UNL     1      -2.594   1.502   2.267  1.00  0.00    -0.094 F 
ATOM     29  F   UNL     1      -3.154  -0.650   2.246  1.00  0.00    -0.094 F 
ENDBRANCH  14  24
BRANCH  19  30
ATOM     30  C   UNL     1      -0.832  -6.826   2.148  1.00  0.00     0.430 C 
ATOM     31  F   UNL     1      -1.350  -7.916   1.589  1.00  0.00    -0.167 F 
ATOM     32  F   UNL     1       0.464  -6.751   1.858  1.00  0.00    -0.167 F 
ATOM     33  F   UNL     1      -0.988  -6.888   3.467  1.00  0.00    -0.167 F 
ENDBRANCH  19  30
ENDBRANCH   8  10
ENDBRANCH   7   8
ENDBRANCH   6   7
ENDBRANCH   5   6
ENDBRANCH   4   5
ENDBRANCH   3   4
ENDBRANCH   2   3
ENDBRANCH   1   2
BRANCH   1  34
ATOM     34  C   UNL     1      -6.282  -8.300   0.051  1.00  0.00     0.188 C 
BRANCH  34  35
ATOM     35  C   UNL     1      -6.165  -9.036  -1.274  1.00  0.00     0.188 C 
BRANCH  35  36
ATOM     36  O   UNL     1      -4.793  -9.224  -1.592  1.00  0.00    -0.376 OA
BRANCH  36  37
ATOM     37  C   UNL     1      -4.154  -7.960  -1.695  1.00  0.00     0.202 C 
BRANCH  37  38
ATOM     38  C   UNL     1      -4.821  -7.143  -2.789  1.00  0.00     0.261 C 
BRANCH  38  39
ATOM     39  O   UNL     1      -6.192  -6.955  -2.471  1.00  0.00    -0.460 OA
BRANCH  39  40
ATOM     40  C   UNL     1      -7.045  -8.080  -2.315  1.00  0.00     0.338 C 
ATOM     41  O   UNL     1      -6.581  -9.254  -2.460  1.00  0.00    -0.246 OA
BRANCH  40  42
ATOM     42  C   UNL     1      -8.513  -7.879  -1.975  1.00  0.00     0.060 A 
ATOM     43  C   UNL     1      -9.096  -8.665  -0.994  1.00  0.00     0.016 A 
ATOM     44  C   UNL     1      -9.213  -6.956  -2.625  1.00  0.00     0.016 A 
ATOM     45  C   UNL     1     -10.509  -8.597  -0.971  1.00  0.00     0.010 A 
ATOM     46  C   UNL     1     -10.572  -6.858  -2.451  1.00  0.00     0.010 A 
ATOM     47  C   UNL     1     -11.223  -7.644  -1.541  1.00  0.00    -0.014 A 
BRANCH  47  48
ATOM     48  C   UNL     1     -12.690  -7.431  -1.203  1.00  0.00     0.031 A 
ATOM     49  C   UNL     1     -13.624  -7.543  -2.235  1.00  0.00     0.074 A 
ATOM     50  C   UNL     1     -13.018  -7.140   0.110  1.00  0.00     0.049 A 
ATOM     51  N   UNL     1     -14.950  -7.431  -2.147  1.00  0.00    -0.248 NA
ATOM     52  C   UNL     1     -13.275  -7.818  -3.636  1.00  0.00     0.031 C 
ATOM     53  C   UNL     1     -12.082  -7.034   1.158  1.00  0.00     0.029 A 
ATOM     54  N   UNL     1     -14.268  -6.905   0.636  1.00  0.00    -0.354 N 
ATOM     55  C   UNL     1     -15.509  -7.620  -3.344  1.00  0.00     0.074 A 
ATOM     56  C   UNL     1     -14.439  -7.866  -4.320  1.00  0.00     0.031 C 
ATOM     57  C   UNL     1     -12.757  -6.728   2.296  1.00  0.00     0.029 A 
ATOM     58  C   UNL     1     -14.126  -6.638   1.980  1.00  0.00     0.049 A 
ATOM     59  H   UNL     1     -15.117  -6.924   0.138  1.00  0.00     0.167 HD
ATOM     60  C   UNL     1     -16.868  -7.598  -3.659  1.00  0.00     0.031 A 
ATOM     61  C   UNL     1     -15.121  -6.330   2.894  1.00  0.00     0.031 A 
ATOM     62  C   UNL     1     -17.867  -7.333  -2.736  1.00  0.00     0.049 A 
ATOM     63  C   UNL     1     -16.477  -6.252   2.567  1.00  0.00     0.074 A 
ATOM     64  C   UNL     1     -19.243  -7.316  -3.035  1.00  0.00     0.029 A 
ATOM     65  N   UNL     1     -17.723  -7.042  -1.397  1.00  0.00    -0.354 N 
ATOM     66  N   UNL     1     -17.039  -6.480   1.379  1.00  0.00    -0.248 NA
ATOM     67  C   UNL     1     -17.537  -5.895   3.520  1.00  0.00     0.031 C 
ATOM     68  C   UNL     1     -19.919  -7.009  -1.896  1.00  0.00     0.029 A 
ATOM     69  C   UNL     1     -18.976  -6.829  -0.866  1.00  0.00     0.049 A 
ATOM     70  H   UNL     1     -16.872  -6.995  -0.905  1.00  0.00     0.167 HD
ATOM     71  C   UNL     1     -18.362  -6.326   1.458  1.00  0.00     0.074 A 
ATOM     72  C   UNL     1     -18.701  -5.940   2.835  1.00  0.00     0.031 C 
ATOM     73  C   UNL     1     -19.301  -6.495   0.440  1.00  0.00     0.031 A 
BRANCH  60  74
ATOM     74  C   UNL     1     -17.276  -7.882  -5.096  1.00  0.00    -0.014 A 
ATOM     75  C   UNL     1     -17.003  -9.118  -5.659  1.00  0.00     0.010 A 
ATOM     76  C   UNL     1     -17.943  -6.951  -5.768  1.00  0.00     0.010 A 
ATOM     77  C   UNL     1     -17.225  -9.173  -7.056  1.00  0.00     0.020 A 
ATOM     78  C   UNL     1     -18.246  -7.129  -7.096  1.00  0.00     0.020 A 
ATOM     79  C   UNL     1     -17.951  -8.302  -7.733  1.00  0.00     0.054 A 
BRANCH  79  80
ATOM     80  S   UNL     1     -18.527  -8.645  -9.415  1.00  0.00     0.124 S 
ATOM     81  O   UNL     1     -17.322  -8.873 -10.330  1.00  0.00    -0.237 OA
ATOM     82  O   UNL     1     -19.407  -9.897  -9.408  1.00  0.00    -0.237 OA
ATOM     83  O   UNL     1     -19.434  -7.314  -9.989  1.00  0.00    -0.744 OA
ENDBRANCH  79  80
ENDBRANCH  60  74
BRANCH  61  84
ATOM     84  C   UNL     1     -14.715  -6.063   4.334  1.00  0.00    -0.014 A 
ATOM     85  C   UNL     1     -15.262  -6.825   5.353  1.00  0.00     0.010 A 
ATOM     86  C   UNL     1     -13.879  -5.065   4.594  1.00  0.00     0.010 A 
ATOM     87  C   UNL     1     -15.090  -6.268   6.642  1.00  0.00     0.020 A 
ATOM     88  C   UNL     1     -13.652  -4.661   5.888  1.00  0.00     0.020 A 
ATOM     89  C   UNL     1     -14.209  -5.332   6.941  1.00  0.00     0.054 A 
BRANCH  89  90
ATOM     90  S   UNL     1     -13.761  -4.956   8.655  1.00  0.00     0.124 S 
ATOM     91  O   UNL     1     -15.008  -4.513   9.423  1.00  0.00    -0.237 OA
ATOM     92  O   UNL     1     -13.173  -6.206   9.314  1.00  0.00    -0.237 OA
ATOM     93  O   UNL     1     -12.601  -3.700   8.678  1.00  0.00    -0.744 OA
ENDBRANCH  89  90
ENDBRANCH  61  84
BRANCH  73  94
ATOM     94  C   UNL     1     -20.769  -6.301   0.782  1.00  0.00    -0.014 A 
ATOM     95  C   UNL     1     -21.197  -5.077   1.268  1.00  0.00     0.010 A 
ATOM     96  C   UNL     1     -21.617  -7.309   0.612  1.00  0.00     0.010 A 
ATOM     97  C   UNL     1     -22.498  -5.103   1.823  1.00  0.00     0.020 A 
ATOM     98  C   UNL     1     -22.913  -7.215   1.058  1.00  0.00     0.020 A 
ATOM     99  C   UNL     1     -23.387  -6.054   1.602  1.00  0.00     0.054 A 
BRANCH  99 100
ATOM    100  S   UNL     1     -25.139  -5.832   2.000  1.00  0.00     0.124 S 
ATOM    101  O   UNL     1     -25.292  -5.559   3.498  1.00  0.00    -0.237 OA
ATOM    102  O   UNL     1     -25.697  -4.649   1.206  1.00  0.00    -0.237 OA
ATOM    103  O   UNL     1     -26.001  -7.251   1.589  1.00  0.00    -0.744 OA
ENDBRANCH  99 100
ENDBRANCH  73  94
ENDBRANCH  47  48
ENDBRANCH  40  42
ENDBRANCH  39  40
ENDBRANCH  38  39
ENDBRANCH  37  38
ENDBRANCH  36  37
ENDBRANCH  35  36
ENDBRANCH  34  35
ENDBRANCH   1  34
TORSDOF 28
