REMARK SMILES O=C(OCCOCCOCCOCCOC(=O)[C@H]1Cc2c([nH]c3ccccc23)[C@@H](c2ccc(OC(F)(F)F)cc2)[NH2+]1)c1ccc(-c2c3nc(c(-c4ccc(S(=O)(=O)[O-])cc4)c4ccc([nH]4)c(-c4ccc(S(=O)(=O)[O-])cc4)c4nc(c(-c5ccc(S(=O)(=O)[O-])cc5)c5ccc2[nH]5)C=C4)C=C3)cc1
REMARK SMILES IDX 9 1 8 2 7 3 6 4 5 5 4 6 3 7 2 8 1 9 42 10 43 11 101 12 44 13
REMARK SMILES IDX 100 14 45 15 46 16 47 17 94 18 48 19 99 20 93 21 95 22 49 23
REMARK SMILES IDX 98 24 92 25 91 26 50 28 80 29 61 30 79 31 62 32 65 33 78 34
REMARK SMILES IDX 96 35 63 36 64 37 77 39 97 40 66 41 51 42 52 43 60 44 53 45
REMARK SMILES IDX 59 46 54 47 55 48 56 49 57 50 58 51 81 52 82 53 90 54 83 55
REMARK SMILES IDX 89 56 84 57 85 58 86 59 87 60 88 61 67 62 68 63 76 64 69 65
REMARK SMILES IDX 75 66 70 67 71 68 72 69 73 70 74 71 10 72 11 73 12 74 13 75
REMARK SMILES IDX 14 76 15 77 16 78 17 79 18 80 19 81 41 82 20 83 29 84 21 87
REMARK SMILES IDX 28 88 22 89 23 90 27 91 24 93 26 94 25 95 30 96 31 97 40 98
REMARK SMILES IDX 32 99 39 100 33 101 34 102 35 103 36 104 37 105 38 106
REMARK H PARENT 95 27 65 38 41 85 41 86 22 92
REMARK Flexibility Score: inf
ROOT
ATOM      1  O   UNL     1       3.649   1.532  -3.239  1.00  0.00    -0.377 OA
ENDROOT
BRANCH   1   2
ATOM      2  C   UNL     1       2.523   1.348  -2.401  1.00  0.00     0.188 C 
BRANCH   2   3
ATOM      3  C   UNL     1       2.708   0.317  -1.310  1.00  0.00     0.188 C 
BRANCH   3   4
ATOM      4  O   UNL     1       4.032   0.397  -0.831  1.00  0.00    -0.376 OA
BRANCH   4   5
ATOM      5  C   UNL     1       4.702  -0.716  -0.288  1.00  0.00     0.202 C 
BRANCH   5   6
ATOM      6  C   UNL     1       3.877  -1.880   0.215  1.00  0.00     0.261 C 
BRANCH   6   7
ATOM      7  O   UNL     1       2.530  -1.635   0.698  1.00  0.00    -0.460 OA
BRANCH   7   8
ATOM      8  C   UNL     1       1.928  -0.841   1.608  1.00  0.00     0.338 C 
ATOM      9  O   UNL     1       0.713  -0.937   1.767  1.00  0.00    -0.246 OA
BRANCH   8  10
ATOM     10  C   UNL     1       2.656   0.119   2.465  1.00  0.00     0.060 A 
ATOM     11  C   UNL     1       3.593   1.019   1.987  1.00  0.00     0.016 A 
ATOM     12  C   UNL     1       2.277   0.233   3.806  1.00  0.00     0.016 A 
ATOM     13  C   UNL     1       4.376   1.772   2.830  1.00  0.00     0.010 A 
ATOM     14  C   UNL     1       2.947   1.122   4.652  1.00  0.00     0.010 A 
ATOM     15  C   UNL     1       4.066   1.822   4.178  1.00  0.00    -0.014 A 
BRANCH  15  16
ATOM     16  C   UNL     1       5.056   2.445   5.074  1.00  0.00     0.031 A 
ATOM     17  C   UNL     1       5.777   1.536   6.026  1.00  0.00     0.074 A 
ATOM     18  C   UNL     1       5.424   3.728   4.896  1.00  0.00     0.049 A 
ATOM     19  N   UNL     1       6.613   1.832   6.979  1.00  0.00    -0.248 NA
ATOM     20  C   UNL     1       5.521   0.089   5.882  1.00  0.00     0.031 C 
ATOM     21  C   UNL     1       4.908   4.628   3.856  1.00  0.00     0.029 A 
ATOM     22  N   UNL     1       6.363   4.484   5.543  1.00  0.00    -0.354 N 
ATOM     23  C   UNL     1       6.913   0.624   7.597  1.00  0.00     0.074 A 
ATOM     24  C   UNL     1       6.183  -0.412   6.910  1.00  0.00     0.031 C 
ATOM     25  C   UNL     1       5.582   5.788   3.899  1.00  0.00     0.029 A 
ATOM     26  C   UNL     1       6.485   5.758   5.039  1.00  0.00     0.049 A 
ATOM     27  H   UNL     1       6.899   4.148   6.296  1.00  0.00     0.167 HD
ATOM     28  C   UNL     1       7.718   0.414   8.661  1.00  0.00     0.031 A 
ATOM     29  C   UNL     1       7.214   6.795   5.492  1.00  0.00     0.031 A 
ATOM     30  C   UNL     1       8.446   1.479   9.291  1.00  0.00     0.049 A 
ATOM     31  C   UNL     1       8.025   6.564   6.737  1.00  0.00     0.074 A 
ATOM     32  C   UNL     1       9.244   1.438  10.417  1.00  0.00     0.029 A 
ATOM     33  N   UNL     1       8.465   2.788   8.824  1.00  0.00    -0.354 N 
ATOM     34  N   UNL     1       8.204   5.446   7.405  1.00  0.00    -0.248 NA
ATOM     35  C   UNL     1       8.709   7.729   7.306  1.00  0.00     0.031 C 
ATOM     36  C   UNL     1       9.699   2.738  10.662  1.00  0.00     0.029 A 
ATOM     37  C   UNL     1       9.245   3.573   9.649  1.00  0.00     0.049 A 
ATOM     38  H   UNL     1       7.991   3.109   8.023  1.00  0.00     0.167 HD
ATOM     39  C   UNL     1       9.041   5.767   8.464  1.00  0.00     0.074 A 
ATOM     40  C   UNL     1       9.346   7.181   8.332  1.00  0.00     0.031 C 
ATOM     41  C   UNL     1       9.516   4.977   9.460  1.00  0.00     0.031 A 
BRANCH  28  42
ATOM     42  C   UNL     1       7.735  -0.971   9.248  1.00  0.00    -0.014 A 
ATOM     43  C   UNL     1       8.325  -2.063   8.584  1.00  0.00     0.010 A 
ATOM     44  C   UNL     1       7.084  -1.191  10.475  1.00  0.00     0.010 A 
ATOM     45  C   UNL     1       8.218  -3.353   9.114  1.00  0.00     0.020 A 
ATOM     46  C   UNL     1       7.000  -2.473  11.023  1.00  0.00     0.020 A 
ATOM     47  C   UNL     1       7.551  -3.551  10.327  1.00  0.00     0.054 A 
BRANCH  47  48
ATOM     48  S   UNL     1       7.420  -5.232  10.997  1.00  0.00     0.124 S 
ATOM     49  O   UNL     1       6.449  -5.842  10.087  1.00  0.00    -0.237 OA
ATOM     50  O   UNL     1       8.792  -5.732  10.869  1.00  0.00    -0.237 OA
ATOM     51  O   UNL     1       6.958  -5.032  12.360  1.00  0.00    -0.744 OA
ENDBRANCH  47  48
ENDBRANCH  28  42
BRANCH  29  52
ATOM     52  C   UNL     1       7.143   8.128   4.827  1.00  0.00    -0.014 A 
ATOM     53  C   UNL     1       8.279   8.708   4.237  1.00  0.00     0.010 A 
ATOM     54  C   UNL     1       5.924   8.835   4.782  1.00  0.00     0.010 A 
ATOM     55  C   UNL     1       8.203   9.970   3.634  1.00  0.00     0.020 A 
ATOM     56  C   UNL     1       5.835  10.080   4.151  1.00  0.00     0.020 A 
ATOM     57  C   UNL     1       6.981  10.648   3.595  1.00  0.00     0.054 A 
BRANCH  57  58
ATOM     58  S   UNL     1       6.900  12.270   2.784  1.00  0.00     0.124 S 
ATOM     59  O   UNL     1       7.624  13.117   3.727  1.00  0.00    -0.237 OA
ATOM     60  O   UNL     1       7.571  12.020   1.511  1.00  0.00    -0.237 OA
ATOM     61  O   UNL     1       5.465  12.530   2.682  1.00  0.00    -0.744 OA
ENDBRANCH  57  58
ENDBRANCH  29  52
BRANCH  41  62
ATOM     62  C   UNL     1      10.457   5.620  10.436  1.00  0.00    -0.014 A 
ATOM     63  C   UNL     1       9.999   6.534  11.399  1.00  0.00     0.010 A 
ATOM     64  C   UNL     1      11.814   5.251  10.414  1.00  0.00     0.010 A 
ATOM     65  C   UNL     1      10.897   7.100  12.304  1.00  0.00     0.020 A 
ATOM     66  C   UNL     1      12.706   5.789  11.339  1.00  0.00     0.020 A 
ATOM     67  C   UNL     1      12.244   6.723  12.267  1.00  0.00     0.054 A 
BRANCH  67  68
ATOM     68  S   UNL     1      13.382   7.442  13.479  1.00  0.00     0.124 S 
ATOM     69  O   UNL     1      13.546   8.801  12.969  1.00  0.00    -0.237 OA
ATOM     70  O   UNL     1      12.635   7.324  14.728  1.00  0.00    -0.237 OA
ATOM     71  O   UNL     1      14.567   6.593  13.386  1.00  0.00    -0.744 OA
ENDBRANCH  67  68
ENDBRANCH  41  62
ENDBRANCH  15  16
ENDBRANCH   8  10
ENDBRANCH   7   8
ENDBRANCH   6   7
ENDBRANCH   5   6
ENDBRANCH   4   5
ENDBRANCH   3   4
ENDBRANCH   2   3
ENDBRANCH   1   2
BRANCH   1  72
ATOM     72  C   UNL     1       4.932   1.921  -2.744  1.00  0.00     0.188 C 
BRANCH  72  73
ATOM     73  C   UNL     1       5.074   3.233  -1.969  1.00  0.00     0.188 C 
BRANCH  73  74
ATOM     74  O   UNL     1       3.892   3.613  -1.304  1.00  0.00    -0.376 OA
BRANCH  74  75
ATOM     75  C   UNL     1       3.110   4.643  -1.900  1.00  0.00     0.202 C 
BRANCH  75  76
ATOM     76  C   UNL     1       3.100   4.915  -3.429  1.00  0.00     0.261 C 
BRANCH  76  77
ATOM     77  O   UNL     1       3.284   3.793  -4.328  1.00  0.00    -0.459 OA
BRANCH  77  78
ATOM     78  C   UNL     1       4.333   3.884  -5.194  1.00  0.00     0.365 C 
ATOM     79  O   UNL     1       5.065   4.876  -5.257  1.00  0.00    -0.245 OA
BRANCH  78  80
ATOM     80  C   UNL     1       4.608   2.667  -6.133  1.00  0.00     0.298 C 
ATOM     81  C   UNL     1       3.937   1.302  -5.862  1.00  0.00     0.115 C 
ATOM     82  N   UNL     1       4.531   3.186  -7.523  1.00  0.00    -0.323 N 
ATOM     83  C   UNL     1       4.200   0.358  -6.975  1.00  0.00    -0.006 A 
ATOM     84  C   UNL     1       4.208   2.280  -8.629  1.00  0.00     0.262 C 
ATOM     85  H   UNL     1       5.441   3.595  -7.734  1.00  0.00     0.347 HD
ATOM     86  H   UNL     1       3.728   3.813  -7.494  1.00  0.00     0.347 HD
ATOM     87  C   UNL     1       4.352   0.848  -8.244  1.00  0.00     0.083 A 
ATOM     88  C   UNL     1       4.354  -1.052  -7.011  1.00  0.00     0.003 A 
ATOM     89  N   UNL     1       4.572  -0.215  -9.077  1.00  0.00    -0.353 N 
ATOM     90  C   UNL     1       4.530  -1.393  -8.355  1.00  0.00     0.046 A 
ATOM     91  C   UNL     1       4.341  -2.079  -6.044  1.00  0.00     0.010 A 
ATOM     92  H   UNL     1       4.735  -0.151 -10.046  1.00  0.00     0.166 HD
ATOM     93  C   UNL     1       4.630  -2.723  -8.782  1.00  0.00     0.026 A 
ATOM     94  C   UNL     1       4.461  -3.412  -6.456  1.00  0.00     0.001 A 
ATOM     95  C   UNL     1       4.585  -3.727  -7.808  1.00  0.00     0.002 A 
BRANCH  84  96
ATOM     96  C   UNL     1       2.816   2.645  -9.144  1.00  0.00     0.016 A 
ATOM     97  C   UNL     1       1.791   1.708  -9.341  1.00  0.00     0.014 A 
ATOM     98  C   UNL     1       2.535   3.993  -9.426  1.00  0.00     0.014 A 
ATOM     99  C   UNL     1       0.547   2.106  -9.834  1.00  0.00     0.047 A 
ATOM    100  C   UNL     1       1.284   4.393  -9.895  1.00  0.00     0.047 A 
ATOM    101  C   UNL     1       0.289   3.446 -10.124  1.00  0.00     0.129 A 
BRANCH 101 102
ATOM    102  O   UNL     1      -0.958   3.689 -10.621  1.00  0.00    -0.406 OA
BRANCH 102 103
ATOM    103  C   UNL     1      -1.261   5.026 -10.975  1.00  0.00     0.573 C 
ATOM    104  F   UNL     1      -1.277   5.826  -9.889  1.00  0.00    -0.132 F 
ATOM    105  F   UNL     1      -0.384   5.510 -11.882  1.00  0.00    -0.132 F 
ATOM    106  F   UNL     1      -2.491   5.054 -11.537  1.00  0.00    -0.132 F 
ENDBRANCH 102 103
ENDBRANCH 101 102
ENDBRANCH  84  96
ENDBRANCH  78  80
ENDBRANCH  77  78
ENDBRANCH  76  77
ENDBRANCH  75  76
ENDBRANCH  74  75
ENDBRANCH  73  74
ENDBRANCH  72  73
ENDBRANCH   1  72
TORSDOF 26
