REMARK SMILES CC/C=C/C/C=C/C/C=C/C/C=C/CCSCCCC(=O)OCCOCCOCCOCCOC(=O)c1ccc(-c2c3nc(c(-c4ccc(S(=O)(=O)[O-])cc4)c4ccc([nH]4)c(-c4ccc(S(=O)(=O)[O-])cc4)c4nc(c(-c5ccc(S(=O)(=O)[O-])cc5)c5ccc2[nH]5)C=C4)C=C3)cc1
REMARK SMILES IDX 23 1 22 2 20 3 21 4 19 5 18 6 17 7 16 8 15 9 14 10 13 11
REMARK SMILES IDX 12 12 11 13 10 14 9 15 8 16 7 17 6 18 5 19 4 20 3 21 2 22
REMARK SMILES IDX 1 23 24 24 25 25 26 26 27 27 28 28 29 29 30 30 31 31 32 32
REMARK SMILES IDX 33 33 34 34 35 35 36 36 37 37 38 38 96 39 39 40 95 41 40 42
REMARK SMILES IDX 41 43 42 44 89 45 43 46 94 47 88 48 90 49 44 50 93 51 87 52
REMARK SMILES IDX 86 53 45 55 75 56 56 57 74 58 57 59 60 60 73 61 91 62 58 63
REMARK SMILES IDX 59 64 72 66 92 67 61 68 46 69 47 70 55 71 48 72 54 73 49 74
REMARK SMILES IDX 50 75 51 76 52 77 53 78 76 79 77 80 85 81 78 82 84 83 79 84
REMARK SMILES IDX 80 85 81 86 82 87 83 88 62 89 63 90 71 91 64 92 70 93 65 94
REMARK SMILES IDX 66 95 67 96 68 97 69 98
REMARK H PARENT 90 54 60 65
REMARK Flexibility Score: inf
ROOT
ATOM      1  C   UNL     1      -6.404   7.948  -4.559  1.00  0.00     0.261 C 
ENDROOT
BRANCH   1   2
ATOM      2  O   UNL     1      -5.797   9.152  -5.048  1.00  0.00    -0.463 OA
BRANCH   2   3
ATOM      3  C   UNL     1      -4.639   9.730  -4.697  1.00  0.00     0.305 C 
ATOM      4  O   UNL     1      -3.814   9.290  -3.919  1.00  0.00    -0.252 OA
BRANCH   3   5
ATOM      5  C   UNL     1      -4.334  10.965  -5.515  1.00  0.00     0.123 C 
BRANCH   5   6
ATOM      6  C   UNL     1      -5.432  11.581  -6.375  1.00  0.00     0.023 C 
BRANCH   6   7
ATOM      7  C   UNL     1      -6.911  11.427  -6.016  1.00  0.00     0.070 C 
BRANCH   7   8
ATOM      8  S   UNL     1      -7.702  11.862  -4.414  1.00  0.00    -0.162 SA
BRANCH   8   9
ATOM      9  C   UNL     1      -6.390  12.167  -3.179  1.00  0.00     0.073 C 
BRANCH   9  10
ATOM     10  C   UNL     1      -6.589  11.420  -1.837  1.00  0.00     0.038 C 
BRANCH  10  11
ATOM     11  C   UNL     1      -6.151   9.974  -1.775  1.00  0.00    -0.030 C 
ATOM     12  C   UNL     1      -5.003   9.470  -1.270  1.00  0.00    -0.027 C 
BRANCH  12  13
ATOM     13  C   UNL     1      -4.612   7.993  -1.250  1.00  0.00     0.054 C 
BRANCH  13  14
ATOM     14  C   UNL     1      -3.223   7.720  -1.807  1.00  0.00    -0.027 C 
ATOM     15  C   UNL     1      -2.827   6.641  -2.518  1.00  0.00    -0.027 C 
BRANCH  15  16
ATOM     16  C   UNL     1      -1.468   6.465  -3.156  1.00  0.00     0.054 C 
BRANCH  16  17
ATOM     17  C   UNL     1      -0.458   6.189  -2.090  1.00  0.00    -0.027 C 
ATOM     18  C   UNL     1       0.180   5.022  -1.920  1.00  0.00    -0.027 C 
BRANCH  18  19
ATOM     19  C   UNL     1       0.920   4.703  -0.655  1.00  0.00     0.054 C 
BRANCH  19  20
ATOM     20  C   UNL     1       0.348   3.456  -0.044  1.00  0.00    -0.027 C 
ATOM     21  C   UNL     1       1.084   2.407   0.350  1.00  0.00    -0.031 C 
BRANCH  21  22
ATOM     22  C   UNL     1       0.496   1.133   0.879  1.00  0.00     0.023 C 
ATOM     23  C   UNL     1       0.924  -0.046   0.019  1.00  0.00     0.008 C 
ENDBRANCH  21  22
ENDBRANCH  19  20
ENDBRANCH  18  19
ENDBRANCH  16  17
ENDBRANCH  15  16
ENDBRANCH  13  14
ENDBRANCH  12  13
ENDBRANCH  10  11
ENDBRANCH   9  10
ENDBRANCH   8   9
ENDBRANCH   7   8
ENDBRANCH   6   7
ENDBRANCH   5   6
ENDBRANCH   3   5
ENDBRANCH   2   3
ENDBRANCH   1   2
BRANCH   1  24
ATOM     24  C   UNL     1      -5.654   6.622  -4.484  1.00  0.00     0.202 C 
BRANCH  24  25
ATOM     25  O   UNL     1      -4.751   6.167  -5.462  1.00  0.00    -0.376 OA
BRANCH  25  26
ATOM     26  C   UNL     1      -3.796   6.991  -6.088  1.00  0.00     0.188 C 
BRANCH  26  27
ATOM     27  C   UNL     1      -4.325   7.863  -7.234  1.00  0.00     0.188 C 
BRANCH  27  28
ATOM     28  O   UNL     1      -5.206   7.295  -8.184  1.00  0.00    -0.377 OA
BRANCH  28  29
ATOM     29  C   UNL     1      -6.214   6.427  -7.700  1.00  0.00     0.188 C 
BRANCH  29  30
ATOM     30  C   UNL     1      -5.824   4.933  -7.658  1.00  0.00     0.188 C 
BRANCH  30  31
ATOM     31  O   UNL     1      -4.673   4.456  -8.340  1.00  0.00    -0.376 OA
BRANCH  31  32
ATOM     32  C   UNL     1      -4.146   5.189  -9.428  1.00  0.00     0.202 C 
BRANCH  32  33
ATOM     33  C   UNL     1      -5.036   5.530 -10.643  1.00  0.00     0.261 C 
BRANCH  33  34
ATOM     34  O   UNL     1      -6.428   5.818 -10.415  1.00  0.00    -0.460 OA
BRANCH  34  35
ATOM     35  C   UNL     1      -7.271   4.751 -10.394  1.00  0.00     0.338 C 
ATOM     36  O   UNL     1      -6.977   3.595 -10.604  1.00  0.00    -0.246 OA
BRANCH  35  37
ATOM     37  C   UNL     1      -8.601   5.178  -9.863  1.00  0.00     0.060 A 
ATOM     38  C   UNL     1      -9.148   4.476  -8.774  1.00  0.00     0.016 A 
ATOM     39  C   UNL     1      -9.310   6.241 -10.426  1.00  0.00     0.016 A 
ATOM     40  C   UNL     1     -10.412   4.796  -8.279  1.00  0.00     0.010 A 
ATOM     41  C   UNL     1     -10.602   6.529  -9.964  1.00  0.00     0.010 A 
ATOM     42  C   UNL     1     -11.177   5.772  -8.924  1.00  0.00    -0.014 A 
BRANCH  42  43
ATOM     43  C   UNL     1     -12.650   5.766  -8.734  1.00  0.00     0.031 A 
ATOM     44  C   UNL     1     -13.467   4.964  -9.717  1.00  0.00     0.074 A 
ATOM     45  C   UNL     1     -13.253   6.399  -7.712  1.00  0.00     0.049 A 
ATOM     46  N   UNL     1     -14.764   4.841  -9.819  1.00  0.00    -0.248 NA
ATOM     47  C   UNL     1     -12.711   4.196 -10.723  1.00  0.00     0.031 C 
ATOM     48  C   UNL     1     -12.574   7.135  -6.647  1.00  0.00     0.029 A 
ATOM     49  N   UNL     1     -14.587   6.524  -7.409  1.00  0.00    -0.354 N 
ATOM     50  C   UNL     1     -14.977   4.007 -10.911  1.00  0.00     0.074 A 
ATOM     51  C   UNL     1     -13.681   3.667 -11.450  1.00  0.00     0.031 C 
ATOM     52  C   UNL     1     -13.499   7.648  -5.815  1.00  0.00     0.029 A 
ATOM     53  C   UNL     1     -14.834   7.312  -6.310  1.00  0.00     0.049 A 
ATOM     54  H   UNL     1     -15.300   6.090  -7.931  1.00  0.00     0.167 HD
ATOM     55  C   UNL     1     -16.149   3.563 -11.424  1.00  0.00     0.031 A 
ATOM     56  C   UNL     1     -16.003   7.735  -5.784  1.00  0.00     0.031 A 
ATOM     57  C   UNL     1     -17.437   3.911 -10.890  1.00  0.00     0.049 A 
ATOM     58  C   UNL     1     -17.299   7.303  -6.428  1.00  0.00     0.074 A 
ATOM     59  C   UNL     1     -18.686   3.508 -11.329  1.00  0.00     0.029 A 
ATOM     60  N   UNL     1     -17.643   4.752  -9.807  1.00  0.00    -0.354 N 
ATOM     61  N   UNL     1     -17.487   6.509  -7.457  1.00  0.00    -0.248 NA
ATOM     62  C   UNL     1     -18.541   7.823  -5.837  1.00  0.00     0.031 C 
ATOM     63  C   UNL     1     -19.649   4.161 -10.554  1.00  0.00     0.029 A 
ATOM     64  C   UNL     1     -18.999   4.908  -9.583  1.00  0.00     0.049 A 
ATOM     65  H   UNL     1     -16.930   5.174  -9.276  1.00  0.00     0.167 HD
ATOM     66  C   UNL     1     -18.867   6.407  -7.611  1.00  0.00     0.074 A 
ATOM     67  C   UNL     1     -19.465   7.210  -6.565  1.00  0.00     0.031 C 
ATOM     68  C   UNL     1     -19.577   5.708  -8.533  1.00  0.00     0.031 A 
BRANCH  55  69
ATOM     69  C   UNL     1     -16.089   2.698 -12.656  1.00  0.00    -0.014 A 
ATOM     70  C   UNL     1     -15.594   1.382 -12.611  1.00  0.00     0.010 A 
ATOM     71  C   UNL     1     -16.571   3.206 -13.877  1.00  0.00     0.010 A 
ATOM     72  C   UNL     1     -15.551   0.603 -13.771  1.00  0.00     0.020 A 
ATOM     73  C   UNL     1     -16.559   2.420 -15.032  1.00  0.00     0.020 A 
ATOM     74  C   UNL     1     -16.036   1.127 -14.974  1.00  0.00     0.054 A 
BRANCH  74  75
ATOM     75  S   UNL     1     -16.001   0.081 -16.455  1.00  0.00     0.124 S 
ATOM     76  O   UNL     1     -14.570   0.017 -16.746  1.00  0.00    -0.237 OA
ATOM     77  O   UNL     1     -16.601  -1.163 -15.981  1.00  0.00    -0.237 OA
ATOM     78  O   UNL     1     -16.800   0.825 -17.426  1.00  0.00    -0.744 OA
ENDBRANCH  74  75
ENDBRANCH  55  69
BRANCH  56  79
ATOM     79  C   UNL     1     -16.011   8.640  -4.599  1.00  0.00    -0.014 A 
ATOM     80  C   UNL     1     -16.523   8.204  -3.364  1.00  0.00     0.010 A 
ATOM     81  C   UNL     1     -15.521   9.955  -4.705  1.00  0.00     0.010 A 
ATOM     82  C   UNL     1     -16.560   9.069  -2.264  1.00  0.00     0.020 A 
ATOM     83  C   UNL     1     -15.526  10.812  -3.600  1.00  0.00     0.020 A 
ATOM     84  C   UNL     1     -16.056  10.367  -2.389  1.00  0.00     0.054 A 
BRANCH  84  85
ATOM     85  S   UNL     1     -16.070  11.453  -0.935  1.00  0.00     0.124 S 
ATOM     86  O   UNL     1     -17.492  11.740  -0.781  1.00  0.00    -0.237 OA
ATOM     87  O   UNL     1     -15.480  10.602   0.097  1.00  0.00    -0.237 OA
ATOM     88  O   UNL     1     -15.243  12.586  -1.345  1.00  0.00    -0.744 OA
ENDBRANCH  84  85
ENDBRANCH  56  79
BRANCH  68  89
ATOM     89  C   UNL     1     -21.081   5.736  -8.428  1.00  0.00    -0.014 A 
ATOM     90  C   UNL     1     -21.820   6.892  -8.735  1.00  0.00     0.010 A 
ATOM     91  C   UNL     1     -21.769   4.558  -8.079  1.00  0.00     0.010 A 
ATOM     92  C   UNL     1     -23.215   6.879  -8.661  1.00  0.00     0.020 A 
ATOM     93  C   UNL     1     -23.165   4.531  -8.037  1.00  0.00     0.020 A 
ATOM     94  C   UNL     1     -23.879   5.697  -8.315  1.00  0.00     0.054 A 
BRANCH  94  95
ATOM     95  S   UNL     1     -25.692   5.696  -8.269  1.00  0.00     0.124 S 
ATOM     96  O   UNL     1     -25.967   6.492  -7.076  1.00  0.00    -0.237 OA
ATOM     97  O   UNL     1     -26.044   6.325  -9.539  1.00  0.00    -0.237 OA
ATOM     98  O   UNL     1     -26.037   4.280  -8.165  1.00  0.00    -0.744 OA
ENDBRANCH  94  95
ENDBRANCH  68  89
ENDBRANCH  42  43
ENDBRANCH  35  37
ENDBRANCH  34  35
ENDBRANCH  33  34
ENDBRANCH  32  33
ENDBRANCH  31  32
ENDBRANCH  30  31
ENDBRANCH  29  30
ENDBRANCH  28  29
ENDBRANCH  27  28
ENDBRANCH  26  27
ENDBRANCH  25  26
ENDBRANCH  24  25
ENDBRANCH   1  24
TORSDOF 36
