REMARK SMILES O=C(OCCOCCOCCOCCOC(=O)[C@H]1CCCCN1c1cc(-c2ccccc2)nc(-c2cccc(Cl)c2)n1)c1ccc(-c2c3nc(c(-c4ccc(S(=O)(=O)[O-])cc4)c4ccc([nH]4)c(-c4ccc(S(=O)(=O)[O-])cc4)c4nc(c(-c5ccc(S(=O)(=O)[O-])cc5)c5ccc2[nH]5)C=C4)C=C3)cc1
REMARK SMILES IDX 8 1 7 2 6 3 5 4 4 5 3 6 2 7 1 8 43 9 44 10 102 11 45 12
REMARK SMILES IDX 101 13 46 14 47 15 48 16 95 17 49 18 100 19 94 20 96 21
REMARK SMILES IDX 50 22 99 23 93 24 92 25 51 27 81 28 62 29 80 30 63 31 66 32
REMARK SMILES IDX 79 33 97 34 64 35 65 36 78 38 98 39 67 40 52 41 53 42 61 43
REMARK SMILES IDX 54 44 60 45 55 46 56 47 57 48 58 49 59 50 82 51 83 52 91 53
REMARK SMILES IDX 84 54 90 55 85 56 86 57 87 58 88 59 89 60 68 61 69 62 77 63
REMARK SMILES IDX 70 64 76 65 71 66 72 67 73 68 74 69 75 70 9 71 10 72 11 73
REMARK SMILES IDX 12 74 13 75 14 76 15 77 16 78 17 79 18 80 19 81 23 82 20 83
REMARK SMILES IDX 22 84 21 85 24 86 25 87 42 88 26 89 34 90 33 91 27 92 28 93
REMARK SMILES IDX 32 94 29 95 31 96 30 97 35 98 36 99 41 100 37 101 39 102
REMARK SMILES IDX 38 103 40 104
REMARK H PARENT 96 26 66 37
REMARK Flexibility Score: inf
ROOT
ATOM      1  C   UNL     1       7.495  -7.001   3.769  1.00  0.00     0.188 C 
ENDROOT
BRANCH   1   2
ATOM      2  C   UNL     1       7.521  -7.471   2.308  1.00  0.00     0.188 C 
BRANCH   2   3
ATOM      3  O   UNL     1       7.699  -6.365   1.431  1.00  0.00    -0.376 OA
BRANCH   3   4
ATOM      4  C   UNL     1       6.983  -6.308   0.204  1.00  0.00     0.202 C 
BRANCH   4   5
ATOM      5  C   UNL     1       7.360  -7.357  -0.829  1.00  0.00     0.261 C 
BRANCH   5   6
ATOM      6  O   UNL     1       8.145  -8.439  -0.312  1.00  0.00    -0.460 OA
BRANCH   6   7
ATOM      7  C   UNL     1       9.467  -8.482  -0.027  1.00  0.00     0.338 C 
ATOM      8  O   UNL     1       9.925  -9.531   0.428  1.00  0.00    -0.246 OA
BRANCH   7   9
ATOM      9  C   UNL     1      10.419  -7.356  -0.245  1.00  0.00     0.060 A 
ATOM     10  C   UNL     1      10.143  -6.005  -0.047  1.00  0.00     0.016 A 
ATOM     11  C   UNL     1      11.742  -7.710  -0.551  1.00  0.00     0.016 A 
ATOM     12  C   UNL     1      11.097  -5.022  -0.216  1.00  0.00     0.010 A 
ATOM     13  C   UNL     1      12.730  -6.733  -0.683  1.00  0.00     0.010 A 
ATOM     14  C   UNL     1      12.394  -5.383  -0.536  1.00  0.00    -0.014 A 
BRANCH  14  15
ATOM     15  C   UNL     1      13.318  -4.300  -0.880  1.00  0.00     0.031 A 
ATOM     16  C   UNL     1      13.626  -4.108  -2.329  1.00  0.00     0.074 A 
ATOM     17  C   UNL     1      13.730  -3.444   0.071  1.00  0.00     0.049 A 
ATOM     18  N   UNL     1      14.494  -3.317  -2.887  1.00  0.00    -0.248 NA
ATOM     19  C   UNL     1      12.837  -4.913  -3.283  1.00  0.00     0.031 C 
ATOM     20  C   UNL     1      13.307  -3.469   1.477  1.00  0.00     0.029 A 
ATOM     21  N   UNL     1      14.574  -2.372  -0.001  1.00  0.00    -0.354 N 
ATOM     22  C   UNL     1      14.406  -3.578  -4.247  1.00  0.00     0.074 A 
ATOM     23  C   UNL     1      13.385  -4.578  -4.440  1.00  0.00     0.031 C 
ATOM     24  C   UNL     1      13.899  -2.457   2.132  1.00  0.00     0.029 A 
ATOM     25  C   UNL     1      14.808  -1.780   1.217  1.00  0.00     0.049 A 
ATOM     26  H   UNL     1      14.975  -2.055  -0.843  1.00  0.00     0.167 HD
ATOM     27  C   UNL     1      15.151  -3.037  -5.235  1.00  0.00     0.031 A 
ATOM     28  C   UNL     1      15.715  -0.844   1.552  1.00  0.00     0.031 A 
ATOM     29  C   UNL     1      16.155  -2.045  -4.980  1.00  0.00     0.049 A 
ATOM     30  C   UNL     1      16.614  -0.342   0.453  1.00  0.00     0.074 A 
ATOM     31  C   UNL     1      17.021  -1.442  -5.869  1.00  0.00     0.029 A 
ATOM     32  N   UNL     1      16.426  -1.516  -3.723  1.00  0.00    -0.354 N 
ATOM     33  N   UNL     1      16.584  -0.634  -0.828  1.00  0.00    -0.248 NA
ATOM     34  C   UNL     1      17.678   0.590   0.838  1.00  0.00     0.031 C 
ATOM     35  C   UNL     1      17.861  -0.598  -5.136  1.00  0.00     0.029 A 
ATOM     36  C   UNL     1      17.471  -0.620  -3.803  1.00  0.00     0.049 A 
ATOM     37  H   UNL     1      15.942  -1.747  -2.897  1.00  0.00     0.167 HD
ATOM     38  C   UNL     1      17.618   0.087  -1.407  1.00  0.00     0.074 A 
ATOM     39  C   UNL     1      18.236   0.849  -0.337  1.00  0.00     0.031 C 
ATOM     40  C   UNL     1      18.033   0.117  -2.698  1.00  0.00     0.031 A 
BRANCH  27  41
ATOM     41  C   UNL     1      14.978  -3.595  -6.618  1.00  0.00    -0.014 A 
ATOM     42  C   UNL     1      13.828  -3.346  -7.388  1.00  0.00     0.010 A 
ATOM     43  C   UNL     1      15.997  -4.407  -7.150  1.00  0.00     0.010 A 
ATOM     44  C   UNL     1      13.691  -3.921  -8.655  1.00  0.00     0.020 A 
ATOM     45  C   UNL     1      15.876  -4.961  -8.426  1.00  0.00     0.020 A 
ATOM     46  C   UNL     1      14.717  -4.723  -9.167  1.00  0.00     0.054 A 
BRANCH  46  47
ATOM     47  S   UNL     1      14.530  -5.424 -10.829  1.00  0.00     0.124 S 
ATOM     48  O   UNL     1      13.493  -6.431 -10.617  1.00  0.00    -0.237 OA
ATOM     49  O   UNL     1      14.127  -4.264 -11.619  1.00  0.00    -0.237 OA
ATOM     50  O   UNL     1      15.857  -5.953 -11.135  1.00  0.00    -0.744 OA
ENDBRANCH  46  47
ENDBRANCH  27  41
BRANCH  28  51
ATOM     51  C   UNL     1      15.892  -0.427   2.972  1.00  0.00    -0.014 A 
ATOM     52  C   UNL     1      15.676   0.901   3.376  1.00  0.00     0.010 A 
ATOM     53  C   UNL     1      16.299  -1.369   3.939  1.00  0.00     0.010 A 
ATOM     54  C   UNL     1      15.892   1.284   4.705  1.00  0.00     0.020 A 
ATOM     55  C   UNL     1      16.482  -1.000   5.274  1.00  0.00     0.020 A 
ATOM     56  C   UNL     1      16.296   0.331   5.646  1.00  0.00     0.054 A 
BRANCH  56  57
ATOM     57  S   UNL     1      16.560   0.848   7.365  1.00  0.00     0.124 S 
ATOM     58  O   UNL     1      17.787   1.631   7.261  1.00  0.00    -0.237 OA
ATOM     59  O   UNL     1      15.346   1.606   7.656  1.00  0.00    -0.237 OA
ATOM     60  O   UNL     1      16.684  -0.416   8.088  1.00  0.00    -0.744 OA
ENDBRANCH  56  57
ENDBRANCH  28  51
BRANCH  40  61
ATOM     61  C   UNL     1      19.182   1.027  -3.020  1.00  0.00    -0.014 A 
ATOM     62  C   UNL     1      20.495   0.690  -2.651  1.00  0.00     0.010 A 
ATOM     63  C   UNL     1      18.947   2.177  -3.795  1.00  0.00     0.010 A 
ATOM     64  C   UNL     1      21.558   1.501  -3.045  1.00  0.00     0.020 A 
ATOM     65  C   UNL     1      20.012   2.970  -4.218  1.00  0.00     0.020 A 
ATOM     66  C   UNL     1      21.311   2.629  -3.834  1.00  0.00     0.054 A 
BRANCH  66  67
ATOM     67  S   UNL     1      22.719   3.613  -4.407  1.00  0.00     0.124 S 
ATOM     68  O   UNL     1      23.142   4.279  -3.178  1.00  0.00    -0.237 OA
ATOM     69  O   UNL     1      23.633   2.594  -4.917  1.00  0.00    -0.237 OA
ATOM     70  O   UNL     1      22.140   4.488  -5.423  1.00  0.00    -0.744 OA
ENDBRANCH  66  67
ENDBRANCH  40  61
ENDBRANCH  14  15
ENDBRANCH   7   9
ENDBRANCH   6   7
ENDBRANCH   5   6
ENDBRANCH   4   5
ENDBRANCH   3   4
ENDBRANCH   2   3
ENDBRANCH   1   2
BRANCH   1  71
ATOM     71  O   UNL     1       6.392  -6.164   4.126  1.00  0.00    -0.377 OA
BRANCH  71  72
ATOM     72  C   UNL     1       6.056  -5.158   3.177  1.00  0.00     0.188 C 
BRANCH  72  73
ATOM     73  C   UNL     1       7.095  -4.038   2.881  1.00  0.00     0.188 C 
BRANCH  73  74
ATOM     74  O   UNL     1       8.432  -4.391   3.206  1.00  0.00    -0.376 OA
BRANCH  74  75
ATOM     75  C   UNL     1       9.044  -3.743   4.317  1.00  0.00     0.202 C 
BRANCH  75  76
ATOM     76  C   UNL     1       8.392  -3.885   5.705  1.00  0.00     0.261 C 
BRANCH  76  77
ATOM     77  O   UNL     1       6.960  -3.837   5.711  1.00  0.00    -0.462 OA
BRANCH  77  78
ATOM     78  C   UNL     1       6.348  -2.632   5.601  1.00  0.00     0.328 C 
ATOM     79  O   UNL     1       6.944  -1.552   5.607  1.00  0.00    -0.250 OA
BRANCH  78  80
ATOM     80  C   UNL     1       4.847  -2.830   5.280  1.00  0.00     0.193 C 
ATOM     81  C   UNL     1       4.194  -3.930   6.117  1.00  0.00     0.037 C 
ATOM     82  N   UNL     1       4.074  -1.607   5.439  1.00  0.00    -0.343 N 
ATOM     83  C   UNL     1       4.147  -3.502   7.580  1.00  0.00     0.005 C 
ATOM     84  C   UNL     1       3.950  -1.051   6.766  1.00  0.00     0.119 C 
ATOM     85  C   UNL     1       3.470  -2.134   7.745  1.00  0.00     0.022 C 
BRANCH  82  86
ATOM     86  C   UNL     1       3.441  -1.109   4.327  1.00  0.00     0.134 A 
ATOM     87  C   UNL     1       4.015  -0.084   3.607  1.00  0.00     0.076 A 
ATOM     88  N   UNL     1       2.316  -1.715   3.907  1.00  0.00    -0.211 NA
ATOM     89  C   UNL     1       3.369   0.317   2.454  1.00  0.00     0.076 A 
ATOM     90  C   UNL     1       1.757  -1.268   2.763  1.00  0.00     0.162 A 
ATOM     91  N   UNL     1       2.241  -0.270   2.009  1.00  0.00    -0.228 NA
BRANCH  89  92
ATOM     92  C   UNL     1       3.818   1.485   1.693  1.00  0.00     0.000 A 
ATOM     93  C   UNL     1       3.109   2.694   1.799  1.00  0.00     0.010 A 
ATOM     94  C   UNL     1       4.960   1.450   0.879  1.00  0.00     0.010 A 
ATOM     95  C   UNL     1       3.541   3.842   1.134  1.00  0.00     0.001 A 
ATOM     96  C   UNL     1       5.388   2.599   0.205  1.00  0.00     0.001 A 
ATOM     97  C   UNL     1       4.683   3.794   0.339  1.00  0.00     0.000 A 
ENDBRANCH  89  92
BRANCH  90  98
ATOM     98  C   UNL     1       0.480  -1.869   2.341  1.00  0.00     0.021 A 
ATOM     99  C   UNL     1      -0.493  -2.228   3.292  1.00  0.00     0.012 A 
ATOM    100  C   UNL     1       0.173  -2.078   0.982  1.00  0.00     0.032 A 
ATOM    101  C   UNL     1      -1.728  -2.760   2.910  1.00  0.00     0.002 A 
ATOM    102  C   UNL     1      -1.055  -2.627   0.604  1.00  0.00     0.041 A 
ATOM    103  C   UNL     1      -2.009  -2.964   1.562  1.00  0.00     0.020 A 
ATOM    104  Cl  UNL     1      -1.401  -2.896  -1.062  1.00  0.00    -0.084 Cl
ENDBRANCH  90  98
ENDBRANCH  82  86
ENDBRANCH  78  80
ENDBRANCH  77  78
ENDBRANCH  76  77
ENDBRANCH  75  76
ENDBRANCH  74  75
ENDBRANCH  73  74
ENDBRANCH  72  73
ENDBRANCH  71  72
ENDBRANCH   1  71
TORSDOF 26
