REMARK SMILES O=C(CSc1nc2cnccc2n1CCC1CC1)OCCOCCOCCOCCOC(=O)c1ccc(-c2c3nc(c(-c4ccc(S(=O)(=O)[O-])cc4)c4ccc([nH]4)c(-c4ccc(S(=O)(=O)[O-])cc4)c4nc(c(-c5ccc(S(=O)(=O)[O-])cc5)c5ccc2[nH]5)C=C4)C=C3)cc1
REMARK SMILES IDX 24 1 23 2 22 3 21 4 20 5 19 6 2 7 1 8 3 9 4 10 5 11 6 12
REMARK SMILES IDX 13 13 7 14 12 15 8 16 11 17 9 18 10 19 14 20 15 21 16 22
REMARK SMILES IDX 17 23 18 24 25 25 26 26 27 27 28 28 29 29 30 30 31 31 32 32
REMARK SMILES IDX 33 33 34 34 35 35 93 36 36 37 92 38 37 39 38 40 39 41 86 42
REMARK SMILES IDX 40 43 91 44 85 45 87 46 41 47 90 48 84 49 83 50 42 52 72 53
REMARK SMILES IDX 53 54 71 55 54 56 57 57 70 58 88 59 55 60 56 61 69 63 89 64
REMARK SMILES IDX 58 65 43 66 44 67 52 68 45 69 51 70 46 71 47 72 48 73 49 74
REMARK SMILES IDX 50 75 73 76 74 77 82 78 75 79 81 80 76 81 77 82 78 83 79 84
REMARK SMILES IDX 80 85 59 86 60 87 68 88 61 89 67 90 62 91 63 92 64 93 65 94
REMARK SMILES IDX 66 95
REMARK H PARENT 87 51 57 62
REMARK Flexibility Score: inf
ROOT
ATOM      1  C   UNL     1       2.197   1.096   3.405  1.00  0.00     0.188 C 
ENDROOT
BRANCH   1   2
ATOM      2  C   UNL     1       2.814   0.147   2.385  1.00  0.00     0.188 C 
BRANCH   2   3
ATOM      3  O   UNL     1       4.232   0.160   2.521  1.00  0.00    -0.376 OA
BRANCH   3   4
ATOM      4  C   UNL     1       5.088   0.027   1.389  1.00  0.00     0.202 C 
BRANCH   4   5
ATOM      5  C   UNL     1       4.515   0.232  -0.016  1.00  0.00     0.261 C 
BRANCH   5   6
ATOM      6  O   UNL     1       3.433  -0.674  -0.289  1.00  0.00    -0.463 OA
BRANCH   6   7
ATOM      7  C   UNL     1       3.628  -1.967   0.085  1.00  0.00     0.316 C 
ATOM      8  O   UNL     1       3.011  -2.466   1.021  1.00  0.00    -0.251 OA
BRANCH   7   9
ATOM      9  C   UNL     1       4.639  -2.731  -0.714  1.00  0.00     0.200 C 
BRANCH   9  10
ATOM     10  S   UNL     1       4.510  -2.329  -2.468  1.00  0.00    -0.076 SA
BRANCH  10  11
ATOM     11  C   UNL     1       3.188  -3.358  -2.894  1.00  0.00     0.169 A 
ATOM     12  N   UNL     1       3.291  -4.666  -2.880  1.00  0.00    -0.221 NA
ATOM     13  N   UNL     1       1.960  -2.930  -3.349  1.00  0.00    -0.319 N 
ATOM     14  C   UNL     1       2.195  -5.099  -3.580  1.00  0.00     0.108 A 
ATOM     15  C   UNL     1       1.369  -4.032  -3.930  1.00  0.00     0.072 A 
ATOM     16  C   UNL     1       1.848  -6.390  -3.984  1.00  0.00     0.141 A 
ATOM     17  C   UNL     1       0.245  -4.219  -4.731  1.00  0.00     0.049 A 
ATOM     18  N   UNL     1       0.727  -6.610  -4.719  1.00  0.00    -0.262 NA
ATOM     19  C   UNL     1      -0.006  -5.534  -5.096  1.00  0.00     0.113 A 
BRANCH  13  20
ATOM     20  C   UNL     1       1.416  -1.586  -3.271  1.00  0.00     0.125 C 
BRANCH  20  21
ATOM     21  C   UNL     1      -0.077  -1.403  -2.945  1.00  0.00     0.025 C 
BRANCH  21  22
ATOM     22  C   UNL     1      -0.597  -1.798  -1.585  1.00  0.00    -0.009 C 
ATOM     23  C   UNL     1      -0.625  -3.224  -1.079  1.00  0.00     0.004 C 
ATOM     24  C   UNL     1       0.305  -2.223  -0.468  1.00  0.00     0.004 C 
ENDBRANCH  21  22
ENDBRANCH  20  21
ENDBRANCH  13  20
ENDBRANCH  10  11
ENDBRANCH   9  10
ENDBRANCH   7   9
ENDBRANCH   6   7
ENDBRANCH   5   6
ENDBRANCH   4   5
ENDBRANCH   3   4
ENDBRANCH   2   3
ENDBRANCH   1   2
BRANCH   1  25
ATOM     25  O   UNL     1       2.360   2.466   3.058  1.00  0.00    -0.377 OA
BRANCH  25  26
ATOM     26  C   UNL     1       3.692   2.876   2.784  1.00  0.00     0.188 C 
BRANCH  26  27
ATOM     27  C   UNL     1       4.767   2.647   3.875  1.00  0.00     0.188 C 
BRANCH  27  28
ATOM     28  O   UNL     1       4.442   2.748   5.254  1.00  0.00    -0.376 OA
BRANCH  28  29
ATOM     29  C   UNL     1       3.425   3.653   5.635  1.00  0.00     0.202 C 
BRANCH  29  30
ATOM     30  C   UNL     1       3.641   5.152   5.353  1.00  0.00     0.261 C 
BRANCH  30  31
ATOM     31  O   UNL     1       4.123   5.443   4.029  1.00  0.00    -0.460 OA
BRANCH  31  32
ATOM     32  C   UNL     1       5.359   5.992   3.901  1.00  0.00     0.338 C 
ATOM     33  O   UNL     1       6.008   6.535   4.782  1.00  0.00    -0.246 OA
BRANCH  32  34
ATOM     34  C   UNL     1       5.928   5.551   2.594  1.00  0.00     0.060 A 
ATOM     35  C   UNL     1       5.179   5.568   1.415  1.00  0.00     0.016 A 
ATOM     36  C   UNL     1       7.163   4.879   2.622  1.00  0.00     0.016 A 
ATOM     37  C   UNL     1       5.632   4.844   0.307  1.00  0.00     0.010 A 
ATOM     38  C   UNL     1       7.605   4.143   1.516  1.00  0.00     0.010 A 
ATOM     39  C   UNL     1       6.835   4.107   0.352  1.00  0.00    -0.014 A 
BRANCH  39  40
ATOM     40  C   UNL     1       7.338   3.566  -0.929  1.00  0.00     0.031 A 
ATOM     41  C   UNL     1       7.589   4.636  -1.942  1.00  0.00     0.074 A 
ATOM     42  C   UNL     1       7.788   2.331  -1.244  1.00  0.00     0.049 A 
ATOM     43  N   UNL     1       7.079   4.793  -3.120  1.00  0.00    -0.248 NA
ATOM     44  C   UNL     1       8.478   5.727  -1.508  1.00  0.00     0.031 C 
ATOM     45  C   UNL     1       8.117   1.230  -0.340  1.00  0.00     0.029 A 
ATOM     46  N   UNL     1       8.150   1.840  -2.477  1.00  0.00    -0.354 N 
ATOM     47  C   UNL     1       7.684   5.938  -3.638  1.00  0.00     0.074 A 
ATOM     48  C   UNL     1       8.430   6.538  -2.560  1.00  0.00     0.031 C 
ATOM     49  C   UNL     1       8.785   0.274  -1.027  1.00  0.00     0.029 A 
ATOM     50  C   UNL     1       8.871   0.654  -2.430  1.00  0.00     0.049 A 
ATOM     51  H   UNL     1       7.917   2.291  -3.321  1.00  0.00     0.167 HD
ATOM     52  C   UNL     1       7.678   6.272  -4.956  1.00  0.00     0.031 A 
ATOM     53  C   UNL     1       9.586   0.080  -3.434  1.00  0.00     0.031 A 
ATOM     54  C   UNL     1       6.707   5.544  -5.713  1.00  0.00     0.049 A 
ATOM     55  C   UNL     1       9.212   0.707  -4.727  1.00  0.00     0.074 A 
ATOM     56  C   UNL     1       5.335   5.419  -5.663  1.00  0.00     0.029 A 
ATOM     57  N   UNL     1       7.158   4.556  -6.552  1.00  0.00    -0.354 N 
ATOM     58  N   UNL     1       8.101   0.519  -5.381  1.00  0.00    -0.248 NA
ATOM     59  C   UNL     1      10.027   1.825  -5.182  1.00  0.00     0.031 C 
ATOM     60  C   UNL     1       5.066   4.099  -6.110  1.00  0.00     0.029 A 
ATOM     61  C   UNL     1       6.287   3.505  -6.439  1.00  0.00     0.049 A 
ATOM     62  H   UNL     1       7.957   4.594  -7.126  1.00  0.00     0.167 HD
ATOM     63  C   UNL     1       7.903   1.689  -6.101  1.00  0.00     0.074 A 
ATOM     64  C   UNL     1       9.159   2.420  -5.998  1.00  0.00     0.031 C 
ATOM     65  C   UNL     1       6.667   2.105  -6.504  1.00  0.00     0.031 A 
BRANCH  52  66
ATOM     66  C   UNL     1       8.758   7.093  -5.606  1.00  0.00    -0.014 A 
ATOM     67  C   UNL     1      10.054   7.197  -5.059  1.00  0.00     0.010 A 
ATOM     68  C   UNL     1       8.568   7.595  -6.908  1.00  0.00     0.010 A 
ATOM     69  C   UNL     1      11.099   7.814  -5.744  1.00  0.00     0.020 A 
ATOM     70  C   UNL     1       9.626   8.169  -7.628  1.00  0.00     0.020 A 
ATOM     71  C   UNL     1      10.882   8.285  -7.033  1.00  0.00     0.054 A 
BRANCH  71  72
ATOM     72  S   UNL     1      12.299   8.948  -7.942  1.00  0.00     0.124 S 
ATOM     73  O   UNL     1      12.491  10.242  -7.292  1.00  0.00    -0.237 OA
ATOM     74  O   UNL     1      13.334   7.952  -7.681  1.00  0.00    -0.237 OA
ATOM     75  O   UNL     1      11.823   9.003  -9.322  1.00  0.00    -0.744 OA
ENDBRANCH  71  72
ENDBRANCH  52  66
BRANCH  53  76
ATOM     76  C   UNL     1      10.846  -0.711  -3.315  1.00  0.00    -0.014 A 
ATOM     77  C   UNL     1      11.705  -0.505  -2.217  1.00  0.00     0.010 A 
ATOM     78  C   UNL     1      11.353  -1.440  -4.410  1.00  0.00     0.010 A 
ATOM     79  C   UNL     1      13.030  -0.947  -2.231  1.00  0.00     0.020 A 
ATOM     80  C   UNL     1      12.691  -1.877  -4.438  1.00  0.00     0.020 A 
ATOM     81  C   UNL     1      13.529  -1.593  -3.359  1.00  0.00     0.054 A 
BRANCH  81  82
ATOM     82  S   UNL     1      15.308  -1.948  -3.413  1.00  0.00     0.124 S 
ATOM     83  O   UNL     1      15.881  -0.606  -3.461  1.00  0.00    -0.237 OA
ATOM     84  O   UNL     1      15.521  -2.674  -2.163  1.00  0.00    -0.237 OA
ATOM     85  O   UNL     1      15.469  -2.742  -4.628  1.00  0.00    -0.744 OA
ENDBRANCH  81  82
ENDBRANCH  53  76
BRANCH  65  86
ATOM     86  C   UNL     1       5.530   1.135  -6.708  1.00  0.00    -0.014 A 
ATOM     87  C   UNL     1       4.700   1.379  -7.825  1.00  0.00     0.010 A 
ATOM     88  C   UNL     1       5.143   0.139  -5.802  1.00  0.00     0.010 A 
ATOM     89  C   UNL     1       3.483   0.719  -7.991  1.00  0.00     0.020 A 
ATOM     90  C   UNL     1       3.945  -0.566  -5.994  1.00  0.00     0.020 A 
ATOM     91  C   UNL     1       3.098  -0.235  -7.057  1.00  0.00     0.054 A 
BRANCH  91  92
ATOM     92  S   UNL     1       1.484  -1.036  -7.232  1.00  0.00     0.124 S 
ATOM     93  O   UNL     1       0.643  -0.250  -6.330  1.00  0.00    -0.237 OA
ATOM     94  O   UNL     1       1.172  -0.893  -8.651  1.00  0.00    -0.237 OA
ATOM     95  O   UNL     1       1.742  -2.402  -6.794  1.00  0.00    -0.744 OA
ENDBRANCH  91  92
ENDBRANCH  65  86
ENDBRANCH  39  40
ENDBRANCH  32  34
ENDBRANCH  31  32
ENDBRANCH  30  31
ENDBRANCH  29  30
ENDBRANCH  28  29
ENDBRANCH  27  28
ENDBRANCH  26  27
ENDBRANCH  25  26
ENDBRANCH   1  25
TORSDOF 28
