REMARK SMILES CCc1cccc2c3c([nH]c12)[C@](CC)(CC(=O)OCCOCCOCCOCCOC(=O)c1ccc(-c2c4nc(c(-c5ccc(S(=O)(=O)[O-])cc5)c5ccc([nH]5)c(-c5ccc(S(=O)(=O)[O-])cc5)c5nc(c(-c6ccc(S(=O)(=O)[O-])cc6)c6ccc2[nH]6)C=C5)C=C4)cc1)OCC3
REMARK SMILES IDX 25 1 24 2 23 3 22 4 21 5 20 6 19 7 18 8 16 9 17 10 15 11
REMARK SMILES IDX 12 12 3 13 4 14 11 15 5 16 7 17 10 18 6 19 8 20 9 21 95 23
REMARK SMILES IDX 94 24 93 25 2 26 1 27 13 28 14 29 26 30 27 31 28 32 29 33
REMARK SMILES IDX 30 34 31 35 32 36 33 37 34 38 92 39 35 40 91 41 36 42 37 43
REMARK SMILES IDX 38 44 85 45 39 46 90 47 84 48 86 49 40 50 89 51 83 52 82 53
REMARK SMILES IDX 41 55 71 56 52 57 70 58 53 59 56 60 69 61 87 62 54 63 55 64
REMARK SMILES IDX 68 66 88 67 57 68 42 69 43 70 51 71 44 72 50 73 45 74 46 75
REMARK SMILES IDX 47 76 48 77 49 78 72 79 73 80 81 81 74 82 80 83 75 84 76 85
REMARK SMILES IDX 77 86 78 87 79 88 58 89 59 90 67 91 60 92 66 93 61 94 62 95
REMARK SMILES IDX 63 96 64 97 65 98
REMARK H PARENT 10 22 86 54 56 65
REMARK Flexibility Score: inf
ROOT
ATOM      1  C   UNL     1      -0.364  -7.786   2.465  1.00  0.00     0.188 C 
ENDROOT
BRANCH   1   2
ATOM      2  O   UNL     1      -1.360  -7.365   1.579  1.00  0.00    -0.377 OA
BRANCH   2   3
ATOM      3  C   UNL     1      -1.549  -6.006   1.297  1.00  0.00     0.188 C 
BRANCH   3   4
ATOM      4  C   UNL     1      -2.878  -5.439   1.797  1.00  0.00     0.188 C 
BRANCH   4   5
ATOM      5  O   UNL     1      -4.022  -6.266   2.008  1.00  0.00    -0.376 OA
BRANCH   5   6
ATOM      6  C   UNL     1      -3.870  -7.673   2.132  1.00  0.00     0.202 C 
BRANCH   6   7
ATOM      7  C   UNL     1      -3.857  -8.480   0.805  1.00  0.00     0.261 C 
BRANCH   7   8
ATOM      8  O   UNL     1      -3.011  -8.002  -0.281  1.00  0.00    -0.463 OA
BRANCH   8   9
ATOM      9  C   UNL     1      -3.483  -6.950  -0.984  1.00  0.00     0.309 C 
ATOM     10  O   UNL     1      -4.560  -6.400  -0.751  1.00  0.00    -0.252 OA
BRANCH   9  11
ATOM     11  C   UNL     1      -2.699  -6.539  -2.223  1.00  0.00     0.164 C 
BRANCH  11  12
ATOM     12  C   UNL     1      -1.190  -6.322  -2.528  1.00  0.00     0.118 C 
ATOM     13  C   UNL     1       0.630  -1.987  -0.452  1.00  0.00    -0.024 A 
ATOM     14  C   UNL     1       1.619  -1.789   0.536  1.00  0.00     0.006 A 
ATOM     15  C   UNL     1       0.432  -3.333  -0.870  1.00  0.00     0.049 A 
ATOM     16  C   UNL     1       2.551  -2.765   0.840  1.00  0.00     0.001 A 
ATOM     17  C   UNL     1       1.329  -4.349  -0.529  1.00  0.00     0.003 A 
ATOM     18  N   UNL     1      -0.544  -3.927  -1.668  1.00  0.00    -0.356 N 
ATOM     19  C   UNL     1       2.481  -4.004   0.209  1.00  0.00     0.010 A 
ATOM     20  C   UNL     1       0.810  -5.571  -1.054  1.00  0.00    -0.014 A 
ATOM     21  C   UNL     1      -0.365  -5.296  -1.735  1.00  0.00     0.052 A 
ATOM     22  H   UNL     1      -1.266  -3.436  -2.123  1.00  0.00     0.166 HD
ATOM     23  C   UNL     1       1.316  -6.967  -0.950  1.00  0.00     0.066 C 
ATOM     24  C   UNL     1       0.227  -7.964  -1.377  1.00  0.00     0.166 C 
ATOM     25  O   UNL     1      -0.444  -7.564  -2.573  1.00  0.00    -0.368 OA
BRANCH  13  26
ATOM     26  C   UNL     1      -0.088  -0.802  -1.061  1.00  0.00     0.034 C 
ATOM     27  C   UNL     1       0.415   0.580  -0.630  1.00  0.00     0.009 C 
ENDBRANCH  13  26
BRANCH  12  28
ATOM     28  C   UNL     1      -1.119  -5.831  -4.023  1.00  0.00     0.039 C 
ATOM     29  C   UNL     1      -1.717  -6.790  -5.051  1.00  0.00     0.007 C 
ENDBRANCH  12  28
ENDBRANCH  11  12
ENDBRANCH   9  11
ENDBRANCH   8   9
ENDBRANCH   7   8
ENDBRANCH   6   7
ENDBRANCH   5   6
ENDBRANCH   4   5
ENDBRANCH   3   4
ENDBRANCH   2   3
ENDBRANCH   1   2
BRANCH   1  30
ATOM     30  C   UNL     1      -0.236  -7.014   3.773  1.00  0.00     0.188 C 
BRANCH  30  31
ATOM     31  O   UNL     1       0.056  -5.646   3.569  1.00  0.00    -0.376 OA
BRANCH  31  32
ATOM     32  C   UNL     1       1.404  -5.218   3.440  1.00  0.00     0.202 C 
BRANCH  32  33
ATOM     33  C   UNL     1       2.488  -6.031   2.713  1.00  0.00     0.261 C 
BRANCH  33  34
ATOM     34  O   UNL     1       2.439  -7.426   2.928  1.00  0.00    -0.460 OA
BRANCH  34  35
ATOM     35  C   UNL     1       3.386  -8.106   3.604  1.00  0.00     0.338 C 
ATOM     36  O   UNL     1       4.400  -7.712   4.103  1.00  0.00    -0.246 OA
BRANCH  35  37
ATOM     37  C   UNL     1       2.633  -9.356   3.834  1.00  0.00     0.060 A 
ATOM     38  C   UNL     1       2.169 -10.086   2.729  1.00  0.00     0.016 A 
ATOM     39  C   UNL     1       1.996  -9.412   5.080  1.00  0.00     0.016 A 
ATOM     40  C   UNL     1       0.980 -10.786   2.859  1.00  0.00     0.010 A 
ATOM     41  C   UNL     1       0.783 -10.073   5.189  1.00  0.00     0.010 A 
ATOM     42  C   UNL     1       0.259 -10.728   4.072  1.00  0.00    -0.014 A 
BRANCH  42  43
ATOM     43  C   UNL     1      -0.829 -11.691   4.255  1.00  0.00     0.031 A 
ATOM     44  C   UNL     1      -0.221 -13.047   4.220  1.00  0.00     0.074 A 
ATOM     45  C   UNL     1      -2.118 -11.439   4.568  1.00  0.00     0.049 A 
ATOM     46  N   UNL     1      -0.352 -13.944   3.301  1.00  0.00    -0.248 NA
ATOM     47  C   UNL     1       0.916 -13.288   5.141  1.00  0.00     0.031 C 
ATOM     48  C   UNL     1      -2.728 -10.144   4.874  1.00  0.00     0.029 A 
ATOM     49  N   UNL     1      -3.152 -12.308   4.790  1.00  0.00    -0.354 N 
ATOM     50  C   UNL     1       0.511 -14.961   3.691  1.00  0.00     0.074 A 
ATOM     51  C   UNL     1       1.454 -14.378   4.602  1.00  0.00     0.031 C 
ATOM     52  C   UNL     1      -3.930 -10.334   5.468  1.00  0.00     0.029 A 
ATOM     53  C   UNL     1      -4.228 -11.755   5.491  1.00  0.00     0.049 A 
ATOM     54  H   UNL     1      -3.139 -13.243   4.482  1.00  0.00     0.167 HD
ATOM     55  C   UNL     1       0.140 -16.262   3.579  1.00  0.00     0.031 A 
ATOM     56  C   UNL     1      -5.241 -12.423   6.109  1.00  0.00     0.031 A 
ATOM     57  C   UNL     1      -0.922 -16.418   2.625  1.00  0.00     0.049 A 
ATOM     58  C   UNL     1      -5.285 -13.779   5.520  1.00  0.00     0.074 A 
ATOM     59  C   UNL     1      -1.033 -16.258   1.262  1.00  0.00     0.029 A 
ATOM     60  N   UNL     1      -2.184 -16.330   3.160  1.00  0.00    -0.354 N 
ATOM     61  N   UNL     1      -5.598 -14.013   4.276  1.00  0.00    -0.248 NA
ATOM     62  C   UNL     1      -4.593 -14.860   6.208  1.00  0.00     0.031 C 
ATOM     63  C   UNL     1      -2.366 -15.817   1.034  1.00  0.00     0.029 A 
ATOM     64  C   UNL     1      -3.056 -15.794   2.248  1.00  0.00     0.049 A 
ATOM     65  H   UNL     1      -2.428 -16.612   4.071  1.00  0.00     0.167 HD
ATOM     66  C   UNL     1      -4.768 -15.056   3.906  1.00  0.00     0.074 A 
ATOM     67  C   UNL     1      -4.289 -15.630   5.160  1.00  0.00     0.031 C 
ATOM     68  C   UNL     1      -4.309 -15.162   2.626  1.00  0.00     0.031 A 
BRANCH  55  69
ATOM     69  C   UNL     1       0.404 -17.252   4.690  1.00  0.00    -0.014 A 
ATOM     70  C   UNL     1       0.751 -16.863   6.005  1.00  0.00     0.010 A 
ATOM     71  C   UNL     1       0.080 -18.605   4.500  1.00  0.00     0.010 A 
ATOM     72  C   UNL     1       0.863 -17.768   7.054  1.00  0.00     0.020 A 
ATOM     73  C   UNL     1       0.141 -19.522   5.562  1.00  0.00     0.020 A 
ATOM     74  C   UNL     1       0.560 -19.099   6.824  1.00  0.00     0.054 A 
BRANCH  74  75
ATOM     75  S   UNL     1       0.697 -20.236   8.220  1.00  0.00     0.124 S 
ATOM     76  O   UNL     1       2.140 -20.247   8.450  1.00  0.00    -0.237 OA
ATOM     77  O   UNL     1      -0.098 -19.568   9.246  1.00  0.00    -0.237 OA
ATOM     78  O   UNL     1       0.135 -21.480   7.703  1.00  0.00    -0.744 OA
ENDBRANCH  74  75
ENDBRANCH  55  69
BRANCH  56  79
ATOM     79  C   UNL     1      -5.864 -12.139   7.439  1.00  0.00    -0.014 A 
ATOM     80  C   UNL     1      -5.140 -11.416   8.407  1.00  0.00     0.010 A 
ATOM     81  C   UNL     1      -6.998 -12.857   7.882  1.00  0.00     0.010 A 
ATOM     82  C   UNL     1      -5.459 -11.494   9.770  1.00  0.00     0.020 A 
ATOM     83  C   UNL     1      -7.325 -12.940   9.251  1.00  0.00     0.020 A 
ATOM     84  C   UNL     1      -6.521 -12.294  10.189  1.00  0.00     0.054 A 
BRANCH  84  85
ATOM     85  S   UNL     1      -6.744 -12.554  11.976  1.00  0.00     0.124 S 
ATOM     86  O   UNL     1      -5.550 -13.321  12.320  1.00  0.00    -0.237 OA
ATOM     87  O   UNL     1      -6.779 -11.188  12.493  1.00  0.00    -0.237 OA
ATOM     88  O   UNL     1      -8.005 -13.285  12.068  1.00  0.00    -0.744 OA
ENDBRANCH  84  85
ENDBRANCH  56  79
BRANCH  68  89
ATOM     89  C   UNL     1      -5.062 -14.454   1.522  1.00  0.00    -0.014 A 
ATOM     90  C   UNL     1      -5.513 -15.267   0.466  1.00  0.00     0.010 A 
ATOM     91  C   UNL     1      -5.188 -13.057   1.396  1.00  0.00     0.010 A 
ATOM     92  C   UNL     1      -6.012 -14.713  -0.710  1.00  0.00     0.020 A 
ATOM     93  C   UNL     1      -5.722 -12.492   0.222  1.00  0.00     0.020 A 
ATOM     94  C   UNL     1      -6.100 -13.327  -0.834  1.00  0.00     0.054 A 
BRANCH  94  95
ATOM     95  S   UNL     1      -6.689 -12.663  -2.416  1.00  0.00     0.124 S 
ATOM     96  O   UNL     1      -5.578 -12.974  -3.313  1.00  0.00    -0.237 OA
ATOM     97  O   UNL     1      -7.910 -13.431  -2.651  1.00  0.00    -0.237 OA
ATOM     98  O   UNL     1      -6.893 -11.242  -2.149  1.00  0.00    -0.744 OA
ENDBRANCH  94  95
ENDBRANCH  68  89
ENDBRANCH  42  43
ENDBRANCH  35  37
ENDBRANCH  34  35
ENDBRANCH  33  34
ENDBRANCH  32  33
ENDBRANCH  31  32
ENDBRANCH  30  31
ENDBRANCH   1  30
TORSDOF 26
