REMARK SMILES Cc1ccc(Nc2c(C)cccc2Cl)c(CC(=O)OCCOCCOCCOCCOC(=O)c2ccc(-c3c4nc(c(-c5ccc(S(=O)(=O)[O-])cc5)c5ccc([nH]5)c(-c5ccc(S(=O)(=O)[O-])cc5)c5nc(c(-c6ccc(S(=O)(=O)[O-])cc6)c6ccc3[nH]6)C=C5)C=C4)cc2)c1
REMARK SMILES IDX 25 1 24 2 23 3 22 4 21 5 20 6 19 7 17 8 18 9 16 10 15 11
REMARK SMILES IDX 1 12 2 13 3 14 94 15 4 16 5 17 6 18 7 20 8 21 13 22 9 23
REMARK SMILES IDX 10 24 12 25 14 26 11 27 26 28 27 29 28 30 29 31 30 32 31 33
REMARK SMILES IDX 32 34 33 35 34 36 35 37 93 38 36 39 92 40 37 41 38 42 39 43
REMARK SMILES IDX 86 44 40 45 91 46 85 47 87 48 41 49 90 50 84 51 83 52 42 54
REMARK SMILES IDX 72 55 53 56 71 57 54 58 57 59 70 60 88 61 55 62 56 63 69 65
REMARK SMILES IDX 89 66 58 67 43 68 44 69 52 70 45 71 51 72 46 73 47 74 48 75
REMARK SMILES IDX 49 76 50 77 73 78 74 79 82 80 75 81 81 82 76 83 77 84 78 85
REMARK SMILES IDX 79 86 80 87 59 88 60 89 68 90 61 91 67 92 62 93 63 94 64 95
REMARK SMILES IDX 65 96 66 97
REMARK H PARENT 6 19 87 53 57 64
REMARK Flexibility Score: inf
ROOT
ATOM      1  O   UNL     1      -2.016   0.166  -1.723  1.00  0.00    -0.377 OA
ENDROOT
BRANCH   1   2
ATOM      2  C   UNL     1      -3.415   0.199  -1.406  1.00  0.00     0.188 C 
BRANCH   2   3
ATOM      3  C   UNL     1      -3.718   1.164  -0.299  1.00  0.00     0.188 C 
BRANCH   3   4
ATOM      4  O   UNL     1      -4.757   2.105  -0.342  1.00  0.00    -0.376 OA
BRANCH   4   5
ATOM      5  C   UNL     1      -4.405   3.371  -0.833  1.00  0.00     0.202 C 
BRANCH   5   6
ATOM      6  C   UNL     1      -3.216   4.184  -0.258  1.00  0.00     0.261 C 
BRANCH   6   7
ATOM      7  O   UNL     1      -2.181   3.461   0.422  1.00  0.00    -0.463 OA
BRANCH   7   8
ATOM      8  C   UNL     1      -2.445   3.246   1.736  1.00  0.00     0.310 C 
ATOM      9  O   UNL     1      -3.329   3.818   2.366  1.00  0.00    -0.252 OA
BRANCH   8  10
ATOM     10  C   UNL     1      -1.498   2.287   2.414  1.00  0.00     0.160 C 
BRANCH  10  11
ATOM     11  C   UNL     1      -1.080   0.999   1.721  1.00  0.00    -0.013 A 
ATOM     12  C   UNL     1       2.159  -0.020  -0.103  1.00  0.00     0.044 C 
ATOM     13  C   UNL     1       0.773  -0.067   0.470  1.00  0.00    -0.051 A 
ATOM     14  C   UNL     1       0.046  -1.249   0.454  1.00  0.00     0.005 A 
ATOM     15  C   UNL     1       0.193   1.050   1.076  1.00  0.00     0.009 A 
ATOM     16  C   UNL     1      -1.238  -1.302   1.018  1.00  0.00     0.026 A 
ATOM     17  C   UNL     1      -1.840  -0.209   1.685  1.00  0.00     0.042 A 
BRANCH  17  18
ATOM     18  N   UNL     1      -3.161  -0.347   2.271  1.00  0.00    -0.354 N 
ATOM     19  H   UNL     1      -3.470   0.408   2.822  1.00  0.00     0.167 HD
BRANCH  18  20
ATOM     20  C   UNL     1      -4.080  -1.459   2.144  1.00  0.00     0.060 A 
ATOM     21  C   UNL     1      -3.655  -2.760   2.461  1.00  0.00    -0.026 A 
ATOM     22  C   UNL     1      -5.366  -1.358   1.542  1.00  0.00     0.064 A 
ATOM     23  C   UNL     1      -2.551  -2.976   3.457  1.00  0.00     0.046 C 
ATOM     24  C   UNL     1      -4.340  -3.888   1.961  1.00  0.00     0.005 A 
ATOM     25  C   UNL     1      -6.022  -2.482   1.007  1.00  0.00     0.023 A 
ATOM     26  Cl  UNL     1      -6.309   0.096   1.572  1.00  0.00    -0.082 Cl
ATOM     27  C   UNL     1      -5.485  -3.748   1.183  1.00  0.00     0.002 A 
ENDBRANCH  18  20
ENDBRANCH  17  18
ENDBRANCH  10  11
ENDBRANCH   8  10
ENDBRANCH   7   8
ENDBRANCH   6   7
ENDBRANCH   5   6
ENDBRANCH   4   5
ENDBRANCH   3   4
ENDBRANCH   2   3
ENDBRANCH   1   2
BRANCH   1  28
ATOM     28  C   UNL     1      -1.768  -0.390  -3.021  1.00  0.00     0.188 C 
BRANCH  28  29
ATOM     29  C   UNL     1      -2.025  -1.881  -3.178  1.00  0.00     0.188 C 
BRANCH  29  30
ATOM     30  O   UNL     1      -3.329  -2.156  -2.701  1.00  0.00    -0.376 OA
BRANCH  30  31
ATOM     31  C   UNL     1      -3.477  -3.319  -1.919  1.00  0.00     0.202 C 
BRANCH  31  32
ATOM     32  C   UNL     1      -4.195  -4.370  -2.753  1.00  0.00     0.261 C 
BRANCH  32  33
ATOM     33  O   UNL     1      -5.442  -3.814  -3.235  1.00  0.00    -0.460 OA
BRANCH  33  34
ATOM     34  C   UNL     1      -5.444  -3.490  -4.561  1.00  0.00     0.338 C 
ATOM     35  O   UNL     1      -5.458  -4.321  -5.460  1.00  0.00    -0.246 OA
BRANCH  34  36
ATOM     36  C   UNL     1      -5.464  -2.011  -4.762  1.00  0.00     0.060 A 
ATOM     37  C   UNL     1      -4.900  -1.426  -5.908  1.00  0.00     0.016 A 
ATOM     38  C   UNL     1      -5.924  -1.185  -3.747  1.00  0.00     0.016 A 
ATOM     39  C   UNL     1      -4.645  -0.038  -5.968  1.00  0.00     0.010 A 
ATOM     40  C   UNL     1      -5.688   0.182  -3.822  1.00  0.00     0.010 A 
ATOM     41  C   UNL     1      -4.972   0.776  -4.886  1.00  0.00    -0.014 A 
BRANCH  41  42
ATOM     42  C   UNL     1      -4.483   2.170  -4.632  1.00  0.00     0.031 A 
ATOM     43  C   UNL     1      -5.485   3.188  -4.117  1.00  0.00     0.074 A 
ATOM     44  C   UNL     1      -3.139   2.347  -4.471  1.00  0.00     0.049 A 
ATOM     45  N   UNL     1      -5.224   4.395  -3.724  1.00  0.00    -0.248 NA
ATOM     46  C   UNL     1      -6.930   2.912  -4.044  1.00  0.00     0.031 C 
ATOM     47  C   UNL     1      -2.417   3.033  -3.396  1.00  0.00     0.029 A 
ATOM     48  N   UNL     1      -2.063   1.827  -5.166  1.00  0.00    -0.354 N 
ATOM     49  C   UNL     1      -6.338   4.876  -3.030  1.00  0.00     0.074 A 
ATOM     50  C   UNL     1      -7.400   3.960  -3.356  1.00  0.00     0.031 C 
ATOM     51  C   UNL     1      -1.100   3.083  -3.614  1.00  0.00     0.029 A 
ATOM     52  C   UNL     1      -0.906   2.581  -4.928  1.00  0.00     0.049 A 
ATOM     53  H   UNL     1      -2.104   1.035  -5.749  1.00  0.00     0.167 HD
ATOM     54  C   UNL     1      -6.213   5.891  -2.113  1.00  0.00     0.031 A 
ATOM     55  C   UNL     1      -0.274   3.291  -5.895  1.00  0.00     0.031 A 
ATOM     56  C   UNL     1      -4.871   6.522  -2.135  1.00  0.00     0.049 A 
ATOM     57  C   UNL     1      -0.546   4.799  -5.771  1.00  0.00     0.074 A 
ATOM     58  C   UNL     1      -4.018   7.061  -1.184  1.00  0.00     0.029 A 
ATOM     59  N   UNL     1      -4.151   6.578  -3.328  1.00  0.00    -0.354 N 
ATOM     60  N   UNL     1      -1.320   5.362  -4.863  1.00  0.00    -0.248 NA
ATOM     61  C   UNL     1       0.028   5.797  -6.668  1.00  0.00     0.031 C 
ATOM     62  C   UNL     1      -2.777   7.381  -1.810  1.00  0.00     0.029 A 
ATOM     63  C   UNL     1      -2.897   7.112  -3.161  1.00  0.00     0.049 A 
ATOM     64  H   UNL     1      -4.503   6.269  -4.194  1.00  0.00     0.167 HD
ATOM     65  C   UNL     1      -1.406   6.718  -5.074  1.00  0.00     0.074 A 
ATOM     66  C   UNL     1      -0.547   6.932  -6.229  1.00  0.00     0.031 C 
ATOM     67  C   UNL     1      -2.172   7.581  -4.331  1.00  0.00     0.031 A 
BRANCH  54  68
ATOM     68  C   UNL     1      -7.231   6.199  -0.981  1.00  0.00    -0.014 A 
ATOM     69  C   UNL     1      -7.039   7.343  -0.169  1.00  0.00     0.010 A 
ATOM     70  C   UNL     1      -8.289   5.356  -0.561  1.00  0.00     0.010 A 
ATOM     71  C   UNL     1      -7.780   7.597   1.003  1.00  0.00     0.020 A 
ATOM     72  C   UNL     1      -9.088   5.633   0.579  1.00  0.00     0.020 A 
ATOM     73  C   UNL     1      -8.809   6.741   1.374  1.00  0.00     0.054 A 
BRANCH  73  74
ATOM     74  S   UNL     1      -9.788   7.128   2.859  1.00  0.00     0.124 S 
ATOM     75  O   UNL     1      -8.864   6.809   3.945  1.00  0.00    -0.237 OA
ATOM     76  O   UNL     1     -10.084   8.549   2.689  1.00  0.00    -0.237 OA
ATOM     77  O   UNL     1     -10.948   6.245   2.752  1.00  0.00    -0.744 OA
ENDBRANCH  73  74
ENDBRANCH  54  68
BRANCH  55  78
ATOM     78  C   UNL     1       0.033   2.370  -7.040  1.00  0.00    -0.014 A 
ATOM     79  C   UNL     1       1.008   1.386  -6.709  1.00  0.00     0.010 A 
ATOM     80  C   UNL     1      -1.017   1.990  -7.902  1.00  0.00     0.010 A 
ATOM     81  C   UNL     1       0.768   0.026  -6.953  1.00  0.00     0.020 A 
ATOM     82  C   UNL     1      -1.252   0.621  -8.156  1.00  0.00     0.020 A 
ATOM     83  C   UNL     1      -0.396  -0.351  -7.620  1.00  0.00     0.054 A 
BRANCH  83  84
ATOM     84  S   UNL     1      -0.918  -2.099  -7.513  1.00  0.00     0.124 S 
ATOM     85  O   UNL     1      -0.112  -2.730  -8.550  1.00  0.00    -0.237 OA
ATOM     86  O   UNL     1      -0.567  -2.453  -6.139  1.00  0.00    -0.237 OA
ATOM     87  O   UNL     1      -2.351  -2.025  -7.780  1.00  0.00    -0.744 OA
ENDBRANCH  83  84
ENDBRANCH  55  78
BRANCH  67  88
ATOM     88  C   UNL     1      -2.432   9.037  -4.667  1.00  0.00    -0.014 A 
ATOM     89  C   UNL     1      -1.493   9.903  -5.227  1.00  0.00     0.010 A 
ATOM     90  C   UNL     1      -3.700   9.592  -4.335  1.00  0.00     0.010 A 
ATOM     91  C   UNL     1      -1.851  11.212  -5.581  1.00  0.00     0.020 A 
ATOM     92  C   UNL     1      -4.054  10.904  -4.637  1.00  0.00     0.020 A 
ATOM     93  C   UNL     1      -3.138  11.692  -5.311  1.00  0.00     0.054 A 
BRANCH  93  94
ATOM     94  S   UNL     1      -3.598  13.354  -5.849  1.00  0.00     0.124 S 
ATOM     95  O   UNL     1      -2.441  14.150  -5.447  1.00  0.00    -0.237 OA
ATOM     96  O   UNL     1      -3.760  13.165  -7.288  1.00  0.00    -0.237 OA
ATOM     97  O   UNL     1      -4.829  13.634  -5.114  1.00  0.00    -0.744 OA
ENDBRANCH  93  94
ENDBRANCH  67  88
ENDBRANCH  41  42
ENDBRANCH  34  36
ENDBRANCH  33  34
ENDBRANCH  32  33
ENDBRANCH  31  32
ENDBRANCH  30  31
ENDBRANCH  29  30
ENDBRANCH  28  29
ENDBRANCH   1  28
TORSDOF 26
