REMARK SMILES [NH3+][C@H]1CCCC[C@@H]1C(=O)N1CC(C(=O)OCCOCCOCCOCCOC(=O)c2ccc(-c3c4nc(c(-c5ccc(S(=O)(=O)[O-])cc5)c5ccc([nH]5)c(-c5ccc(S(=O)(=O)[O-])cc5)c5nc(c(-c6ccc(S(=O)(=O)[O-])cc6)c6ccc3[nH]6)C=C5)C=C4)cc2)C1
REMARK SMILES IDX 22 1 21 2 20 3 19 4 18 5 17 6 16 7 15 8 13 9 14 10 12 11
REMARK SMILES IDX 8 12 9 13 10 14 11 15 90 16 7 17 2 18 3 19 4 20 6 21 5 22
REMARK SMILES IDX 1 23 23 27 24 28 25 29 26 30 27 31 28 32 29 33 30 34 31 35
REMARK SMILES IDX 89 36 32 37 88 38 33 39 34 40 35 41 82 42 36 43 87 44 81 45
REMARK SMILES IDX 83 46 37 47 86 48 80 49 79 50 38 52 68 53 49 54 67 55 50 56
REMARK SMILES IDX 53 57 66 58 84 59 51 60 52 61 65 63 85 64 54 65 39 66 40 67
REMARK SMILES IDX 48 68 41 69 47 70 42 71 43 72 44 73 45 74 46 75 69 76 70 77
REMARK SMILES IDX 78 78 71 79 77 80 72 81 73 82 74 83 75 84 76 85 55 86 56 87
REMARK SMILES IDX 64 88 57 89 63 90 58 91 59 92 60 93 61 94 62 95
REMARK H PARENT 1 24 1 25 1 26 83 51 53 62
REMARK Flexibility Score: inf
ROOT
ATOM      1  C   UNL     1      -1.442  -0.406  -7.622  1.00  0.00     0.188 C 
ENDROOT
BRANCH   1   2
ATOM      2  O   UNL     1      -1.875  -0.907  -6.364  1.00  0.00    -0.377 OA
BRANCH   2   3
ATOM      3  C   UNL     1      -1.830  -2.305  -6.172  1.00  0.00     0.188 C 
BRANCH   3   4
ATOM      4  C   UNL     1      -3.144  -3.039  -6.486  1.00  0.00     0.188 C 
BRANCH   4   5
ATOM      5  O   UNL     1      -4.146  -2.430  -7.281  1.00  0.00    -0.376 OA
BRANCH   5   6
ATOM      6  C   UNL     1      -4.652  -1.130  -7.013  1.00  0.00     0.202 C 
BRANCH   6   7
ATOM      7  C   UNL     1      -4.771  -0.498  -5.611  1.00  0.00     0.261 C 
BRANCH   7   8
ATOM      8  O   UNL     1      -3.843  -0.954  -4.622  1.00  0.00    -0.463 OA
BRANCH   8   9
ATOM      9  C   UNL     1      -4.314  -1.840  -3.707  1.00  0.00     0.312 C 
ATOM     10  O   UNL     1      -5.500  -2.161  -3.627  1.00  0.00    -0.252 OA
BRANCH   9  11
ATOM     11  C   UNL     1      -3.203  -2.487  -2.872  1.00  0.00     0.138 C 
ATOM     12  C   UNL     1      -1.213  -2.301  -0.143  1.00  0.00     0.231 C 
ATOM     13  O   UNL     1      -1.267  -3.245   0.654  1.00  0.00    -0.274 OA
ATOM     14  N   UNL     1      -1.921  -2.358  -1.301  1.00  0.00    -0.340 N 
ATOM     15  C   UNL     1      -3.379  -2.376  -1.358  1.00  0.00     0.136 C 
ATOM     16  C   UNL     1      -1.816  -1.829  -2.645  1.00  0.00     0.136 C 
BRANCH  12  17
ATOM     17  C   UNL     1      -0.371  -1.079   0.193  1.00  0.00     0.136 C 
ATOM     18  C   UNL     1      -1.016   0.274  -0.166  1.00  0.00     0.193 C 
ATOM     19  C   UNL     1      -0.145   1.443   0.309  1.00  0.00     0.066 C 
ATOM     20  C   UNL     1       1.286   1.321  -0.211  1.00  0.00     0.006 C 
ATOM     21  C   UNL     1       1.057  -1.190  -0.346  1.00  0.00     0.020 C 
ATOM     22  C   UNL     1       1.907  -0.023   0.159  1.00  0.00     0.001 C 
BRANCH  18  23
ATOM     23  N   UNL     1      -2.360   0.408   0.401  1.00  0.00    -0.354 N 
ATOM     24  H   UNL     1      -2.750   1.314   0.141  1.00  0.00     0.344 HD
ATOM     25  H   UNL     1      -2.309   0.339   1.417  1.00  0.00     0.344 HD
ATOM     26  H   UNL     1      -2.957  -0.335   0.039  1.00  0.00     0.344 HD
ENDBRANCH  18  23
ENDBRANCH  12  17
ENDBRANCH   9  11
ENDBRANCH   8   9
ENDBRANCH   7   8
ENDBRANCH   6   7
ENDBRANCH   5   6
ENDBRANCH   4   5
ENDBRANCH   3   4
ENDBRANCH   2   3
ENDBRANCH   1   2
BRANCH   1  27
ATOM     27  C   UNL     1      -1.622  -1.277  -8.884  1.00  0.00     0.188 C 
BRANCH  27  28
ATOM     28  O   UNL     1      -1.200  -2.626  -8.730  1.00  0.00    -0.376 OA
BRANCH  28  29
ATOM     29  C   UNL     1       0.084  -2.997  -9.211  1.00  0.00     0.202 C 
BRANCH  29  30
ATOM     30  C   UNL     1       1.309  -2.387  -8.512  1.00  0.00     0.261 C 
BRANCH  30  31
ATOM     31  O   UNL     1       1.399  -0.955  -8.509  1.00  0.00    -0.460 OA
BRANCH  31  32
ATOM     32  C   UNL     1       1.413  -0.320  -9.700  1.00  0.00     0.338 C 
ATOM     33  O   UNL     1       1.406  -0.835 -10.806  1.00  0.00    -0.246 OA
BRANCH  32  34
ATOM     34  C   UNL     1       1.232   1.124  -9.439  1.00  0.00     0.060 A 
ATOM     35  C   UNL     1       0.129   1.786  -9.995  1.00  0.00     0.016 A 
ATOM     36  C   UNL     1       2.143   1.817  -8.639  1.00  0.00     0.016 A 
ATOM     37  C   UNL     1      -0.044   3.155  -9.784  1.00  0.00     0.010 A 
ATOM     38  C   UNL     1       1.980   3.191  -8.447  1.00  0.00     0.010 A 
ATOM     39  C   UNL     1       0.907   3.873  -9.048  1.00  0.00    -0.014 A 
BRANCH  39  40
ATOM     40  C   UNL     1       0.908   5.356  -9.076  1.00  0.00     0.031 A 
ATOM     41  C   UNL     1       1.850   6.043 -10.029  1.00  0.00     0.074 A 
ATOM     42  C   UNL     1       0.101   6.080  -8.282  1.00  0.00     0.049 A 
ATOM     43  N   UNL     1       2.101   7.318 -10.174  1.00  0.00    -0.248 NA
ATOM     44  C   UNL     1       2.615   5.171 -10.937  1.00  0.00     0.031 C 
ATOM     45  C   UNL     1      -0.895   5.536  -7.360  1.00  0.00     0.029 A 
ATOM     46  N   UNL     1       0.003   7.441  -8.119  1.00  0.00    -0.354 N 
ATOM     47  C   UNL     1       3.061   7.400 -11.177  1.00  0.00     0.074 A 
ATOM     48  C   UNL     1       3.369   6.047 -11.583  1.00  0.00     0.031 C 
ATOM     49  C   UNL     1      -1.495   6.555  -6.718  1.00  0.00     0.029 A 
ATOM     50  C   UNL     1      -0.897   7.817  -7.151  1.00  0.00     0.049 A 
ATOM     51  H   UNL     1       0.529   8.085  -8.646  1.00  0.00     0.167 HD
ATOM     52  C   UNL     1       3.632   8.503 -11.715  1.00  0.00     0.031 A 
ATOM     53  C   UNL     1      -1.184   9.038  -6.653  1.00  0.00     0.031 A 
ATOM     54  C   UNL     1       3.336   9.846 -11.295  1.00  0.00     0.049 A 
ATOM     55  C   UNL     1      -0.464  10.246  -7.199  1.00  0.00     0.074 A 
ATOM     56  C   UNL     1       3.857  11.032 -11.780  1.00  0.00     0.029 A 
ATOM     57  N   UNL     1       2.447  10.182 -10.285  1.00  0.00    -0.354 N 
ATOM     58  N   UNL     1       0.431  10.312  -8.157  1.00  0.00    -0.248 NA
ATOM     59  C   UNL     1      -0.797  11.547  -6.600  1.00  0.00     0.031 C 
ATOM     60  C   UNL     1       3.333  12.081 -11.019  1.00  0.00     0.029 A 
ATOM     61  C   UNL     1       2.426  11.555 -10.112  1.00  0.00     0.049 A 
ATOM     62  H   UNL     1       1.910   9.539  -9.768  1.00  0.00     0.167 HD
ATOM     63  C   UNL     1       0.738  11.662  -8.300  1.00  0.00     0.074 A 
ATOM     64  C   UNL     1      -0.072  12.379  -7.337  1.00  0.00     0.031 C 
ATOM     65  C   UNL     1       1.607  12.257  -9.155  1.00  0.00     0.031 A 
BRANCH  52  66
ATOM     66  C   UNL     1       4.666   8.297 -12.791  1.00  0.00    -0.014 A 
ATOM     67  C   UNL     1       4.311   7.822 -14.066  1.00  0.00     0.010 A 
ATOM     68  C   UNL     1       6.011   8.619 -12.531  1.00  0.00     0.010 A 
ATOM     69  C   UNL     1       5.287   7.635 -15.049  1.00  0.00     0.020 A 
ATOM     70  C   UNL     1       6.985   8.464 -13.521  1.00  0.00     0.020 A 
ATOM     71  C   UNL     1       6.619   7.957 -14.769  1.00  0.00     0.054 A 
BRANCH  71  72
ATOM     72  S   UNL     1       7.859   7.727 -16.072  1.00  0.00     0.124 S 
ATOM     73  O   UNL     1       7.941   6.270 -16.155  1.00  0.00    -0.237 OA
ATOM     74  O   UNL     1       7.242   8.388 -17.219  1.00  0.00    -0.237 OA
ATOM     75  O   UNL     1       9.049   8.386 -15.540  1.00  0.00    -0.744 OA
ENDBRANCH  71  72
ENDBRANCH  52  66
BRANCH  53  76
ATOM     76  C   UNL     1      -2.183   9.184  -5.556  1.00  0.00    -0.014 A 
ATOM     77  C   UNL     1      -3.401   9.850  -5.778  1.00  0.00     0.010 A 
ATOM     78  C   UNL     1      -1.912   8.669  -4.275  1.00  0.00     0.010 A 
ATOM     79  C   UNL     1      -4.320  10.015  -4.737  1.00  0.00     0.020 A 
ATOM     80  C   UNL     1      -2.841   8.803  -3.240  1.00  0.00     0.020 A 
ATOM     81  C   UNL     1      -4.036   9.486  -3.474  1.00  0.00     0.054 A 
BRANCH  81  82
ATOM     82  S   UNL     1      -5.264   9.670  -2.152  1.00  0.00     0.124 S 
ATOM     83  O   UNL     1      -5.180  11.096  -1.854  1.00  0.00    -0.237 OA
ATOM     84  O   UNL     1      -6.494   9.229  -2.804  1.00  0.00    -0.237 OA
ATOM     85  O   UNL     1      -4.771   8.780  -1.102  1.00  0.00    -0.744 OA
ENDBRANCH  81  82
ENDBRANCH  53  76
BRANCH  65  86
ATOM     86  C   UNL     1       1.697  13.761  -9.137  1.00  0.00    -0.014 A 
ATOM     87  C   UNL     1       2.298  14.450  -8.069  1.00  0.00     0.010 A 
ATOM     88  C   UNL     1       1.240  14.492 -10.250  1.00  0.00     0.010 A 
ATOM     89  C   UNL     1       2.417  15.843  -8.104  1.00  0.00     0.020 A 
ATOM     90  C   UNL     1       1.386  15.880 -10.304  1.00  0.00     0.020 A 
ATOM     91  C   UNL     1       1.965  16.549  -9.225  1.00  0.00     0.054 A 
BRANCH  91  92
ATOM     92  S   UNL     1       2.187  18.348  -9.271  1.00  0.00     0.124 S 
ATOM     93  O   UNL     1       1.217  18.800  -8.277  1.00  0.00    -0.237 OA
ATOM     94  O   UNL     1       3.590  18.506  -8.896  1.00  0.00    -0.237 OA
ATOM     95  O   UNL     1       1.873  18.702 -10.653  1.00  0.00    -0.744 OA
ENDBRANCH  91  92
ENDBRANCH  65  86
ENDBRANCH  39  40
ENDBRANCH  32  34
ENDBRANCH  31  32
ENDBRANCH  30  31
ENDBRANCH  29  30
ENDBRANCH  28  29
ENDBRANCH  27  28
ENDBRANCH   1  27
TORSDOF 25
