REMARK SMILES Cc1cccc(S(=O)(=O)Nc2cc(C(=O)OCCOCCOCCOCCOC(=O)c3ccc(-c4c5nc(c(-c6ccc(S(=O)(=O)[O-])cc6)c6ccc([nH]6)c(-c6ccc(S(=O)(=O)[O-])cc6)c6nc(c(-c7ccc(S(=O)(=O)[O-])cc7)c7ccc4[nH]7)C=C6)C=C5)cc3)cnc2N2CCC[C@H](C)C2)c1
REMARK SMILES IDX 22 1 21 2 20 3 19 4 18 5 17 6 16 7 14 8 15 9 13 10 11 11
REMARK SMILES IDX 12 12 93 13 92 14 91 15 10 16 7 18 8 19 9 20 6 21 1 22 2 23
REMARK SMILES IDX 3 24 101 25 4 26 5 27 94 28 95 29 100 30 96 31 98 32 97 33
REMARK SMILES IDX 99 34 23 35 24 36 25 37 26 38 27 39 28 40 29 41 30 42 31 43
REMARK SMILES IDX 32 44 90 45 33 46 89 47 34 48 35 49 36 50 83 51 37 52 88 53
REMARK SMILES IDX 82 54 84 55 38 56 87 57 81 58 80 59 39 61 69 62 50 63 68 64
REMARK SMILES IDX 51 65 54 66 67 67 85 68 52 69 53 70 66 72 86 73 55 74 40 75
REMARK SMILES IDX 41 76 49 77 42 78 48 79 43 80 44 81 45 82 46 83 47 84 70 85
REMARK SMILES IDX 71 86 79 87 72 88 78 89 73 90 74 91 75 92 76 93 77 94 56 95
REMARK SMILES IDX 57 96 65 97 58 98 64 99 59 100 60 101 61 102 62 103 63 104
REMARK H PARENT 10 17 84 60 54 71
REMARK Flexibility Score: inf
ROOT
ATOM      1  O   UNL     1       3.364   4.126  -3.527  1.00  0.00    -0.377 OA
ENDROOT
BRANCH   1   2
ATOM      2  C   UNL     1       4.778   4.105  -3.263  1.00  0.00     0.188 C 
BRANCH   2   3
ATOM      3  C   UNL     1       5.998   3.172  -3.934  1.00  0.00     0.188 C 
BRANCH   3   4
ATOM      4  O   UNL     1       6.514   1.476  -3.839  1.00  0.00    -0.376 OA
BRANCH   4   5
ATOM      5  C   UNL     1       5.735  -0.080  -3.535  1.00  0.00     0.202 C 
BRANCH   5   6
ATOM      6  C   UNL     1       4.386  -0.542  -2.281  1.00  0.00     0.261 C 
BRANCH   6   7
ATOM      7  O   UNL     1       3.781   0.451  -0.876  1.00  0.00    -0.460 OA
BRANCH   7   8
ATOM      8  C   UNL     1       4.014   1.574   0.072  1.00  0.00     0.339 C 
ATOM      9  O   UNL     1       5.102   2.014   0.464  1.00  0.00    -0.246 OA
BRANCH   8  10
ATOM     10  C   UNL     1       2.934   2.556   0.651  1.00  0.00     0.080 A 
ATOM     11  C   UNL     1       0.914   3.981   0.629  1.00  0.00     0.092 A 
ATOM     12  C   UNL     1       1.841   3.158   0.009  1.00  0.00     0.048 A 
ATOM     13  C   UNL     1       1.306   4.600   1.807  1.00  0.00     0.153 A 
ATOM     14  N   UNL     1       2.443   4.222   2.433  1.00  0.00    -0.236 NA
ATOM     15  C   UNL     1       3.192   3.194   1.867  1.00  0.00     0.129 A 
BRANCH  11  16
ATOM     16  N   UNL     1      -0.352   4.254  -0.032  1.00  0.00    -0.276 N 
ATOM     17  H   UNL     1      -0.383   4.921  -0.756  1.00  0.00     0.180 HD
BRANCH  16  18
ATOM     18  S   UNL     1      -1.802   3.436   0.422  1.00  0.00     0.262 S 
ATOM     19  O   UNL     1      -2.606   3.363  -0.779  1.00  0.00    -0.201 OA
ATOM     20  O   UNL     1      -2.349   4.114   1.583  1.00  0.00    -0.201 OA
BRANCH  18  21
ATOM     21  C   UNL     1      -1.504   1.779   0.957  1.00  0.00     0.088 A 
ATOM     22  C   UNL     1       1.117  -0.035   2.890  1.00  0.00     0.044 C 
ATOM     23  C   UNL     1      -0.180   0.203   2.198  1.00  0.00    -0.050 A 
ATOM     24  C   UNL     1      -0.954  -0.850   1.709  1.00  0.00     0.003 A 
ATOM     25  C   UNL     1      -0.505   1.517   1.877  1.00  0.00     0.025 A 
ATOM     26  C   UNL     1      -2.055  -0.581   0.899  1.00  0.00     0.002 A 
ATOM     27  C   UNL     1      -2.320   0.733   0.503  1.00  0.00     0.022 A 
ENDBRANCH  18  21
ENDBRANCH  16  18
ENDBRANCH  11  16
BRANCH  13  28
ATOM     28  N   UNL     1       0.590   5.737   2.171  1.00  0.00    -0.355 N 
ATOM     29  C   UNL     1      -0.316   5.624   3.297  1.00  0.00     0.118 C 
ATOM     30  C   UNL     1       1.269   7.018   2.011  1.00  0.00     0.121 C 
ATOM     31  C   UNL     1      -1.443   6.635   3.068  1.00  0.00     0.022 C 
ATOM     32  C   UNL     1       0.215   8.130   1.808  1.00  0.00     0.005 C 
ATOM     33  C   UNL     1      -0.896   8.050   2.875  1.00  0.00     0.007 C 
ATOM     34  C   UNL     1      -0.361   8.111   0.386  1.00  0.00     0.009 C 
ENDBRANCH  13  28
ENDBRANCH   8  10
ENDBRANCH   7   8
ENDBRANCH   6   7
ENDBRANCH   5   6
ENDBRANCH   4   5
ENDBRANCH   3   4
ENDBRANCH   2   3
ENDBRANCH   1   2
BRANCH   1  35
ATOM     35  C   UNL     1       2.746   4.338  -4.793  1.00  0.00     0.188 C 
BRANCH  35  36
ATOM     36  C   UNL     1       3.344   5.345  -5.749  1.00  0.00     0.188 C 
BRANCH  36  37
ATOM     37  O   UNL     1       4.721   5.050  -5.918  1.00  0.00    -0.376 OA
BRANCH  37  38
ATOM     38  C   UNL     1       5.433   5.981  -6.710  1.00  0.00     0.202 C 
BRANCH  38  39
ATOM     39  C   UNL     1       5.106   5.865  -8.202  1.00  0.00     0.261 C 
BRANCH  39  40
ATOM     40  O   UNL     1       5.613   4.623  -8.735  1.00  0.00    -0.460 OA
BRANCH  40  41
ATOM     41  C   UNL     1       4.666   3.678  -9.035  1.00  0.00     0.338 C 
ATOM     42  O   UNL     1       4.005   3.689 -10.052  1.00  0.00    -0.246 OA
BRANCH  41  43
ATOM     43  C   UNL     1       4.635   2.662  -7.947  1.00  0.00     0.060 A 
ATOM     44  C   UNL     1       3.528   1.955  -7.521  1.00  0.00     0.016 A 
ATOM     45  C   UNL     1       5.774   2.389  -7.259  1.00  0.00     0.016 A 
ATOM     46  C   UNL     1       3.476   1.377  -6.199  1.00  0.00     0.010 A 
ATOM     47  C   UNL     1       5.677   1.741  -6.013  1.00  0.00     0.010 A 
ATOM     48  C   UNL     1       4.471   1.555  -5.220  1.00  0.00    -0.014 A 
BRANCH  48  49
ATOM     49  C   UNL     1       4.199   1.612  -3.371  1.00  0.00     0.031 A 
ATOM     50  C   UNL     1       5.633   1.576  -1.982  1.00  0.00     0.074 A 
ATOM     51  C   UNL     1       2.798   1.438  -3.163  1.00  0.00     0.049 A 
ATOM     52  N   UNL     1       5.888   0.466  -1.215  1.00  0.00    -0.248 NA
ATOM     53  C   UNL     1       7.136   2.179  -1.761  1.00  0.00     0.031 C 
ATOM     54  C   UNL     1       1.934   1.336  -1.992  1.00  0.00     0.029 A 
ATOM     55  N   UNL     1       1.786   1.094  -4.088  1.00  0.00    -0.354 N 
ATOM     56  C   UNL     1       7.026   0.316  -0.493  1.00  0.00     0.074 A 
ATOM     57  C   UNL     1       7.862   1.318  -1.018  1.00  0.00     0.031 C 
ATOM     58  C   UNL     1       0.654   1.047  -2.175  1.00  0.00     0.029 A 
ATOM     59  C   UNL     1       0.648   0.535  -3.471  1.00  0.00     0.049 A 
ATOM     60  H   UNL     1       1.866   1.231  -5.060  1.00  0.00     0.167 HD
ATOM     61  C   UNL     1       7.171  -0.613   0.499  1.00  0.00     0.031 A 
ATOM     62  C   UNL     1       0.291  -0.766  -3.594  1.00  0.00     0.031 A 
ATOM     63  C   UNL     1       5.901  -1.152   1.007  1.00  0.00     0.049 A 
ATOM     64  C   UNL     1       0.735  -1.747  -2.462  1.00  0.00     0.074 A 
ATOM     65  C   UNL     1       5.179  -0.829   2.139  1.00  0.00     0.029 A 
ATOM     66  N   UNL     1       5.077  -2.027   0.291  1.00  0.00    -0.354 N 
ATOM     67  N   UNL     1       1.710  -1.587  -1.572  1.00  0.00    -0.248 NA
ATOM     68  C   UNL     1       0.040  -3.012  -2.256  1.00  0.00     0.031 C 
ATOM     69  C   UNL     1       3.923  -1.469   2.055  1.00  0.00     0.029 A 
ATOM     70  C   UNL     1       3.764  -2.050   0.799  1.00  0.00     0.049 A 
ATOM     71  H   UNL     1       5.379  -2.563  -0.477  1.00  0.00     0.167 HD
ATOM     72  C   UNL     1       1.809  -2.700  -0.733  1.00  0.00     0.074 A 
ATOM     73  C   UNL     1       0.724  -3.552  -1.232  1.00  0.00     0.031 C 
ATOM     74  C   UNL     1       2.697  -2.961   0.307  1.00  0.00     0.031 A 
BRANCH  61  75
ATOM     75  C   UNL     1       8.488  -0.644   1.257  1.00  0.00    -0.014 A 
ATOM     76  C   UNL     1       8.523  -0.477   2.654  1.00  0.00     0.010 A 
ATOM     77  C   UNL     1       9.736  -0.729   0.598  1.00  0.00     0.010 A 
ATOM     78  C   UNL     1       9.723  -0.247   3.342  1.00  0.00     0.020 A 
ATOM     79  C   UNL     1      10.946  -0.480   1.275  1.00  0.00     0.020 A 
ATOM     80  C   UNL     1      10.926  -0.203   2.641  1.00  0.00     0.054 A 
BRANCH  80  81
ATOM     81  S   UNL     1      12.431   0.292   3.531  1.00  0.00     0.124 S 
ATOM     82  O   UNL     1      12.067   1.604   4.062  1.00  0.00    -0.237 OA
ATOM     83  O   UNL     1      12.575  -0.768   4.525  1.00  0.00    -0.237 OA
ATOM     84  O   UNL     1      13.459   0.314   2.493  1.00  0.00    -0.744 OA
ENDBRANCH  80  81
ENDBRANCH  61  75
BRANCH  62  85
ATOM     85  C   UNL     1      -0.311  -0.880  -4.957  1.00  0.00    -0.014 A 
ATOM     86  C   UNL     1      -1.352   0.067  -5.232  1.00  0.00     0.010 A 
ATOM     87  C   UNL     1       0.523  -1.263  -6.016  1.00  0.00     0.010 A 
ATOM     88  C   UNL     1      -1.342   0.821  -6.412  1.00  0.00     0.020 A 
ATOM     89  C   UNL     1       0.494  -0.540  -7.225  1.00  0.00     0.020 A 
ATOM     90  C   UNL     1      -0.374   0.551  -7.373  1.00  0.00     0.054 A 
BRANCH  90  91
ATOM     91  S   UNL     1      -0.121   1.782  -8.693  1.00  0.00     0.124 S 
ATOM     92  O   UNL     1      -1.472   2.010  -9.193  1.00  0.00    -0.237 OA
ATOM     93  O   UNL     1       0.466   2.893  -7.942  1.00  0.00    -0.237 OA
ATOM     94  O   UNL     1       0.782   1.097  -9.611  1.00  0.00    -0.744 OA
ENDBRANCH  90  91
ENDBRANCH  62  85
BRANCH  74  95
ATOM     95  C   UNL     1       2.610  -4.234   1.151  1.00  0.00    -0.014 A 
ATOM     96  C   UNL     1       1.417  -4.811   1.614  1.00  0.00     0.010 A 
ATOM     97  C   UNL     1       3.820  -4.786   1.645  1.00  0.00     0.010 A 
ATOM     98  C   UNL     1       1.438  -5.965   2.415  1.00  0.00     0.020 A 
ATOM     99  C   UNL     1       3.851  -5.891   2.493  1.00  0.00     0.020 A 
ATOM    100  C   UNL     1       2.657  -6.507   2.832  1.00  0.00     0.054 A 
BRANCH 100 101
ATOM    101  S   UNL     1       2.676  -8.020   3.823  1.00  0.00     0.124 S 
ATOM    102  O   UNL     1       1.622  -7.775   4.804  1.00  0.00    -0.237 OA
ATOM    103  O   UNL     1       2.376  -9.035   2.817  1.00  0.00    -0.237 OA
ATOM    104  O   UNL     1       4.031  -8.064   4.368  1.00  0.00    -0.744 OA
ENDBRANCH 100 101
ENDBRANCH  74  95
ENDBRANCH  48  49
ENDBRANCH  41  43
ENDBRANCH  40  41
ENDBRANCH  39  40
ENDBRANCH  38  39
ENDBRANCH  37  38
ENDBRANCH  36  37
ENDBRANCH  35  36
ENDBRANCH   1  35
TORSDOF 27
