REMARK SMILES O=C(OCCOCCOCCOCCOC(=O)[C@@]1([C@@H]2CCO[C@@]3(CCOC3)C2)CCOC1)c1ccc(-c2c3nc(c(-c4ccc(S(=O)(=O)[O-])cc4)c4ccc([nH]4)c(-c4ccc(S(=O)(=O)[O-])cc4)c4nc(c(-c5ccc(S(=O)(=O)[O-])cc5)c5ccc2[nH]5)C=C4)C=C3)cc1
REMARK SMILES IDX 8 1 7 2 6 3 5 4 4 5 3 6 2 7 1 8 33 9 34 10 92 11 35 12 91 13
REMARK SMILES IDX 36 14 37 15 38 16 85 17 39 18 90 19 84 20 86 21 40 22 89 23
REMARK SMILES IDX 83 24 82 25 41 27 71 28 52 29 70 30 53 31 56 32 69 33 87 34
REMARK SMILES IDX 54 35 55 36 68 38 88 39 57 40 42 41 43 42 51 43 44 44 50 45
REMARK SMILES IDX 45 46 46 47 47 48 48 49 49 50 72 51 73 52 81 53 74 54 80 55
REMARK SMILES IDX 75 56 76 57 77 58 78 59 79 60 58 61 59 62 67 63 60 64 66 65
REMARK SMILES IDX 61 66 62 67 63 68 64 69 65 70 9 71 10 72 11 73 12 74 13 75
REMARK SMILES IDX 14 76 15 77 16 78 17 79 18 80 29 81 32 82 30 83 31 84 19 85
REMARK SMILES IDX 20 86 28 87 21 88 23 89 22 90 24 91 27 92 25 93 26 94
REMARK H PARENT 86 26 56 37
REMARK Flexibility Score: inf
ROOT
ATOM      1  C   UNL     1       5.297  -1.083   2.600  1.00  0.00     0.188 C 
ENDROOT
BRANCH   1   2
ATOM      2  C   UNL     1       4.636  -1.009   3.971  1.00  0.00     0.188 C 
BRANCH   2   3
ATOM      3  O   UNL     1       5.018  -2.117   4.787  1.00  0.00    -0.376 OA
BRANCH   3   4
ATOM      4  C   UNL     1       3.998  -2.704   5.595  1.00  0.00     0.202 C 
BRANCH   4   5
ATOM      5  C   UNL     1       3.612  -1.901   6.836  1.00  0.00     0.261 C 
BRANCH   5   6
ATOM      6  O   UNL     1       3.732  -0.487   6.648  1.00  0.00    -0.460 OA
BRANCH   6   7
ATOM      7  C   UNL     1       4.830   0.290   6.828  1.00  0.00     0.338 C 
ATOM      8  O   UNL     1       4.708   1.499   6.629  1.00  0.00    -0.246 OA
BRANCH   7   9
ATOM      9  C   UNL     1       6.190  -0.218   7.209  1.00  0.00     0.060 A 
ATOM     10  C   UNL     1       6.648  -1.532   7.080  1.00  0.00     0.016 A 
ATOM     11  C   UNL     1       7.103   0.742   7.679  1.00  0.00     0.016 A 
ATOM     12  C   UNL     1       7.936  -1.903   7.429  1.00  0.00     0.010 A 
ATOM     13  C   UNL     1       8.399   0.381   8.055  1.00  0.00     0.010 A 
ATOM     14  C   UNL     1       8.799  -0.955   7.957  1.00  0.00    -0.014 A 
BRANCH  14  15
ATOM     15  C   UNL     1       9.997  -1.454   8.643  1.00  0.00     0.031 A 
ATOM     16  C   UNL     1       9.915  -1.583  10.132  1.00  0.00     0.074 A 
ATOM     17  C   UNL     1      11.044  -1.908   7.937  1.00  0.00     0.049 A 
ATOM     18  N   UNL     1      10.845  -1.895  10.989  1.00  0.00    -0.248 NA
ATOM     19  C   UNL     1       8.592  -1.336  10.738  1.00  0.00     0.031 C 
ATOM     20  C   UNL     1      11.112  -1.977   6.476  1.00  0.00     0.029 A 
ATOM     21  N   UNL     1      12.243  -2.412   8.356  1.00  0.00    -0.354 N 
ATOM     22  C   UNL     1      10.235  -1.826  12.236  1.00  0.00     0.074 A 
ATOM     23  C   UNL     1       8.855  -1.459  12.027  1.00  0.00     0.031 C 
ATOM     24  C   UNL     1      12.304  -2.482   6.119  1.00  0.00     0.029 A 
ATOM     25  C   UNL     1      13.102  -2.696   7.322  1.00  0.00     0.049 A 
ATOM     26  H   UNL     1      12.469  -2.558   9.303  1.00  0.00     0.167 HD
ATOM     27  C   UNL     1      10.800  -2.028  13.447  1.00  0.00     0.031 A 
ATOM     28  C   UNL     1      14.406  -3.027   7.359  1.00  0.00     0.031 A 
ATOM     29  C   UNL     1      12.186  -2.369  13.596  1.00  0.00     0.049 A 
ATOM     30  C   UNL     1      15.052  -3.143   8.714  1.00  0.00     0.074 A 
ATOM     31  C   UNL     1      12.920  -2.536  14.752  1.00  0.00     0.029 A 
ATOM     32  N   UNL     1      13.051  -2.590  12.528  1.00  0.00    -0.354 N 
ATOM     33  N   UNL     1      14.501  -2.997   9.899  1.00  0.00    -0.248 NA
ATOM     34  C   UNL     1      16.485  -3.452   8.746  1.00  0.00     0.031 C 
ATOM     35  C   UNL     1      14.243  -2.800  14.381  1.00  0.00     0.029 A 
ATOM     36  C   UNL     1      14.319  -2.867  12.995  1.00  0.00     0.049 A 
ATOM     37  H   UNL     1      12.795  -2.553  11.578  1.00  0.00     0.167 HD
ATOM     38  C   UNL     1      15.516  -3.209  10.822  1.00  0.00     0.074 A 
ATOM     39  C   UNL     1      16.712  -3.507  10.054  1.00  0.00     0.031 C 
ATOM     40  C   UNL     1      15.472  -3.162  12.177  1.00  0.00     0.031 A 
BRANCH  27  41
ATOM     41  C   UNL     1       9.942  -1.754  14.652  1.00  0.00    -0.014 A 
ATOM     42  C   UNL     1       8.850  -2.573  14.994  1.00  0.00     0.010 A 
ATOM     43  C   UNL     1      10.187  -0.594  15.410  1.00  0.00     0.010 A 
ATOM     44  C   UNL     1       7.982  -2.201  16.026  1.00  0.00     0.020 A 
ATOM     45  C   UNL     1       9.339  -0.234  16.461  1.00  0.00     0.020 A 
ATOM     46  C   UNL     1       8.225  -1.026  16.744  1.00  0.00     0.054 A 
BRANCH  46  47
ATOM     47  S   UNL     1       7.061  -0.540  18.049  1.00  0.00     0.124 S 
ATOM     48  O   UNL     1       5.910  -0.089  17.271  1.00  0.00    -0.237 OA
ATOM     49  O   UNL     1       6.870  -1.785  18.787  1.00  0.00    -0.237 OA
ATOM     50  O   UNL     1       7.772   0.509  18.775  1.00  0.00    -0.744 OA
ENDBRANCH  46  47
ENDBRANCH  27  41
BRANCH  28  51
ATOM     51  C   UNL     1      15.169  -3.167   6.088  1.00  0.00    -0.014 A 
ATOM     52  C   UNL     1      15.665  -4.410   5.662  1.00  0.00     0.010 A 
ATOM     53  C   UNL     1      15.352  -2.043   5.256  1.00  0.00     0.010 A 
ATOM     54  C   UNL     1      16.320  -4.528   4.429  1.00  0.00     0.020 A 
ATOM     55  C   UNL     1      15.979  -2.161   4.013  1.00  0.00     0.020 A 
ATOM     56  C   UNL     1      16.465  -3.404   3.608  1.00  0.00     0.054 A 
BRANCH  56  57
ATOM     57  S   UNL     1      17.251  -3.596   1.983  1.00  0.00     0.124 S 
ATOM     58  O   UNL     1      18.643  -3.802   2.336  1.00  0.00    -0.237 OA
ATOM     59  O   UNL     1      16.552  -4.759   1.432  1.00  0.00    -0.237 OA
ATOM     60  O   UNL     1      16.951  -2.330   1.307  1.00  0.00    -0.744 OA
ENDBRANCH  56  57
ENDBRANCH  28  51
BRANCH  40  61
ATOM     61  C   UNL     1      16.743  -3.477  12.913  1.00  0.00    -0.014 A 
ATOM     62  C   UNL     1      17.787  -2.541  12.989  1.00  0.00     0.010 A 
ATOM     63  C   UNL     1      16.832  -4.682  13.633  1.00  0.00     0.010 A 
ATOM     64  C   UNL     1      18.908  -2.810  13.775  1.00  0.00     0.020 A 
ATOM     65  C   UNL     1      17.938  -4.941  14.440  1.00  0.00     0.020 A 
ATOM     66  C   UNL     1      18.972  -4.004  14.502  1.00  0.00     0.054 A 
BRANCH  66  67
ATOM     67  S   UNL     1      20.395  -4.286  15.588  1.00  0.00     0.124 S 
ATOM     68  O   UNL     1      21.456  -4.575  14.629  1.00  0.00    -0.237 OA
ATOM     69  O   UNL     1      20.514  -3.013  16.296  1.00  0.00    -0.237 OA
ATOM     70  O   UNL     1      19.979  -5.416  16.417  1.00  0.00    -0.744 OA
ENDBRANCH  66  67
ENDBRANCH  40  61
ENDBRANCH  14  15
ENDBRANCH   7   9
ENDBRANCH   6   7
ENDBRANCH   5   6
ENDBRANCH   4   5
ENDBRANCH   3   4
ENDBRANCH   2   3
ENDBRANCH   1   2
BRANCH   1  71
ATOM     71  O   UNL     1       4.790  -2.118   1.770  1.00  0.00    -0.377 OA
BRANCH  71  72
ATOM     72  C   UNL     1       4.664  -3.396   2.377  1.00  0.00     0.188 C 
BRANCH  72  73
ATOM     73  C   UNL     1       5.917  -4.078   2.981  1.00  0.00     0.188 C 
BRANCH  73  74
ATOM     74  O   UNL     1       7.098  -3.312   2.855  1.00  0.00    -0.376 OA
BRANCH  74  75
ATOM     75  C   UNL     1       7.921  -3.614   1.734  1.00  0.00     0.202 C 
BRANCH  75  76
ATOM     76  C   UNL     1       7.272  -3.554   0.340  1.00  0.00     0.261 C 
BRANCH  76  77
ATOM     77  O   UNL     1       6.048  -4.307   0.166  1.00  0.00    -0.463 OA
BRANCH  77  78
ATOM     78  C   UNL     1       6.086  -5.655   0.231  1.00  0.00     0.314 C 
ATOM     79  O   UNL     1       7.142  -6.278   0.374  1.00  0.00    -0.252 OA
BRANCH  78  80
ATOM     80  C   UNL     1       4.678  -6.314   0.067  1.00  0.00     0.096 C 
ATOM     81  C   UNL     1       4.937  -7.823  -0.037  1.00  0.00     0.050 C 
ATOM     82  C   UNL     1       3.798  -6.339   1.324  1.00  0.00     0.179 C 
ATOM     83  C   UNL     1       3.746  -8.524   0.569  1.00  0.00     0.161 C 
ATOM     84  O   UNL     1       3.016  -7.542   1.297  1.00  0.00    -0.380 OA
BRANCH  80  85
ATOM     85  C   UNL     1       3.914  -5.587  -1.111  1.00  0.00     0.014 C 
ATOM     86  C   UNL     1       2.423  -5.898  -1.342  1.00  0.00     0.033 C 
ATOM     87  C   UNL     1       4.697  -5.639  -2.422  1.00  0.00     0.043 C 
ATOM     88  C   UNL     1       1.934  -5.514  -2.749  1.00  0.00     0.161 C 
ATOM     89  C   UNL     1       4.014  -6.477  -3.506  1.00  0.00     0.094 C 
ATOM     90  O   UNL     1       2.782  -5.856  -3.852  1.00  0.00    -0.372 OA
ATOM     91  C   UNL     1       4.967  -6.587  -4.690  1.00  0.00     0.066 C 
ATOM     92  C   UNL     1       3.818  -7.970  -3.242  1.00  0.00     0.195 C 
ATOM     93  C   UNL     1       5.884  -7.717  -4.245  1.00  0.00     0.163 C 
ATOM     94  O   UNL     1       5.073  -8.618  -3.478  1.00  0.00    -0.378 OA
ENDBRANCH  80  85
ENDBRANCH  78  80
ENDBRANCH  77  78
ENDBRANCH  76  77
ENDBRANCH  75  76
ENDBRANCH  74  75
ENDBRANCH  73  74
ENDBRANCH  72  73
ENDBRANCH  71  72
ENDBRANCH   1  71
TORSDOF 24
