REMARK SMILES CC[C@@](C)(NC(=O)[C@@H](C)NC(=O)c1ccco1)C(=O)OCCOCCOCCOCCOC(=O)c1ccc(-c2c3nc(c(-c4ccc(S(=O)(=O)[O-])cc4)c4ccc([nH]4)c(-c4ccc(S(=O)(=O)[O-])cc4)c4nc(c(-c5ccc(S(=O)(=O)[O-])cc5)c5ccc2[nH]5)C=C4)C=C3)cc1
REMARK SMILES IDX 25 1 24 2 23 3 22 4 21 5 20 6 18 7 19 8 3 9 4 10 2 11 1 12
REMARK SMILES IDX 5 13 6 14 7 16 8 17 9 18 10 19 11 20 12 22 13 23 14 24 17 25
REMARK SMILES IDX 15 26 16 27 26 28 27 29 28 30 29 31 30 32 31 33 32 34 33 35
REMARK SMILES IDX 34 36 35 37 36 38 94 39 37 40 93 41 38 42 39 43 40 44 87 45
REMARK SMILES IDX 41 46 92 47 86 48 88 49 42 50 91 51 85 52 84 53 43 55 73 56
REMARK SMILES IDX 54 57 72 58 55 59 58 60 71 61 89 62 56 63 57 64 70 66 90 67
REMARK SMILES IDX 59 68 44 69 45 70 53 71 46 72 52 73 47 74 48 75 49 76 50 77
REMARK SMILES IDX 51 78 74 79 75 80 83 81 76 82 82 83 77 84 78 85 79 86 80 87
REMARK SMILES IDX 81 88 60 89 61 90 69 91 62 92 68 93 63 94 64 95 65 96 66 97
REMARK SMILES IDX 67 98
REMARK H PARENT 5 15 10 21 88 54 58 65
REMARK Flexibility Score: inf
ROOT
ATOM      1  C   UNL     1       3.483  -4.015  -0.230  1.00  0.00     0.188 C 
ENDROOT
BRANCH   1   2
ATOM      2  C   UNL     1       3.621  -2.521   0.035  1.00  0.00     0.188 C 
BRANCH   2   3
ATOM      3  O   UNL     1       4.965  -2.138   0.321  1.00  0.00    -0.376 OA
BRANCH   3   4
ATOM      4  C   UNL     1       5.167  -1.419   1.548  1.00  0.00     0.202 C 
BRANCH   4   5
ATOM      5  C   UNL     1       4.312  -0.165   1.728  1.00  0.00     0.261 C 
BRANCH   5   6
ATOM      6  O   UNL     1       2.970  -0.544   2.104  1.00  0.00    -0.462 OA
BRANCH   6   7
ATOM      7  C   UNL     1       2.085   0.477   2.098  1.00  0.00     0.331 C 
ATOM      8  O   UNL     1       2.410   1.646   1.913  1.00  0.00    -0.249 OA
BRANCH   7   9
ATOM      9  C   UNL     1       0.602   0.007   2.134  1.00  0.00     0.135 C 
ATOM     10  C   UNL     1      -0.213   1.097   2.846  1.00  0.00     0.047 C 
BRANCH   9  11
ATOM     11  C   UNL     1       0.170  -0.132   0.632  1.00  0.00     0.037 C 
ATOM     12  C   UNL     1       0.485   1.011  -0.319  1.00  0.00     0.007 C 
ENDBRANCH   9  11
BRANCH   9  13
ATOM     13  N   UNL     1       0.175  -1.306   2.701  1.00  0.00    -0.339 N 
ATOM     14  C   UNL     1       0.244  -1.876   3.933  1.00  0.00     0.243 C 
ATOM     15  H   UNL     1      -0.253  -1.890   2.034  1.00  0.00     0.164 HD
ATOM     16  O   UNL     1      -0.764  -2.496   4.290  1.00  0.00    -0.273 OA
BRANCH  14  17
ATOM     17  C   UNL     1       1.576  -2.085   4.648  1.00  0.00     0.168 C 
ATOM     18  C   UNL     1       2.351  -3.106   3.791  1.00  0.00     0.041 C 
BRANCH  17  19
ATOM     19  N   UNL     1       2.321  -0.869   4.958  1.00  0.00    -0.338 N 
ATOM     20  C   UNL     1       3.516  -0.805   5.652  1.00  0.00     0.287 C 
ATOM     21  H   UNL     1       1.938  -0.018   4.646  1.00  0.00     0.164 HD
ATOM     22  O   UNL     1       4.075   0.284   5.756  1.00  0.00    -0.266 OA
BRANCH  20  23
ATOM     23  C   UNL     1       4.083  -2.061   6.076  1.00  0.00     0.191 A 
ATOM     24  C   UNL     1       5.232  -2.701   5.658  1.00  0.00     0.056 A 
ATOM     25  O   UNL     1       3.344  -2.902   6.863  1.00  0.00    -0.459 OA
ATOM     26  C   UNL     1       5.075  -4.052   6.041  1.00  0.00     0.043 A 
ATOM     27  C   UNL     1       3.967  -4.106   6.852  1.00  0.00     0.196 A 
ENDBRANCH  20  23
ENDBRANCH  17  19
ENDBRANCH  14  17
ENDBRANCH   9  13
ENDBRANCH   7   9
ENDBRANCH   6   7
ENDBRANCH   5   6
ENDBRANCH   4   5
ENDBRANCH   3   4
ENDBRANCH   2   3
ENDBRANCH   1   2
BRANCH   1  28
ATOM     28  O   UNL     1       3.482  -4.789   0.972  1.00  0.00    -0.377 OA
BRANCH  28  29
ATOM     29  C   UNL     1       4.756  -5.037   1.576  1.00  0.00     0.188 C 
BRANCH  29  30
ATOM     30  C   UNL     1       5.756  -5.803   0.700  1.00  0.00     0.188 C 
BRANCH  30  31
ATOM     31  O   UNL     1       5.577  -7.214   0.608  1.00  0.00    -0.376 OA
BRANCH  31  32
ATOM     32  C   UNL     1       4.258  -7.695   0.389  1.00  0.00     0.202 C 
BRANCH  32  33
ATOM     33  C   UNL     1       3.812  -8.618   1.530  1.00  0.00     0.261 C 
BRANCH  33  34
ATOM     34  O   UNL     1       4.202  -8.134   2.829  1.00  0.00    -0.460 OA
BRANCH  34  35
ATOM     35  C   UNL     1       5.449  -8.520   3.211  1.00  0.00     0.338 C 
ATOM     36  O   UNL     1       6.221  -9.229   2.587  1.00  0.00    -0.246 OA
BRANCH  35  37
ATOM     37  C   UNL     1       5.798  -7.955   4.534  1.00  0.00     0.060 A 
ATOM     38  C   UNL     1       7.127  -7.573   4.766  1.00  0.00     0.016 A 
ATOM     39  C   UNL     1       4.873  -7.938   5.582  1.00  0.00     0.016 A 
ATOM     40  C   UNL     1       7.551  -7.232   6.055  1.00  0.00     0.010 A 
ATOM     41  C   UNL     1       5.301  -7.608   6.873  1.00  0.00     0.010 A 
ATOM     42  C   UNL     1       6.649  -7.289   7.125  1.00  0.00    -0.014 A 
BRANCH  42  43
ATOM     43  C   UNL     1       7.129  -7.230   8.529  1.00  0.00     0.031 A 
ATOM     44  C   UNL     1       7.457  -8.524   9.219  1.00  0.00     0.074 A 
ATOM     45  C   UNL     1       7.223  -6.075   9.213  1.00  0.00     0.049 A 
ATOM     46  N   UNL     1       7.884  -8.717  10.439  1.00  0.00    -0.248 NA
ATOM     47  C   UNL     1       7.312  -9.754   8.424  1.00  0.00     0.031 C 
ATOM     48  C   UNL     1       7.009  -4.745   8.665  1.00  0.00     0.029 A 
ATOM     49  N   UNL     1       7.478  -5.841  10.541  1.00  0.00    -0.354 N 
ATOM     50  C   UNL     1       8.120 -10.080  10.538  1.00  0.00     0.074 A 
ATOM     51  C   UNL     1       7.713 -10.677   9.285  1.00  0.00     0.031 C 
ATOM     52  C   UNL     1       6.993  -3.844   9.660  1.00  0.00     0.029 A 
ATOM     53  C   UNL     1       7.275  -4.532  10.914  1.00  0.00     0.049 A 
ATOM     54  H   UNL     1       7.777  -6.541  11.166  1.00  0.00     0.167 HD
ATOM     55  C   UNL     1       8.673 -10.767  11.564  1.00  0.00     0.031 A 
ATOM     56  C   UNL     1       7.317  -3.950  12.126  1.00  0.00     0.031 A 
ATOM     57  C   UNL     1       9.034 -10.185  12.824  1.00  0.00     0.049 A 
ATOM     58  C   UNL     1       7.764  -4.763  13.307  1.00  0.00     0.074 A 
ATOM     59  C   UNL     1       9.647 -10.784  13.910  1.00  0.00     0.029 A 
ATOM     60  N   UNL     1       8.786  -8.868  13.178  1.00  0.00    -0.354 N 
ATOM     61  N   UNL     1       8.101  -6.029  13.350  1.00  0.00    -0.248 NA
ATOM     62  C   UNL     1       7.891  -4.057  14.590  1.00  0.00     0.031 C 
ATOM     63  C   UNL     1       9.733  -9.836  14.938  1.00  0.00     0.029 A 
ATOM     64  C   UNL     1       9.201  -8.641  14.478  1.00  0.00     0.049 A 
ATOM     65  H   UNL     1       8.375  -8.193  12.591  1.00  0.00     0.167 HD
ATOM     66  C   UNL     1       8.548  -6.255  14.645  1.00  0.00     0.074 A 
ATOM     67  C   UNL     1       8.405  -5.005  15.364  1.00  0.00     0.031 C 
ATOM     68  C   UNL     1       9.064  -7.389  15.177  1.00  0.00     0.031 A 
BRANCH  55  69
ATOM     69  C   UNL     1       8.929 -12.225  11.325  1.00  0.00    -0.014 A 
ATOM     70  C   UNL     1      10.003 -12.625  10.507  1.00  0.00     0.010 A 
ATOM     71  C   UNL     1       8.081 -13.197  11.877  1.00  0.00     0.010 A 
ATOM     72  C   UNL     1      10.193 -13.973  10.203  1.00  0.00     0.020 A 
ATOM     73  C   UNL     1       8.278 -14.550  11.586  1.00  0.00     0.020 A 
ATOM     74  C   UNL     1       9.318 -14.926  10.732  1.00  0.00     0.054 A 
BRANCH  74  75
ATOM     75  S   UNL     1       9.562 -16.670  10.300  1.00  0.00     0.124 S 
ATOM     76  O   UNL     1       8.965 -16.734   8.968  1.00  0.00    -0.237 OA
ATOM     77  O   UNL     1      11.015 -16.817  10.343  1.00  0.00    -0.237 OA
ATOM     78  O   UNL     1       8.836 -17.388  11.344  1.00  0.00    -0.744 OA
ENDBRANCH  74  75
ENDBRANCH  55  69
BRANCH  56  79
ATOM     79  C   UNL     1       6.957  -2.518  12.283  1.00  0.00    -0.014 A 
ATOM     80  C   UNL     1       7.954  -1.538  12.425  1.00  0.00     0.010 A 
ATOM     81  C   UNL     1       5.605  -2.132  12.312  1.00  0.00     0.010 A 
ATOM     82  C   UNL     1       7.604  -0.200  12.628  1.00  0.00     0.020 A 
ATOM     83  C   UNL     1       5.251  -0.793  12.503  1.00  0.00     0.020 A 
ATOM     84  C   UNL     1       6.254   0.163  12.677  1.00  0.00     0.054 A 
BRANCH  84  85
ATOM     85  S   UNL     1       5.824   1.905  12.947  1.00  0.00     0.124 S 
ATOM     86  O   UNL     1       6.101   2.067  14.371  1.00  0.00    -0.237 OA
ATOM     87  O   UNL     1       6.737   2.602  12.044  1.00  0.00    -0.237 OA
ATOM     88  O   UNL     1       4.413   1.973  12.572  1.00  0.00    -0.744 OA
ENDBRANCH  84  85
ENDBRANCH  56  79
BRANCH  68  89
ATOM     89  C   UNL     1       9.575  -7.316  16.586  1.00  0.00    -0.014 A 
ATOM     90  C   UNL     1       8.698  -7.346  17.682  1.00  0.00     0.010 A 
ATOM     91  C   UNL     1      10.963  -7.274  16.811  1.00  0.00     0.010 A 
ATOM     92  C   UNL     1       9.202  -7.322  18.985  1.00  0.00     0.020 A 
ATOM     93  C   UNL     1      11.470  -7.268  18.112  1.00  0.00     0.020 A 
ATOM     94  C   UNL     1      10.585  -7.282  19.192  1.00  0.00     0.054 A 
BRANCH  94  95
ATOM     95  S   UNL     1      11.227  -7.320  20.888  1.00  0.00     0.124 S 
ATOM     96  O   UNL     1      11.121  -5.919  21.285  1.00  0.00    -0.237 OA
ATOM     97  O   UNL     1      10.311  -8.236  21.564  1.00  0.00    -0.237 OA
ATOM     98  O   UNL     1      12.590  -7.823  20.726  1.00  0.00    -0.744 OA
ENDBRANCH  94  95
ENDBRANCH  68  89
ENDBRANCH  42  43
ENDBRANCH  35  37
ENDBRANCH  34  35
ENDBRANCH  33  34
ENDBRANCH  32  33
ENDBRANCH  31  32
ENDBRANCH  30  31
ENDBRANCH  29  30
ENDBRANCH  28  29
ENDBRANCH   1  28
TORSDOF 28
