REMARK SMILES O=C(OCCOCCOCCOCCOC(=O)[C@@H]1CC2(CC[NH2+]CC2)C[N@H+]1Cc1cccc2nonc12)c1ccc(-c2c3nc(c(-c4ccc(S(=O)(=O)[O-])cc4)c4ccc([nH]4)c(-c4ccc(S(=O)(=O)[O-])cc4)c4nc(c(-c5ccc(S(=O)(=O)[O-])cc5)c5ccc2[nH]5)C=C4)C=C3)cc1
REMARK SMILES IDX 8 1 7 2 6 3 5 4 4 5 3 6 2 7 1 8 38 9 39 10 97 11 40 12 96 13
REMARK SMILES IDX 41 14 42 15 43 16 90 17 44 18 95 19 89 20 91 21 45 22 94 23
REMARK SMILES IDX 88 24 87 25 46 27 76 28 57 29 75 30 58 31 61 32 74 33 92 34
REMARK SMILES IDX 59 35 60 36 73 38 93 39 62 40 47 41 48 42 56 43 49 44 55 45
REMARK SMILES IDX 50 46 51 47 52 48 53 49 54 50 77 51 78 52 86 53 79 54 85 55
REMARK SMILES IDX 80 56 81 57 82 58 83 59 84 60 63 61 64 62 72 63 65 64 71 65
REMARK SMILES IDX 66 66 67 67 68 68 69 69 70 70 9 71 10 72 11 73 12 74 13 75
REMARK SMILES IDX 14 76 15 77 16 78 17 79 18 80 19 81 27 82 20 83 26 84 21 86
REMARK SMILES IDX 25 87 22 88 24 89 23 90 28 93 29 94 30 95 37 96 31 97 33 98
REMARK SMILES IDX 36 99 32 100 34 101 35 102
REMARK H PARENT 91 26 61 37 27 85 23 91 23 92
REMARK Flexibility Score: inf
ROOT
ATOM      1  C   UNL     1       1.632   1.538  -1.290  1.00  0.00     0.188 C 
ENDROOT
BRANCH   1   2
ATOM      2  C   UNL     1       2.104   0.184  -0.743  1.00  0.00     0.188 C 
BRANCH   2   3
ATOM      3  O   UNL     1       3.445   0.272  -0.277  1.00  0.00    -0.376 OA
BRANCH   3   4
ATOM      4  C   UNL     1       4.136  -0.964  -0.127  1.00  0.00     0.202 C 
BRANCH   4   5
ATOM      5  C   UNL     1       3.757  -1.694   1.161  1.00  0.00     0.261 C 
BRANCH   5   6
ATOM      6  O   UNL     1       3.860  -0.758   2.242  1.00  0.00    -0.460 OA
BRANCH   6   7
ATOM      7  C   UNL     1       2.673  -0.218   2.608  1.00  0.00     0.338 C 
ATOM      8  O   UNL     1       1.608  -0.824   2.687  1.00  0.00    -0.246 OA
BRANCH   7   9
ATOM      9  C   UNL     1       2.801   1.248   2.769  1.00  0.00     0.060 A 
ATOM     10  C   UNL     1       1.746   1.958   3.348  1.00  0.00     0.016 A 
ATOM     11  C   UNL     1       3.903   1.940   2.253  1.00  0.00     0.016 A 
ATOM     12  C   UNL     1       1.824   3.347   3.461  1.00  0.00     0.010 A 
ATOM     13  C   UNL     1       3.963   3.326   2.336  1.00  0.00     0.010 A 
ATOM     14  C   UNL     1       2.945   4.039   2.976  1.00  0.00    -0.014 A 
BRANCH  14  15
ATOM     15  C   UNL     1       3.099   5.472   3.297  1.00  0.00     0.031 A 
ATOM     16  C   UNL     1       4.506   5.992   3.345  1.00  0.00     0.074 A 
ATOM     17  C   UNL     1       2.176   6.370   2.904  1.00  0.00     0.049 A 
ATOM     18  N   UNL     1       5.132   6.563   2.355  1.00  0.00    -0.248 NA
ATOM     19  C   UNL     1       5.367   5.638   4.475  1.00  0.00     0.031 C 
ATOM     20  C   UNL     1       1.790   6.561   1.502  1.00  0.00     0.029 A 
ATOM     21  N   UNL     1       1.805   7.534   3.532  1.00  0.00    -0.354 N 
ATOM     22  C   UNL     1       6.473   6.616   2.710  1.00  0.00     0.074 A 
ATOM     23  C   UNL     1       6.567   6.023   4.027  1.00  0.00     0.031 C 
ATOM     24  C   UNL     1       1.384   7.838   1.345  1.00  0.00     0.029 A 
ATOM     25  C   UNL     1       1.379   8.505   2.643  1.00  0.00     0.049 A 
ATOM     26  H   UNL     1       1.838   7.663   4.507  1.00  0.00     0.167 HD
ATOM     27  C   UNL     1       7.465   7.130   1.933  1.00  0.00     0.031 A 
ATOM     28  C   UNL     1       1.347   9.838   2.908  1.00  0.00     0.031 A 
ATOM     29  C   UNL     1       7.150   7.810   0.697  1.00  0.00     0.049 A 
ATOM     30  C   UNL     1       2.573  10.332   2.195  1.00  0.00     0.074 A 
ATOM     31  C   UNL     1       7.900   8.369  -0.328  1.00  0.00     0.029 A 
ATOM     32  N   UNL     1       5.848   8.117   0.388  1.00  0.00    -0.354 N 
ATOM     33  N   UNL     1       2.698  10.573   0.914  1.00  0.00    -0.248 NA
ATOM     34  C   UNL     1       3.848  10.265   2.934  1.00  0.00     0.031 C 
ATOM     35  C   UNL     1       7.049   9.246  -1.063  1.00  0.00     0.029 A 
ATOM     36  C   UNL     1       5.820   9.218  -0.440  1.00  0.00     0.049 A 
ATOM     37  H   UNL     1       5.056   7.626   0.708  1.00  0.00     0.167 HD
ATOM     38  C   UNL     1       4.049  10.379   0.662  1.00  0.00     0.074 A 
ATOM     39  C   UNL     1       4.725  10.344   1.943  1.00  0.00     0.031 C 
ATOM     40  C   UNL     1       4.588   9.951  -0.512  1.00  0.00     0.031 A 
BRANCH  27  41
ATOM     41  C   UNL     1       8.874   7.177   2.423  1.00  0.00    -0.014 A 
ATOM     42  C   UNL     1       9.703   6.045   2.444  1.00  0.00     0.010 A 
ATOM     43  C   UNL     1       9.422   8.435   2.737  1.00  0.00     0.010 A 
ATOM     44  C   UNL     1      11.062   6.177   2.757  1.00  0.00     0.020 A 
ATOM     45  C   UNL     1      10.776   8.572   3.044  1.00  0.00     0.020 A 
ATOM     46  C   UNL     1      11.590   7.440   3.048  1.00  0.00     0.054 A 
BRANCH  46  47
ATOM     47  S   UNL     1      13.368   7.593   3.376  1.00  0.00     0.124 S 
ATOM     48  O   UNL     1      13.505   6.881   4.645  1.00  0.00    -0.237 OA
ATOM     49  O   UNL     1      13.962   6.930   2.218  1.00  0.00    -0.237 OA
ATOM     50  O   UNL     1      13.589   9.035   3.445  1.00  0.00    -0.744 OA
ENDBRANCH  46  47
ENDBRANCH  27  41
BRANCH  28  51
ATOM     51  C   UNL     1       0.939  10.188   4.306  1.00  0.00    -0.014 A 
ATOM     52  C   UNL     1       1.720  10.873   5.246  1.00  0.00     0.010 A 
ATOM     53  C   UNL     1      -0.310   9.678   4.742  1.00  0.00     0.010 A 
ATOM     54  C   UNL     1       1.368  10.873   6.604  1.00  0.00     0.020 A 
ATOM     55  C   UNL     1      -0.680   9.693   6.089  1.00  0.00     0.020 A 
ATOM     56  C   UNL     1       0.195  10.240   7.021  1.00  0.00     0.054 A 
BRANCH  56  57
ATOM     57  S   UNL     1      -0.135  10.078   8.795  1.00  0.00     0.124 S 
ATOM     58  O   UNL     1       0.907   9.141   9.205  1.00  0.00    -0.237 OA
ATOM     59  O   UNL     1       0.021  11.448   9.274  1.00  0.00    -0.237 OA
ATOM     60  O   UNL     1      -1.498   9.552   8.847  1.00  0.00    -0.744 OA
ENDBRANCH  56  57
ENDBRANCH  28  51
BRANCH  40  61
ATOM     61  C   UNL     1       3.878  10.121  -1.803  1.00  0.00    -0.014 A 
ATOM     62  C   UNL     1       3.728   9.036  -2.684  1.00  0.00     0.010 A 
ATOM     63  C   UNL     1       3.515  11.407  -2.233  1.00  0.00     0.010 A 
ATOM     64  C   UNL     1       3.259   9.239  -3.985  1.00  0.00     0.020 A 
ATOM     65  C   UNL     1       3.049  11.617  -3.533  1.00  0.00     0.020 A 
ATOM     66  C   UNL     1       2.940  10.533  -4.407  1.00  0.00     0.054 A 
BRANCH  66  67
ATOM     67  S   UNL     1       2.445  10.787  -6.131  1.00  0.00     0.124 S 
ATOM     68  O   UNL     1       3.586  10.257  -6.873  1.00  0.00    -0.237 OA
ATOM     69  O   UNL     1       1.216  10.003  -6.226  1.00  0.00    -0.237 OA
ATOM     70  O   UNL     1       2.264  12.235  -6.236  1.00  0.00    -0.744 OA
ENDBRANCH  66  67
ENDBRANCH  40  61
ENDBRANCH  14  15
ENDBRANCH   7   9
ENDBRANCH   6   7
ENDBRANCH   5   6
ENDBRANCH   4   5
ENDBRANCH   3   4
ENDBRANCH   2   3
ENDBRANCH   1   2
BRANCH   1  71
ATOM     71  O   UNL     1       2.559   2.136  -2.202  1.00  0.00    -0.377 OA
BRANCH  71  72
ATOM     72  C   UNL     1       3.658   2.765  -1.528  1.00  0.00     0.188 C 
BRANCH  72  73
ATOM     73  C   UNL     1       4.099   4.080  -2.167  1.00  0.00     0.188 C 
BRANCH  73  74
ATOM     74  O   UNL     1       3.065   5.051  -2.280  1.00  0.00    -0.376 OA
BRANCH  74  75
ATOM     75  C   UNL     1       2.106   4.828  -3.319  1.00  0.00     0.202 C 
BRANCH  75  76
ATOM     76  C   UNL     1       2.691   4.630  -4.726  1.00  0.00     0.261 C 
BRANCH  76  77
ATOM     77  O   UNL     1       3.171   3.274  -4.914  1.00  0.00    -0.459 OA
BRANCH  77  78
ATOM     78  C   UNL     1       4.291   3.135  -5.674  1.00  0.00     0.365 C 
ATOM     79  O   UNL     1       4.892   4.062  -6.208  1.00  0.00    -0.245 OA
BRANCH  78  80
ATOM     80  C   UNL     1       4.763   1.684  -5.834  1.00  0.00     0.296 C 
ATOM     81  C   UNL     1       3.651   0.638  -5.982  1.00  0.00     0.091 C 
ATOM     82  N   UNL     1       5.593   1.183  -4.704  1.00  0.00    -0.319 N 
ATOM     83  C   UNL     1       4.156  -0.618  -5.230  1.00  0.00     0.036 C 
ATOM     84  C   UNL     1       5.617  -0.269  -4.910  1.00  0.00     0.270 C 
ATOM     85  H   UNL     1       5.208   1.453  -3.799  1.00  0.00     0.349 HD
ATOM     86  C   UNL     1       4.067  -1.904  -6.072  1.00  0.00     0.074 C 
ATOM     87  C   UNL     1       3.350  -0.844  -3.937  1.00  0.00     0.074 C 
ATOM     88  C   UNL     1       2.623  -2.367  -6.274  1.00  0.00     0.261 C 
ATOM     89  C   UNL     1       1.926  -1.335  -4.216  1.00  0.00     0.261 C 
ATOM     90  N   UNL     1       1.933  -2.571  -5.001  1.00  0.00    -0.346 N 
ATOM     91  H   UNL     1       2.411  -3.301  -4.473  1.00  0.00     0.346 HD
ATOM     92  H   UNL     1       0.969  -2.848  -5.189  1.00  0.00     0.346 HD
BRANCH  82  93
ATOM     93  C   UNL     1       6.951   1.754  -4.696  1.00  0.00     0.302 C 
BRANCH  93  94
ATOM     94  C   UNL     1       7.266   2.426  -3.391  1.00  0.00     0.038 A 
ATOM     95  C   UNL     1       7.307   1.727  -2.155  1.00  0.00     0.012 A 
ATOM     96  C   UNL     1       7.562   3.802  -3.261  1.00  0.00     0.144 A 
ATOM     97  C   UNL     1       7.575   2.344  -0.901  1.00  0.00     0.003 A 
ATOM     98  C   UNL     1       7.841   4.430  -1.978  1.00  0.00     0.135 A 
ATOM     99  N   UNL     1       7.643   4.743  -4.210  1.00  0.00    -0.049 NA
ATOM    100  C   UNL     1       7.841   3.717  -0.767  1.00  0.00     0.034 A 
ATOM    101  N   UNL     1       8.075   5.726  -2.193  1.00  0.00    -0.050 NA
ATOM    102  O   UNL     1       7.914   5.927  -3.549  1.00  0.00    -0.243 OA
ENDBRANCH  93  94
ENDBRANCH  82  93
ENDBRANCH  78  80
ENDBRANCH  77  78
ENDBRANCH  76  77
ENDBRANCH  75  76
ENDBRANCH  74  75
ENDBRANCH  73  74
ENDBRANCH  72  73
ENDBRANCH  71  72
ENDBRANCH   1  71
TORSDOF 25
