REMARK SMILES CCC(=O)N1CCc2cc(C(=O)NC3(C(=O)OCCOCCOCCOCCOC(=O)c4ccc(-c5c6nc(c(-c7ccc(S(=O)(=O)[O-])cc7)c7ccc([nH]7)c(-c7ccc(S(=O)(=O)[O-])cc7)c7nc(c(-c8ccc(S(=O)(=O)[O-])cc8)c8ccc5[nH]8)C=C7)C=C6)cc4)CCCC3)ccc21
REMARK SMILES IDX 22 1 21 2 20 3 19 4 18 5 17 6 15 7 16 8 14 9 92 10 95 11
REMARK SMILES IDX 93 12 94 13 13 14 11 15 12 16 10 18 5 19 6 20 98 21 7 22
REMARK SMILES IDX 8 23 97 24 9 25 96 26 3 27 4 28 2 29 1 30 23 31 24 32 25 33
REMARK SMILES IDX 26 34 27 35 28 36 29 37 30 38 31 39 32 40 33 41 91 42 34 43
REMARK SMILES IDX 90 44 35 45 36 46 37 47 84 48 38 49 89 50 83 51 85 52 39 53
REMARK SMILES IDX 88 54 82 55 81 56 40 58 70 59 51 60 69 61 52 62 55 63 68 64
REMARK SMILES IDX 86 65 53 66 54 67 67 69 87 70 56 71 41 72 42 73 50 74 43 75
REMARK SMILES IDX 49 76 44 77 45 78 46 79 47 80 48 81 71 82 72 83 80 84 73 85
REMARK SMILES IDX 79 86 74 87 75 88 76 89 77 90 78 91 57 92 58 93 66 94 59 95
REMARK SMILES IDX 65 96 60 97 61 98 62 99 63 100 64 101
REMARK H PARENT 13 17 85 57 55 68
REMARK Flexibility Score: inf
ROOT
ATOM      1  C   UNL     1       5.758  -2.864   5.132  1.00  0.00     0.188 C 
ENDROOT
BRANCH   1   2
ATOM      2  C   UNL     1       7.045  -2.221   5.662  1.00  0.00     0.188 C 
BRANCH   2   3
ATOM      3  O   UNL     1       7.103  -1.575   6.928  1.00  0.00    -0.376 OA
BRANCH   3   4
ATOM      4  C   UNL     1       6.025  -0.812   7.455  1.00  0.00     0.202 C 
BRANCH   4   5
ATOM      5  C   UNL     1       5.464   0.402   6.700  1.00  0.00     0.261 C 
BRANCH   5   6
ATOM      6  O   UNL     1       4.920   0.129   5.406  1.00  0.00    -0.461 OA
BRANCH   6   7
ATOM      7  C   UNL     1       5.704   0.392   4.333  1.00  0.00     0.331 C 
ATOM      8  O   UNL     1       6.828   0.882   4.394  1.00  0.00    -0.249 OA
BRANCH   7   9
ATOM      9  C   UNL     1       5.024   0.016   2.979  1.00  0.00     0.138 C 
ATOM     10  C   UNL     1       4.361   1.301   2.462  1.00  0.00     0.040 C 
ATOM     11  C   UNL     1       3.861  -1.000   3.197  1.00  0.00     0.040 C 
ATOM     12  C   UNL     1       2.906   1.219   2.919  1.00  0.00     0.003 C 
ATOM     13  C   UNL     1       2.545  -0.255   2.967  1.00  0.00     0.003 C 
BRANCH   9  14
ATOM     14  N   UNL     1       6.183  -0.447   2.098  1.00  0.00    -0.336 N 
ATOM     15  C   UNL     1       6.468  -0.785   0.783  1.00  0.00     0.252 C 
ATOM     16  O   UNL     1       7.648  -0.986   0.487  1.00  0.00    -0.269 OA
ATOM     17  H   UNL     1       6.998  -0.533   2.644  1.00  0.00     0.165 HD
BRANCH  15  18
ATOM     18  C   UNL     1       5.457  -0.927  -0.302  1.00  0.00     0.040 A 
ATOM     19  N   UNL     1       2.459  -0.966  -3.166  1.00  0.00    -0.312 N 
ATOM     20  C   UNL     1       3.195  -1.139  -4.425  1.00  0.00     0.130 C 
ATOM     21  C   UNL     1       3.375  -1.065  -2.137  1.00  0.00     0.047 A 
ATOM     22  C   UNL     1       4.687  -1.363  -4.062  1.00  0.00     0.059 C 
ATOM     23  C   UNL     1       4.693  -1.142  -2.579  1.00  0.00    -0.022 A 
ATOM     24  C   UNL     1       3.089  -1.165  -0.824  1.00  0.00     0.027 A 
ATOM     25  C   UNL     1       5.759  -1.093  -1.666  1.00  0.00     0.019 A 
ATOM     26  C   UNL     1       4.128  -0.993   0.049  1.00  0.00     0.016 A 
BRANCH  19  27
ATOM     27  C   UNL     1       1.112  -0.669  -3.112  1.00  0.00     0.226 C 
ATOM     28  O   UNL     1       0.352  -1.108  -3.985  1.00  0.00    -0.275 OA
BRANCH  27  29
ATOM     29  C   UNL     1       0.588   0.449  -2.173  1.00  0.00     0.097 C 
ATOM     30  C   UNL     1       0.468   0.337  -0.661  1.00  0.00     0.014 C 
ENDBRANCH  27  29
ENDBRANCH  19  27
ENDBRANCH  15  18
ENDBRANCH   9  14
ENDBRANCH   7   9
ENDBRANCH   6   7
ENDBRANCH   5   6
ENDBRANCH   4   5
ENDBRANCH   3   4
ENDBRANCH   2   3
ENDBRANCH   1   2
BRANCH   1  31
ATOM     31  O   UNL     1       4.608  -2.551   5.890  1.00  0.00    -0.377 OA
BRANCH  31  32
ATOM     32  C   UNL     1       4.095  -3.555   6.753  1.00  0.00     0.188 C 
BRANCH  32  33
ATOM     33  C   UNL     1       5.131  -4.381   7.532  1.00  0.00     0.188 C 
BRANCH  33  34
ATOM     34  O   UNL     1       6.084  -5.023   6.695  1.00  0.00    -0.376 OA
BRANCH  34  35
ATOM     35  C   UNL     1       5.830  -6.353   6.263  1.00  0.00     0.202 C 
BRANCH  35  36
ATOM     36  C   UNL     1       4.583  -6.632   5.402  1.00  0.00     0.261 C 
BRANCH  36  37
ATOM     37  O   UNL     1       3.298  -6.325   5.972  1.00  0.00    -0.460 OA
BRANCH  37  38
ATOM     38  C   UNL     1       2.988  -6.834   7.180  1.00  0.00     0.338 C 
ATOM     39  O   UNL     1       3.658  -7.614   7.841  1.00  0.00    -0.246 OA
BRANCH  38  40
ATOM     40  C   UNL     1       1.791  -6.126   7.681  1.00  0.00     0.060 A 
ATOM     41  C   UNL     1       1.878  -5.416   8.886  1.00  0.00     0.016 A 
ATOM     42  C   UNL     1       0.585  -6.175   6.979  1.00  0.00     0.016 A 
ATOM     43  C   UNL     1       0.748  -4.794   9.418  1.00  0.00     0.010 A 
ATOM     44  C   UNL     1      -0.553  -5.571   7.524  1.00  0.00     0.010 A 
ATOM     45  C   UNL     1      -0.485  -4.914   8.766  1.00  0.00    -0.014 A 
BRANCH  45  46
ATOM     46  C   UNL     1      -1.730  -4.541   9.484  1.00  0.00     0.031 A 
ATOM     47  C   UNL     1      -2.528  -5.636  10.143  1.00  0.00     0.074 A 
ATOM     48  C   UNL     1      -2.134  -3.262   9.579  1.00  0.00     0.049 A 
ATOM     49  N   UNL     1      -3.663  -5.564  10.787  1.00  0.00    -0.248 NA
ATOM     50  C   UNL     1      -1.966  -6.995  10.062  1.00  0.00     0.031 C 
ATOM     51  C   UNL     1      -1.425  -2.107   9.030  1.00  0.00     0.029 A 
ATOM     52  N   UNL     1      -3.251  -2.724  10.169  1.00  0.00    -0.354 N 
ATOM     53  C   UNL     1      -3.958  -6.866  11.178  1.00  0.00     0.074 A 
ATOM     54  C   UNL     1      -2.900  -7.710  10.669  1.00  0.00     0.031 C 
ATOM     55  C   UNL     1      -2.135  -0.996   9.297  1.00  0.00     0.029 A 
ATOM     56  C   UNL     1      -3.363  -1.365  10.000  1.00  0.00     0.049 A 
ATOM     57  H   UNL     1      -3.909  -3.261  10.666  1.00  0.00     0.167 HD
ATOM     58  C   UNL     1      -5.010  -7.318  11.900  1.00  0.00     0.031 A 
ATOM     59  C   UNL     1      -4.355  -0.520  10.346  1.00  0.00     0.031 A 
ATOM     60  C   UNL     1      -6.073  -6.478  12.384  1.00  0.00     0.049 A 
ATOM     61  C   UNL     1      -5.561  -1.056  11.076  1.00  0.00     0.074 A 
ATOM     62  C   UNL     1      -7.182  -6.838  13.130  1.00  0.00     0.029 A 
ATOM     63  N   UNL     1      -6.167  -5.112  12.162  1.00  0.00    -0.354 N 
ATOM     64  N   UNL     1      -5.816  -2.285  11.458  1.00  0.00    -0.248 NA
ATOM     65  C   UNL     1      -6.609  -0.087  11.431  1.00  0.00     0.031 C 
ATOM     66  C   UNL     1      -7.980  -5.702  13.299  1.00  0.00     0.029 A 
ATOM     67  C   UNL     1      -7.330  -4.619  12.728  1.00  0.00     0.049 A 
ATOM     68  H   UNL     1      -5.504  -4.573  11.673  1.00  0.00     0.167 HD
ATOM     69  C   UNL     1      -7.039  -2.232  12.122  1.00  0.00     0.074 A 
ATOM     70  C   UNL     1      -7.463  -0.847  12.104  1.00  0.00     0.031 C 
ATOM     71  C   UNL     1      -7.744  -3.238  12.698  1.00  0.00     0.031 A 
BRANCH  58  72
ATOM     72  C   UNL     1      -5.081  -8.800  12.167  1.00  0.00    -0.014 A 
ATOM     73  C   UNL     1      -4.160  -9.438  13.019  1.00  0.00     0.010 A 
ATOM     74  C   UNL     1      -6.098  -9.566  11.567  1.00  0.00     0.010 A 
ATOM     75  C   UNL     1      -4.225 -10.818  13.226  1.00  0.00     0.020 A 
ATOM     76  C   UNL     1      -6.187 -10.942  11.799  1.00  0.00     0.020 A 
ATOM     77  C   UNL     1      -5.236 -11.562  12.611  1.00  0.00     0.054 A 
BRANCH  77  78
ATOM     78  S   UNL     1      -5.299 -13.351  12.903  1.00  0.00     0.124 S 
ATOM     79  O   UNL     1      -4.131 -13.818  12.160  1.00  0.00    -0.237 OA
ATOM     80  O   UNL     1      -5.196 -13.440  14.357  1.00  0.00    -0.237 OA
ATOM     81  O   UNL     1      -6.590 -13.749  12.347  1.00  0.00    -0.744 OA
ENDBRANCH  77  78
ENDBRANCH  58  72
BRANCH  59  82
ATOM     82  C   UNL     1      -4.263   0.921   9.977  1.00  0.00    -0.014 A 
ATOM     83  C   UNL     1      -4.109   1.914  10.959  1.00  0.00     0.010 A 
ATOM     84  C   UNL     1      -4.324   1.305   8.623  1.00  0.00     0.010 A 
ATOM     85  C   UNL     1      -4.026   3.263  10.597  1.00  0.00     0.020 A 
ATOM     86  C   UNL     1      -4.209   2.647   8.255  1.00  0.00     0.020 A 
ATOM     87  C   UNL     1      -4.068   3.620   9.246  1.00  0.00     0.054 A 
BRANCH  87  88
ATOM     88  S   UNL     1      -3.886   5.368   8.796  1.00  0.00     0.124 S 
ATOM     89  O   UNL     1      -5.155   5.932   9.245  1.00  0.00    -0.237 OA
ATOM     90  O   UNL     1      -2.708   5.767   9.562  1.00  0.00    -0.237 OA
ATOM     91  O   UNL     1      -3.694   5.330   7.348  1.00  0.00    -0.744 OA
ENDBRANCH  87  88
ENDBRANCH  59  82
BRANCH  71  92
ATOM     92  C   UNL     1      -9.033  -2.879  13.396  1.00  0.00    -0.014 A 
ATOM     93  C   UNL     1     -10.172  -2.477  12.676  1.00  0.00     0.010 A 
ATOM     94  C   UNL     1      -9.119  -3.004  14.795  1.00  0.00     0.010 A 
ATOM     95  C   UNL     1     -11.361  -2.173  13.346  1.00  0.00     0.020 A 
ATOM     96  C   UNL     1     -10.315  -2.734  15.465  1.00  0.00     0.020 A 
ATOM     97  C   UNL     1     -11.426  -2.305  14.737  1.00  0.00     0.054 A 
BRANCH  97  98
ATOM     98  S   UNL     1     -12.992  -1.943  15.576  1.00  0.00     0.124 S 
ATOM     99  O   UNL     1     -13.073  -0.490  15.457  1.00  0.00    -0.237 OA
ATOM    100  O   UNL     1     -13.961  -2.695  14.782  1.00  0.00    -0.237 OA
ATOM    101  O   UNL     1     -12.783  -2.445  16.933  1.00  0.00    -0.744 OA
ENDBRANCH  97  98
ENDBRANCH  71  92
ENDBRANCH  45  46
ENDBRANCH  38  40
ENDBRANCH  37  38
ENDBRANCH  36  37
ENDBRANCH  35  36
ENDBRANCH  34  35
ENDBRANCH  33  34
ENDBRANCH  32  33
ENDBRANCH  31  32
ENDBRANCH   1  31
TORSDOF 27
