REMARK SMILES C=C[C@@H]1[C@@H](O)C[C@H]2[C@]3(CC[C@]4(C)[C@@H]([C@H](C)CCC=C(C)C)CC[C@]24C)C[C@]13CCC(=O)OCCOCCOCCOCCOC(=O)c1ccc(-c2c3nc(c(-c4ccc(S(=O)(=O)[O-])cc4)c4ccc([nH]4)c(-c4ccc(S(=O)(=O)[O-])cc4)c4nc(c(-c5ccc(S(=O)(=O)[O-])cc5)c5ccc2[nH]5)C=C4)C=C3)cc1
REMARK SMILES IDX 36 1 35 2 34 3 33 4 32 5 30 6 31 7 29 8 28 9 27 10 3 11 4 12
REMARK SMILES IDX 6 13 8 14 26 15 7 16 9 17 24 18 10 19 11 20 23 21 25 22
REMARK SMILES IDX 13 23 12 24 22 25 2 26 1 27 5 28 14 30 15 31 16 32 17 33
REMARK SMILES IDX 18 34 19 35 20 36 21 37 37 38 38 39 39 40 40 41 41 42 42 43
REMARK SMILES IDX 43 44 44 45 45 46 46 47 47 48 48 49 106 50 49 51 105 52
REMARK SMILES IDX 50 53 51 54 52 55 99 56 53 57 104 58 98 59 100 60 54 61
REMARK SMILES IDX 103 62 97 63 96 64 55 66 85 67 66 68 84 69 67 70 70 71 83 72
REMARK SMILES IDX 101 73 68 74 69 75 82 77 102 78 71 79 56 80 57 81 65 82
REMARK SMILES IDX 58 83 64 84 59 85 60 86 61 87 62 88 63 89 86 90 87 91 95 92
REMARK SMILES IDX 88 93 94 94 89 95 90 96 91 97 92 98 93 99 72 100 73 101
REMARK SMILES IDX 81 102 74 103 80 104 75 105 76 106 77 107 78 108 79 109
REMARK H PARENT 5 29 100 65 70 76
REMARK Flexibility Score: inf
ROOT
ATOM      1  C   UNL     1      -5.803  -0.888  -1.069  1.00  0.00     0.188 C 
ENDROOT
BRANCH   1   2
ATOM      2  O   UNL     1      -6.382  -1.944  -1.816  1.00  0.00    -0.376 OA
BRANCH   2   3
ATOM      3  C   UNL     1      -5.587  -2.747  -2.664  1.00  0.00     0.202 C 
BRANCH   3   4
ATOM      4  C   UNL     1      -4.147  -2.381  -3.019  1.00  0.00     0.261 C 
BRANCH   4   5
ATOM      5  O   UNL     1      -3.735  -1.015  -2.977  1.00  0.00    -0.463 OA
BRANCH   5   6
ATOM      6  C   UNL     1      -2.628  -0.791  -3.736  1.00  0.00     0.305 C 
ATOM      7  O   UNL     1      -2.505  -1.197  -4.887  1.00  0.00    -0.252 OA
BRANCH   6   8
ATOM      8  C   UNL     1      -1.557   0.021  -3.041  1.00  0.00     0.123 C 
BRANCH   8   9
ATOM      9  C   UNL     1      -1.478  -0.031  -1.523  1.00  0.00     0.020 C 
BRANCH   9  10
ATOM     10  C   UNL     1      -0.719  -1.121  -0.727  1.00  0.00    -0.014 C 
ATOM     11  C   UNL     1      -0.736  -0.742   0.811  1.00  0.00     0.047 C 
ATOM     12  C   UNL     1      -1.061  -1.933   1.739  1.00  0.00     0.122 C 
ATOM     13  C   UNL     1      -0.529  -3.267   1.243  1.00  0.00     0.037 C 
ATOM     14  C   UNL     1      -0.567  -2.622  -1.231  1.00  0.00    -0.019 C 
ATOM     15  C   UNL     1       0.623  -1.694  -1.129  1.00  0.00     0.016 C 
ATOM     16  C   UNL     1      -1.025  -3.644  -0.176  1.00  0.00     0.005 C 
ATOM     17  C   UNL     1      -0.753  -3.100  -2.656  1.00  0.00     0.008 C 
ATOM     18  C   UNL     1      -0.730  -5.173  -0.519  1.00  0.00    -0.023 C 
ATOM     19  C   UNL     1      -0.393  -4.553  -2.908  1.00  0.00     0.008 C 
ATOM     20  C   UNL     1      -1.067  -5.600  -2.013  1.00  0.00    -0.024 C 
ATOM     21  C   UNL     1      -1.725  -6.050   0.288  1.00  0.00     0.008 C 
ATOM     22  C   UNL     1       0.736  -5.502  -0.158  1.00  0.00     0.012 C 
ATOM     23  C   UNL     1      -2.635  -5.699  -2.002  1.00  0.00    -0.002 C 
ATOM     24  C   UNL     1      -0.477  -6.991  -2.363  1.00  0.00     0.012 C 
ATOM     25  C   UNL     1      -2.873  -6.427  -0.649  1.00  0.00     0.005 C 
BRANCH  11  26
ATOM     26  C   UNL     1       0.520  -0.026   1.317  1.00  0.00    -0.028 C 
ATOM     27  C   UNL     1       1.089   1.065   0.785  1.00  0.00     0.004 C 
ENDBRANCH  11  26
BRANCH  12  28
ATOM     28  O   UNL     1      -2.465  -2.041   1.936  1.00  0.00    -0.392 OA
ATOM     29  H   UNL     1      -2.897  -2.234   1.089  1.00  0.00     0.210 HD
ENDBRANCH  12  28
BRANCH  23  30
ATOM     30  C   UNL     1      -3.611  -6.290  -3.102  1.00  0.00    -0.010 C 
ATOM     31  C   UNL     1      -3.791  -7.823  -3.171  1.00  0.00     0.008 C 
BRANCH  30  32
ATOM     32  C   UNL     1      -3.818  -5.680  -4.520  1.00  0.00     0.008 C 
BRANCH  32  33
ATOM     33  C   UNL     1      -2.681  -5.355  -5.491  1.00  0.00     0.027 C 
BRANCH  33  34
ATOM     34  C   UNL     1      -1.629  -6.411  -5.636  1.00  0.00    -0.028 C 
ATOM     35  C   UNL     1      -0.372  -6.196  -6.077  1.00  0.00    -0.080 C 
ATOM     36  C   UNL     1       0.699  -7.236  -5.886  1.00  0.00     0.039 C 
ATOM     37  C   UNL     1       0.090  -4.906  -6.698  1.00  0.00     0.039 C 
ENDBRANCH  33  34
ENDBRANCH  32  33
ENDBRANCH  30  32
ENDBRANCH  23  30
ENDBRANCH   9  10
ENDBRANCH   8   9
ENDBRANCH   6   8
ENDBRANCH   5   6
ENDBRANCH   4   5
ENDBRANCH   3   4
ENDBRANCH   2   3
ENDBRANCH   1   2
BRANCH   1  38
ATOM     38  C   UNL     1      -4.686  -1.260  -0.092  1.00  0.00     0.188 C 
BRANCH  38  39
ATOM     39  O   UNL     1      -5.170  -2.128   0.911  1.00  0.00    -0.377 OA
BRANCH  39  40
ATOM     40  C   UNL     1      -4.876  -3.502   0.725  1.00  0.00     0.188 C 
BRANCH  40  41
ATOM     41  C   UNL     1      -6.070  -4.442   0.946  1.00  0.00     0.188 C 
BRANCH  41  42
ATOM     42  O   UNL     1      -7.298  -4.019   1.524  1.00  0.00    -0.376 OA
BRANCH  42  43
ATOM     43  C   UNL     1      -7.408  -2.741   2.120  1.00  0.00     0.202 C 
BRANCH  43  44
ATOM     44  C   UNL     1      -6.588  -2.438   3.393  1.00  0.00     0.261 C 
BRANCH  44  45
ATOM     45  O   UNL     1      -5.357  -3.158   3.580  1.00  0.00    -0.460 OA
BRANCH  45  46
ATOM     46  C   UNL     1      -5.477  -4.381   4.132  1.00  0.00     0.338 C 
ATOM     47  O   UNL     1      -6.521  -4.924   4.495  1.00  0.00    -0.246 OA
BRANCH  46  48
ATOM     48  C   UNL     1      -4.165  -5.062   4.178  1.00  0.00     0.060 A 
ATOM     49  C   UNL     1      -4.062  -6.349   3.635  1.00  0.00     0.016 A 
ATOM     50  C   UNL     1      -3.075  -4.501   4.851  1.00  0.00     0.016 A 
ATOM     51  C   UNL     1      -2.894  -7.098   3.806  1.00  0.00     0.010 A 
ATOM     52  C   UNL     1      -1.912  -5.262   5.043  1.00  0.00     0.010 A 
ATOM     53  C   UNL     1      -1.832  -6.582   4.562  1.00  0.00    -0.014 A 
BRANCH  53  54
ATOM     54  C   UNL     1      -0.765  -7.505   5.043  1.00  0.00     0.031 A 
ATOM     55  C   UNL     1      -0.932  -8.140   6.396  1.00  0.00     0.074 A 
ATOM     56  C   UNL     1       0.316  -7.812   4.302  1.00  0.00     0.049 A 
ATOM     57  N   UNL     1      -0.129  -8.957   7.027  1.00  0.00    -0.248 NA
ATOM     58  C   UNL     1      -2.160  -7.806   7.136  1.00  0.00     0.031 C 
ATOM     59  C   UNL     1       0.584  -7.289   2.972  1.00  0.00     0.029 A 
ATOM     60  N   UNL     1       1.388  -8.635   4.556  1.00  0.00    -0.354 N 
ATOM     61  C   UNL     1      -0.742  -9.216   8.246  1.00  0.00     0.074 A 
ATOM     62  C   UNL     1      -1.977  -8.464   8.271  1.00  0.00     0.031 C 
ATOM     63  C   UNL     1       1.738  -7.804   2.515  1.00  0.00     0.029 A 
ATOM     64  C   UNL     1       2.322  -8.658   3.544  1.00  0.00     0.049 A 
ATOM     65  H   UNL     1       1.480  -9.159   5.385  1.00  0.00     0.167 HD
ATOM     66  C   UNL     1      -0.311 -10.005   9.256  1.00  0.00     0.031 A 
ATOM     67  C   UNL     1       3.524  -9.267   3.464  1.00  0.00     0.031 A 
ATOM     68  C   UNL     1       0.918 -10.751   9.237  1.00  0.00     0.049 A 
ATOM     69  C   UNL     1       4.001 -10.101   4.626  1.00  0.00     0.074 A 
ATOM     70  C   UNL     1       1.417 -11.601  10.209  1.00  0.00     0.029 A 
ATOM     71  N   UNL     1       1.845 -10.732   8.207  1.00  0.00    -0.354 N 
ATOM     72  N   UNL     1       3.387 -10.367   5.754  1.00  0.00    -0.248 NA
ATOM     73  C   UNL     1       5.332 -10.716   4.507  1.00  0.00     0.031 C 
ATOM     74  C   UNL     1       2.678 -12.042   9.797  1.00  0.00     0.029 A 
ATOM     75  C   UNL     1       2.930 -11.527   8.536  1.00  0.00     0.049 A 
ATOM     76  H   UNL     1       1.747 -10.229   7.367  1.00  0.00     0.167 HD
ATOM     77  C   UNL     1       4.245 -11.201   6.465  1.00  0.00     0.074 A 
ATOM     78  C   UNL     1       5.410 -11.413   5.633  1.00  0.00     0.031 C 
ATOM     79  C   UNL     1       4.082 -11.740   7.698  1.00  0.00     0.031 A 
BRANCH  66  80
ATOM     80  C   UNL     1      -1.153 -10.068  10.500  1.00  0.00    -0.014 A 
ATOM     81  C   UNL     1      -2.373 -10.766  10.524  1.00  0.00     0.010 A 
ATOM     82  C   UNL     1      -0.674  -9.476  11.683  1.00  0.00     0.010 A 
ATOM     83  C   UNL     1      -3.106 -10.858  11.710  1.00  0.00     0.020 A 
ATOM     84  C   UNL     1      -1.391  -9.589  12.875  1.00  0.00     0.020 A 
ATOM     85  C   UNL     1      -2.607 -10.274  12.879  1.00  0.00     0.054 A 
BRANCH  85  86
ATOM     86  S   UNL     1      -3.547 -10.468  14.417  1.00  0.00     0.124 S 
ATOM     87  O   UNL     1      -4.702  -9.607  14.175  1.00  0.00    -0.237 OA
ATOM     88  O   UNL     1      -3.826 -11.901  14.441  1.00  0.00    -0.237 OA
ATOM     89  O   UNL     1      -2.626  -9.997  15.449  1.00  0.00    -0.744 OA
ENDBRANCH  85  86
ENDBRANCH  66  80
BRANCH  67  90
ATOM     90  C   UNL     1       4.401  -9.070   2.271  1.00  0.00    -0.014 A 
ATOM     91  C   UNL     1       4.738 -10.146   1.428  1.00  0.00     0.010 A 
ATOM     92  C   UNL     1       4.952  -7.803   2.003  1.00  0.00     0.010 A 
ATOM     93  C   UNL     1       5.636  -9.966   0.369  1.00  0.00     0.020 A 
ATOM     94  C   UNL     1       5.821  -7.611   0.925  1.00  0.00     0.020 A 
ATOM     95  C   UNL     1       6.174  -8.699   0.126  1.00  0.00     0.054 A 
BRANCH  95  96
ATOM     96  S   UNL     1       7.324  -8.482  -1.261  1.00  0.00     0.124 S 
ATOM     97  O   UNL     1       8.531  -9.132  -0.760  1.00  0.00    -0.237 OA
ATOM     98  O   UNL     1       6.638  -9.171  -2.351  1.00  0.00    -0.237 OA
ATOM     99  O   UNL     1       7.409  -7.030  -1.409  1.00  0.00    -0.744 OA
ENDBRANCH  95  96
ENDBRANCH  67  90
BRANCH  79 100
ATOM    100  C   UNL     1       5.165 -12.652   8.214  1.00  0.00    -0.014 A 
ATOM    101  C   UNL     1       6.421 -12.155   8.603  1.00  0.00     0.010 A 
ATOM    102  C   UNL     1       4.894 -14.024   8.372  1.00  0.00     0.010 A 
ATOM    103  C   UNL     1       7.397 -13.018   9.110  1.00  0.00     0.020 A 
ATOM    104  C   UNL     1       5.855 -14.885   8.908  1.00  0.00     0.020 A 
ATOM    105  C   UNL     1       7.107 -14.378   9.261  1.00  0.00     0.054 A 
BRANCH 105 106
ATOM    106  S   UNL     1       8.374 -15.469   9.963  1.00  0.00     0.124 S 
ATOM    107  O   UNL     1       9.335 -15.564   8.867  1.00  0.00    -0.237 OA
ATOM    108  O   UNL     1       8.828 -14.722  11.133  1.00  0.00    -0.237 OA
ATOM    109  O   UNL     1       7.646 -16.701  10.260  1.00  0.00    -0.744 OA
ENDBRANCH 105 106
ENDBRANCH  79 100
ENDBRANCH  53  54
ENDBRANCH  46  48
ENDBRANCH  45  46
ENDBRANCH  44  45
ENDBRANCH  43  44
ENDBRANCH  42  43
ENDBRANCH  41  42
ENDBRANCH  40  41
ENDBRANCH  39  40
ENDBRANCH  38  39
ENDBRANCH   1  38
TORSDOF 31
