REMARK SMILES COc1ccc(C[C@H](C(=O)Nc2ccccc2)[C@@H](C)C(=O)OCCOCCOCCOCCOC(=O)c2ccc(-c3c4nc(c(-c5ccc(S(=O)(=O)[O-])cc5)c5ccc([nH]5)c(-c5ccc(S(=O)(=O)[O-])cc5)c5nc(c(-c6ccc(S(=O)(=O)[O-])cc6)c6ccc3[nH]6)C=C5)C=C4)cc2)cc1
REMARK SMILES IDX 27 1 26 2 25 3 24 4 23 5 22 6 20 7 21 8 18 9 19 10 8 11 7 12
REMARK SMILES IDX 6 13 3 14 4 15 98 16 5 17 97 18 2 19 1 20 9 21 10 22 11 23
REMARK SMILES IDX 12 25 13 26 17 27 14 28 16 29 15 30 28 31 29 32 30 33 31 34
REMARK SMILES IDX 32 35 33 36 34 37 35 38 36 39 37 40 38 41 96 42 39 43 95 44
REMARK SMILES IDX 40 45 41 46 42 47 89 48 43 49 94 50 88 51 90 52 44 53 93 54
REMARK SMILES IDX 87 55 86 56 45 58 75 59 56 60 74 61 57 62 60 63 73 64 91 65
REMARK SMILES IDX 58 66 59 67 72 69 92 70 61 71 46 72 47 73 55 74 48 75 54 76
REMARK SMILES IDX 49 77 50 78 51 79 52 80 53 81 76 82 77 83 85 84 78 85 84 86
REMARK SMILES IDX 79 87 80 88 81 89 82 90 83 91 62 92 63 93 71 94 64 95 70 96
REMARK SMILES IDX 65 97 66 98 67 99 68 100 69 101
REMARK H PARENT 11 24 90 57 60 68
REMARK Flexibility Score: inf
ROOT
ATOM      1  C   UNL     1       1.111   5.415  -8.021  1.00  0.00     0.188 C 
ENDROOT
BRANCH   1   2
ATOM      2  C   UNL     1       0.975   6.790  -8.672  1.00  0.00     0.188 C 
BRANCH   2   3
ATOM      3  O   UNL     1       1.859   7.143  -9.725  1.00  0.00    -0.376 OA
BRANCH   3   4
ATOM      4  C   UNL     1       3.178   6.622  -9.677  1.00  0.00     0.202 C 
BRANCH   4   5
ATOM      5  C   UNL     1       4.085   7.057  -8.513  1.00  0.00     0.261 C 
BRANCH   5   6
ATOM      6  O   UNL     1       3.613   6.764  -7.173  1.00  0.00    -0.463 OA
BRANCH   6   7
ATOM      7  C   UNL     1       3.192   7.816  -6.418  1.00  0.00     0.309 C 
ATOM      8  O   UNL     1       3.081   8.963  -6.839  1.00  0.00    -0.252 OA
BRANCH   7   9
ATOM      9  C   UNL     1       3.011   7.485  -4.930  1.00  0.00     0.109 C 
ATOM     10  C   UNL     1       4.428   7.130  -4.432  1.00  0.00     0.021 C 
BRANCH   9  11
ATOM     11  C   UNL     1       1.975   6.412  -4.504  1.00  0.00     0.097 C 
BRANCH  11  12
ATOM     12  C   UNL     1       0.469   6.444  -4.867  1.00  0.00     0.050 C 
BRANCH  12  13
ATOM     13  C   UNL     1      -0.275   7.527  -5.614  1.00  0.00    -0.047 A 
ATOM     14  C   UNL     1      -1.618   9.198  -7.463  1.00  0.00     0.118 A 
ATOM     15  C   UNL     1      -0.533   9.671  -6.725  1.00  0.00     0.046 A 
ATOM     16  C   UNL     1      -2.140   7.953  -7.153  1.00  0.00     0.046 A 
ATOM     17  C   UNL     1       0.125   8.847  -5.795  1.00  0.00     0.007 A 
ATOM     18  C   UNL     1      -1.489   7.153  -6.214  1.00  0.00     0.007 A 
BRANCH  14  19
ATOM     19  O   UNL     1      -2.101  10.018  -8.445  1.00  0.00    -0.497 OA
ATOM     20  C   UNL     1      -2.654   9.331  -9.570  1.00  0.00     0.278 C 
ENDBRANCH  14  19
ENDBRANCH  12  13
ENDBRANCH  11  12
BRANCH  11  21
ATOM     21  C   UNL     1       2.098   6.095  -2.997  1.00  0.00     0.228 C 
ATOM     22  O   UNL     1       2.715   5.088  -2.631  1.00  0.00    -0.274 OA
ATOM     23  N   UNL     1       1.609   6.919  -2.019  1.00  0.00    -0.326 N 
ATOM     24  H   UNL     1       1.866   6.680  -1.099  1.00  0.00     0.169 HD
BRANCH  23  25
ATOM     25  C   UNL     1       0.800   8.050  -2.139  1.00  0.00     0.041 A 
ATOM     26  C   UNL     1       1.371   9.311  -2.013  1.00  0.00     0.026 A 
ATOM     27  C   UNL     1      -0.582   7.925  -2.311  1.00  0.00     0.026 A 
ATOM     28  C   UNL     1       0.583  10.446  -2.214  1.00  0.00     0.002 A 
ATOM     29  C   UNL     1      -1.363   9.056  -2.543  1.00  0.00     0.002 A 
ATOM     30  C   UNL     1      -0.774  10.317  -2.514  1.00  0.00     0.000 A 
ENDBRANCH  23  25
ENDBRANCH  11  21
ENDBRANCH   9  11
ENDBRANCH   7   9
ENDBRANCH   6   7
ENDBRANCH   5   6
ENDBRANCH   4   5
ENDBRANCH   3   4
ENDBRANCH   2   3
ENDBRANCH   1   2
BRANCH   1  31
ATOM     31  O   UNL     1       1.396   4.383  -8.927  1.00  0.00    -0.377 OA
BRANCH  31  32
ATOM     32  C   UNL     1       0.314   3.696  -9.512  1.00  0.00     0.188 C 
BRANCH  32  33
ATOM     33  C   UNL     1      -1.086   4.327  -9.604  1.00  0.00     0.188 C 
BRANCH  33  34
ATOM     34  O   UNL     1      -1.818   4.647  -8.419  1.00  0.00    -0.376 OA
BRANCH  34  35
ATOM     35  C   UNL     1      -1.881   3.742  -7.319  1.00  0.00     0.202 C 
BRANCH  35  36
ATOM     36  C   UNL     1      -2.770   2.514  -7.448  1.00  0.00     0.261 C 
BRANCH  36  37
ATOM     37  O   UNL     1      -2.021   1.468  -8.056  1.00  0.00    -0.460 OA
BRANCH  37  38
ATOM     38  C   UNL     1      -2.299   1.230  -9.353  1.00  0.00     0.338 C 
ATOM     39  O   UNL     1      -3.246   1.645  -9.999  1.00  0.00    -0.246 OA
BRANCH  38  40
ATOM     40  C   UNL     1      -1.084   0.628  -9.925  1.00  0.00     0.060 A 
ATOM     41  C   UNL     1      -0.663   1.092 -11.178  1.00  0.00     0.016 A 
ATOM     42  C   UNL     1      -0.297  -0.255  -9.175  1.00  0.00     0.016 A 
ATOM     43  C   UNL     1       0.554   0.669 -11.691  1.00  0.00     0.010 A 
ATOM     44  C   UNL     1       0.904  -0.704  -9.703  1.00  0.00     0.010 A 
ATOM     45  C   UNL     1       1.308  -0.265 -10.973  1.00  0.00    -0.014 A 
BRANCH  45  46
ATOM     46  C   UNL     1       2.346  -1.030 -11.675  1.00  0.00     0.031 A 
ATOM     47  C   UNL     1       1.893  -2.279 -12.372  1.00  0.00     0.074 A 
ATOM     48  C   UNL     1       3.629  -0.639 -11.655  1.00  0.00     0.049 A 
ATOM     49  N   UNL     1       2.599  -3.180 -12.994  1.00  0.00    -0.248 NA
ATOM     50  C   UNL     1       0.442  -2.552 -12.353  1.00  0.00     0.031 C 
ATOM     51  C   UNL     1       4.138   0.579 -11.023  1.00  0.00     0.029 A 
ATOM     52  N   UNL     1       4.741  -1.248 -12.168  1.00  0.00    -0.354 N 
ATOM     53  C   UNL     1       1.681  -4.126 -13.433  1.00  0.00     0.074 A 
ATOM     54  C   UNL     1       0.374  -3.709 -12.989  1.00  0.00     0.031 C 
ATOM     55  C   UNL     1       5.475   0.614 -11.168  1.00  0.00     0.029 A 
ATOM     56  C   UNL     1       5.910  -0.593 -11.868  1.00  0.00     0.049 A 
ATOM     57  H   UNL     1       4.707  -2.075 -12.701  1.00  0.00     0.167 HD
ATOM     58  C   UNL     1       1.918  -5.250 -14.142  1.00  0.00     0.031 A 
ATOM     59  C   UNL     1       7.183  -0.959 -12.111  1.00  0.00     0.031 A 
ATOM     60  C   UNL     1       3.235  -5.664 -14.532  1.00  0.00     0.049 A 
ATOM     61  C   UNL     1       7.427  -2.257 -12.837  1.00  0.00     0.074 A 
ATOM     62  C   UNL     1       3.607  -6.774 -15.263  1.00  0.00     0.029 A 
ATOM     63  N   UNL     1       4.399  -4.985 -14.200  1.00  0.00    -0.354 N 
ATOM     64  N   UNL     1       6.551  -3.123 -13.297  1.00  0.00    -0.248 NA
ATOM     65  C   UNL     1       8.826  -2.628 -13.081  1.00  0.00     0.031 C 
ATOM     66  C   UNL     1       5.004  -6.804 -15.314  1.00  0.00     0.029 A 
ATOM     67  C   UNL     1       5.497  -5.673 -14.679  1.00  0.00     0.049 A 
ATOM     68  H   UNL     1       4.437  -4.139 -13.698  1.00  0.00     0.167 HD
ATOM     69  C   UNL     1       7.294  -4.130 -13.904  1.00  0.00     0.074 A 
ATOM     70  C   UNL     1       8.688  -3.753 -13.770  1.00  0.00     0.031 C 
ATOM     71  C   UNL     1       6.870  -5.264 -14.517  1.00  0.00     0.031 A 
BRANCH  58  72
ATOM     72  C   UNL     1       0.739  -6.117 -14.482  1.00  0.00    -0.014 A 
ATOM     73  C   UNL     1      -0.233  -5.699 -15.410  1.00  0.00     0.010 A 
ATOM     74  C   UNL     1       0.607  -7.377 -13.873  1.00  0.00     0.010 A 
ATOM     75  C   UNL     1      -1.328  -6.516 -15.703  1.00  0.00     0.020 A 
ATOM     76  C   UNL     1      -0.471  -8.209 -14.185  1.00  0.00     0.020 A 
ATOM     77  C   UNL     1      -1.438  -7.768 -15.091  1.00  0.00     0.054 A 
BRANCH  77  78
ATOM     78  S   UNL     1      -2.845  -8.826 -15.525  1.00  0.00     0.124 S 
ATOM     79  O   UNL     1      -3.959  -8.121 -14.896  1.00  0.00    -0.237 OA
ATOM     80  O   UNL     1      -2.826  -8.794 -16.986  1.00  0.00    -0.237 OA
ATOM     81  O   UNL     1      -2.508 -10.115 -14.928  1.00  0.00    -0.744 OA
ENDBRANCH  77  78
ENDBRANCH  58  72
BRANCH  59  82
ATOM     82  C   UNL     1       8.310  -0.107 -11.641  1.00  0.00    -0.014 A 
ATOM     83  C   UNL     1       9.138   0.561 -12.559  1.00  0.00     0.010 A 
ATOM     84  C   UNL     1       8.559   0.045 -10.264  1.00  0.00     0.010 A 
ATOM     85  C   UNL     1      10.203   1.349 -12.111  1.00  0.00     0.020 A 
ATOM     86  C   UNL     1       9.604   0.855  -9.811  1.00  0.00     0.020 A 
ATOM     87  C   UNL     1      10.427   1.494 -10.739  1.00  0.00     0.054 A 
BRANCH  87  88
ATOM     88  S   UNL     1      11.786   2.560 -10.183  1.00  0.00     0.124 S 
ATOM     89  O   UNL     1      12.959   1.775 -10.552  1.00  0.00    -0.237 OA
ATOM     90  O   UNL     1      11.567   3.777 -10.960  1.00  0.00    -0.237 OA
ATOM     91  O   UNL     1      11.549   2.696  -8.747  1.00  0.00    -0.744 OA
ENDBRANCH  87  88
ENDBRANCH  59  82
BRANCH  71  92
ATOM     92  C   UNL     1       7.923  -6.164 -15.105  1.00  0.00    -0.014 A 
ATOM     93  C   UNL     1       8.768  -6.929 -14.283  1.00  0.00     0.010 A 
ATOM     94  C   UNL     1       8.012  -6.301 -16.503  1.00  0.00     0.010 A 
ATOM     95  C   UNL     1       9.705  -7.794 -14.850  1.00  0.00     0.020 A 
ATOM     96  C   UNL     1       8.924  -7.191 -17.072  1.00  0.00     0.020 A 
ATOM     97  C   UNL     1       9.774  -7.922 -16.241  1.00  0.00     0.054 A 
BRANCH  97  98
ATOM     98  S   UNL     1      10.964  -9.092 -16.948  1.00  0.00     0.124 S 
ATOM     99  O   UNL     1      12.235  -8.418 -16.703  1.00  0.00    -0.237 OA
ATOM    100  O   UNL     1      10.729 -10.300 -16.161  1.00  0.00    -0.237 OA
ATOM    101  O   UNL     1      10.568  -9.184 -18.352  1.00  0.00    -0.744 OA
ENDBRANCH  97  98
ENDBRANCH  71  92
ENDBRANCH  45  46
ENDBRANCH  38  40
ENDBRANCH  37  38
ENDBRANCH  36  37
ENDBRANCH  35  36
ENDBRANCH  34  35
ENDBRANCH  33  34
ENDBRANCH  32  33
ENDBRANCH  31  32
ENDBRANCH   1  31
TORSDOF 29
