REMARK SMILES C[C@H]1CCc2sc3ncn4nc(/C=C\C(=O)OCCOCCOCCOCCOC(=O)c5ccc(-c6c7nc(c(-c8ccc(S(=O)(=O)[O-])cc8)c8ccc([nH]8)c(-c8ccc(S(=O)(=O)[O-])cc8)c8nc(c(-c9ccc(S(=O)(=O)[O-])cc9)c9ccc6[nH]9)C=C8)C=C7)cc5)nc4c3c2C1
REMARK SMILES IDX 24 1 23 2 22 3 21 4 20 5 19 6 18 7 17 8 15 9 16 10 14 11
REMARK SMILES IDX 13 12 12 13 1 14 2 15 3 16 96 17 4 18 95 19 5 20 94 21 6 22
REMARK SMILES IDX 7 23 93 24 8 25 10 26 92 27 9 28 11 29 25 30 26 31 27 32
REMARK SMILES IDX 28 33 29 34 30 35 31 36 32 37 33 38 91 39 34 40 90 41 35 42
REMARK SMILES IDX 36 43 37 44 84 45 38 46 89 47 83 48 85 49 39 50 88 51 82 52
REMARK SMILES IDX 81 53 40 55 70 56 51 57 69 58 52 59 55 60 68 61 86 62 53 63
REMARK SMILES IDX 54 64 67 66 87 67 56 68 41 69 42 70 50 71 43 72 49 73 44 74
REMARK SMILES IDX 45 75 46 76 47 77 48 78 71 79 72 80 80 81 73 82 79 83 74 84
REMARK SMILES IDX 75 85 76 86 77 87 78 88 57 89 58 90 66 91 59 92 65 93 60 94
REMARK SMILES IDX 61 95 62 96 63 97 64 98
REMARK H PARENT 85 54 55 65
REMARK Flexibility Score: inf
ROOT
ATOM      1  C   UNL     1       4.812  -1.850  -0.656  1.00  0.00     0.188 C 
ENDROOT
BRANCH   1   2
ATOM      2  O   UNL     1       5.726  -2.340  -1.617  1.00  0.00    -0.377 OA
BRANCH   2   3
ATOM      3  C   UNL     1       5.338  -2.253  -2.981  1.00  0.00     0.188 C 
BRANCH   3   4
ATOM      4  C   UNL     1       4.728  -0.943  -3.535  1.00  0.00     0.188 C 
BRANCH   4   5
ATOM      5  O   UNL     1       3.931  -0.236  -2.597  1.00  0.00    -0.376 OA
BRANCH   5   6
ATOM      6  C   UNL     1       2.614   0.099  -3.000  1.00  0.00     0.202 C 
BRANCH   6   7
ATOM      7  C   UNL     1       1.669  -1.092  -2.986  1.00  0.00     0.261 C 
BRANCH   7   8
ATOM      8  O   UNL     1       2.204  -2.276  -3.574  1.00  0.00    -0.460 OA
BRANCH   8   9
ATOM      9  C   UNL     1       2.074  -2.472  -4.886  1.00  0.00     0.330 C 
ATOM     10  O   UNL     1       1.607  -1.673  -5.694  1.00  0.00    -0.247 OA
BRANCH   9  11
ATOM     11  C   UNL     1       2.764  -3.711  -5.294  1.00  0.00     0.097 C 
ATOM     12  C   UNL     1       2.969  -4.863  -4.629  1.00  0.00     0.058 C 
BRANCH  12  13
ATOM     13  C   UNL     1       2.560  -5.321  -3.335  1.00  0.00     0.175 A 
ATOM     14  C   UNL     1      -1.507  -1.450   0.493  1.00  0.00     0.008 C 
ATOM     15  C   UNL     1      -0.033  -1.498   0.899  1.00  0.00    -0.009 C 
ATOM     16  C   UNL     1       0.160  -1.745   2.409  1.00  0.00     0.009 C 
ATOM     17  C   UNL     1       0.743  -2.527   0.061  1.00  0.00     0.041 C 
ATOM     18  C   UNL     1      -0.207  -3.174   2.860  1.00  0.00     0.047 C 
ATOM     19  C   UNL     1       0.748  -3.903   0.613  1.00  0.00    -0.020 A 
ATOM     20  C   UNL     1       0.326  -4.190   1.894  1.00  0.00     0.011 A 
ATOM     21  C   UNL     1       1.212  -5.069  -0.035  1.00  0.00     0.060 A 
ATOM     22  S   UNL     1       0.446  -5.855   2.263  1.00  0.00    -0.120 S 
ATOM     23  C   UNL     1       1.109  -6.224   0.724  1.00  0.00     0.129 A 
ATOM     24  C   UNL     1       1.788  -5.281  -1.377  1.00  0.00     0.168 A 
ATOM     25  N   UNL     1       1.467  -7.502   0.356  1.00  0.00    -0.225 NA
ATOM     26  N   UNL     1       2.164  -6.547  -1.697  1.00  0.00    -0.201 N 
ATOM     27  N   UNL     1       2.006  -4.483  -2.391  1.00  0.00    -0.207 NA
ATOM     28  C   UNL     1       1.992  -7.633  -0.839  1.00  0.00     0.227 A 
ATOM     29  N   UNL     1       2.670  -6.606  -2.943  1.00  0.00    -0.145 NA
ENDBRANCH  12  13
ENDBRANCH   9  11
ENDBRANCH   8   9
ENDBRANCH   7   8
ENDBRANCH   6   7
ENDBRANCH   5   6
ENDBRANCH   4   5
ENDBRANCH   3   4
ENDBRANCH   2   3
ENDBRANCH   1   2
BRANCH   1  30
ATOM     30  C   UNL     1       5.221  -0.499  -0.031  1.00  0.00     0.188 C 
BRANCH  30  31
ATOM     31  O   UNL     1       6.066   0.453  -0.674  1.00  0.00    -0.376 OA
BRANCH  31  32
ATOM     32  C   UNL     1       7.185   0.131  -1.485  1.00  0.00     0.202 C 
BRANCH  32  33
ATOM     33  C   UNL     1       8.312  -0.810  -1.074  1.00  0.00     0.261 C 
BRANCH  33  34
ATOM     34  O   UNL     1       7.904  -1.882  -0.265  1.00  0.00    -0.460 OA
BRANCH  34  35
ATOM     35  C   UNL     1       7.798  -1.561   1.027  1.00  0.00     0.338 C 
ATOM     36  O   UNL     1       7.967  -0.445   1.532  1.00  0.00    -0.246 OA
BRANCH  35  37
ATOM     37  C   UNL     1       7.594  -2.788   1.792  1.00  0.00     0.060 A 
ATOM     38  C   UNL     1       7.757  -2.620   3.162  1.00  0.00     0.016 A 
ATOM     39  C   UNL     1       7.799  -4.020   1.146  1.00  0.00     0.016 A 
ATOM     40  C   UNL     1       8.517  -3.556   3.805  1.00  0.00     0.010 A 
ATOM     41  C   UNL     1       8.562  -4.957   1.793  1.00  0.00     0.010 A 
ATOM     42  C   UNL     1       9.010  -4.644   3.070  1.00  0.00    -0.014 A 
BRANCH  42  43
ATOM     43  C   UNL     1       9.948  -5.505   3.742  1.00  0.00     0.031 A 
ATOM     44  C   UNL     1       9.280  -6.292   4.787  1.00  0.00     0.074 A 
ATOM     45  C   UNL     1      11.257  -5.571   3.446  1.00  0.00     0.049 A 
ATOM     46  N   UNL     1       9.263  -6.033   6.050  1.00  0.00    -0.248 NA
ATOM     47  C   UNL     1       8.315  -7.311   4.352  1.00  0.00     0.031 C 
ATOM     48  C   UNL     1      11.971  -5.020   2.291  1.00  0.00     0.029 A 
ATOM     49  N   UNL     1      12.226  -6.245   4.115  1.00  0.00    -0.354 N 
ATOM     50  C   UNL     1       8.466  -7.021   6.604  1.00  0.00     0.074 A 
ATOM     51  C   UNL     1       7.737  -7.618   5.513  1.00  0.00     0.031 C 
ATOM     52  C   UNL     1      13.204  -5.582   2.224  1.00  0.00     0.029 A 
ATOM     53  C   UNL     1      13.413  -6.395   3.411  1.00  0.00     0.049 A 
ATOM     54  H   UNL     1      12.098  -6.599   5.024  1.00  0.00     0.167 HD
ATOM     55  C   UNL     1       8.709  -7.484   7.858  1.00  0.00     0.031 A 
ATOM     56  C   UNL     1      14.451  -7.183   3.786  1.00  0.00     0.031 A 
ATOM     57  C   UNL     1       9.602  -6.617   8.582  1.00  0.00     0.049 A 
ATOM     58  C   UNL     1      14.331  -7.385   5.250  1.00  0.00     0.074 A 
ATOM     59  C   UNL     1       9.540  -5.347   9.113  1.00  0.00     0.029 A 
ATOM     60  N   UNL     1      10.933  -6.944   8.471  1.00  0.00    -0.354 N 
ATOM     61  N   UNL     1      14.486  -6.428   6.120  1.00  0.00    -0.248 NA
ATOM     62  C   UNL     1      13.672  -8.583   5.753  1.00  0.00     0.031 C 
ATOM     63  C   UNL     1      10.864  -4.826   9.025  1.00  0.00     0.029 A 
ATOM     64  C   UNL     1      11.697  -5.807   8.482  1.00  0.00     0.049 A 
ATOM     65  H   UNL     1      11.284  -7.860   8.394  1.00  0.00     0.167 HD
ATOM     66  C   UNL     1      13.586  -6.721   7.130  1.00  0.00     0.074 A 
ATOM     67  C   UNL     1      13.235  -8.122   6.929  1.00  0.00     0.031 C 
ATOM     68  C   UNL     1      13.000  -5.722   7.851  1.00  0.00     0.031 A 
BRANCH  55  69
ATOM     69  C   UNL     1       8.556  -8.941   8.213  1.00  0.00    -0.014 A 
ATOM     70  C   UNL     1       8.758  -9.339   9.546  1.00  0.00     0.010 A 
ATOM     71  C   UNL     1       8.507  -9.962   7.237  1.00  0.00     0.010 A 
ATOM     72  C   UNL     1       8.939 -10.689   9.877  1.00  0.00     0.020 A 
ATOM     73  C   UNL     1       8.641 -11.309   7.560  1.00  0.00     0.020 A 
ATOM     74  C   UNL     1       8.884 -11.663   8.878  1.00  0.00     0.054 A 
BRANCH  74  75
ATOM     75  S   UNL     1       9.198 -13.392   9.300  1.00  0.00     0.124 S 
ATOM     76  O   UNL     1      10.591 -13.348   9.733  1.00  0.00    -0.237 OA
ATOM     77  O   UNL     1       8.212 -13.634  10.349  1.00  0.00    -0.237 OA
ATOM     78  O   UNL     1       8.952 -14.101   8.046  1.00  0.00    -0.744 OA
ENDBRANCH  74  75
ENDBRANCH  55  69
BRANCH  56  79
ATOM     79  C   UNL     1      15.328  -8.050   2.963  1.00  0.00    -0.014 A 
ATOM     80  C   UNL     1      16.457  -8.654   3.551  1.00  0.00     0.010 A 
ATOM     81  C   UNL     1      14.862  -8.569   1.740  1.00  0.00     0.010 A 
ATOM     82  C   UNL     1      17.026  -9.812   3.001  1.00  0.00     0.020 A 
ATOM     83  C   UNL     1      15.433  -9.721   1.180  1.00  0.00     0.020 A 
ATOM     84  C   UNL     1      16.485 -10.359   1.837  1.00  0.00     0.054 A 
BRANCH  84  85
ATOM     85  S   UNL     1      17.068 -11.987   1.275  1.00  0.00     0.124 S 
ATOM     86  O   UNL     1      18.438 -11.702   0.860  1.00  0.00    -0.237 OA
ATOM     87  O   UNL     1      16.929 -12.803   2.478  1.00  0.00    -0.237 OA
ATOM     88  O   UNL     1      16.149 -12.327   0.190  1.00  0.00    -0.744 OA
ENDBRANCH  84  85
ENDBRANCH  56  79
BRANCH  68  89
ATOM     89  C   UNL     1      13.690  -4.380   7.863  1.00  0.00    -0.014 A 
ATOM     90  C   UNL     1      13.874  -3.561   6.731  1.00  0.00     0.010 A 
ATOM     91  C   UNL     1      14.111  -3.901   9.115  1.00  0.00     0.010 A 
ATOM     92  C   UNL     1      14.498  -2.308   6.852  1.00  0.00     0.020 A 
ATOM     93  C   UNL     1      14.714  -2.650   9.245  1.00  0.00     0.020 A 
ATOM     94  C   UNL     1      14.917  -1.864   8.111  1.00  0.00     0.054 A 
BRANCH  94  95
ATOM     95  S   UNL     1      15.718  -0.243   8.270  1.00  0.00     0.124 S 
ATOM     96  O   UNL     1      16.966  -0.429   7.534  1.00  0.00    -0.237 OA
ATOM     97  O   UNL     1      14.750   0.659   7.651  1.00  0.00    -0.237 OA
ATOM     98  O   UNL     1      15.875  -0.072   9.715  1.00  0.00    -0.744 OA
ENDBRANCH  94  95
ENDBRANCH  68  89
ENDBRANCH  42  43
ENDBRANCH  35  37
ENDBRANCH  34  35
ENDBRANCH  33  34
ENDBRANCH  32  33
ENDBRANCH  31  32
ENDBRANCH  30  31
ENDBRANCH   1  30
TORSDOF 24
