REMARK SMILES Cc1cccc(Nc2ccccc2C(=O)OCCOCCOCCOCCOC(=O)c2ccc(-c3c4nc(c(-c5ccc(S(=O)(=O)[O-])cc5)c5ccc([nH]5)c(-c5ccc(S(=O)(=O)[O-])cc5)c5nc(c(-c6ccc(S(=O)(=O)[O-])cc6)c6ccc3[nH]6)C=C5)C=C4)cc2)c1C
REMARK SMILES IDX 23 1 22 2 21 3 20 4 19 5 18 6 17 7 16 8 14 9 15 10 13 11
REMARK SMILES IDX 8 12 9 13 10 14 12 15 11 16 7 17 6 19 1 20 2 21 3 22 91 23
REMARK SMILES IDX 4 24 92 25 5 26 24 27 25 28 26 29 27 30 28 31 29 32 30 33
REMARK SMILES IDX 31 34 32 35 90 36 33 37 89 38 34 39 35 40 36 41 83 42 37 43
REMARK SMILES IDX 88 44 82 45 84 46 38 47 87 48 81 49 80 50 39 52 69 53 50 54
REMARK SMILES IDX 68 55 51 56 54 57 67 58 85 59 52 60 53 61 66 63 86 64 55 65
REMARK SMILES IDX 40 66 41 67 49 68 42 69 48 70 43 71 44 72 45 73 46 74 47 75
REMARK SMILES IDX 70 76 71 77 79 78 72 79 78 80 73 81 74 82 75 83 76 84 77 85
REMARK SMILES IDX 56 86 57 87 65 88 58 89 64 90 59 91 60 92 61 93 62 94 63 95
REMARK H PARENT 7 18 84 51 54 62
REMARK Flexibility Score: inf
ROOT
ATOM      1  C   UNL     1      -1.700  -2.602   4.407  1.00  0.00     0.188 C 
ENDROOT
BRANCH   1   2
ATOM      2  O   UNL     1      -1.065  -3.371   3.395  1.00  0.00    -0.377 OA
BRANCH   2   3
ATOM      3  C   UNL     1       0.258  -3.854   3.576  1.00  0.00     0.188 C 
BRANCH   3   4
ATOM      4  C   UNL     1       1.359  -2.982   4.231  1.00  0.00     0.188 C 
BRANCH   4   5
ATOM      5  O   UNL     1       0.913  -1.806   4.871  1.00  0.00    -0.376 OA
BRANCH   5   6
ATOM      6  C   UNL     1       0.992  -0.547   4.234  1.00  0.00     0.202 C 
BRANCH   6   7
ATOM      7  C   UNL     1       0.698  -0.362   2.742  1.00  0.00     0.261 C 
BRANCH   7   8
ATOM      8  O   UNL     1       0.783  -1.532   1.933  1.00  0.00    -0.460 OA
BRANCH   8   9
ATOM      9  C   UNL     1       1.982  -1.791   1.373  1.00  0.00     0.340 C 
ATOM     10  O   UNL     1       3.033  -1.220   1.632  1.00  0.00    -0.246 OA
BRANCH   9  11
ATOM     11  C   UNL     1       1.906  -3.026   0.547  1.00  0.00     0.083 A 
ATOM     12  C   UNL     1       0.872  -3.341  -0.361  1.00  0.00     0.053 A 
ATOM     13  C   UNL     1       0.937  -4.594  -1.005  1.00  0.00     0.027 A 
ATOM     14  C   UNL     1       1.978  -5.497  -0.767  1.00  0.00     0.002 A 
ATOM     15  C   UNL     1       2.951  -3.944   0.782  1.00  0.00     0.018 A 
ATOM     16  C   UNL     1       2.986  -5.173   0.130  1.00  0.00     0.001 A 
BRANCH  12  17
ATOM     17  N   UNL     1      -0.177  -2.491  -0.776  1.00  0.00    -0.355 N 
ATOM     18  H   UNL     1      -0.954  -2.967  -1.149  1.00  0.00     0.167 HD
BRANCH  17  19
ATOM     19  C   UNL     1      -0.321  -1.087  -0.756  1.00  0.00     0.042 A 
ATOM     20  C   UNL     1       1.808   2.051  -0.396  1.00  0.00     0.044 C 
ATOM     21  C   UNL     1       0.610   1.153  -0.542  1.00  0.00    -0.046 A 
ATOM     22  C   UNL     1      -0.650   1.633  -0.156  1.00  0.00     0.004 A 
ATOM     23  C   UNL     1       0.751  -0.191  -0.957  1.00  0.00    -0.025 A 
ATOM     24  C   UNL     1      -1.749   0.783  -0.120  1.00  0.00     0.002 A 
ATOM     25  C   UNL     1       2.031  -0.638  -1.621  1.00  0.00     0.047 C 
ATOM     26  C   UNL     1      -1.575  -0.574  -0.377  1.00  0.00     0.026 A 
ENDBRANCH  17  19
ENDBRANCH  12  17
ENDBRANCH   9  11
ENDBRANCH   8   9
ENDBRANCH   7   8
ENDBRANCH   6   7
ENDBRANCH   5   6
ENDBRANCH   4   5
ENDBRANCH   3   4
ENDBRANCH   2   3
ENDBRANCH   1   2
BRANCH   1  27
ATOM     27  C   UNL     1      -1.386  -2.848   5.899  1.00  0.00     0.188 C 
BRANCH  27  28
ATOM     28  O   UNL     1      -0.485  -3.912   6.148  1.00  0.00    -0.376 OA
BRANCH  28  29
ATOM     29  C   UNL     1      -1.011  -5.142   6.609  1.00  0.00     0.202 C 
BRANCH  29  30
ATOM     30  C   UNL     1      -2.053  -5.859   5.738  1.00  0.00     0.261 C 
BRANCH  30  31
ATOM     31  O   UNL     1      -3.197  -5.090   5.342  1.00  0.00    -0.460 OA
BRANCH  31  32
ATOM     32  C   UNL     1      -4.019  -4.651   6.317  1.00  0.00     0.338 C 
ATOM     33  O   UNL     1      -3.907  -4.842   7.518  1.00  0.00    -0.246 OA
BRANCH  32  34
ATOM     34  C   UNL     1      -4.984  -3.725   5.693  1.00  0.00     0.060 A 
ATOM     35  C   UNL     1      -5.003  -2.382   6.091  1.00  0.00     0.016 A 
ATOM     36  C   UNL     1      -5.850  -4.185   4.699  1.00  0.00     0.016 A 
ATOM     37  C   UNL     1      -5.915  -1.498   5.515  1.00  0.00     0.010 A 
ATOM     38  C   UNL     1      -6.780  -3.306   4.143  1.00  0.00     0.010 A 
ATOM     39  C   UNL     1      -6.838  -1.969   4.574  1.00  0.00    -0.014 A 
BRANCH  39  40
ATOM     40  C   UNL     1      -7.998  -1.127   4.201  1.00  0.00     0.031 A 
ATOM     41  C   UNL     1      -9.302  -1.364   4.911  1.00  0.00     0.074 A 
ATOM     42  C   UNL     1      -7.898  -0.173   3.260  1.00  0.00     0.049 A 
ATOM     43  N   UNL     1     -10.464  -0.796   4.725  1.00  0.00    -0.248 NA
ATOM     44  C   UNL     1      -9.291  -2.388   5.970  1.00  0.00     0.031 C 
ATOM     45  C   UNL     1      -6.679   0.178   2.535  1.00  0.00     0.029 A 
ATOM     46  N   UNL     1      -8.854   0.668   2.747  1.00  0.00    -0.354 N 
ATOM     47  C   UNL     1     -11.327  -1.407   5.628  1.00  0.00     0.074 A 
ATOM     48  C   UNL     1     -10.561  -2.405   6.341  1.00  0.00     0.031 C 
ATOM     49  C   UNL     1      -6.965   1.153   1.654  1.00  0.00     0.029 A 
ATOM     50  C   UNL     1      -8.392   1.465   1.728  1.00  0.00     0.049 A 
ATOM     51  H   UNL     1      -9.781   0.697   3.076  1.00  0.00     0.167 HD
ATOM     52  C   UNL     1     -12.641  -1.160   5.841  1.00  0.00     0.031 A 
ATOM     53  C   UNL     1      -9.052   2.326   0.927  1.00  0.00     0.031 A 
ATOM     54  C   UNL     1     -13.400  -0.181   5.109  1.00  0.00     0.049 A 
ATOM     55  C   UNL     1     -10.529   2.541   1.134  1.00  0.00     0.074 A 
ATOM     56  C   UNL     1     -14.729   0.168   5.266  1.00  0.00     0.029 A 
ATOM     57  N   UNL     1     -12.904   0.589   4.067  1.00  0.00    -0.354 N 
ATOM     58  N   UNL     1     -11.327   1.989   2.018  1.00  0.00    -0.248 NA
ATOM     59  C   UNL     1     -11.192   3.502   0.242  1.00  0.00     0.031 C 
ATOM     60  C   UNL     1     -15.056   1.094   4.269  1.00  0.00     0.029 A 
ATOM     61  C   UNL     1     -13.910   1.383   3.543  1.00  0.00     0.049 A 
ATOM     62  H   UNL     1     -11.973   0.573   3.747  1.00  0.00     0.167 HD
ATOM     63  C   UNL     1     -12.582   2.553   1.803  1.00  0.00     0.074 A 
ATOM     64  C   UNL     1     -12.431   3.499   0.716  1.00  0.00     0.031 C 
ATOM     65  C   UNL     1     -13.750   2.312   2.450  1.00  0.00     0.031 A 
BRANCH  52  66
ATOM     66  C   UNL     1     -13.347  -2.012   6.864  1.00  0.00    -0.014 A 
ATOM     67  C   UNL     1     -13.050  -1.921   8.236  1.00  0.00     0.010 A 
ATOM     68  C   UNL     1     -14.330  -2.925   6.438  1.00  0.00     0.010 A 
ATOM     69  C   UNL     1     -13.678  -2.768   9.154  1.00  0.00     0.020 A 
ATOM     70  C   UNL     1     -14.986  -3.748   7.357  1.00  0.00     0.020 A 
ATOM     71  C   UNL     1     -14.639  -3.680   8.707  1.00  0.00     0.054 A 
BRANCH  71  72
ATOM     72  S   UNL     1     -15.434  -4.771   9.918  1.00  0.00     0.124 S 
ATOM     73  O   UNL     1     -14.347  -5.685  10.260  1.00  0.00    -0.237 OA
ATOM     74  O   UNL     1     -15.828  -3.842  10.974  1.00  0.00    -0.237 OA
ATOM     75  O   UNL     1     -16.539  -5.370   9.174  1.00  0.00    -0.744 OA
ENDBRANCH  71  72
ENDBRANCH  52  66
BRANCH  53  76
ATOM     76  C   UNL     1      -8.313   3.027  -0.158  1.00  0.00    -0.014 A 
ATOM     77  C   UNL     1      -8.059   4.407  -0.084  1.00  0.00     0.010 A 
ATOM     78  C   UNL     1      -7.818   2.300  -1.257  1.00  0.00     0.010 A 
ATOM     79  C   UNL     1      -7.316   5.045  -1.083  1.00  0.00     0.020 A 
ATOM     80  C   UNL     1      -7.051   2.927  -2.242  1.00  0.00     0.020 A 
ATOM     81  C   UNL     1      -6.806   4.297  -2.149  1.00  0.00     0.054 A 
BRANCH  81  82
ATOM     82  S   UNL     1      -5.763   5.130  -3.378  1.00  0.00     0.124 S 
ATOM     83  O   UNL     1      -6.728   5.973  -4.077  1.00  0.00    -0.237 OA
ATOM     84  O   UNL     1      -4.796   5.833  -2.539  1.00  0.00    -0.237 OA
ATOM     85  O   UNL     1      -5.212   4.027  -4.162  1.00  0.00    -0.744 OA
ENDBRANCH  81  82
ENDBRANCH  53  76
BRANCH  65  86
ATOM     86  C   UNL     1     -14.962   3.102   2.023  1.00  0.00    -0.014 A 
ATOM     87  C   UNL     1     -15.591   2.871   0.787  1.00  0.00     0.010 A 
ATOM     88  C   UNL     1     -15.519   4.046   2.907  1.00  0.00     0.010 A 
ATOM     89  C   UNL     1     -16.733   3.593   0.429  1.00  0.00     0.020 A 
ATOM     90  C   UNL     1     -16.680   4.745   2.567  1.00  0.00     0.020 A 
ATOM     91  C   UNL     1     -17.272   4.524   1.323  1.00  0.00     0.054 A 
BRANCH  91  92
ATOM     92  S   UNL     1     -18.780   5.415   0.853  1.00  0.00     0.124 S 
ATOM     93  O   UNL     1     -18.289   6.317  -0.186  1.00  0.00    -0.237 OA
ATOM     94  O   UNL     1     -19.655   4.341   0.390  1.00  0.00    -0.237 OA
ATOM     95  O   UNL     1     -19.202   6.064   2.092  1.00  0.00    -0.744 OA
ENDBRANCH  91  92
ENDBRANCH  65  86
ENDBRANCH  39  40
ENDBRANCH  32  34
ENDBRANCH  31  32
ENDBRANCH  30  31
ENDBRANCH  29  30
ENDBRANCH  28  29
ENDBRANCH  27  28
ENDBRANCH   1  27
TORSDOF 25
