REMARK SMILES CN(c1ccccc1C(=O)OCCOCCOCCOCCOC(=O)c1ccc(-c2c3nc(c(-c4ccc(S(=O)(=O)[O-])cc4)c4ccc([nH]4)c(-c4ccc(S(=O)(=O)[O-])cc4)c4nc(c(-c5ccc(S(=O)(=O)[O-])cc5)c5ccc2[nH]5)C=C4)C=C3)cc1)S(=O)(=O)c1ccc(I)cc1
REMARK SMILES IDX 17 1 16 2 15 3 14 4 13 5 12 6 11 7 9 8 10 9 8 10 3 11 4 12
REMARK SMILES IDX 5 13 7 14 6 15 2 16 1 17 86 18 87 19 88 20 89 21 90 22 95 23
REMARK SMILES IDX 91 24 94 25 92 26 93 27 18 28 19 29 20 30 21 31 22 32 23 33
REMARK SMILES IDX 24 34 25 35 26 36 27 37 85 38 28 39 84 40 29 41 30 42 31 43
REMARK SMILES IDX 78 44 32 45 83 46 77 47 79 48 33 49 82 50 76 51 75 52 34 54
REMARK SMILES IDX 64 55 45 56 63 57 46 58 49 59 62 60 80 61 47 62 48 63 61 65
REMARK SMILES IDX 81 66 50 67 35 68 36 69 44 70 37 71 43 72 38 73 39 74 40 75
REMARK SMILES IDX 41 76 42 77 65 78 66 79 74 80 67 81 73 82 68 83 69 84 70 85
REMARK SMILES IDX 71 86 72 87 51 88 52 89 60 90 53 91 59 92 54 93 55 94 56 95
REMARK SMILES IDX 57 96 58 97
REMARK H PARENT 79 53 49 64
REMARK Flexibility Score: inf
ROOT
ATOM      1  O   UNL     1      -2.166  -0.131   1.238  1.00  0.00    -0.377 OA
ENDROOT
BRANCH   1   2
ATOM      2  C   UNL     1      -3.106   0.277   0.273  1.00  0.00     0.188 C 
BRANCH   2   3
ATOM      3  C   UNL     1      -3.556  -0.820  -0.710  1.00  0.00     0.188 C 
BRANCH   3   4
ATOM      4  O   UNL     1      -3.506  -2.177  -0.317  1.00  0.00    -0.376 OA
BRANCH   4   5
ATOM      5  C   UNL     1      -2.283  -2.873  -0.123  1.00  0.00     0.202 C 
BRANCH   5   6
ATOM      6  C   UNL     1      -0.889  -2.397  -0.570  1.00  0.00     0.261 C 
BRANCH   6   7
ATOM      7  O   UNL     1      -0.715  -0.992  -0.745  1.00  0.00    -0.460 OA
BRANCH   7   8
ATOM      8  C   UNL     1      -0.537  -0.570  -2.008  1.00  0.00     0.340 C 
ATOM      9  O   UNL     1      -0.513  -1.272  -3.009  1.00  0.00    -0.246 OA
BRANCH   8  10
ATOM     10  C   UNL     1      -0.604   0.904  -2.093  1.00  0.00     0.084 A 
ATOM     11  C   UNL     1       0.213   1.842  -1.434  1.00  0.00     0.066 A 
ATOM     12  C   UNL     1       0.132   3.167  -1.905  1.00  0.00     0.028 A 
ATOM     13  C   UNL     1      -0.832   3.595  -2.825  1.00  0.00     0.002 A 
ATOM     14  C   UNL     1      -1.570   1.340  -3.037  1.00  0.00     0.018 A 
ATOM     15  C   UNL     1      -1.714   2.681  -3.368  1.00  0.00     0.001 A 
BRANCH  11  16
ATOM     16  N   UNL     1       1.196   1.625  -0.383  1.00  0.00    -0.269 N 
ATOM     17  C   UNL     1       1.859   0.306  -0.243  1.00  0.00     0.164 C 
BRANCH  16  18
ATOM     18  S   UNL     1       1.019   2.372   1.176  1.00  0.00     0.264 S 
ATOM     19  O   UNL     1       0.133   1.570   1.992  1.00  0.00    -0.201 OA
ATOM     20  O   UNL     1       2.365   2.650   1.643  1.00  0.00    -0.201 OA
BRANCH  18  21
ATOM     21  C   UNL     1       0.222   3.957   0.985  1.00  0.00     0.088 A 
ATOM     22  C   UNL     1       0.984   5.133   0.976  1.00  0.00     0.023 A 
ATOM     23  C   UNL     1      -1.176   4.021   0.936  1.00  0.00     0.023 A 
ATOM     24  C   UNL     1       0.346   6.370   0.848  1.00  0.00     0.016 A 
ATOM     25  C   UNL     1      -1.809   5.258   0.795  1.00  0.00     0.016 A 
ATOM     26  C   UNL     1      -1.045   6.426   0.744  1.00  0.00     0.013 A 
ATOM     27  I   UNL     1      -1.990   8.266   0.520  1.00  0.00    -0.044 I 
ENDBRANCH  18  21
ENDBRANCH  16  18
ENDBRANCH  11  16
ENDBRANCH   8  10
ENDBRANCH   7   8
ENDBRANCH   6   7
ENDBRANCH   5   6
ENDBRANCH   4   5
ENDBRANCH   3   4
ENDBRANCH   2   3
ENDBRANCH   1   2
BRANCH   1  28
ATOM     28  C   UNL     1      -2.597  -0.790   2.420  1.00  0.00     0.188 C 
BRANCH  28  29
ATOM     29  C   UNL     1      -4.020  -1.378   2.532  1.00  0.00     0.188 C 
BRANCH  29  30
ATOM     30  O   UNL     1      -5.027  -0.638   1.859  1.00  0.00    -0.376 OA
BRANCH  30  31
ATOM     31  C   UNL     1      -5.867   0.209   2.623  1.00  0.00     0.202 C 
BRANCH  31  32
ATOM     32  C   UNL     1      -5.209   1.392   3.349  1.00  0.00     0.261 C 
BRANCH  32  33
ATOM     33  O   UNL     1      -4.157   1.067   4.267  1.00  0.00    -0.460 OA
BRANCH  33  34
ATOM     34  C   UNL     1      -4.478   0.286   5.324  1.00  0.00     0.338 C 
ATOM     35  O   UNL     1      -5.571  -0.157   5.601  1.00  0.00    -0.246 OA
BRANCH  34  36
ATOM     36  C   UNL     1      -3.215  -0.093   5.995  1.00  0.00     0.060 A 
ATOM     37  C   UNL     1      -2.873  -1.448   6.086  1.00  0.00     0.016 A 
ATOM     38  C   UNL     1      -2.378   0.888   6.532  1.00  0.00     0.016 A 
ATOM     39  C   UNL     1      -1.710  -1.829   6.755  1.00  0.00     0.010 A 
ATOM     40  C   UNL     1      -1.224   0.504   7.218  1.00  0.00     0.010 A 
ATOM     41  C   UNL     1      -0.904  -0.858   7.364  1.00  0.00    -0.014 A 
BRANCH  41  42
ATOM     42  C   UNL     1       0.158  -1.270   8.314  1.00  0.00     0.031 A 
ATOM     43  C   UNL     1      -0.145  -1.223   9.788  1.00  0.00     0.074 A 
ATOM     44  C   UNL     1       1.358  -1.697   7.882  1.00  0.00     0.049 A 
ATOM     45  N   UNL     1       0.630  -1.498  10.805  1.00  0.00    -0.248 NA
ATOM     46  C   UNL     1      -1.506  -0.805  10.164  1.00  0.00     0.031 C 
ATOM     47  C   UNL     1       1.756  -1.830   6.482  1.00  0.00     0.029 A 
ATOM     48  N   UNL     1       2.467  -2.093   8.588  1.00  0.00    -0.354 N 
ATOM     49  C   UNL     1      -0.144  -1.277  11.939  1.00  0.00     0.074 A 
ATOM     50  C   UNL     1      -1.437  -0.814  11.486  1.00  0.00     0.031 C 
ATOM     51  C   UNL     1       3.025  -2.273   6.431  1.00  0.00     0.029 A 
ATOM     52  C   UNL     1       3.540  -2.417   7.793  1.00  0.00     0.049 A 
ATOM     53  H   UNL     1       2.491  -2.140   9.571  1.00  0.00     0.167 HD
ATOM     54  C   UNL     1       0.191  -1.447  13.240  1.00  0.00     0.031 A 
ATOM     55  C   UNL     1       4.799  -2.767   8.126  1.00  0.00     0.031 A 
ATOM     56  C   UNL     1       1.486  -1.887  13.685  1.00  0.00     0.049 A 
ATOM     57  C   UNL     1       5.174  -2.871   9.583  1.00  0.00     0.074 A 
ATOM     58  C   UNL     1       1.923  -2.103  14.980  1.00  0.00     0.029 A 
ATOM     59  N   UNL     1       2.558  -2.166  12.850  1.00  0.00    -0.354 N 
ATOM     60  N   UNL     1       4.425  -2.684  10.645  1.00  0.00    -0.248 NA
ATOM     61  C   UNL     1       6.564  -3.242   9.886  1.00  0.00     0.031 C 
ATOM     62  C   UNL     1       3.277  -2.446  14.932  1.00  0.00     0.029 A 
ATOM     63  C   UNL     1       3.665  -2.522  13.603  1.00  0.00     0.049 A 
ATOM     64  H   UNL     1       2.535  -2.119  11.867  1.00  0.00     0.167 HD
ATOM     65  C   UNL     1       5.245  -2.946  11.739  1.00  0.00     0.074 A 
ATOM     66  C   UNL     1       6.540  -3.320  11.209  1.00  0.00     0.031 C 
ATOM     67  C   UNL     1       4.951  -2.888  13.063  1.00  0.00     0.031 A 
BRANCH  54  68
ATOM     68  C   UNL     1      -0.852  -1.112  14.275  1.00  0.00    -0.014 A 
ATOM     69  C   UNL     1      -2.011  -1.895  14.431  1.00  0.00     0.010 A 
ATOM     70  C   UNL     1      -0.656  -0.009  15.126  1.00  0.00     0.010 A 
ATOM     71  C   UNL     1      -2.972  -1.556  15.387  1.00  0.00     0.020 A 
ATOM     72  C   UNL     1      -1.598   0.315  16.106  1.00  0.00     0.020 A 
ATOM     73  C   UNL     1      -2.760  -0.452  16.218  1.00  0.00     0.054 A 
BRANCH  73  74
ATOM     74  S   UNL     1      -4.015  -0.047  17.464  1.00  0.00     0.124 S 
ATOM     75  O   UNL     1      -5.114   0.444  16.636  1.00  0.00    -0.237 OA
ATOM     76  O   UNL     1      -4.245  -1.334  18.114  1.00  0.00    -0.237 OA
ATOM     77  O   UNL     1      -3.366   0.962  18.297  1.00  0.00    -0.744 OA
ENDBRANCH  73  74
ENDBRANCH  54  68
BRANCH  55  78
ATOM     78  C   UNL     1       5.805  -3.033   7.059  1.00  0.00    -0.014 A 
ATOM     79  C   UNL     1       6.315  -4.328   6.858  1.00  0.00     0.010 A 
ATOM     80  C   UNL     1       6.260  -1.987   6.235  1.00  0.00     0.010 A 
ATOM     81  C   UNL     1       7.268  -4.569   5.863  1.00  0.00     0.020 A 
ATOM     82  C   UNL     1       7.189  -2.230   5.218  1.00  0.00     0.020 A 
ATOM     83  C   UNL     1       7.694  -3.519   5.045  1.00  0.00     0.054 A 
BRANCH  83  84
ATOM     84  S   UNL     1       8.884  -3.871   3.721  1.00  0.00     0.124 S 
ATOM     85  O   UNL     1      10.108  -4.133   4.473  1.00  0.00    -0.237 OA
ATOM     86  O   UNL     1       8.286  -5.029   3.062  1.00  0.00    -0.237 OA
ATOM     87  O   UNL     1       8.887  -2.645   2.927  1.00  0.00    -0.744 OA
ENDBRANCH  83  84
ENDBRANCH  55  78
BRANCH  67  88
ATOM     88  C   UNL     1       6.035  -3.277  14.037  1.00  0.00    -0.014 A 
ATOM     89  C   UNL     1       7.171  -2.471  14.236  1.00  0.00     0.010 A 
ATOM     90  C   UNL     1       5.886  -4.446  14.806  1.00  0.00     0.010 A 
ATOM     91  C   UNL     1       8.155  -2.850  15.155  1.00  0.00     0.020 A 
ATOM     92  C   UNL     1       6.849  -4.810  15.751  1.00  0.00     0.020 A 
ATOM     93  C   UNL     1       7.987  -4.017  15.907  1.00  0.00     0.054 A 
BRANCH  93  94
ATOM     94  S   UNL     1       9.261  -4.466  17.117  1.00  0.00     0.124 S 
ATOM     95  O   UNL     1      10.365  -4.883  16.256  1.00  0.00    -0.237 OA
ATOM     96  O   UNL     1       9.468  -3.216  17.843  1.00  0.00    -0.237 OA
ATOM     97  O   UNL     1       8.641  -5.537  17.894  1.00  0.00    -0.744 OA
ENDBRANCH  93  94
ENDBRANCH  67  88
ENDBRANCH  41  42
ENDBRANCH  34  36
ENDBRANCH  33  34
ENDBRANCH  32  33
ENDBRANCH  31  32
ENDBRANCH  30  31
ENDBRANCH  29  30
ENDBRANCH  28  29
ENDBRANCH   1  28
TORSDOF 26
