REMARK SMILES O=C(OCCOCCOCCOCCOC(=O)[C@H]1Cc2c([nH]c3ccccc23)[C@H](c2c[nH]c3ccccc23)[NH2+]1)c1ccc(-c2c3nc(c(-c4ccc(S(=O)(=O)[O-])cc4)c4ccc([nH]4)c(-c4ccc(S(=O)(=O)[O-])cc4)c4nc(c(-c5ccc(S(=O)(=O)[O-])cc5)c5ccc2[nH]5)C=C4)C=C3)cc1
REMARK SMILES IDX 8 1 7 2 6 3 5 4 4 5 3 6 2 7 1 8 40 9 41 10 99 11 42 12 98 13
REMARK SMILES IDX 43 14 44 15 45 16 92 17 46 18 97 19 91 20 93 21 47 22 96 23
REMARK SMILES IDX 90 24 89 25 48 27 78 28 59 29 77 30 60 31 63 32 76 33 94 34
REMARK SMILES IDX 61 35 62 36 75 38 95 39 64 40 49 41 50 42 58 43 51 44 57 45
REMARK SMILES IDX 52 46 53 47 54 48 55 49 56 50 79 51 80 52 88 53 81 54 87 55
REMARK SMILES IDX 82 56 83 57 84 58 85 59 86 60 65 61 66 62 74 63 67 64 73 65
REMARK SMILES IDX 68 66 69 67 70 68 71 69 72 70 9 71 10 72 11 73 12 74 13 75
REMARK SMILES IDX 14 76 15 77 16 78 17 79 18 80 19 81 39 82 20 83 29 84 21 87
REMARK SMILES IDX 28 88 22 89 23 90 27 91 24 93 26 94 25 95 30 96 31 97 38 98
REMARK SMILES IDX 32 99 33 100 37 101 34 103 36 104 35 105
REMARK H PARENT 93 26 63 37 39 85 39 86 22 92 32 102
REMARK Flexibility Score: inf
ROOT
ATOM      1  C   UNL     1       2.300  -1.359   2.465  1.00  0.00     0.188 C 
ENDROOT
BRANCH   1   2
ATOM      2  C   UNL     1       2.563  -0.279   1.419  1.00  0.00     0.188 C 
BRANCH   2   3
ATOM      3  O   UNL     1       3.839  -0.481   0.846  1.00  0.00    -0.376 OA
BRANCH   3   4
ATOM      4  C   UNL     1       4.685   0.613   0.539  1.00  0.00     0.202 C 
BRANCH   4   5
ATOM      5  C   UNL     1       4.082   1.760  -0.250  1.00  0.00     0.261 C 
BRANCH   5   6
ATOM      6  O   UNL     1       2.721   1.594  -0.688  1.00  0.00    -0.460 OA
BRANCH   6   7
ATOM      7  C   UNL     1       2.161   0.860  -1.673  1.00  0.00     0.338 C 
ATOM      8  O   UNL     1       0.966   1.021  -1.916  1.00  0.00    -0.246 OA
BRANCH   7   9
ATOM      9  C   UNL     1       2.901  -0.131  -2.495  1.00  0.00     0.060 A 
ATOM     10  C   UNL     1       3.852  -1.007  -1.991  1.00  0.00     0.016 A 
ATOM     11  C   UNL     1       2.491  -0.321  -3.820  1.00  0.00     0.016 A 
ATOM     12  C   UNL     1       4.501  -1.937  -2.765  1.00  0.00     0.010 A 
ATOM     13  C   UNL     1       3.058  -1.336  -4.597  1.00  0.00     0.010 A 
ATOM     14  C   UNL     1       4.081  -2.130  -4.064  1.00  0.00    -0.014 A 
BRANCH  14  15
ATOM     15  C   UNL     1       4.837  -3.105  -4.849  1.00  0.00     0.031 A 
ATOM     16  C   UNL     1       5.772  -2.563  -5.875  1.00  0.00     0.074 A 
ATOM     17  C   UNL     1       4.792  -4.408  -4.514  1.00  0.00     0.049 A 
ATOM     18  N   UNL     1       6.440  -3.200  -6.789  1.00  0.00    -0.248 NA
ATOM     19  C   UNL     1       5.994  -1.103  -5.863  1.00  0.00     0.031 C 
ATOM     20  C   UNL     1       4.057  -4.970  -3.371  1.00  0.00     0.029 A 
ATOM     21  N   UNL     1       5.394  -5.495  -5.082  1.00  0.00    -0.354 N 
ATOM     22  C   UNL     1       7.098  -2.216  -7.510  1.00  0.00     0.074 A 
ATOM     23  C   UNL     1       6.790  -0.942  -6.907  1.00  0.00     0.031 C 
ATOM     24  C   UNL     1       4.249  -6.298  -3.333  1.00  0.00     0.029 A 
ATOM     25  C   UNL     1       5.025  -6.686  -4.501  1.00  0.00     0.049 A 
ATOM     26  H   UNL     1       6.028  -5.432  -5.832  1.00  0.00     0.167 HD
ATOM     27  C   UNL     1       7.858  -2.387  -8.611  1.00  0.00     0.031 A 
ATOM     28  C   UNL     1       5.228  -7.945  -4.931  1.00  0.00     0.031 A 
ATOM     29  C   UNL     1       8.122  -3.684  -9.161  1.00  0.00     0.049 A 
ATOM     30  C   UNL     1       5.971  -8.100  -6.232  1.00  0.00     0.074 A 
ATOM     31  C   UNL     1       8.828  -4.013 -10.300  1.00  0.00     0.029 A 
ATOM     32  N   UNL     1       7.672  -4.873  -8.599  1.00  0.00    -0.354 N 
ATOM     33  N   UNL     1       6.543  -7.170  -6.965  1.00  0.00    -0.248 NA
ATOM     34  C   UNL     1       6.071  -9.454  -6.784  1.00  0.00     0.031 C 
ATOM     35  C   UNL     1       8.743  -5.398 -10.464  1.00  0.00     0.029 A 
ATOM     36  C   UNL     1       8.045  -5.938  -9.391  1.00  0.00     0.049 A 
ATOM     37  H   UNL     1       7.162  -4.945  -7.760  1.00  0.00     0.167 HD
ATOM     38  C   UNL     1       7.076  -7.828  -8.064  1.00  0.00     0.074 A 
ATOM     39  C   UNL     1       6.786  -9.238  -7.880  1.00  0.00     0.031 C 
ATOM     40  C   UNL     1       7.733  -7.324  -9.138  1.00  0.00     0.031 A 
BRANCH  27  41
ATOM     41  C   UNL     1       8.319  -1.157  -9.333  1.00  0.00    -0.014 A 
ATOM     42  C   UNL     1       9.345  -0.337  -8.835  1.00  0.00     0.010 A 
ATOM     43  C   UNL     1       7.696  -0.818 -10.548  1.00  0.00     0.010 A 
ATOM     44  C   UNL     1       9.734   0.807  -9.538  1.00  0.00     0.020 A 
ATOM     45  C   UNL     1       8.096   0.310 -11.265  1.00  0.00     0.020 A 
ATOM     46  C   UNL     1       9.111   1.119 -10.752  1.00  0.00     0.054 A 
BRANCH  46  47
ATOM     47  S   UNL     1       9.680   2.572 -11.675  1.00  0.00     0.124 S 
ATOM     48  O   UNL     1       9.190   3.670 -10.845  1.00  0.00    -0.237 OA
ATOM     49  O   UNL     1      11.129   2.393 -11.688  1.00  0.00    -0.237 OA
ATOM     50  O   UNL     1       9.026   2.436 -12.975  1.00  0.00    -0.744 OA
ENDBRANCH  46  47
ENDBRANCH  27  41
BRANCH  28  51
ATOM     51  C   UNL     1       4.610  -9.108  -4.231  1.00  0.00    -0.014 A 
ATOM     52  C   UNL     1       5.398 -10.142  -3.698  1.00  0.00     0.010 A 
ATOM     53  C   UNL     1       3.207  -9.208  -4.130  1.00  0.00     0.010 A 
ATOM     54  C   UNL     1       4.797 -11.266  -3.118  1.00  0.00     0.020 A 
ATOM     55  C   UNL     1       2.604 -10.311  -3.521  1.00  0.00     0.020 A 
ATOM     56  C   UNL     1       3.403 -11.346  -3.039  1.00  0.00     0.054 A 
BRANCH  56  57
ATOM     57  S   UNL     1       2.646 -12.818  -2.296  1.00  0.00     0.124 S 
ATOM     58  O   UNL     1       2.885 -13.831  -3.320  1.00  0.00    -0.237 OA
ATOM     59  O   UNL     1       3.407 -12.975  -1.060  1.00  0.00    -0.237 OA
ATOM     60  O   UNL     1       1.248 -12.430  -2.115  1.00  0.00    -0.744 OA
ENDBRANCH  56  57
ENDBRANCH  28  51
BRANCH  40  61
ATOM     61  C   UNL     1       8.197  -8.306 -10.170  1.00  0.00    -0.014 A 
ATOM     62  C   UNL     1       7.286  -8.890 -11.066  1.00  0.00     0.010 A 
ATOM     63  C   UNL     1       9.574  -8.553 -10.312  1.00  0.00     0.010 A 
ATOM     64  C   UNL     1       7.748  -9.713 -12.090  1.00  0.00     0.020 A 
ATOM     65  C   UNL     1      10.041  -9.348 -11.355  1.00  0.00     0.020 A 
ATOM     66  C   UNL     1       9.123  -9.928 -12.235  1.00  0.00     0.054 A 
BRANCH  66  67
ATOM     67  S   UNL     1       9.703 -10.922 -13.633  1.00  0.00     0.124 S 
ATOM     68  O   UNL     1       9.304 -12.268 -13.233  1.00  0.00    -0.237 OA
ATOM     69  O   UNL     1       8.962 -10.353 -14.756  1.00  0.00    -0.237 OA
ATOM     70  O   UNL     1      11.143 -10.679 -13.658  1.00  0.00    -0.744 OA
ENDBRANCH  66  67
ENDBRANCH  40  61
ENDBRANCH  14  15
ENDBRANCH   7   9
ENDBRANCH   6   7
ENDBRANCH   5   6
ENDBRANCH   4   5
ENDBRANCH   3   4
ENDBRANCH   2   3
ENDBRANCH   1   2
BRANCH   1  71
ATOM     71  O   UNL     1       3.322  -1.490   3.461  1.00  0.00    -0.377 OA
BRANCH  71  72
ATOM     72  C   UNL     1       4.666  -1.685   3.005  1.00  0.00     0.188 C 
BRANCH  72  73
ATOM     73  C   UNL     1       5.012  -2.915   2.157  1.00  0.00     0.188 C 
BRANCH  73  74
ATOM     74  O   UNL     1       3.907  -3.519   1.502  1.00  0.00    -0.376 OA
BRANCH  74  75
ATOM     75  C   UNL     1       3.625  -4.846   1.950  1.00  0.00     0.202 C 
BRANCH  75  76
ATOM     76  C   UNL     1       2.916  -4.950   3.312  1.00  0.00     0.261 C 
BRANCH  76  77
ATOM     77  O   UNL     1       3.431  -4.088   4.344  1.00  0.00    -0.459 OA
BRANCH  77  78
ATOM     78  C   UNL     1       4.458  -4.530   5.120  1.00  0.00     0.365 C 
ATOM     79  O   UNL     1       4.992  -5.618   4.986  1.00  0.00    -0.245 OA
BRANCH  78  80
ATOM     80  C   UNL     1       4.891  -3.480   6.173  1.00  0.00     0.298 C 
ATOM     81  C   UNL     1       6.421  -3.384   6.155  1.00  0.00     0.115 C 
ATOM     82  N   UNL     1       4.178  -2.202   6.019  1.00  0.00    -0.323 N 
ATOM     83  C   UNL     1       6.847  -2.234   6.988  1.00  0.00    -0.006 A 
ATOM     84  C   UNL     1       4.722  -0.913   6.437  1.00  0.00     0.264 C 
ATOM     85  H   UNL     1       3.300  -2.311   6.526  1.00  0.00     0.347 HD
ATOM     86  H   UNL     1       4.182  -2.097   5.004  1.00  0.00     0.347 HD
ATOM     87  C   UNL     1       6.054  -1.107   7.110  1.00  0.00     0.083 A 
ATOM     88  C   UNL     1       7.987  -2.077   7.808  1.00  0.00     0.003 A 
ATOM     89  N   UNL     1       6.772  -0.201   7.848  1.00  0.00    -0.353 N 
ATOM     90  C   UNL     1       7.919  -0.792   8.346  1.00  0.00     0.046 A 
ATOM     91  C   UNL     1       9.060  -2.917   8.157  1.00  0.00     0.010 A 
ATOM     92  H   UNL     1       6.508   0.735   8.002  1.00  0.00     0.166 HD
ATOM     93  C   UNL     1       8.894  -0.304   9.226  1.00  0.00     0.026 A 
ATOM     94  C   UNL     1      10.018  -2.458   9.063  1.00  0.00     0.001 A 
ATOM     95  C   UNL     1       9.934  -1.170   9.588  1.00  0.00     0.002 A 
BRANCH  84  96
ATOM     96  C   UNL     1       3.615  -0.206   7.210  1.00  0.00     0.041 A 
ATOM     97  C   UNL     1       3.711   0.958   7.960  1.00  0.00     0.093 A 
ATOM     98  C   UNL     1       2.193  -0.540   7.209  1.00  0.00     0.009 A 
ATOM     99  N   UNL     1       2.483   1.246   8.497  1.00  0.00    -0.361 N 
ATOM    100  C   UNL     1       1.541   0.350   8.060  1.00  0.00     0.046 A 
ATOM    101  C   UNL     1       1.388  -1.518   6.570  1.00  0.00     0.011 A 
ATOM    102  H   UNL     1       2.303   1.993   9.113  1.00  0.00     0.166 HD
ATOM    103  C   UNL     1       0.169   0.270   8.342  1.00  0.00     0.026 A 
ATOM    104  C   UNL     1       0.020  -1.611   6.826  1.00  0.00     0.001 A 
ATOM    105  C   UNL     1      -0.578  -0.733   7.715  1.00  0.00     0.002 A 
ENDBRANCH  84  96
ENDBRANCH  78  80
ENDBRANCH  77  78
ENDBRANCH  76  77
ENDBRANCH  75  76
ENDBRANCH  74  75
ENDBRANCH  73  74
ENDBRANCH  72  73
ENDBRANCH  71  72
ENDBRANCH   1  71
TORSDOF 24
