REMARK SMILES CCc1nc2sc(C(=O)NCC(=O)OCCOCCOCCOCCOC(=O)c3ccc(-c4c5nc(c(-c6ccc(S(=O)(=O)[O-])cc6)c6ccc([nH]6)c(-c6ccc(S(=O)(=O)[O-])cc6)c6nc(c(-c7ccc(S(=O)(=O)[O-])cc7)c7ccc4[nH]7)C=C6)C=C5)cc3)c(N)c2c(C(F)(F)F)c1C
REMARK SMILES IDX 20 1 19 2 18 3 17 4 16 5 15 6 14 7 12 8 13 9 11 10 10 11
REMARK SMILES IDX 8 12 9 13 7 15 3 16 4 17 97 18 5 19 92 20 98 21 6 22 91 23
REMARK SMILES IDX 89 24 2 25 1 26 93 27 94 28 95 29 96 30 90 31 21 34 22 35
REMARK SMILES IDX 23 36 24 37 25 38 26 39 27 40 28 41 29 42 30 43 88 44 31 45
REMARK SMILES IDX 87 46 32 47 33 48 34 49 81 50 35 51 86 52 80 53 82 54 36 55
REMARK SMILES IDX 85 56 79 57 78 58 37 60 67 61 48 62 66 63 49 64 52 65 65 66
REMARK SMILES IDX 83 67 50 68 51 69 64 71 84 72 53 73 38 74 39 75 47 76 40 77
REMARK SMILES IDX 46 78 41 79 42 80 43 81 44 82 45 83 68 84 69 85 77 86 70 87
REMARK SMILES IDX 76 88 71 89 72 90 73 91 74 92 75 93 54 94 55 95 63 96 56 97
REMARK SMILES IDX 62 98 57 99 58 100 59 101 60 102 61 103
REMARK H PARENT 10 14 90 32 90 33 82 59 52 70
REMARK Flexibility Score: inf
ROOT
ATOM      1  O   UNL     1       0.533  -4.138  10.850  1.00  0.00    -0.377 OA
ENDROOT
BRANCH   1   2
ATOM      2  C   UNL     1       1.935  -4.107  10.980  1.00  0.00     0.188 C 
BRANCH   2   3
ATOM      3  C   UNL     1       2.549  -2.743  11.376  1.00  0.00     0.188 C 
BRANCH   3   4
ATOM      4  O   UNL     1       1.738  -1.604  11.642  1.00  0.00    -0.376 OA
BRANCH   4   5
ATOM      5  C   UNL     1       0.490  -1.424  10.991  1.00  0.00     0.202 C 
BRANCH   5   6
ATOM      6  C   UNL     1       0.423  -1.414   9.453  1.00  0.00     0.261 C 
BRANCH   6   7
ATOM      7  O   UNL     1       1.120  -2.481   8.780  1.00  0.00    -0.462 OA
BRANCH   7   8
ATOM      8  C   UNL     1       2.412  -2.228   8.442  1.00  0.00     0.325 C 
ATOM      9  O   UNL     1       2.952  -1.131   8.585  1.00  0.00    -0.250 OA
BRANCH   8  10
ATOM     10  C   UNL     1       3.197  -3.484   7.976  1.00  0.00     0.239 C 
BRANCH  10  11
ATOM     11  N   UNL     1       2.460  -4.654   7.525  1.00  0.00    -0.340 N 
ATOM     12  C   UNL     1       1.951  -4.982   6.292  1.00  0.00     0.264 C 
ATOM     13  O   UNL     1       1.588  -6.160   6.197  1.00  0.00    -0.268 OA
ATOM     14  H   UNL     1       2.298  -5.327   8.225  1.00  0.00     0.164 HD
BRANCH  12  15
ATOM     15  C   UNL     1       1.829  -4.019   5.201  1.00  0.00     0.118 A 
ATOM     16  C   UNL     1       0.844  -1.565   1.280  1.00  0.00     0.045 A 
ATOM     17  N   UNL     1       0.755  -2.837   1.749  1.00  0.00    -0.242 NA
ATOM     18  C   UNL     1       1.335  -0.488   2.047  1.00  0.00    -0.017 A 
ATOM     19  C   UNL     1       1.189  -3.049   2.996  1.00  0.00     0.127 A 
ATOM     20  C   UNL     1       1.747  -0.742   3.382  1.00  0.00     0.073 A 
ATOM     21  C   UNL     1       1.456   0.938   1.593  1.00  0.00     0.047 C 
ATOM     22  S   UNL     1       1.139  -4.590   3.712  1.00  0.00    -0.108 S 
ATOM     23  C   UNL     1       1.699  -2.087   3.831  1.00  0.00     0.048 A 
ATOM     24  C   UNL     1       2.123  -2.680   5.050  1.00  0.00     0.066 A 
BRANCH  16  25
ATOM     25  C   UNL     1       0.279  -1.524  -0.121  1.00  0.00     0.053 C 
ATOM     26  C   UNL     1       0.525  -0.363  -1.059  1.00  0.00     0.011 C 
ENDBRANCH  16  25
BRANCH  20  27
ATOM     27  C   UNL     1       2.233   0.338   4.338  1.00  0.00     0.417 C 
ATOM     28  F   UNL     1       1.560   0.318   5.531  1.00  0.00    -0.166 F 
ATOM     29  F   UNL     1       3.555   0.189   4.656  1.00  0.00    -0.166 F 
ATOM     30  F   UNL     1       2.122   1.628   3.923  1.00  0.00    -0.166 F 
ENDBRANCH  20  27
BRANCH  24  31
ATOM     31  N   UNL     1       2.746  -1.887   5.930  1.00  0.00    -0.397 N 
ATOM     32  H   UNL     1       3.058  -2.255   6.789  1.00  0.00     0.156 HD
ATOM     33  H   UNL     1       2.892  -0.936   5.720  1.00  0.00     0.156 HD
ENDBRANCH  24  31
ENDBRANCH  12  15
ENDBRANCH  10  11
ENDBRANCH   8  10
ENDBRANCH   7   8
ENDBRANCH   6   7
ENDBRANCH   5   6
ENDBRANCH   4   5
ENDBRANCH   3   4
ENDBRANCH   2   3
ENDBRANCH   1   2
BRANCH   1  34
ATOM     34  C   UNL     1      -0.178  -4.651  11.967  1.00  0.00     0.188 C 
BRANCH  34  35
ATOM     35  C   UNL     1       0.309  -4.239  13.378  1.00  0.00     0.188 C 
BRANCH  35  36
ATOM     36  O   UNL     1       1.720  -4.155  13.555  1.00  0.00    -0.376 OA
BRANCH  36  37
ATOM     37  C   UNL     1       2.511  -5.194  14.114  1.00  0.00     0.202 C 
BRANCH  37  38
ATOM     38  C   UNL     1       2.613  -6.553  13.411  1.00  0.00     0.261 C 
BRANCH  38  39
ATOM     39  O   UNL     1       1.399  -7.025  12.867  1.00  0.00    -0.460 OA
BRANCH  39  40
ATOM     40  C   UNL     1       0.459  -7.288  13.795  1.00  0.00     0.338 C 
ATOM     41  O   UNL     1       0.481  -6.988  14.970  1.00  0.00    -0.246 OA
BRANCH  40  42
ATOM     42  C   UNL     1      -0.580  -8.105  13.171  1.00  0.00     0.060 A 
ATOM     43  C   UNL     1      -1.706  -8.339  13.955  1.00  0.00     0.016 A 
ATOM     44  C   UNL     1      -0.255  -8.879  12.046  1.00  0.00     0.016 A 
ATOM     45  C   UNL     1      -2.338  -9.543  13.791  1.00  0.00     0.010 A 
ATOM     46  C   UNL     1      -0.890 -10.081  11.885  1.00  0.00     0.010 A 
ATOM     47  C   UNL     1      -1.839 -10.437  12.835  1.00  0.00    -0.014 A 
BRANCH  47  48
ATOM     48  C   UNL     1      -2.393 -11.765  12.827  1.00  0.00     0.031 A 
ATOM     49  C   UNL     1      -3.780 -11.777  12.339  1.00  0.00     0.074 A 
ATOM     50  C   UNL     1      -1.700 -12.849  13.216  1.00  0.00     0.049 A 
ATOM     51  N   UNL     1      -4.841 -11.852  13.065  1.00  0.00    -0.248 NA
ATOM     52  C   UNL     1      -4.024 -11.419  10.934  1.00  0.00     0.031 C 
ATOM     53  C   UNL     1      -0.268 -12.981  13.491  1.00  0.00     0.029 A 
ATOM     54  N   UNL     1      -2.150 -14.121  13.350  1.00  0.00    -0.354 N 
ATOM     55  C   UNL     1      -5.897 -11.813  12.170  1.00  0.00     0.074 A 
ATOM     56  C   UNL     1      -5.354 -11.326  10.927  1.00  0.00     0.031 C 
ATOM     57  C   UNL     1       0.060 -14.295  13.491  1.00  0.00     0.029 A 
ATOM     58  C   UNL     1      -1.154 -15.085  13.355  1.00  0.00     0.049 A 
ATOM     59  H   UNL     1      -3.106 -14.341  13.436  1.00  0.00     0.167 HD
ATOM     60  C   UNL     1      -7.056 -12.469  12.444  1.00  0.00     0.031 A 
ATOM     61  C   UNL     1      -1.332 -16.419  13.161  1.00  0.00     0.031 A 
ATOM     62  C   UNL     1      -7.137 -12.849  13.833  1.00  0.00     0.049 A 
ATOM     63  C   UNL     1      -2.756 -16.713  13.490  1.00  0.00     0.074 A 
ATOM     64  C   UNL     1      -7.104 -12.163  15.031  1.00  0.00     0.029 A 
ATOM     65  N   UNL     1      -6.856 -14.163  14.136  1.00  0.00    -0.354 N 
ATOM     66  N   UNL     1      -3.244 -16.592  14.696  1.00  0.00    -0.248 NA
ATOM     67  C   UNL     1      -3.736 -16.633  12.414  1.00  0.00     0.031 C 
ATOM     68  C   UNL     1      -6.352 -12.994  15.911  1.00  0.00     0.029 A 
ATOM     69  C   UNL     1      -6.032 -14.171  15.231  1.00  0.00     0.049 A 
ATOM     70  H   UNL     1      -7.187 -14.955  13.653  1.00  0.00     0.167 HD
ATOM     71  C   UNL     1      -4.483 -15.988  14.521  1.00  0.00     0.074 A 
ATOM     72  C   UNL     1      -4.766 -16.111  13.090  1.00  0.00     0.031 C 
ATOM     73  C   UNL     1      -5.032 -15.189  15.485  1.00  0.00     0.031 A 
BRANCH  60  74
ATOM     74  C   UNL     1      -7.861 -13.171  11.383  1.00  0.00    -0.014 A 
ATOM     75  C   UNL     1      -9.042 -13.828  11.778  1.00  0.00     0.010 A 
ATOM     76  C   UNL     1      -7.350 -13.474  10.104  1.00  0.00     0.010 A 
ATOM     77  C   UNL     1      -9.616 -14.819  10.978  1.00  0.00     0.020 A 
ATOM     78  C   UNL     1      -7.942 -14.427   9.278  1.00  0.00     0.020 A 
ATOM     79  C   UNL     1      -9.048 -15.124   9.741  1.00  0.00     0.054 A 
BRANCH  79  80
ATOM     80  S   UNL     1      -9.723 -16.495   8.778  1.00  0.00     0.124 S 
ATOM     81  O   UNL     1      -9.424 -17.637   9.637  1.00  0.00    -0.237 OA
ATOM     82  O   UNL     1     -11.132 -16.129   8.673  1.00  0.00    -0.237 OA
ATOM     83  O   UNL     1      -8.971 -16.436   7.527  1.00  0.00    -0.744 OA
ENDBRANCH  79  80
ENDBRANCH  60  74
BRANCH  61  84
ATOM     84  C   UNL     1      -0.472 -17.313  12.332  1.00  0.00    -0.014 A 
ATOM     85  C   UNL     1      -0.685 -18.704  12.278  1.00  0.00     0.010 A 
ATOM     86  C   UNL     1       0.412 -16.761  11.381  1.00  0.00     0.010 A 
ATOM     87  C   UNL     1      -0.076 -19.497  11.283  1.00  0.00     0.020 A 
ATOM     88  C   UNL     1       1.028 -17.541  10.395  1.00  0.00     0.020 A 
ATOM     89  C   UNL     1       0.764 -18.905  10.336  1.00  0.00     0.054 A 
BRANCH  89  90
ATOM     90  S   UNL     1       1.431 -19.898   8.965  1.00  0.00     0.124 S 
ATOM     91  O   UNL     1       2.333 -20.816   9.653  1.00  0.00    -0.237 OA
ATOM     92  O   UNL     1       0.229 -20.500   8.395  1.00  0.00    -0.237 OA
ATOM     93  O   UNL     1       2.089 -18.910   8.111  1.00  0.00    -0.744 OA
ENDBRANCH  89  90
ENDBRANCH  61  84
BRANCH  73  94
ATOM     94  C   UNL     1      -4.430 -15.179  16.871  1.00  0.00    -0.014 A 
ATOM     95  C   UNL     1      -3.116 -14.759  17.158  1.00  0.00     0.010 A 
ATOM     96  C   UNL     1      -5.306 -15.418  17.946  1.00  0.00     0.010 A 
ATOM     97  C   UNL     1      -2.693 -14.595  18.488  1.00  0.00     0.020 A 
ATOM     98  C   UNL     1      -4.898 -15.238  19.268  1.00  0.00     0.020 A 
ATOM     99  C   UNL     1      -3.591 -14.832  19.535  1.00  0.00     0.054 A 
BRANCH  99 100
ATOM    100  S   UNL     1      -3.062 -14.565  21.251  1.00  0.00     0.124 S 
ATOM    101  O   UNL     1      -2.041 -15.593  21.433  1.00  0.00    -0.237 OA
ATOM    102  O   UNL     1      -2.571 -13.189  21.229  1.00  0.00    -0.237 OA
ATOM    103  O   UNL     1      -4.284 -14.764  22.029  1.00  0.00    -0.744 OA
ENDBRANCH  99 100
ENDBRANCH  73  94
ENDBRANCH  47  48
ENDBRANCH  40  42
ENDBRANCH  39  40
ENDBRANCH  38  39
ENDBRANCH  37  38
ENDBRANCH  36  37
ENDBRANCH  35  36
ENDBRANCH  34  35
ENDBRANCH   1  34
TORSDOF 28
