REMARK SMILES COCCCNC(=O)C[N@H+]1CC[C@H](C(=O)OCCOCCOCCOCCOC(=O)c2ccc(-c3c4nc(c(-c5ccc(S(=O)(=O)[O-])cc5)c5ccc([nH]5)c(-c5ccc(S(=O)(=O)[O-])cc5)c5nc(c(-c6ccc(S(=O)(=O)[O-])cc6)c6ccc3[nH]6)C=C5)C=C4)cc2)[C@@H]1C
REMARK SMILES IDX 20 1 19 2 18 3 17 4 16 5 14 6 15 7 13 8 10 9 11 10 91 11
REMARK SMILES IDX 12 13 92 14 9 15 7 16 6 17 8 19 5 20 4 21 3 22 2 23 1 24
REMARK SMILES IDX 21 25 22 26 23 27 24 28 25 29 26 30 27 31 28 32 29 33 30 34
REMARK SMILES IDX 31 35 32 36 90 37 33 38 89 39 34 40 35 41 36 42 83 43 37 44
REMARK SMILES IDX 88 45 82 46 84 47 38 48 87 49 81 50 80 51 39 53 69 54 50 55
REMARK SMILES IDX 68 56 51 57 54 58 67 59 85 60 52 61 53 62 66 64 86 65 55 66
REMARK SMILES IDX 40 67 41 68 49 69 42 70 48 71 43 72 44 73 45 74 46 75 47 76
REMARK SMILES IDX 70 77 71 78 79 79 72 80 78 81 73 82 74 83 75 84 76 85 77 86
REMARK SMILES IDX 56 87 57 88 65 89 58 90 64 91 59 92 60 93 61 94 62 95 63 96
REMARK H PARENT 10 12 6 18 84 52 54 63
REMARK Flexibility Score: inf
ROOT
ATOM      1  C   UNL     1      -2.300  -1.348  -6.575  1.00  0.00     0.188 C 
ENDROOT
BRANCH   1   2
ATOM      2  O   UNL     1      -2.698  -2.700  -6.717  1.00  0.00    -0.376 OA
BRANCH   2   3
ATOM      3  C   UNL     1      -2.569  -3.568  -5.606  1.00  0.00     0.202 C 
BRANCH   3   4
ATOM      4  C   UNL     1      -1.144  -3.893  -5.132  1.00  0.00     0.261 C 
BRANCH   4   5
ATOM      5  O   UNL     1      -0.271  -2.779  -4.831  1.00  0.00    -0.463 OA
BRANCH   5   6
ATOM      6  C   UNL     1       0.622  -2.361  -5.784  1.00  0.00     0.315 C 
ATOM      7  O   UNL     1       0.687  -2.812  -6.918  1.00  0.00    -0.252 OA
BRANCH   6   8
ATOM      8  C   UNL     1       1.590  -1.330  -5.202  1.00  0.00     0.162 C 
ATOM      9  N   UNL     1       2.579   0.847  -5.515  1.00  0.00    -0.324 N 
ATOM     10  C   UNL     1       3.390  -0.098  -6.262  1.00  0.00     0.264 C 
ATOM     11  C   UNL     1       1.318   0.193  -5.185  1.00  0.00     0.195 C 
ATOM     12  H   UNL     1       2.435   1.639  -6.142  1.00  0.00     0.348 HD
ATOM     13  C   UNL     1       3.011  -1.476  -5.757  1.00  0.00     0.083 C 
ATOM     14  C   UNL     1       0.287   0.977  -5.981  1.00  0.00     0.076 C 
BRANCH   9  15
ATOM     15  C   UNL     1       3.183   1.599  -4.412  1.00  0.00     0.363 C 
BRANCH  15  16
ATOM     16  C   UNL     1       3.675   0.746  -3.249  1.00  0.00     0.275 C 
ATOM     17  N   UNL     1       2.891   0.467  -2.167  1.00  0.00    -0.351 N 
ATOM     18  H   UNL     1       3.336  -0.110  -1.506  1.00  0.00     0.163 HD
ATOM     19  O   UNL     1       4.819   0.280  -3.252  1.00  0.00    -0.269 OA
BRANCH  17  20
ATOM     20  C   UNL     1       1.532   0.842  -1.782  1.00  0.00     0.118 C 
BRANCH  20  21
ATOM     21  C   UNL     1       0.578  -0.363  -1.636  1.00  0.00     0.050 C 
BRANCH  21  22
ATOM     22  C   UNL     1       1.094  -1.508  -0.761  1.00  0.00     0.161 C 
BRANCH  22  23
ATOM     23  O   UNL     1       0.696  -1.419   0.602  1.00  0.00    -0.385 OA
ATOM     24  C   UNL     1       1.121  -0.248   1.275  1.00  0.00     0.194 C 
ENDBRANCH  22  23
ENDBRANCH  21  22
ENDBRANCH  20  21
ENDBRANCH  17  20
ENDBRANCH  15  16
ENDBRANCH   9  15
ENDBRANCH   6   8
ENDBRANCH   5   6
ENDBRANCH   4   5
ENDBRANCH   3   4
ENDBRANCH   2   3
ENDBRANCH   1   2
BRANCH   1  25
ATOM     25  C   UNL     1      -2.179  -0.707  -5.188  1.00  0.00     0.188 C 
BRANCH  25  26
ATOM     26  O   UNL     1      -3.069  -1.197  -4.217  1.00  0.00    -0.377 OA
BRANCH  26  27
ATOM     27  C   UNL     1      -4.003  -0.272  -3.693  1.00  0.00     0.188 C 
BRANCH  27  28
ATOM     28  C   UNL     1      -4.750   0.518  -4.774  1.00  0.00     0.188 C 
BRANCH  28  29
ATOM     29  O   UNL     1      -4.089   1.642  -5.371  1.00  0.00    -0.376 OA
BRANCH  29  30
ATOM     30  C   UNL     1      -3.220   2.471  -4.596  1.00  0.00     0.202 C 
BRANCH  30  31
ATOM     31  C   UNL     1      -3.893   3.518  -3.721  1.00  0.00     0.261 C 
BRANCH  31  32
ATOM     32  O   UNL     1      -4.334   2.901  -2.506  1.00  0.00    -0.460 OA
BRANCH  32  33
ATOM     33  C   UNL     1      -5.644   2.582  -2.476  1.00  0.00     0.338 C 
ATOM     34  O   UNL     1      -6.499   2.890  -3.296  1.00  0.00    -0.246 OA
BRANCH  33  35
ATOM     35  C   UNL     1      -5.862   1.600  -1.404  1.00  0.00     0.060 A 
ATOM     36  C   UNL     1      -6.687   0.502  -1.683  1.00  0.00     0.016 A 
ATOM     37  C   UNL     1      -5.288   1.765  -0.141  1.00  0.00     0.016 A 
ATOM     38  C   UNL     1      -7.001  -0.401  -0.679  1.00  0.00     0.010 A 
ATOM     39  C   UNL     1      -5.627   0.877   0.876  1.00  0.00     0.010 A 
ATOM     40  C   UNL     1      -6.531  -0.168   0.617  1.00  0.00    -0.014 A 
BRANCH  40  41
ATOM     41  C   UNL     1      -7.223  -0.827   1.739  1.00  0.00     0.031 A 
ATOM     42  C   UNL     1      -8.343  -0.071   2.400  1.00  0.00     0.074 A 
ATOM     43  C   UNL     1      -6.902  -2.074   2.112  1.00  0.00     0.049 A 
ATOM     44  N   UNL     1      -9.094  -0.417   3.409  1.00  0.00    -0.248 NA
ATOM     45  C   UNL     1      -8.656   1.258   1.843  1.00  0.00     0.031 C 
ATOM     46  C   UNL     1      -5.884  -2.912   1.482  1.00  0.00     0.029 A 
ATOM     47  N   UNL     1      -7.413  -2.852   3.116  1.00  0.00    -0.354 N 
ATOM     48  C   UNL     1      -9.961   0.651   3.613  1.00  0.00     0.074 A 
ATOM     49  C   UNL     1      -9.618   1.672   2.651  1.00  0.00     0.031 C 
ATOM     50  C   UNL     1      -5.844  -4.095   2.119  1.00  0.00     0.029 A 
ATOM     51  C   UNL     1      -6.805  -4.078   3.220  1.00  0.00     0.049 A 
ATOM     52  H   UNL     1      -8.144  -2.560   3.706  1.00  0.00     0.167 HD
ATOM     53  C   UNL     1     -10.960   0.765   4.517  1.00  0.00     0.031 A 
ATOM     54  C   UNL     1      -7.000  -5.062   4.117  1.00  0.00     0.031 A 
ATOM     55  C   UNL     1     -11.267  -0.252   5.486  1.00  0.00     0.049 A 
ATOM     56  C   UNL     1      -8.048  -4.872   5.183  1.00  0.00     0.074 A 
ATOM     57  C   UNL     1     -12.244  -0.246   6.464  1.00  0.00     0.029 A 
ATOM     58  N   UNL     1     -10.589  -1.458   5.601  1.00  0.00    -0.354 N 
ATOM     59  N   UNL     1      -8.861  -3.858   5.372  1.00  0.00    -0.248 NA
ATOM     60  C   UNL     1      -8.211  -5.964   6.150  1.00  0.00     0.031 C 
ATOM     61  C   UNL     1     -12.114  -1.421   7.212  1.00  0.00     0.029 A 
ATOM     62  C   UNL     1     -11.109  -2.194   6.650  1.00  0.00     0.049 A 
ATOM     63  H   UNL     1      -9.847  -1.747   5.021  1.00  0.00     0.167 HD
ATOM     64  C   UNL     1      -9.662  -4.209   6.454  1.00  0.00     0.074 A 
ATOM     65  C   UNL     1      -9.236  -5.530   6.871  1.00  0.00     0.031 C 
ATOM     66  C   UNL     1     -10.664  -3.509   7.045  1.00  0.00     0.031 A 
BRANCH  53  67
ATOM     67  C   UNL     1     -11.743   2.052   4.523  1.00  0.00    -0.014 A 
ATOM     68  C   UNL     1     -12.585   2.405   3.451  1.00  0.00     0.010 A 
ATOM     69  C   UNL     1     -11.626   2.931   5.615  1.00  0.00     0.010 A 
ATOM     70  C   UNL     1     -13.250   3.635   3.447  1.00  0.00     0.020 A 
ATOM     71  C   UNL     1     -12.317   4.146   5.631  1.00  0.00     0.020 A 
ATOM     72  C   UNL     1     -13.108   4.499   4.537  1.00  0.00     0.054 A 
BRANCH  72  73
ATOM     73  S   UNL     1     -13.980   6.089   4.505  1.00  0.00     0.124 S 
ATOM     74  O   UNL     1     -13.231   6.823   3.487  1.00  0.00    -0.237 OA
ATOM     75  O   UNL     1     -15.337   5.701   4.128  1.00  0.00    -0.237 OA
ATOM     76  O   UNL     1     -13.833   6.593   5.868  1.00  0.00    -0.744 OA
ENDBRANCH  72  73
ENDBRANCH  53  67
BRANCH  54  77
ATOM     77  C   UNL     1      -6.190  -6.307   4.040  1.00  0.00    -0.014 A 
ATOM     78  C   UNL     1      -6.790  -7.528   3.688  1.00  0.00     0.010 A 
ATOM     79  C   UNL     1      -4.807  -6.275   4.300  1.00  0.00     0.010 A 
ATOM     80  C   UNL     1      -6.026  -8.696   3.608  1.00  0.00     0.020 A 
ATOM     81  C   UNL     1      -4.034  -7.434   4.192  1.00  0.00     0.020 A 
ATOM     82  C   UNL     1      -4.651  -8.640   3.855  1.00  0.00     0.054 A 
BRANCH  82  83
ATOM     83  S   UNL     1      -3.674 -10.159   3.687  1.00  0.00     0.124 S 
ATOM     84  O   UNL     1      -4.129 -10.941   4.832  1.00  0.00    -0.237 OA
ATOM     85  O   UNL     1      -4.087 -10.653   2.376  1.00  0.00    -0.237 OA
ATOM     86  O   UNL     1      -2.292  -9.687   3.760  1.00  0.00    -0.744 OA
ENDBRANCH  82  83
ENDBRANCH  54  77
BRANCH  66  87
ATOM     87  C   UNL     1     -11.406  -4.181   8.171  1.00  0.00    -0.014 A 
ATOM     88  C   UNL     1     -10.805  -4.403   9.422  1.00  0.00     0.010 A 
ATOM     89  C   UNL     1     -12.752  -4.547   7.981  1.00  0.00     0.010 A 
ATOM     90  C   UNL     1     -11.526  -5.016  10.450  1.00  0.00     0.020 A 
ATOM     91  C   UNL     1     -13.486  -5.126   9.018  1.00  0.00     0.020 A 
ATOM     92  C   UNL     1     -12.862  -5.372  10.242  1.00  0.00     0.054 A 
BRANCH  92  93
ATOM     93  S   UNL     1     -13.785  -6.131  11.605  1.00  0.00     0.124 S 
ATOM     94  O   UNL     1     -13.185  -7.461  11.675  1.00  0.00    -0.237 OA
ATOM     95  O   UNL     1     -13.483  -5.245  12.727  1.00  0.00    -0.237 OA
ATOM     96  O   UNL     1     -15.172  -6.097  11.147  1.00  0.00    -0.744 OA
ENDBRANCH  92  93
ENDBRANCH  66  87
ENDBRANCH  40  41
ENDBRANCH  33  35
ENDBRANCH  32  33
ENDBRANCH  31  32
ENDBRANCH  30  31
ENDBRANCH  29  30
ENDBRANCH  28  29
ENDBRANCH  27  28
ENDBRANCH  26  27
ENDBRANCH  25  26
ENDBRANCH   1  25
TORSDOF 29
