REMARK SMILES CCN(CC)S(=O)(=O)c1cccc(C(=O)N2C[C@H](O)C[C@H]2C(=O)OCCOCCOCCOCCOC(=O)c2ccc(-c3c4nc(c(-c5ccc(S(=O)(=O)[O-])cc5)c5ccc([nH]5)c(-c5ccc(S(=O)(=O)[O-])cc5)c5nc(c(-c6ccc(S(=O)(=O)[O-])cc6)c6ccc3[nH]6)C=C5)C=C4)cc2)c1
REMARK SMILES IDX 29 1 28 2 27 3 26 4 25 5 24 6 22 7 23 8 21 9 16 10 17 11
REMARK SMILES IDX 18 12 20 13 14 14 15 15 13 16 9 17 10 18 99 19 11 20 12 21
REMARK SMILES IDX 6 22 7 23 8 24 3 25 2 26 1 27 4 28 5 29 19 30 30 32 31 33
REMARK SMILES IDX 32 34 33 35 34 36 35 37 36 38 37 39 38 40 39 41 40 42 98 43
REMARK SMILES IDX 41 44 97 45 42 46 43 47 44 48 91 49 45 50 96 51 90 52 92 53
REMARK SMILES IDX 46 54 95 55 89 56 88 57 47 59 77 60 58 61 76 62 59 63 62 64
REMARK SMILES IDX 75 65 93 66 60 67 61 68 74 70 94 71 63 72 48 73 49 74 57 75
REMARK SMILES IDX 50 76 56 77 51 78 52 79 53 80 54 81 55 82 78 83 79 84 87 85
REMARK SMILES IDX 80 86 86 87 81 88 82 89 83 90 84 91 85 92 64 93 65 94 73 95
REMARK SMILES IDX 66 96 72 97 67 98 68 99 69 100 70 101 71 102
REMARK H PARENT 19 31 92 58 62 69
REMARK Flexibility Score: inf
ROOT
ATOM      1  C   UNL     1       7.764  -6.821   4.096  1.00  0.00     0.188 C 
ENDROOT
BRANCH   1   2
ATOM      2  C   UNL     1       8.922  -6.406   5.004  1.00  0.00     0.188 C 
BRANCH   2   3
ATOM      3  O   UNL     1       9.149  -7.171   6.172  1.00  0.00    -0.376 OA
BRANCH   3   4
ATOM      4  C   UNL     1       8.292  -7.011   7.301  1.00  0.00     0.202 C 
BRANCH   4   5
ATOM      5  C   UNL     1       7.652  -5.651   7.647  1.00  0.00     0.261 C 
BRANCH   5   6
ATOM      6  O   UNL     1       6.650  -5.162   6.714  1.00  0.00    -0.462 OA
BRANCH   6   7
ATOM      7  C   UNL     1       6.963  -4.009   6.082  1.00  0.00     0.329 C 
ATOM      8  O   UNL     1       8.031  -3.415   6.269  1.00  0.00    -0.250 OA
BRANCH   7   9
ATOM      9  C   UNL     1       5.966  -3.432   5.043  1.00  0.00     0.198 C 
ATOM     10  N   UNL     1       4.571  -3.775   4.679  1.00  0.00    -0.322 N 
ATOM     11  C   UNL     1       3.663  -2.665   4.907  1.00  0.00     0.152 C 
ATOM     12  C   UNL     1       4.562  -1.438   4.896  1.00  0.00     0.136 C 
ATOM     13  C   UNL     1       5.836  -1.958   5.524  1.00  0.00     0.071 C 
BRANCH  10  14
ATOM     14  C   UNL     1       4.129  -4.910   4.029  1.00  0.00     0.254 C 
ATOM     15  O   UNL     1       3.795  -5.905   4.668  1.00  0.00    -0.269 OA
BRANCH  14  16
ATOM     16  C   UNL     1       3.864  -4.896   2.537  1.00  0.00     0.041 A 
ATOM     17  C   UNL     1       3.407  -3.858   0.380  1.00  0.00     0.083 A 
ATOM     18  C   UNL     1       3.304  -5.106  -0.237  1.00  0.00     0.022 A 
ATOM     19  C   UNL     1       3.751  -3.748   1.743  1.00  0.00     0.035 A 
ATOM     20  C   UNL     1       3.387  -6.251   0.542  1.00  0.00     0.002 A 
ATOM     21  C   UNL     1       3.627  -6.138   1.917  1.00  0.00     0.014 A 
BRANCH  17  22
ATOM     22  S   UNL     1       3.064  -2.390  -0.581  1.00  0.00     0.243 S 
ATOM     23  O   UNL     1       3.521  -2.628  -1.935  1.00  0.00    -0.207 OA
ATOM     24  O   UNL     1       3.588  -1.273   0.171  1.00  0.00    -0.207 OA
BRANCH  22  25
ATOM     25  N   UNL     1       1.347  -2.304  -0.584  1.00  0.00    -0.198 NA
BRANCH  25  26
ATOM     26  C   UNL     1       0.752  -0.993  -0.986  1.00  0.00     0.099 C 
ATOM     27  C   UNL     1       0.915   0.077   0.078  1.00  0.00     0.022 C 
ENDBRANCH  25  26
BRANCH  25  28
ATOM     28  C   UNL     1       0.577  -3.450  -1.164  1.00  0.00     0.099 C 
ATOM     29  C   UNL     1       0.718  -3.597  -2.672  1.00  0.00     0.022 C 
ENDBRANCH  25  28
ENDBRANCH  22  25
ENDBRANCH  17  22
ENDBRANCH  14  16
ENDBRANCH  10  14
BRANCH  12  30
ATOM     30  O   UNL     1       4.825  -0.967   3.579  1.00  0.00    -0.391 OA
ATOM     31  H   UNL     1       5.230  -1.676   3.056  1.00  0.00     0.211 HD
ENDBRANCH  12  30
ENDBRANCH   7   9
ENDBRANCH   6   7
ENDBRANCH   5   6
ENDBRANCH   4   5
ENDBRANCH   3   4
ENDBRANCH   2   3
ENDBRANCH   1   2
BRANCH   1  32
ATOM     32  O   UNL     1       6.479  -6.830   4.681  1.00  0.00    -0.377 OA
BRANCH  32  33
ATOM     33  C   UNL     1       5.944  -8.036   5.235  1.00  0.00     0.188 C 
BRANCH  33  34
ATOM     34  C   UNL     1       6.619  -9.357   4.856  1.00  0.00     0.188 C 
BRANCH  34  35
ATOM     35  O   UNL     1       6.697  -9.680   3.462  1.00  0.00    -0.376 OA
BRANCH  35  36
ATOM     36  C   UNL     1       5.687  -9.165   2.600  1.00  0.00     0.202 C 
BRANCH  36  37
ATOM     37  C   UNL     1       4.439 -10.036   2.482  1.00  0.00     0.261 C 
BRANCH  37  38
ATOM     38  O   UNL     1       3.676 -10.043   3.697  1.00  0.00    -0.460 OA
BRANCH  38  39
ATOM     39  C   UNL     1       3.883 -11.126   4.481  1.00  0.00     0.338 C 
ATOM     40  O   UNL     1       4.598 -12.084   4.236  1.00  0.00    -0.246 OA
BRANCH  39  41
ATOM     41  C   UNL     1       3.212 -10.952   5.783  1.00  0.00     0.060 A 
ATOM     42  C   UNL     1       3.913 -11.351   6.927  1.00  0.00     0.016 A 
ATOM     43  C   UNL     1       1.889 -10.513   5.876  1.00  0.00     0.016 A 
ATOM     44  C   UNL     1       3.271 -11.389   8.159  1.00  0.00     0.010 A 
ATOM     45  C   UNL     1       1.241 -10.558   7.113  1.00  0.00     0.010 A 
ATOM     46  C   UNL     1       1.916 -11.048   8.245  1.00  0.00    -0.014 A 
BRANCH  46  47
ATOM     47  C   UNL     1       1.165 -11.405   9.471  1.00  0.00     0.031 A 
ATOM     48  C   UNL     1       0.338 -12.663   9.463  1.00  0.00     0.074 A 
ATOM     49  C   UNL     1       1.258 -10.648  10.579  1.00  0.00     0.049 A 
ATOM     50  N   UNL     1      -0.407 -13.169  10.410  1.00  0.00    -0.248 NA
ATOM     51  C   UNL     1       0.350 -13.458   8.222  1.00  0.00     0.031 C 
ATOM     52  C   UNL     1       2.062  -9.433  10.709  1.00  0.00     0.029 A 
ATOM     53  N   UNL     1       0.664 -10.792  11.806  1.00  0.00    -0.354 N 
ATOM     54  C   UNL     1      -0.969 -14.322   9.873  1.00  0.00     0.074 A 
ATOM     55  C   UNL     1      -0.493 -14.437   8.514  1.00  0.00     0.031 C 
ATOM     56  C   UNL     1       1.900  -8.934  11.946  1.00  0.00     0.029 A 
ATOM     57  C   UNL     1       0.957  -9.774  12.681  1.00  0.00     0.049 A 
ATOM     58  H   UNL     1       0.083 -11.552  12.038  1.00  0.00     0.167 HD
ATOM     59  C   UNL     1      -1.809 -15.204  10.464  1.00  0.00     0.031 A 
ATOM     60  C   UNL     1       0.493  -9.536  13.924  1.00  0.00     0.031 A 
ATOM     61  C   UNL     1      -2.268 -15.084  11.821  1.00  0.00     0.049 A 
ATOM     62  C   UNL     1      -0.473 -10.515  14.542  1.00  0.00     0.074 A 
ATOM     63  C   UNL     1      -3.085 -15.948  12.529  1.00  0.00     0.029 A 
ATOM     64  N   UNL     1      -1.959 -14.035  12.672  1.00  0.00    -0.354 N 
ATOM     65  N   UNL     1      -0.958 -11.627  14.038  1.00  0.00    -0.248 NA
ATOM     66  C   UNL     1      -0.944 -10.216  15.901  1.00  0.00     0.031 C 
ATOM     67  C   UNL     1      -3.326 -15.385  13.786  1.00  0.00     0.029 A 
ATOM     68  C   UNL     1      -2.598 -14.210  13.887  1.00  0.00     0.049 A 
ATOM     69  H   UNL     1      -1.372 -13.277  12.446  1.00  0.00     0.167 HD
ATOM     70  C   UNL     1      -1.762 -12.175  15.033  1.00  0.00     0.074 A 
ATOM     71  C   UNL     1      -1.683 -11.283  16.171  1.00  0.00     0.031 C 
ATOM     72  C   UNL     1      -2.499 -13.314  15.010  1.00  0.00     0.031 A 
BRANCH  59  73
ATOM     73  C   UNL     1      -2.326 -16.354   9.641  1.00  0.00    -0.014 A 
ATOM     74  C   UNL     1      -1.503 -17.437   9.286  1.00  0.00     0.010 A 
ATOM     75  C   UNL     1      -3.689 -16.387   9.291  1.00  0.00     0.010 A 
ATOM     76  C   UNL     1      -2.031 -18.525   8.585  1.00  0.00     0.020 A 
ATOM     77  C   UNL     1      -4.227 -17.484   8.614  1.00  0.00     0.020 A 
ATOM     78  C   UNL     1      -3.392 -18.545   8.260  1.00  0.00     0.054 A 
BRANCH  78  79
ATOM     79  S   UNL     1      -4.066 -20.002   7.414  1.00  0.00     0.124 S 
ATOM     80  O   UNL     1      -3.485 -19.873   6.080  1.00  0.00    -0.237 OA
ATOM     81  O   UNL     1      -3.550 -21.105   8.220  1.00  0.00    -0.237 OA
ATOM     82  O   UNL     1      -5.512 -19.806   7.484  1.00  0.00    -0.744 OA
ENDBRANCH  78  79
ENDBRANCH  59  73
BRANCH  60  83
ATOM     83  C   UNL     1       0.897  -8.302  14.655  1.00  0.00    -0.014 A 
ATOM     84  C   UNL     1       1.662  -8.370  15.832  1.00  0.00     0.010 A 
ATOM     85  C   UNL     1       0.478  -7.042  14.187  1.00  0.00     0.010 A 
ATOM     86  C   UNL     1       1.964  -7.208  16.549  1.00  0.00     0.020 A 
ATOM     87  C   UNL     1       0.807  -5.875  14.882  1.00  0.00     0.020 A 
ATOM     88  C   UNL     1       1.531  -5.968  16.071  1.00  0.00     0.054 A 
BRANCH  88  89
ATOM     89  S   UNL     1       1.941  -4.472  17.012  1.00  0.00     0.124 S 
ATOM     90  O   UNL     1       1.050  -4.583  18.162  1.00  0.00    -0.237 OA
ATOM     91  O   UNL     1       3.363  -4.655  17.291  1.00  0.00    -0.237 OA
ATOM     92  O   UNL     1       1.631  -3.388  16.081  1.00  0.00    -0.744 OA
ENDBRANCH  88  89
ENDBRANCH  60  83
BRANCH  72  93
ATOM     93  C   UNL     1      -3.234 -13.691  16.270  1.00  0.00    -0.014 A 
ATOM     94  C   UNL     1      -4.351 -12.963  16.716  1.00  0.00     0.010 A 
ATOM     95  C   UNL     1      -2.822 -14.826  16.993  1.00  0.00     0.010 A 
ATOM     96  C   UNL     1      -5.014 -13.336  17.889  1.00  0.00     0.020 A 
ATOM     97  C   UNL     1      -3.503 -15.223  18.145  1.00  0.00     0.020 A 
ATOM     98  C   UNL     1      -4.584 -14.463  18.597  1.00  0.00     0.054 A 
BRANCH  98  99
ATOM     99  S   UNL     1      -5.475 -14.942  20.101  1.00  0.00     0.124 S 
ATOM    100  O   UNL     1      -5.047 -13.915  21.047  1.00  0.00    -0.237 OA
ATOM    101  O   UNL     1      -6.873 -14.868  19.683  1.00  0.00    -0.237 OA
ATOM    102  O   UNL     1      -4.985 -16.290  20.381  1.00  0.00    -0.744 OA
ENDBRANCH  98  99
ENDBRANCH  72  93
ENDBRANCH  46  47
ENDBRANCH  39  41
ENDBRANCH  38  39
ENDBRANCH  37  38
ENDBRANCH  36  37
ENDBRANCH  35  36
ENDBRANCH  34  35
ENDBRANCH  33  34
ENDBRANCH  32  33
ENDBRANCH   1  32
TORSDOF 30
