REMARK SMILES Cc1cc(/C=C2/C(=O)NC(=S)N=C2OCCOCCOCCOCCOC(=O)c2ccc(-c3c4nc(c(-c5ccc(S(=O)(=O)[O-])cc5)c5ccc([nH]5)c(-c5ccc(S(=O)(=O)[O-])cc5)c5nc(c(-c6ccc(S(=O)(=O)[O-])cc6)c6ccc3[nH]6)C=C5)C=C4)cc2)c(C)n1-c1cccc(C(=O)[O-])c1
REMARK SMILES IDX 21 1 20 2 19 3 18 4 17 5 16 6 15 7 14 8 13 9 5 10 6 11 7 12
REMARK SMILES IDX 8 13 9 14 12 15 10 16 11 18 4 19 1 20 2 21 3 22 91 23 89 24
REMARK SMILES IDX 90 25 92 26 93 27 100 28 94 29 96 30 95 31 97 32 98 33 99 34
REMARK SMILES IDX 22 35 23 36 24 37 25 38 26 39 27 40 28 41 29 42 30 43 88 44
REMARK SMILES IDX 31 45 87 46 32 47 33 48 34 49 81 50 35 51 86 52 80 53 82 54
REMARK SMILES IDX 36 55 85 56 79 57 78 58 37 60 67 61 48 62 66 63 49 64 52 65
REMARK SMILES IDX 65 66 83 67 50 68 51 69 64 71 84 72 53 73 38 74 39 75 47 76
REMARK SMILES IDX 40 77 46 78 41 79 42 80 43 81 44 82 45 83 68 84 69 85 77 86
REMARK SMILES IDX 70 87 76 88 71 89 72 90 73 91 74 92 75 93 54 94 55 95 63 96
REMARK SMILES IDX 56 97 62 98 57 99 58 100 59 101 60 102 61 103
REMARK H PARENT 9 17 82 59 52 70
REMARK Flexibility Score: inf
ROOT
ATOM      1  C   UNL     1       1.842  -0.481  -5.872  1.00  0.00     0.188 C 
ENDROOT
BRANCH   1   2
ATOM      2  O   UNL     1       2.334  -1.685  -5.340  1.00  0.00    -0.377 OA
BRANCH   2   3
ATOM      3  C   UNL     1       1.548  -2.857  -5.426  1.00  0.00     0.188 C 
BRANCH   3   4
ATOM      4  C   UNL     1       0.725  -3.315  -6.657  1.00  0.00     0.188 C 
BRANCH   4   5
ATOM      5  O   UNL     1      -0.108  -2.492  -7.447  1.00  0.00    -0.376 OA
BRANCH   5   6
ATOM      6  C   UNL     1      -1.317  -1.860  -7.057  1.00  0.00     0.201 C 
BRANCH   6   7
ATOM      7  C   UNL     1      -2.501  -2.566  -6.350  1.00  0.00     0.260 C 
BRANCH   7   8
ATOM      8  O   UNL     1      -2.220  -3.082  -5.021  1.00  0.00    -0.475 OA
BRANCH   8   9
ATOM      9  C   UNL     1      -1.832  -4.356  -4.923  1.00  0.00     0.229 C 
ATOM     10  C   UNL     1      -0.414  -4.023  -2.698  1.00  0.00     0.029 C 
ATOM     11  C   UNL     1      -0.961  -4.687  -3.756  1.00  0.00     0.103 C 
ATOM     12  C   UNL     1      -0.462  -6.115  -3.853  1.00  0.00     0.262 C 
ATOM     13  O   UNL     1       0.242  -6.667  -3.013  1.00  0.00    -0.269 OA
ATOM     14  N   UNL     1      -0.799  -6.797  -4.991  1.00  0.00    -0.297 N 
ATOM     15  N   UNL     1      -2.173  -5.145  -5.881  1.00  0.00    -0.184 NA
ATOM     16  C   UNL     1      -1.629  -6.377  -5.984  1.00  0.00     0.203 C 
ATOM     17  H   UNL     1      -0.396  -7.689  -5.103  1.00  0.00     0.172 HD
ATOM     18  S   UNL     1      -1.875  -7.375  -7.305  1.00  0.00    -0.038 S 
BRANCH  10  19
ATOM     19  C   UNL     1      -0.326  -2.681  -2.142  1.00  0.00    -0.003 A 
ATOM     20  C   UNL     1       1.164  -0.243   0.325  1.00  0.00     0.065 C 
ATOM     21  C   UNL     1       0.466  -1.013  -0.741  1.00  0.00     0.020 A 
ATOM     22  C   UNL     1       0.426  -2.386  -0.950  1.00  0.00     0.031 A 
ATOM     23  N   UNL     1      -0.331  -0.446  -1.707  1.00  0.00    -0.318 N 
ATOM     24  C   UNL     1      -0.668  -1.434  -2.627  1.00  0.00     0.027 A 
ATOM     25  C   UNL     1      -1.143  -1.000  -3.948  1.00  0.00     0.065 C 
BRANCH  23  26
ATOM     26  C   UNL     1      -0.666   0.924  -1.924  1.00  0.00     0.046 A 
ATOM     27  C   UNL     1      -2.019   1.207  -2.194  1.00  0.00     0.026 A 
ATOM     28  C   UNL     1       0.337   1.843  -2.263  1.00  0.00     0.036 A 
ATOM     29  C   UNL     1      -2.371   2.364  -2.880  1.00  0.00     0.003 A 
ATOM     30  C   UNL     1      -0.029   3.018  -2.939  1.00  0.00    -0.001 A 
ATOM     31  C   UNL     1      -1.376   3.260  -3.265  1.00  0.00     0.010 A 
BRANCH  30  32
ATOM     32  C   UNL     1       0.961   4.016  -3.424  1.00  0.00     0.072 C 
ATOM     33  O   UNL     1       0.697   5.008  -4.063  1.00  0.00    -0.545 OA
ATOM     34  O   UNL     1       2.225   3.708  -3.078  1.00  0.00    -0.545 OA
ENDBRANCH  30  32
ENDBRANCH  23  26
ENDBRANCH  10  19
ENDBRANCH   8   9
ENDBRANCH   7   8
ENDBRANCH   6   7
ENDBRANCH   5   6
ENDBRANCH   4   5
ENDBRANCH   3   4
ENDBRANCH   2   3
ENDBRANCH   1   2
BRANCH   1  35
ATOM     35  C   UNL     1       2.563  -0.063  -7.152  1.00  0.00     0.188 C 
BRANCH  35  36
ATOM     36  O   UNL     1       3.236  -1.086  -7.863  1.00  0.00    -0.376 OA
BRANCH  36  37
ATOM     37  C   UNL     1       4.297  -1.788  -7.206  1.00  0.00     0.202 C 
BRANCH  37  38
ATOM     38  C   UNL     1       5.533  -1.063  -6.558  1.00  0.00     0.261 C 
BRANCH  38  39
ATOM     39  O   UNL     1       5.610  -0.540  -5.170  1.00  0.00    -0.460 OA
BRANCH  39  40
ATOM     40  C   UNL     1       6.035   0.775  -5.026  1.00  0.00     0.338 C 
ATOM     41  O   UNL     1       5.756   1.618  -5.873  1.00  0.00    -0.246 OA
BRANCH  40  42
ATOM     42  C   UNL     1       6.801   1.207  -3.723  1.00  0.00     0.060 A 
ATOM     43  C   UNL     1       6.232   2.163  -2.887  1.00  0.00     0.016 A 
ATOM     44  C   UNL     1       8.171   0.989  -3.426  1.00  0.00     0.016 A 
ATOM     45  C   UNL     1       6.968   2.794  -1.790  1.00  0.00     0.010 A 
ATOM     46  C   UNL     1       8.944   1.698  -2.334  1.00  0.00     0.010 A 
ATOM     47  C   UNL     1       8.376   2.642  -1.450  1.00  0.00    -0.014 A 
BRANCH  47  48
ATOM     48  C   UNL     1       9.099   3.852  -0.469  1.00  0.00     0.031 A 
ATOM     49  C   UNL     1       8.375   5.055  -0.964  1.00  0.00     0.074 A 
ATOM     50  C   UNL     1      10.127   4.224   0.449  1.00  0.00     0.049 A 
ATOM     51  N   UNL     1       8.448   5.319  -2.235  1.00  0.00    -0.248 NA
ATOM     52  C   UNL     1       7.277   5.723  -0.266  1.00  0.00     0.031 C 
ATOM     53  C   UNL     1      11.247   3.407   0.967  1.00  0.00     0.029 A 
ATOM     54  N   UNL     1      10.453   5.469   1.161  1.00  0.00    -0.354 N 
ATOM     55  C   UNL     1       7.615   6.375  -2.476  1.00  0.00     0.074 A 
ATOM     56  C   UNL     1       6.776   6.442  -1.281  1.00  0.00     0.031 C 
ATOM     57  C   UNL     1      11.972   4.042   1.947  1.00  0.00     0.029 A 
ATOM     58  C   UNL     1      11.499   5.410   2.199  1.00  0.00     0.049 A 
ATOM     59  H   UNL     1       9.989   6.312   0.952  1.00  0.00     0.167 HD
ATOM     60  C   UNL     1       8.175   7.391  -3.194  1.00  0.00     0.031 A 
ATOM     61  C   UNL     1      12.024   6.373   3.102  1.00  0.00     0.031 A 
ATOM     62  C   UNL     1       8.638   8.441  -2.322  1.00  0.00     0.049 A 
ATOM     63  C   UNL     1      11.871   7.660   2.411  1.00  0.00     0.074 A 
ATOM     64  C   UNL     1       8.076   9.056  -1.220  1.00  0.00     0.029 A 
ATOM     65  N   UNL     1      10.004   8.619  -2.231  1.00  0.00    -0.354 N 
ATOM     66  N   UNL     1      12.662   8.001   1.441  1.00  0.00    -0.248 NA
ATOM     67  C   UNL     1      10.935   8.688   2.850  1.00  0.00     0.031 C 
ATOM     68  C   UNL     1       9.119   9.105  -0.274  1.00  0.00     0.029 A 
ATOM     69  C   UNL     1      10.333   8.927  -0.927  1.00  0.00     0.049 A 
ATOM     70  H   UNL     1      10.642   8.540  -2.977  1.00  0.00     0.167 HD
ATOM     71  C   UNL     1      11.958   8.983   0.816  1.00  0.00     0.074 A 
ATOM     72  C   UNL     1      11.093   9.545   1.839  1.00  0.00     0.031 C 
ATOM     73  C   UNL     1      11.705   8.792  -0.503  1.00  0.00     0.031 A 
BRANCH  60  74
ATOM     74  C   UNL     1       8.940   6.942  -4.422  1.00  0.00    -0.014 A 
ATOM     75  C   UNL     1       8.478   7.312  -5.691  1.00  0.00     0.010 A 
ATOM     76  C   UNL     1      10.060   6.079  -4.345  1.00  0.00     0.010 A 
ATOM     77  C   UNL     1       9.080   6.784  -6.843  1.00  0.00     0.020 A 
ATOM     78  C   UNL     1      10.639   5.521  -5.484  1.00  0.00     0.020 A 
ATOM     79  C   UNL     1      10.140   5.875  -6.732  1.00  0.00     0.054 A 
BRANCH  79  80
ATOM     80  S   UNL     1      10.811   5.121  -8.238  1.00  0.00     0.124 S 
ATOM     81  O   UNL     1       9.603   4.690  -8.941  1.00  0.00    -0.237 OA
ATOM     82  O   UNL     1      11.516   6.241  -8.854  1.00  0.00    -0.237 OA
ATOM     83  O   UNL     1      11.648   4.029  -7.748  1.00  0.00    -0.744 OA
ENDBRANCH  79  80
ENDBRANCH  60  74
BRANCH  61  84
ATOM     84  C   UNL     1      12.921   6.695   4.408  1.00  0.00    -0.014 A 
ATOM     85  C   UNL     1      13.717   7.907   4.479  1.00  0.00     0.010 A 
ATOM     86  C   UNL     1      12.672   6.144   5.681  1.00  0.00     0.010 A 
ATOM     87  C   UNL     1      14.112   8.565   5.688  1.00  0.00     0.020 A 
ATOM     88  C   UNL     1      13.092   6.785   6.908  1.00  0.00     0.020 A 
ATOM     89  C   UNL     1      13.769   8.012   6.910  1.00  0.00     0.054 A 
BRANCH  89  90
ATOM     90  S   UNL     1      14.078   8.961   8.465  1.00  0.00     0.124 S 
ATOM     91  O   UNL     1      15.534   8.988   8.560  1.00  0.00    -0.237 OA
ATOM     92  O   UNL     1      13.447  10.252   8.191  1.00  0.00    -0.237 OA
ATOM     93  O   UNL     1      13.407   8.167   9.493  1.00  0.00    -0.744 OA
ENDBRANCH  89  90
ENDBRANCH  61  84
BRANCH  73  94
ATOM     94  C   UNL     1      12.834   8.243  -1.360  1.00  0.00    -0.014 A 
ATOM     95  C   UNL     1      13.626   7.113  -1.043  1.00  0.00     0.010 A 
ATOM     96  C   UNL     1      13.167   8.954  -2.524  1.00  0.00     0.010 A 
ATOM     97  C   UNL     1      14.749   6.763  -1.808  1.00  0.00     0.020 A 
ATOM     98  C   UNL     1      14.260   8.586  -3.318  1.00  0.00     0.020 A 
ATOM     99  C   UNL     1      15.068   7.516  -2.935  1.00  0.00     0.054 A 
BRANCH  99 100
ATOM    100  S   UNL     1      16.570   7.112  -3.872  1.00  0.00     0.124 S 
ATOM    101  O   UNL     1      17.628   7.508  -2.944  1.00  0.00    -0.237 OA
ATOM    102  O   UNL     1      16.442   5.674  -4.090  1.00  0.00    -0.237 OA
ATOM    103  O   UNL     1      16.465   7.944  -5.068  1.00  0.00    -0.744 OA
ENDBRANCH  99 100
ENDBRANCH  73  94
ENDBRANCH  47  48
ENDBRANCH  40  42
ENDBRANCH  39  40
ENDBRANCH  38  39
ENDBRANCH  37  38
ENDBRANCH  36  37
ENDBRANCH  35  36
ENDBRANCH   1  35
TORSDOF 25
