REMARK SMILES Cc1nc2ccccc2n1CCC(=O)N1CC[C@H](O)C[C@@H]1C(=O)OCCOCCOCCOCCOC(=O)c1ccc(-c2c3nc(c(-c4ccc(S(=O)(=O)[O-])cc4)c4ccc([nH]4)c(-c4ccc(S(=O)(=O)[O-])cc4)c4nc(c(-c5ccc(S(=O)(=O)[O-])cc5)c5ccc2[nH]5)C=C4)C=C3)cc1
REMARK SMILES IDX 29 1 28 2 27 3 26 4 25 5 24 6 22 7 23 8 21 9 15 10 16 11
REMARK SMILES IDX 17 12 20 13 18 14 13 15 14 16 12 17 11 18 10 19 1 20 2 21
REMARK SMILES IDX 3 22 4 23 9 24 5 25 8 26 6 27 7 28 19 29 30 31 31 32 32 33
REMARK SMILES IDX 33 34 34 35 35 36 36 37 37 38 38 39 39 40 40 41 98 42 41 43
REMARK SMILES IDX 97 44 42 45 43 46 44 47 91 48 45 49 96 50 90 51 92 52 46 53
REMARK SMILES IDX 95 54 89 55 88 56 47 58 77 59 58 60 76 61 59 62 62 63 75 64
REMARK SMILES IDX 93 65 60 66 61 67 74 69 94 70 63 71 48 72 49 73 57 74 50 75
REMARK SMILES IDX 56 76 51 77 52 78 53 79 54 80 55 81 78 82 79 83 87 84 80 85
REMARK SMILES IDX 86 86 81 87 82 88 83 89 84 90 85 91 64 92 65 93 73 94 66 95
REMARK SMILES IDX 72 96 67 97 68 98 69 99 70 100 71 101
REMARK H PARENT 19 30 92 57 62 68
REMARK Flexibility Score: inf
ROOT
ATOM      1  C   UNL     1       2.521   0.057   3.002  1.00  0.00     0.188 C 
ENDROOT
BRANCH   1   2
ATOM      2  C   UNL     1       2.009  -1.214   3.667  1.00  0.00     0.188 C 
BRANCH   2   3
ATOM      3  O   UNL     1       2.816  -1.771   4.672  1.00  0.00    -0.376 OA
BRANCH   3   4
ATOM      4  C   UNL     1       4.115  -2.266   4.378  1.00  0.00     0.202 C 
BRANCH   4   5
ATOM      5  C   UNL     1       4.861  -2.276   3.017  1.00  0.00     0.261 C 
BRANCH   5   6
ATOM      6  O   UNL     1       4.236  -1.747   1.835  1.00  0.00    -0.462 OA
BRANCH   6   7
ATOM      7  C   UNL     1       3.451  -2.606   1.152  1.00  0.00     0.329 C 
ATOM      8  O   UNL     1       3.261  -3.763   1.524  1.00  0.00    -0.250 OA
BRANCH   7   9
ATOM      9  C   UNL     1       2.807  -1.989  -0.148  1.00  0.00     0.197 C 
ATOM     10  N   UNL     1       2.003  -0.700  -0.082  1.00  0.00    -0.329 N 
ATOM     11  C   UNL     1       0.667  -0.815   0.478  1.00  0.00     0.123 C 
ATOM     12  C   UNL     1      -0.166  -1.958  -0.073  1.00  0.00     0.053 C 
ATOM     13  C   UNL     1       1.933  -3.109  -0.746  1.00  0.00     0.069 C 
ATOM     14  C   UNL     1       0.598  -3.267  -0.005  1.00  0.00     0.118 C 
BRANCH  10  15
ATOM     15  C   UNL     1       2.470   0.509  -0.619  1.00  0.00     0.225 C 
ATOM     16  O   UNL     1       3.210   0.504  -1.609  1.00  0.00    -0.275 OA
BRANCH  15  17
ATOM     17  C   UNL     1       2.217   1.892   0.101  1.00  0.00     0.122 C 
BRANCH  17  18
ATOM     18  C   UNL     1       1.055   2.897  -0.116  1.00  0.00     0.134 C 
BRANCH  18  19
ATOM     19  N   UNL     1      -0.238   2.613   0.486  1.00  0.00    -0.328 N 
ATOM     20  C   UNL     1      -1.204   1.371  -1.493  1.00  0.00     0.088 C 
ATOM     21  C   UNL     1      -1.202   1.798  -0.070  1.00  0.00     0.106 A 
ATOM     22  N   UNL     1      -1.967   1.306   0.886  1.00  0.00    -0.234 NA
ATOM     23  C   UNL     1      -1.707   2.077   1.989  1.00  0.00     0.089 A 
ATOM     24  C   UNL     1      -0.770   3.065   1.680  1.00  0.00     0.068 A 
ATOM     25  C   UNL     1      -2.272   2.020   3.272  1.00  0.00     0.030 A 
ATOM     26  C   UNL     1      -0.564   4.164   2.526  1.00  0.00     0.028 A 
ATOM     27  C   UNL     1      -2.043   3.083   4.151  1.00  0.00     0.002 A 
ATOM     28  C   UNL     1      -1.264   4.173   3.750  1.00  0.00     0.002 A 
ENDBRANCH  18  19
ENDBRANCH  17  18
ENDBRANCH  15  17
ENDBRANCH  10  15
BRANCH  14  29
ATOM     29  O   UNL     1       0.713  -3.621   1.368  1.00  0.00    -0.393 OA
ATOM     30  H   UNL     1       1.165  -2.910   1.849  1.00  0.00     0.210 HD
ENDBRANCH  14  29
ENDBRANCH   7   9
ENDBRANCH   6   7
ENDBRANCH   5   6
ENDBRANCH   4   5
ENDBRANCH   3   4
ENDBRANCH   2   3
ENDBRANCH   1   2
BRANCH   1  31
ATOM     31  O   UNL     1       3.853   0.395   3.232  1.00  0.00    -0.377 OA
BRANCH  31  32
ATOM     32  C   UNL     1       4.138   1.038   4.437  1.00  0.00     0.188 C 
BRANCH  32  33
ATOM     33  C   UNL     1       3.104   1.101   5.563  1.00  0.00     0.188 C 
BRANCH  33  34
ATOM     34  O   UNL     1       1.819   1.479   5.128  1.00  0.00    -0.376 OA
BRANCH  34  35
ATOM     35  C   UNL     1       1.495   2.854   5.106  1.00  0.00     0.202 C 
BRANCH  35  36
ATOM     36  C   UNL     1       2.348   3.881   4.335  1.00  0.00     0.261 C 
BRANCH  36  37
ATOM     37  O   UNL     1       3.737   3.934   4.695  1.00  0.00    -0.460 OA
BRANCH  37  38
ATOM     38  C   UNL     1       4.119   4.443   5.887  1.00  0.00     0.338 C 
ATOM     39  O   UNL     1       3.470   5.202   6.590  1.00  0.00    -0.246 OA
BRANCH  38  40
ATOM     40  C   UNL     1       5.269   3.596   6.332  1.00  0.00     0.060 A 
ATOM     41  C   UNL     1       6.224   3.146   5.419  1.00  0.00     0.016 A 
ATOM     42  C   UNL     1       5.105   2.924   7.558  1.00  0.00     0.016 A 
ATOM     43  C   UNL     1       6.841   1.916   5.657  1.00  0.00     0.010 A 
ATOM     44  C   UNL     1       5.710   1.675   7.779  1.00  0.00     0.010 A 
ATOM     45  C   UNL     1       6.524   1.121   6.797  1.00  0.00    -0.014 A 
BRANCH  45  46
ATOM     46  C   UNL     1       7.312  -0.122   6.983  1.00  0.00     0.031 A 
ATOM     47  C   UNL     1       8.745   0.251   6.931  1.00  0.00     0.074 A 
ATOM     48  C   UNL     1       7.018  -1.415   7.266  1.00  0.00     0.049 A 
ATOM     49  N   UNL     1       9.571   0.024   5.968  1.00  0.00    -0.248 NA
ATOM     50  C   UNL     1       9.190   1.245   7.922  1.00  0.00     0.031 C 
ATOM     51  C   UNL     1       5.745  -2.023   7.653  1.00  0.00     0.029 A 
ATOM     52  N   UNL     1       7.882  -2.490   7.321  1.00  0.00    -0.354 N 
ATOM     53  C   UNL     1      10.713   0.726   6.313  1.00  0.00     0.074 A 
ATOM     54  C   UNL     1      10.343   1.622   7.379  1.00  0.00     0.031 C 
ATOM     55  C   UNL     1       5.961  -3.286   8.103  1.00  0.00     0.029 A 
ATOM     56  C   UNL     1       7.364  -3.632   7.935  1.00  0.00     0.049 A 
ATOM     57  H   UNL     1       8.794  -2.455   6.953  1.00  0.00     0.167 HD
ATOM     58  C   UNL     1      11.941   0.359   5.871  1.00  0.00     0.031 A 
ATOM     59  C   UNL     1       8.044  -4.748   8.329  1.00  0.00     0.031 A 
ATOM     60  C   UNL     1      11.869  -0.504   4.725  1.00  0.00     0.049 A 
ATOM     61  C   UNL     1       9.319  -4.795   7.577  1.00  0.00     0.074 A 
ATOM     62  C   UNL     1      11.356  -0.374   3.450  1.00  0.00     0.029 A 
ATOM     63  N   UNL     1      12.026  -1.851   4.944  1.00  0.00    -0.354 N 
ATOM     64  N   UNL     1       9.409  -5.045   6.304  1.00  0.00    -0.248 NA
ATOM     65  C   UNL     1      10.485  -4.176   8.184  1.00  0.00     0.031 C 
ATOM     66  C   UNL     1      10.816  -1.651   3.133  1.00  0.00     0.029 A 
ATOM     67  C   UNL     1      11.087  -2.514   4.197  1.00  0.00     0.049 A 
ATOM     68  H   UNL     1      12.695  -2.267   5.534  1.00  0.00     0.167 HD
ATOM     69  C   UNL     1      10.437  -4.227   5.864  1.00  0.00     0.074 A 
ATOM     70  C   UNL     1      11.114  -3.778   7.078  1.00  0.00     0.031 C 
ATOM     71  C   UNL     1      10.477  -3.774   4.578  1.00  0.00     0.031 A 
BRANCH  58  72
ATOM     72  C   UNL     1      13.156   0.501   6.742  1.00  0.00    -0.014 A 
ATOM     73  C   UNL     1      13.075   0.737   8.133  1.00  0.00     0.010 A 
ATOM     74  C   UNL     1      14.420   0.174   6.224  1.00  0.00     0.010 A 
ATOM     75  C   UNL     1      14.191   0.722   8.959  1.00  0.00     0.020 A 
ATOM     76  C   UNL     1      15.545   0.100   7.056  1.00  0.00     0.020 A 
ATOM     77  C   UNL     1      15.423   0.398   8.414  1.00  0.00     0.054 A 
BRANCH  77  78
ATOM     78  S   UNL     1      16.837   0.337   9.533  1.00  0.00     0.124 S 
ATOM     79  O   UNL     1      16.984   1.743   9.899  1.00  0.00    -0.237 OA
ATOM     80  O   UNL     1      16.357  -0.544  10.594  1.00  0.00    -0.237 OA
ATOM     81  O   UNL     1      17.906  -0.209   8.701  1.00  0.00    -0.744 OA
ENDBRANCH  77  78
ENDBRANCH  58  72
BRANCH  59  82
ATOM     82  C   UNL     1       7.884  -5.564   9.573  1.00  0.00    -0.014 A 
ATOM     83  C   UNL     1       7.272  -4.992  10.703  1.00  0.00     0.010 A 
ATOM     84  C   UNL     1       8.636  -6.747   9.772  1.00  0.00     0.010 A 
ATOM     85  C   UNL     1       7.491  -5.503  11.989  1.00  0.00     0.020 A 
ATOM     86  C   UNL     1       8.863  -7.265  11.063  1.00  0.00     0.020 A 
ATOM     87  C   UNL     1       8.325  -6.606  12.168  1.00  0.00     0.054 A 
BRANCH  87  88
ATOM     88  S   UNL     1       8.776  -7.072  13.867  1.00  0.00     0.124 S 
ATOM     89  O   UNL     1       9.592  -5.934  14.285  1.00  0.00    -0.237 OA
ATOM     90  O   UNL     1       7.474  -7.180  14.522  1.00  0.00    -0.237 OA
ATOM     91  O   UNL     1       9.496  -8.332  13.706  1.00  0.00    -0.744 OA
ENDBRANCH  87  88
ENDBRANCH  59  82
BRANCH  71  92
ATOM     92  C   UNL     1       9.659  -4.469   3.510  1.00  0.00    -0.014 A 
ATOM     93  C   UNL     1      10.332  -4.767   2.309  1.00  0.00     0.010 A 
ATOM     94  C   UNL     1       8.269  -4.687   3.564  1.00  0.00     0.010 A 
ATOM     95  C   UNL     1       9.643  -5.211   1.181  1.00  0.00     0.020 A 
ATOM     96  C   UNL     1       7.573  -5.170   2.441  1.00  0.00     0.020 A 
ATOM     97  C   UNL     1       8.264  -5.397   1.248  1.00  0.00     0.054 A 
BRANCH  97  98
ATOM     98  S   UNL     1       7.408  -5.915  -0.264  1.00  0.00     0.124 S 
ATOM     99  O   UNL     1       7.487  -4.712  -1.091  1.00  0.00    -0.237 OA
ATOM    100  O   UNL     1       8.219  -7.041  -0.723  1.00  0.00    -0.237 OA
ATOM    101  O   UNL     1       6.064  -6.265   0.188  1.00  0.00    -0.744 OA
ENDBRANCH  97  98
ENDBRANCH  71  92
ENDBRANCH  45  46
ENDBRANCH  38  40
ENDBRANCH  37  38
ENDBRANCH  36  37
ENDBRANCH  35  36
ENDBRANCH  34  35
ENDBRANCH  33  34
ENDBRANCH  32  33
ENDBRANCH  31  32
ENDBRANCH   1  31
TORSDOF 28
