REMARK SMILES Cc1cc(NCC(=O)OCCOCCOCCOCCOC(=O)c2ccc(-c3c4nc(c(-c5ccc(S(=O)(=O)[O-])cc5)c5ccc([nH]5)c(-c5ccc(S(=O)(=O)[O-])cc5)c5nc(c(-c6ccc(S(=O)(=O)[O-])cc6)c6ccc3[nH]6)C=C5)C=C4)cc2)c2cc(S(=O)(=O)N(C)C)ccc2n1
REMARK SMILES IDX 14 1 13 2 12 3 11 4 10 5 9 6 7 7 8 8 6 9 5 10 4 12 1 13 2 14
REMARK SMILES IDX 3 15 96 16 95 17 84 18 94 19 85 20 93 21 86 22 87 23 88 24
REMARK SMILES IDX 89 25 90 26 91 27 92 28 15 29 16 30 17 31 18 32 19 33 20 34
REMARK SMILES IDX 21 35 22 36 23 37 24 38 25 39 83 40 26 41 82 42 27 43 28 44
REMARK SMILES IDX 29 45 76 46 30 47 81 48 75 49 77 50 31 51 80 52 74 53 73 54
REMARK SMILES IDX 32 56 62 57 43 58 61 59 44 60 47 61 60 62 78 63 45 64 46 65
REMARK SMILES IDX 59 67 79 68 48 69 33 70 34 71 42 72 35 73 41 74 36 75 37 76
REMARK SMILES IDX 38 77 39 78 40 79 63 80 64 81 72 82 65 83 71 84 66 85 67 86
REMARK SMILES IDX 68 87 69 88 70 89 49 90 50 91 58 92 51 93 57 94 52 95 53 96
REMARK SMILES IDX 54 97 55 98 56 99
REMARK H PARENT 5 11 77 55 47 66
REMARK Flexibility Score: inf
ROOT
ATOM      1  C   UNL     1      -0.761   5.666  -1.439  1.00  0.00     0.188 C 
ENDROOT
BRANCH   1   2
ATOM      2  C   UNL     1       0.409   6.657  -1.355  1.00  0.00     0.188 C 
BRANCH   2   3
ATOM      3  O   UNL     1       1.170   6.995  -2.503  1.00  0.00    -0.376 OA
BRANCH   3   4
ATOM      4  C   UNL     1       1.612   5.993  -3.412  1.00  0.00     0.202 C 
BRANCH   4   5
ATOM      5  C   UNL     1       2.235   4.666  -2.937  1.00  0.00     0.261 C 
BRANCH   5   6
ATOM      6  O   UNL     1       1.562   4.017  -1.848  1.00  0.00    -0.462 OA
BRANCH   6   7
ATOM      7  C   UNL     1       2.173   4.047  -0.637  1.00  0.00     0.325 C 
ATOM      8  O   UNL     1       3.275   4.548  -0.429  1.00  0.00    -0.250 OA
BRANCH   7   9
ATOM      9  C   UNL     1       1.299   3.507   0.510  1.00  0.00     0.236 C 
BRANCH   9  10
ATOM     10  N   UNL     1       0.070   2.786   0.137  1.00  0.00    -0.374 N 
ATOM     11  H   UNL     1      -0.709   3.361  -0.043  1.00  0.00     0.161 HD
BRANCH  10  12
ATOM     12  C   UNL     1      -0.166   1.428  -0.002  1.00  0.00     0.046 A 
ATOM     13  C   UNL     1      -3.261  -0.767  -0.009  1.00  0.00     0.067 C 
ATOM     14  C   UNL     1      -1.826  -0.328   0.019  1.00  0.00     0.040 A 
ATOM     15  C   UNL     1      -1.506   1.021  -0.020  1.00  0.00     0.049 A 
ATOM     16  N   UNL     1      -0.883  -1.293   0.112  1.00  0.00    -0.253 NA
ATOM     17  C   UNL     1       0.412  -0.929   0.076  1.00  0.00     0.073 A 
ATOM     18  C   UNL     1       0.808   0.417  -0.061  1.00  0.00     0.025 A 
ATOM     19  C   UNL     1       1.413  -1.898   0.208  1.00  0.00     0.030 A 
ATOM     20  C   UNL     1       2.167   0.691  -0.229  1.00  0.00     0.034 A 
ATOM     21  C   UNL     1       2.782  -1.576   0.217  1.00  0.00     0.024 A 
ATOM     22  C   UNL     1       3.148  -0.264  -0.021  1.00  0.00     0.083 A 
BRANCH  22  23
ATOM     23  S   UNL     1       4.790   0.386   0.050  1.00  0.00     0.242 S 
ATOM     24  O   UNL     1       4.944   1.297  -1.066  1.00  0.00    -0.207 OA
ATOM     25  O   UNL     1       4.970   0.849   1.411  1.00  0.00    -0.207 OA
BRANCH  23  26
ATOM     26  N   UNL     1       5.872  -0.901  -0.216  1.00  0.00    -0.204 NA
ATOM     27  C   UNL     1       5.769  -1.525  -1.559  1.00  0.00     0.124 C 
ATOM     28  C   UNL     1       7.269  -0.460   0.044  1.00  0.00     0.124 C 
ENDBRANCH  23  26
ENDBRANCH  22  23
ENDBRANCH  10  12
ENDBRANCH   9  10
ENDBRANCH   7   9
ENDBRANCH   6   7
ENDBRANCH   5   6
ENDBRANCH   4   5
ENDBRANCH   3   4
ENDBRANCH   2   3
ENDBRANCH   1   2
BRANCH   1  29
ATOM     29  O   UNL     1      -0.833   4.910  -2.626  1.00  0.00    -0.377 OA
BRANCH  29  30
ATOM     30  C   UNL     1      -1.712   5.377  -3.640  1.00  0.00     0.188 C 
BRANCH  30  31
ATOM     31  C   UNL     1      -1.929   6.897  -3.768  1.00  0.00     0.188 C 
BRANCH  31  32
ATOM     32  O   UNL     1      -2.255   7.553  -2.546  1.00  0.00    -0.376 OA
BRANCH  32  33
ATOM     33  C   UNL     1      -3.622   7.757  -2.216  1.00  0.00     0.202 C 
BRANCH  33  34
ATOM     34  C   UNL     1      -4.497   6.519  -1.951  1.00  0.00     0.261 C 
BRANCH  34  35
ATOM     35  O   UNL     1      -4.660   5.597  -3.037  1.00  0.00    -0.460 OA
BRANCH  35  36
ATOM     36  C   UNL     1      -5.087   6.074  -4.225  1.00  0.00     0.338 C 
ATOM     37  O   UNL     1      -5.431   7.215  -4.481  1.00  0.00    -0.246 OA
BRANCH  36  38
ATOM     38  C   UNL     1      -4.873   5.013  -5.229  1.00  0.00     0.060 A 
ATOM     39  C   UNL     1      -4.043   5.268  -6.330  1.00  0.00     0.016 A 
ATOM     40  C   UNL     1      -5.480   3.766  -5.071  1.00  0.00     0.016 A 
ATOM     41  C   UNL     1      -3.847   4.283  -7.300  1.00  0.00     0.010 A 
ATOM     42  C   UNL     1      -5.304   2.792  -6.053  1.00  0.00     0.010 A 
ATOM     43  C   UNL     1      -4.516   3.058  -7.188  1.00  0.00    -0.014 A 
BRANCH  43  44
ATOM     44  C   UNL     1      -4.593   2.133  -8.342  1.00  0.00     0.031 A 
ATOM     45  C   UNL     1      -5.822   2.197  -9.207  1.00  0.00     0.074 A 
ATOM     46  C   UNL     1      -3.624   1.236  -8.598  1.00  0.00     0.049 A 
ATOM     47  N   UNL     1      -6.203   1.399 -10.168  1.00  0.00    -0.248 NA
ATOM     48  C   UNL     1      -6.752   3.308  -8.940  1.00  0.00     0.031 C 
ATOM     49  C   UNL     1      -2.361   1.121  -7.873  1.00  0.00     0.029 A 
ATOM     50  N   UNL     1      -3.570   0.233  -9.534  1.00  0.00    -0.354 N 
ATOM     51  C   UNL     1      -7.425   1.897 -10.606  1.00  0.00     0.074 A 
ATOM     52  C   UNL     1      -7.731   3.053  -9.793  1.00  0.00     0.031 C 
ATOM     53  C   UNL     1      -1.663   0.087  -8.377  1.00  0.00     0.029 A 
ATOM     54  C   UNL     1      -2.453  -0.561  -9.425  1.00  0.00     0.049 A 
ATOM     55  H   UNL     1      -4.264   0.095 -10.218  1.00  0.00     0.167 HD
ATOM     56  C   UNL     1      -8.222   1.430 -11.594  1.00  0.00     0.031 A 
ATOM     57  C   UNL     1      -2.127  -1.701 -10.069  1.00  0.00     0.031 A 
ATOM     58  C   UNL     1      -7.918   0.268 -12.383  1.00  0.00     0.049 A 
ATOM     59  C   UNL     1      -3.074  -2.259 -11.103  1.00  0.00     0.074 A 
ATOM     60  C   UNL     1      -8.656  -0.290 -13.411  1.00  0.00     0.029 A 
ATOM     61  N   UNL     1      -6.787  -0.519 -12.226  1.00  0.00    -0.354 N 
ATOM     62  N   UNL     1      -4.225  -1.778 -11.513  1.00  0.00    -0.248 NA
ATOM     63  C   UNL     1      -2.680  -3.512 -11.764  1.00  0.00     0.031 C 
ATOM     64  C   UNL     1      -8.003  -1.450 -13.834  1.00  0.00     0.029 A 
ATOM     65  C   UNL     1      -6.819  -1.572 -13.123  1.00  0.00     0.049 A 
ATOM     66  H   UNL     1      -6.068  -0.354 -11.574  1.00  0.00     0.167 HD
ATOM     67  C   UNL     1      -4.668  -2.644 -12.509  1.00  0.00     0.074 A 
ATOM     68  C   UNL     1      -3.665  -3.681 -12.637  1.00  0.00     0.031 C 
ATOM     69  C   UNL     1      -5.798  -2.582 -13.255  1.00  0.00     0.031 A 
BRANCH  56  70
ATOM     70  C   UNL     1      -9.520   2.150 -11.843  1.00  0.00    -0.014 A 
ATOM     71  C   UNL     1      -9.546   3.439 -12.404  1.00  0.00     0.010 A 
ATOM     72  C   UNL     1     -10.736   1.509 -11.543  1.00  0.00     0.010 A 
ATOM     73  C   UNL     1     -10.763   4.089 -12.625  1.00  0.00     0.020 A 
ATOM     74  C   UNL     1     -11.956   2.143 -11.791  1.00  0.00     0.020 A 
ATOM     75  C   UNL     1     -11.961   3.436 -12.316  1.00  0.00     0.054 A 
BRANCH  75  76
ATOM     76  S   UNL     1     -13.525   4.295 -12.637  1.00  0.00     0.124 S 
ATOM     77  O   UNL     1     -13.517   5.330 -11.606  1.00  0.00    -0.237 OA
ATOM     78  O   UNL     1     -13.353   4.771 -14.007  1.00  0.00    -0.237 OA
ATOM     79  O   UNL     1     -14.535   3.254 -12.464  1.00  0.00    -0.744 OA
ENDBRANCH  75  76
ENDBRANCH  56  70
BRANCH  57  80
ATOM     80  C   UNL     1      -0.858  -2.410  -9.738  1.00  0.00    -0.014 A 
ATOM     81  C   UNL     1       0.188  -2.485 -10.675  1.00  0.00     0.010 A 
ATOM     82  C   UNL     1      -0.689  -3.019  -8.480  1.00  0.00     0.010 A 
ATOM     83  C   UNL     1       1.369  -3.168 -10.368  1.00  0.00     0.020 A 
ATOM     84  C   UNL     1       0.502  -3.676  -8.158  1.00  0.00     0.020 A 
ATOM     85  C   UNL     1       1.521  -3.756  -9.109  1.00  0.00     0.054 A 
BRANCH  85  86
ATOM     86  S   UNL     1       3.083  -4.591  -8.716  1.00  0.00     0.124 S 
ATOM     87  O   UNL     1       3.001  -5.794  -9.538  1.00  0.00    -0.237 OA
ATOM     88  O   UNL     1       4.079  -3.607  -9.130  1.00  0.00    -0.237 OA
ATOM     89  O   UNL     1       3.002  -4.812  -7.273  1.00  0.00    -0.744 OA
ENDBRANCH  85  86
ENDBRANCH  57  80
BRANCH  69  90
ATOM     90  C   UNL     1      -5.996  -3.612 -14.336  1.00  0.00    -0.014 A 
ATOM     91  C   UNL     1      -6.356  -4.936 -14.036  1.00  0.00     0.010 A 
ATOM     92  C   UNL     1      -5.939  -3.205 -15.683  1.00  0.00     0.010 A 
ATOM     93  C   UNL     1      -6.651  -5.836 -15.065  1.00  0.00     0.020 A 
ATOM     94  C   UNL     1      -6.261  -4.092 -16.712  1.00  0.00     0.020 A 
ATOM     95  C   UNL     1      -6.612  -5.405 -16.396  1.00  0.00     0.054 A 
BRANCH  95  96
ATOM     96  S   UNL     1      -7.093  -6.566 -17.705  1.00  0.00     0.124 S 
ATOM     97  O   UNL     1      -5.967  -7.495 -17.718  1.00  0.00    -0.237 OA
ATOM     98  O   UNL     1      -8.352  -7.110 -17.201  1.00  0.00    -0.237 OA
ATOM     99  O   UNL     1      -7.217  -5.721 -18.891  1.00  0.00    -0.744 OA
ENDBRANCH  95  96
ENDBRANCH  69  90
ENDBRANCH  43  44
ENDBRANCH  36  38
ENDBRANCH  35  36
ENDBRANCH  34  35
ENDBRANCH  33  34
ENDBRANCH  32  33
ENDBRANCH  31  32
ENDBRANCH  30  31
ENDBRANCH  29  30
ENDBRANCH   1  29
TORSDOF 27
