REMARK SMILES C[C@]1(C(=O)OCCOCCOCCOCCOC(=O)c2ccc(-c3c4nc(c(-c5ccc(S(=O)(=O)[O-])cc5)c5ccc([nH]5)c(-c5ccc(S(=O)(=O)[O-])cc5)c5nc(c(-c6ccc(S(=O)(=O)[O-])cc6)c6ccc3[nH]6)C=C5)C=C4)cc2)[NH2+]C2(C(=O)c3ccccc3C2=O)[C@@H]2C(=O)N(c3ccccc3)C(=O)[C@H]21
REMARK SMILES IDX 12 1 11 2 10 3 9 4 8 5 7 6 6 7 5 8 3 9 4 10 2 11 1 12 80 13
REMARK SMILES IDX 104 14 81 15 92 18 102 19 82 20 90 21 93 22 95 23 103 24
REMARK SMILES IDX 83 25 84 26 89 27 91 28 94 29 85 30 88 31 86 32 87 33 96 34
REMARK SMILES IDX 97 35 101 36 98 37 100 38 99 39 13 40 14 41 15 42 16 43
REMARK SMILES IDX 17 44 18 45 19 46 20 47 21 48 79 49 22 50 78 51 23 52 24 53
REMARK SMILES IDX 25 54 72 55 26 56 77 57 71 58 73 59 27 60 76 61 70 62 69 63
REMARK SMILES IDX 28 65 58 66 39 67 57 68 40 69 43 70 56 71 74 72 41 73 42 74
REMARK SMILES IDX 55 76 75 77 44 78 29 79 30 80 38 81 31 82 37 83 32 84 33 85
REMARK SMILES IDX 34 86 35 87 36 88 59 89 60 90 68 91 61 92 67 93 62 94 63 95
REMARK SMILES IDX 64 96 65 97 66 98 45 99 46 100 54 101 47 102 53 103 48 104
REMARK SMILES IDX 49 105 50 106 51 107 52 108
REMARK H PARENT 80 16 80 17 73 64 43 75
REMARK Flexibility Score: inf
ROOT
ATOM      1  C   UNL     1      -1.798  -1.605   4.204  1.00  0.00     0.188 C 
ENDROOT
BRANCH   1   2
ATOM      2  O   UNL     1      -0.837  -1.606   3.157  1.00  0.00    -0.377 OA
BRANCH   2   3
ATOM      3  C   UNL     1      -0.073  -0.447   2.893  1.00  0.00     0.188 C 
BRANCH   3   4
ATOM      4  C   UNL     1      -0.816   0.796   2.376  1.00  0.00     0.188 C 
BRANCH   4   5
ATOM      5  O   UNL     1      -2.180   0.857   2.727  1.00  0.00    -0.376 OA
BRANCH   5   6
ATOM      6  C   UNL     1      -3.193   0.403   1.846  1.00  0.00     0.202 C 
BRANCH   6   7
ATOM      7  C   UNL     1      -3.040  -0.747   0.835  1.00  0.00     0.261 C 
BRANCH   7   8
ATOM      8  O   UNL     1      -1.730  -1.256   0.604  1.00  0.00    -0.459 OA
BRANCH   8   9
ATOM      9  C   UNL     1      -1.006  -0.699  -0.392  1.00  0.00     0.368 C 
ATOM     10  O   UNL     1      -1.391   0.249  -1.065  1.00  0.00    -0.245 OA
BRANCH   9  11
ATOM     11  C   UNL     1       0.369  -1.405  -0.590  1.00  0.00     0.205 C 
ATOM     12  C   UNL     1       1.451  -0.327  -0.650  1.00  0.00     0.093 C 
ATOM     13  N   UNL     1       0.707  -2.448   0.467  1.00  0.00    -0.313 N 
ATOM     14  C   UNL     1       0.331  -2.285  -1.798  1.00  0.00     0.172 C 
ATOM     15  C   UNL     1       0.277  -3.815  -0.052  1.00  0.00     0.237 C 
ATOM     16  H   UNL     1       0.210  -2.235   1.332  1.00  0.00     0.348 HD
ATOM     17  H   UNL     1       1.710  -2.444   0.656  1.00  0.00     0.348 HD
ATOM     18  C   UNL     1      -0.496  -3.448  -1.274  1.00  0.00     0.177 C 
ATOM     19  C   UNL     1      -0.369  -1.955  -3.061  1.00  0.00     0.244 C 
ATOM     20  C   UNL     1       1.515  -4.695  -0.228  1.00  0.00     0.232 C 
ATOM     21  C   UNL     1      -0.534  -4.573   1.007  1.00  0.00     0.232 C 
ATOM     22  C   UNL     1      -0.746  -4.171  -2.542  1.00  0.00     0.245 C 
ATOM     23  N   UNL     1      -0.944  -3.151  -3.472  1.00  0.00    -0.250 N 
ATOM     24  O   UNL     1      -0.317  -0.866  -3.606  1.00  0.00    -0.273 OA
ATOM     25  O   UNL     1       2.478  -4.469  -0.941  1.00  0.00    -0.286 OA
ATOM     26  C   UNL     1       1.444  -5.798   0.730  1.00  0.00     0.036 A 
ATOM     27  C   UNL     1       0.263  -5.720   1.458  1.00  0.00     0.036 A 
ATOM     28  O   UNL     1      -1.659  -4.340   1.410  1.00  0.00    -0.286 OA
ATOM     29  O   UNL     1      -0.832  -5.382  -2.651  1.00  0.00    -0.273 OA
ATOM     30  C   UNL     1       2.385  -6.785   0.966  1.00  0.00     0.013 A 
ATOM     31  C   UNL     1      -0.035  -6.642   2.446  1.00  0.00     0.013 A 
ATOM     32  C   UNL     1       2.100  -7.725   1.961  1.00  0.00     0.001 A 
ATOM     33  C   UNL     1       0.899  -7.655   2.693  1.00  0.00     0.001 A 
BRANCH  23  34
ATOM     34  C   UNL     1      -1.759  -3.227  -4.616  1.00  0.00     0.052 A 
ATOM     35  C   UNL     1      -1.448  -2.476  -5.758  1.00  0.00     0.027 A 
ATOM     36  C   UNL     1      -2.977  -3.912  -4.558  1.00  0.00     0.027 A 
ATOM     37  C   UNL     1      -2.348  -2.389  -6.818  1.00  0.00     0.002 A 
ATOM     38  C   UNL     1      -3.895  -3.788  -5.603  1.00  0.00     0.002 A 
ATOM     39  C   UNL     1      -3.580  -3.029  -6.730  1.00  0.00     0.000 A 
ENDBRANCH  23  34
ENDBRANCH   9  11
ENDBRANCH   8   9
ENDBRANCH   7   8
ENDBRANCH   6   7
ENDBRANCH   5   6
ENDBRANCH   4   5
ENDBRANCH   3   4
ENDBRANCH   2   3
ENDBRANCH   1   2
BRANCH   1  40
ATOM     40  C   UNL     1      -1.899  -0.438   5.213  1.00  0.00     0.188 C 
BRANCH  40  41
ATOM     41  O   UNL     1      -0.732   0.358   5.346  1.00  0.00    -0.376 OA
BRANCH  41  42
ATOM     42  C   UNL     1       0.154   0.090   6.419  1.00  0.00     0.202 C 
BRANCH  42  43
ATOM     43  C   UNL     1       0.805  -1.299   6.496  1.00  0.00     0.261 C 
BRANCH  43  44
ATOM     44  O   UNL     1      -0.080  -2.425   6.556  1.00  0.00    -0.460 OA
BRANCH  44  45
ATOM     45  C   UNL     1      -0.986  -2.478   7.559  1.00  0.00     0.338 C 
ATOM     46  O   UNL     1      -1.121  -1.685   8.471  1.00  0.00    -0.246 OA
BRANCH  45  47
ATOM     47  C   UNL     1      -1.925  -3.572   7.226  1.00  0.00     0.060 A 
ATOM     48  C   UNL     1      -1.443  -4.861   6.991  1.00  0.00     0.016 A 
ATOM     49  C   UNL     1      -3.291  -3.290   7.086  1.00  0.00     0.016 A 
ATOM     50  C   UNL     1      -2.336  -5.878   6.651  1.00  0.00     0.010 A 
ATOM     51  C   UNL     1      -4.182  -4.306   6.731  1.00  0.00     0.010 A 
ATOM     52  C   UNL     1      -3.714  -5.614   6.541  1.00  0.00    -0.014 A 
BRANCH  52  53
ATOM     53  C   UNL     1      -4.671  -6.745   6.448  1.00  0.00     0.031 A 
ATOM     54  C   UNL     1      -5.361  -7.114   5.170  1.00  0.00     0.074 A 
ATOM     55  C   UNL     1      -4.908  -7.445   7.575  1.00  0.00     0.049 A 
ATOM     56  N   UNL     1      -6.144  -8.138   4.939  1.00  0.00    -0.248 NA
ATOM     57  C   UNL     1      -5.158  -6.236   4.009  1.00  0.00     0.031 C 
ATOM     58  C   UNL     1      -4.306  -7.150   8.878  1.00  0.00     0.029 A 
ATOM     59  N   UNL     1      -5.691  -8.547   7.812  1.00  0.00    -0.354 N 
ATOM     60  C   UNL     1      -6.513  -8.044   3.604  1.00  0.00     0.074 A 
ATOM     61  C   UNL     1      -5.906  -6.835   3.087  1.00  0.00     0.031 C 
ATOM     62  C   UNL     1      -4.705  -8.073   9.764  1.00  0.00     0.029 A 
ATOM     63  C   UNL     1      -5.622  -9.001   9.109  1.00  0.00     0.049 A 
ATOM     64  H   UNL     1      -6.247  -8.972   7.120  1.00  0.00     0.167 HD
ATOM     65  C   UNL     1      -7.272  -8.904   2.881  1.00  0.00     0.031 A 
ATOM     66  C   UNL     1      -6.217 -10.051   9.710  1.00  0.00     0.031 A 
ATOM     67  C   UNL     1      -7.879 -10.099   3.420  1.00  0.00     0.049 A 
ATOM     68  C   UNL     1      -7.086 -10.963   8.891  1.00  0.00     0.074 A 
ATOM     69  C   UNL     1      -8.623 -11.055   2.748  1.00  0.00     0.029 A 
ATOM     70  N   UNL     1      -7.825 -10.503   4.747  1.00  0.00    -0.354 N 
ATOM     71  N   UNL     1      -7.347 -10.911   7.607  1.00  0.00    -0.248 NA
ATOM     72  C   UNL     1      -7.726 -12.085   9.591  1.00  0.00     0.031 C 
ATOM     73  C   UNL     1      -9.089 -11.985   3.679  1.00  0.00     0.029 A 
ATOM     74  C   UNL     1      -8.557 -11.668   4.918  1.00  0.00     0.049 A 
ATOM     75  H   UNL     1      -7.339 -10.031   5.461  1.00  0.00     0.167 HD
ATOM     76  C   UNL     1      -8.164 -12.005   7.341  1.00  0.00     0.074 A 
ATOM     77  C   UNL     1      -8.332 -12.715   8.592  1.00  0.00     0.031 C 
ATOM     78  C   UNL     1      -8.724 -12.379   6.165  1.00  0.00     0.031 A 
BRANCH  65  79
ATOM     79  C   UNL     1      -7.484  -8.632   1.410  1.00  0.00    -0.014 A 
ATOM     80  C   UNL     1      -8.784  -8.406   0.916  1.00  0.00     0.010 A 
ATOM     81  C   UNL     1      -6.426  -8.785   0.495  1.00  0.00     0.010 A 
ATOM     82  C   UNL     1      -9.030  -8.393  -0.461  1.00  0.00     0.020 A 
ATOM     83  C   UNL     1      -6.664  -8.740  -0.883  1.00  0.00     0.020 A 
ATOM     84  C   UNL     1      -7.969  -8.574  -1.351  1.00  0.00     0.054 A 
BRANCH  84  85
ATOM     85  S   UNL     1      -8.320  -8.624  -3.131  1.00  0.00     0.124 S 
ATOM     86  O   UNL     1      -9.011  -9.901  -3.276  1.00  0.00    -0.237 OA
ATOM     87  O   UNL     1      -9.145  -7.433  -3.325  1.00  0.00    -0.237 OA
ATOM     88  O   UNL     1      -6.995  -8.557  -3.745  1.00  0.00    -0.744 OA
ENDBRANCH  84  85
ENDBRANCH  65  79
BRANCH  66  89
ATOM     89  C   UNL     1      -5.949 -10.309  11.152  1.00  0.00    -0.014 A 
ATOM     90  C   UNL     1      -6.358  -9.383  12.132  1.00  0.00     0.010 A 
ATOM     91  C   UNL     1      -5.211 -11.438  11.549  1.00  0.00     0.010 A 
ATOM     92  C   UNL     1      -5.981  -9.547  13.467  1.00  0.00     0.020 A 
ATOM     93  C   UNL     1      -4.865 -11.626  12.891  1.00  0.00     0.020 A 
ATOM     94  C   UNL     1      -5.226 -10.663  13.836  1.00  0.00     0.054 A 
BRANCH  94  95
ATOM     95  S   UNL     1      -4.705 -10.825  15.565  1.00  0.00     0.124 S 
ATOM     96  O   UNL     1      -3.668  -9.801  15.662  1.00  0.00    -0.237 OA
ATOM     97  O   UNL     1      -5.938 -10.544  16.296  1.00  0.00    -0.237 OA
ATOM     98  O   UNL     1      -4.232 -12.204  15.653  1.00  0.00    -0.744 OA
ENDBRANCH  94  95
ENDBRANCH  66  89
BRANCH  78  99
ATOM     99  C   UNL     1      -9.588 -13.617   6.143  1.00  0.00    -0.014 A 
ATOM    100  C   UNL     1      -9.202 -14.727   5.367  1.00  0.00     0.010 A 
ATOM    101  C   UNL     1     -10.848 -13.630   6.769  1.00  0.00     0.010 A 
ATOM    102  C   UNL     1     -10.076 -15.800   5.174  1.00  0.00     0.020 A 
ATOM    103  C   UNL     1     -11.710 -14.719   6.609  1.00  0.00     0.020 A 
ATOM    104  C   UNL     1     -11.331 -15.783   5.787  1.00  0.00     0.054 A 
BRANCH 104 105
ATOM    105  S   UNL     1     -12.475 -17.156   5.474  1.00  0.00     0.124 S 
ATOM    106  O   UNL     1     -12.882 -16.909   4.093  1.00  0.00    -0.237 OA
ATOM    107  O   UNL     1     -11.629 -18.329   5.681  1.00  0.00    -0.237 OA
ATOM    108  O   UNL     1     -13.522 -16.967   6.475  1.00  0.00    -0.744 OA
ENDBRANCH 104 105
ENDBRANCH  78  99
ENDBRANCH  52  53
ENDBRANCH  45  47
ENDBRANCH  44  45
ENDBRANCH  43  44
ENDBRANCH  42  43
ENDBRANCH  41  42
ENDBRANCH  40  41
ENDBRANCH   1  40
TORSDOF 24
