REMARK SMILES CC[C@](O)(C(=O)OCCOCCOCCOCCOC(=O)c1ccc(-c2c3nc(c(-c4ccc(S(=O)(=O)[O-])cc4)c4ccc([nH]4)c(-c4ccc(S(=O)(=O)[O-])cc4)c4nc(c(-c5ccc(S(=O)(=O)[O-])cc5)c5ccc2[nH]5)C=C4)C=C3)cc1)[C@@H](C)c1ccc(C)s1
REMARK SMILES IDX 14 1 13 2 12 3 11 4 10 5 9 6 8 7 7 8 5 9 6 10 3 11 2 12 1 13
REMARK SMILES IDX 82 14 83 15 84 16 85 17 89 18 86 19 87 20 88 21 4 22 15 24
REMARK SMILES IDX 16 25 17 26 18 27 19 28 20 29 21 30 22 31 23 32 81 33 24 34
REMARK SMILES IDX 80 35 25 36 26 37 27 38 74 39 28 40 79 41 73 42 75 43 29 44
REMARK SMILES IDX 78 45 72 46 71 47 30 49 60 50 41 51 59 52 42 53 45 54 58 55
REMARK SMILES IDX 76 56 43 57 44 58 57 60 77 61 46 62 31 63 32 64 40 65 33 66
REMARK SMILES IDX 39 67 34 68 35 69 36 70 37 71 38 72 61 73 62 74 70 75 63 76
REMARK SMILES IDX 69 77 64 78 65 79 66 80 67 81 68 82 47 83 48 84 56 85 49 86
REMARK SMILES IDX 55 87 50 88 51 89 52 90 53 91 54 92
REMARK H PARENT 4 23 75 48 45 59
REMARK Flexibility Score: inf
ROOT
ATOM      1  C   UNL     1      -1.656  -2.609   4.708  1.00  0.00     0.188 C 
ENDROOT
BRANCH   1   2
ATOM      2  O   UNL     1      -1.068  -1.434   4.158  1.00  0.00    -0.377 OA
BRANCH   2   3
ATOM      3  C   UNL     1       0.331  -1.508   3.985  1.00  0.00     0.188 C 
BRANCH   3   4
ATOM      4  C   UNL     1       1.136  -0.867   5.126  1.00  0.00     0.188 C 
BRANCH   4   5
ATOM      5  O   UNL     1       0.517  -0.534   6.358  1.00  0.00    -0.376 OA
BRANCH   5   6
ATOM      6  C   UNL     1      -0.687   0.226   6.359  1.00  0.00     0.202 C 
BRANCH   6   7
ATOM      7  C   UNL     1      -0.892   1.445   5.437  1.00  0.00     0.261 C 
BRANCH   7   8
ATOM      8  O   UNL     1      -0.500   1.288   4.062  1.00  0.00    -0.461 OA
BRANCH   8   9
ATOM      9  C   UNL     1       0.601   1.986   3.651  1.00  0.00     0.338 C 
ATOM     10  O   UNL     1       1.256   2.740   4.360  1.00  0.00    -0.249 OA
BRANCH   9  11
ATOM     11  C   UNL     1       0.899   1.716   2.146  1.00  0.00     0.168 C 
BRANCH  11  12
ATOM     12  C   UNL     1       0.268   2.916   1.394  1.00  0.00     0.044 C 
ATOM     13  C   UNL     1      -0.314   2.589   0.021  1.00  0.00     0.007 C 
ENDBRANCH  11  12
BRANCH  11  14
ATOM     14  C   UNL     1       2.461   1.609   1.980  1.00  0.00     0.070 C 
ATOM     15  C   UNL     1       3.158   0.463   2.746  1.00  0.00     0.017 C 
BRANCH  14  16
ATOM     16  C   UNL     1       2.926   1.583   0.535  1.00  0.00     0.011 A 
ATOM     17  C   UNL     1       3.384   2.658  -0.199  1.00  0.00     0.016 A 
ATOM     18  S   UNL     1       3.010   0.130  -0.375  1.00  0.00    -0.145 S 
ATOM     19  C   UNL     1       3.858   2.274  -1.482  1.00  0.00     0.015 A 
ATOM     20  C   UNL     1       3.772   0.913  -1.684  1.00  0.00     0.002 A 
ATOM     21  C   UNL     1       4.242   0.129  -2.858  1.00  0.00     0.056 C 
ENDBRANCH  14  16
ENDBRANCH  11  14
BRANCH  11  22
ATOM     22  O   UNL     1       0.277   0.528   1.658  1.00  0.00    -0.378 OA
ATOM     23  H   UNL     1       0.652  -0.243   2.111  1.00  0.00     0.212 HD
ENDBRANCH  11  22
ENDBRANCH   9  11
ENDBRANCH   8   9
ENDBRANCH   7   8
ENDBRANCH   6   7
ENDBRANCH   5   6
ENDBRANCH   4   5
ENDBRANCH   3   4
ENDBRANCH   2   3
ENDBRANCH   1   2
BRANCH   1  24
ATOM     24  C   UNL     1      -0.853  -3.380   5.786  1.00  0.00     0.188 C 
BRANCH  24  25
ATOM     25  O   UNL     1       0.488  -3.694   5.426  1.00  0.00    -0.376 OA
BRANCH  25  26
ATOM     26  C   UNL     1       0.797  -4.950   4.841  1.00  0.00     0.202 C 
BRANCH  26  27
ATOM     27  C   UNL     1       0.154  -5.340   3.498  1.00  0.00     0.261 C 
BRANCH  27  28
ATOM     28  O   UNL     1      -1.277  -5.310   3.432  1.00  0.00    -0.460 OA
BRANCH  28  29
ATOM     29  C   UNL     1      -1.969  -6.051   4.322  1.00  0.00     0.338 C 
ATOM     30  O   UNL     1      -1.510  -6.822   5.147  1.00  0.00    -0.246 OA
BRANCH  29  31
ATOM     31  C   UNL     1      -3.373  -5.589   4.281  1.00  0.00     0.060 A 
ATOM     32  C   UNL     1      -3.961  -5.109   5.460  1.00  0.00     0.016 A 
ATOM     33  C   UNL     1      -4.094  -5.595   3.084  1.00  0.00     0.016 A 
ATOM     34  C   UNL     1      -5.281  -4.665   5.453  1.00  0.00     0.010 A 
ATOM     35  C   UNL     1      -5.428  -5.183   3.086  1.00  0.00     0.010 A 
ATOM     36  C   UNL     1      -6.036  -4.751   4.278  1.00  0.00    -0.014 A 
BRANCH  36  37
ATOM     37  C   UNL     1      -7.510  -4.622   4.352  1.00  0.00     0.031 A 
ATOM     38  C   UNL     1      -8.319  -5.885   4.469  1.00  0.00     0.074 A 
ATOM     39  C   UNL     1      -8.115  -3.421   4.349  1.00  0.00     0.049 A 
ATOM     40  N   UNL     1      -9.616  -6.039   4.510  1.00  0.00    -0.248 NA
ATOM     41  C   UNL     1      -7.560  -7.145   4.551  1.00  0.00     0.031 C 
ATOM     42  C   UNL     1      -7.436  -2.127   4.303  1.00  0.00     0.029 A 
ATOM     43  N   UNL     1      -9.450  -3.101   4.382  1.00  0.00    -0.354 N 
ATOM     44  C   UNL     1      -9.828  -7.410   4.607  1.00  0.00     0.074 A 
ATOM     45  C   UNL     1      -8.530  -8.045   4.594  1.00  0.00     0.031 C 
ATOM     46  C   UNL     1      -8.361  -1.151   4.303  1.00  0.00     0.029 A 
ATOM     47  C   UNL     1      -9.695  -1.751   4.309  1.00  0.00     0.049 A 
ATOM     48  H   UNL     1     -10.164  -3.776   4.452  1.00  0.00     0.167 HD
ATOM     49  C   UNL     1     -11.000  -8.080   4.701  1.00  0.00     0.031 A 
ATOM     50  C   UNL     1     -10.863  -1.082   4.233  1.00  0.00     0.031 A 
ATOM     51  C   UNL     1     -12.289  -7.443   4.697  1.00  0.00     0.049 A 
ATOM     52  C   UNL     1     -12.158  -1.856   4.249  1.00  0.00     0.074 A 
ATOM     53  C   UNL     1     -13.537  -8.030   4.799  1.00  0.00     0.029 A 
ATOM     54  N   UNL     1     -12.496  -6.077   4.574  1.00  0.00    -0.354 N 
ATOM     55  N   UNL     1     -12.345  -3.151   4.361  1.00  0.00    -0.248 NA
ATOM     56  C   UNL     1     -13.399  -1.078   4.135  1.00  0.00     0.031 C 
ATOM     57  C   UNL     1     -14.501  -7.027   4.668  1.00  0.00     0.029 A 
ATOM     58  C   UNL     1     -13.854  -5.806   4.564  1.00  0.00     0.049 A 
ATOM     59  H   UNL     1     -11.784  -5.401   4.504  1.00  0.00     0.167 HD
ATOM     60  C   UNL     1     -13.725  -3.336   4.366  1.00  0.00     0.074 A 
ATOM     61  C   UNL     1     -14.322  -2.022   4.258  1.00  0.00     0.031 C 
ATOM     62  C   UNL     1     -14.434  -4.490   4.457  1.00  0.00     0.031 A 
BRANCH  49  63
ATOM     63  C   UNL     1     -10.940  -9.583   4.768  1.00  0.00    -0.014 A 
ATOM     64  C   UNL     1     -10.445 -10.248   5.904  1.00  0.00     0.010 A 
ATOM     65  C   UNL     1     -11.419 -10.342   3.685  1.00  0.00     0.010 A 
ATOM     66  C   UNL     1     -10.400 -11.645   5.941  1.00  0.00     0.020 A 
ATOM     67  C   UNL     1     -11.405 -11.738   3.731  1.00  0.00     0.020 A 
ATOM     68  C   UNL     1     -10.882 -12.381   4.854  1.00  0.00     0.054 A 
BRANCH  68  69
ATOM     69  S   UNL     1     -10.840 -14.191   4.944  1.00  0.00     0.124 S 
ATOM     70  O   UNL     1      -9.409 -14.466   4.841  1.00  0.00    -0.237 OA
ATOM     71  O   UNL     1     -11.439 -14.460   6.248  1.00  0.00    -0.237 OA
ATOM     72  O   UNL     1     -11.638 -14.615   3.796  1.00  0.00    -0.744 OA
ENDBRANCH  68  69
ENDBRANCH  49  63
BRANCH  50  73
ATOM     73  C   UNL     1     -10.868   0.403   4.114  1.00  0.00    -0.014 A 
ATOM     74  C   UNL     1     -11.368   1.207   5.153  1.00  0.00     0.010 A 
ATOM     75  C   UNL     1     -10.379   1.024   2.948  1.00  0.00     0.010 A 
ATOM     76  C   UNL     1     -11.395   2.599   5.024  1.00  0.00     0.020 A 
ATOM     77  C   UNL     1     -10.375   2.416   2.828  1.00  0.00     0.020 A 
ATOM     78  C   UNL     1     -10.893   3.195   3.864  1.00  0.00     0.054 A 
BRANCH  78  79
ATOM     79  S   UNL     1     -10.890   5.006   3.742  1.00  0.00     0.124 S 
ATOM     80  O   UNL     1     -12.310   5.303   3.588  1.00  0.00    -0.237 OA
ATOM     81  O   UNL     1     -10.293   5.403   5.014  1.00  0.00    -0.237 OA
ATOM     82  O   UNL     1     -10.063   5.268   2.566  1.00  0.00    -0.744 OA
ENDBRANCH  78  79
ENDBRANCH  50  73
BRANCH  62  83
ATOM     83  C   UNL     1     -15.937  -4.387   4.491  1.00  0.00    -0.014 A 
ATOM     84  C   UNL     1     -16.675  -4.020   3.352  1.00  0.00     0.010 A 
ATOM     85  C   UNL     1     -16.625  -4.729   5.671  1.00  0.00     0.010 A 
ATOM     86  C   UNL     1     -18.072  -3.963   3.403  1.00  0.00     0.020 A 
ATOM     87  C   UNL     1     -18.021  -4.706   5.716  1.00  0.00     0.020 A 
ATOM     88  C   UNL     1     -18.735  -4.309   4.585  1.00  0.00     0.054 A 
BRANCH  88  89
ATOM     89  S   UNL     1     -20.549  -4.270   4.610  1.00  0.00     0.124 S 
ATOM     90  O   UNL     1     -20.823  -2.836   4.585  1.00  0.00    -0.237 OA
ATOM     91  O   UNL     1     -20.901  -4.999   3.394  1.00  0.00    -0.237 OA
ATOM     92  O   UNL     1     -20.893  -4.948   5.858  1.00  0.00    -0.744 OA
ENDBRANCH  88  89
ENDBRANCH  62  83
ENDBRANCH  36  37
ENDBRANCH  29  31
ENDBRANCH  28  29
ENDBRANCH  27  28
ENDBRANCH  26  27
ENDBRANCH  25  26
ENDBRANCH  24  25
ENDBRANCH   1  24
TORSDOF 27
