REMARK SMILES CC[NH+]1CCN(c2ccc(NC(=O)C3CCCC3)c(C(=O)OCCOCCOCCOCCOC(=O)c3ccc(-c4c5nc(c(-c6ccc(S(=O)(=O)[O-])cc6)c6ccc([nH]6)c(-c6ccc(S(=O)(=O)[O-])cc6)c6nc(c(-c7ccc(S(=O)(=O)[O-])cc7)c7ccc4[nH]7)C=C6)C=C5)cc3)c2)CC1
REMARK SMILES IDX 29 1 28 2 27 3 26 4 25 5 24 6 23 7 22 8 20 9 21 10 19 11
REMARK SMILES IDX 7 12 8 13 97 14 9 15 10 16 6 17 3 18 4 19 99 20 5 22 98 23
REMARK SMILES IDX 2 24 1 25 11 26 12 27 13 29 14 30 15 31 18 32 16 33 17 34
REMARK SMILES IDX 30 35 31 36 32 37 33 38 34 39 35 40 36 41 37 42 38 43 96 44
REMARK SMILES IDX 39 45 95 46 40 47 41 48 42 49 89 50 43 51 94 52 88 53 90 54
REMARK SMILES IDX 44 55 93 56 87 57 86 58 45 60 75 61 56 62 74 63 57 64 60 65
REMARK SMILES IDX 73 66 91 67 58 68 59 69 72 71 92 72 61 73 46 74 47 75 55 76
REMARK SMILES IDX 48 77 54 78 49 79 50 80 51 81 52 82 53 83 76 84 77 85 85 86
REMARK SMILES IDX 78 87 84 88 79 89 80 90 81 91 82 92 83 93 62 94 63 95 71 96
REMARK SMILES IDX 64 97 70 98 65 99 66 100 67 101 68 102 69 103
REMARK H PARENT 3 21 11 28 90 59 60 70
REMARK Flexibility Score: inf
ROOT
ATOM      1  C   UNL     1       2.025  -5.324   7.862  1.00  0.00     0.188 C 
ENDROOT
BRANCH   1   2
ATOM      2  O   UNL     1       1.074  -5.213   6.804  1.00  0.00    -0.377 OA
BRANCH   2   3
ATOM      3  C   UNL     1      -0.226  -5.762   6.956  1.00  0.00     0.188 C 
BRANCH   3   4
ATOM      4  C   UNL     1      -0.363  -7.222   7.437  1.00  0.00     0.188 C 
BRANCH   4   5
ATOM      5  O   UNL     1       0.837  -7.774   7.945  1.00  0.00    -0.376 OA
BRANCH   5   6
ATOM      6  C   UNL     1       1.543  -8.742   7.197  1.00  0.00     0.202 C 
BRANCH   6   7
ATOM      7  C   UNL     1       1.978  -8.445   5.755  1.00  0.00     0.261 C 
BRANCH   7   8
ATOM      8  O   UNL     1       1.075  -7.679   4.953  1.00  0.00    -0.460 OA
BRANCH   8   9
ATOM      9  C   UNL     1      -0.024  -8.295   4.468  1.00  0.00     0.340 C 
ATOM     10  O   UNL     1      -0.359  -9.449   4.679  1.00  0.00    -0.246 OA
BRANCH   9  11
ATOM     11  C   UNL     1      -0.884  -7.288   3.789  1.00  0.00     0.085 A 
ATOM     12  C   UNL     1      -1.018  -5.197   2.517  1.00  0.00     0.038 A 
ATOM     13  C   UNL     1      -2.393  -5.355   2.498  1.00  0.00     0.028 A 
ATOM     14  C   UNL     1      -0.266  -6.219   3.103  1.00  0.00     0.043 A 
ATOM     15  C   UNL     1      -3.000  -6.418   3.159  1.00  0.00     0.029 A 
ATOM     16  C   UNL     1      -2.288  -7.328   3.915  1.00  0.00     0.055 A 
BRANCH  12  17
ATOM     17  N   UNL     1      -0.432  -4.059   2.023  1.00  0.00    -0.360 N 
ATOM     18  N   UNL     1       1.108  -1.663   1.345  1.00  0.00    -0.332 N 
ATOM     19  C   UNL     1       0.040  -1.645   2.374  1.00  0.00     0.283 C 
ATOM     20  C   UNL     1       1.666  -3.034   1.265  1.00  0.00     0.283 C 
ATOM     21  H   UNL     1       1.846  -1.014   1.619  1.00  0.00     0.348 HD
ATOM     22  C   UNL     1      -1.047  -2.740   2.226  1.00  0.00     0.178 C 
ATOM     23  C   UNL     1       0.624  -4.141   1.015  1.00  0.00     0.178 C 
BRANCH  18  24
ATOM     24  C   UNL     1       0.629  -1.188   0.044  1.00  0.00     0.258 C 
ATOM     25  C   UNL     1       0.967   0.288  -0.104  1.00  0.00     0.071 C 
ENDBRANCH  18  24
ENDBRANCH  12  17
BRANCH  16  26
ATOM     26  N   UNL     1      -2.910  -8.181   4.857  1.00  0.00    -0.325 N 
ATOM     27  C   UNL     1      -4.132  -8.254   5.458  1.00  0.00     0.227 C 
ATOM     28  H   UNL     1      -2.310  -8.904   5.152  1.00  0.00     0.169 HD
ATOM     29  O   UNL     1      -4.211  -9.059   6.401  1.00  0.00    -0.274 OA
BRANCH  27  30
ATOM     30  C   UNL     1      -5.405  -7.478   5.099  1.00  0.00     0.079 C 
ATOM     31  C   UNL     1      -5.381  -5.957   5.198  1.00  0.00     0.013 C 
ATOM     32  C   UNL     1      -5.986  -7.864   3.742  1.00  0.00     0.013 C 
ATOM     33  C   UNL     1      -6.198  -5.423   4.022  1.00  0.00     0.001 C 
ATOM     34  C   UNL     1      -6.505  -6.589   3.088  1.00  0.00     0.001 C 
ENDBRANCH  27  30
ENDBRANCH  16  26
ENDBRANCH   9  11
ENDBRANCH   8   9
ENDBRANCH   7   8
ENDBRANCH   6   7
ENDBRANCH   5   6
ENDBRANCH   4   5
ENDBRANCH   3   4
ENDBRANCH   2   3
ENDBRANCH   1   2
BRANCH   1  35
ATOM     35  C   UNL     1       1.596  -5.565   9.331  1.00  0.00     0.188 C 
BRANCH  35  36
ATOM     36  O   UNL     1       0.203  -5.453   9.571  1.00  0.00    -0.376 OA
BRANCH  36  37
ATOM     37  C   UNL     1      -0.259  -4.319  10.278  1.00  0.00     0.202 C 
BRANCH  37  38
ATOM     38  C   UNL     1      -0.040  -2.950   9.621  1.00  0.00     0.261 C 
BRANCH  38  39
ATOM     39  O   UNL     1       1.302  -2.647   9.215  1.00  0.00    -0.460 OA
BRANCH  39  40
ATOM     40  C   UNL     1       2.230  -2.519  10.187  1.00  0.00     0.338 C 
ATOM     41  O   UNL     1       2.054  -2.632  11.390  1.00  0.00    -0.246 OA
BRANCH  40  42
ATOM     42  C   UNL     1       3.548  -2.408   9.530  1.00  0.00     0.060 A 
ATOM     43  C   UNL     1       4.525  -3.382   9.776  1.00  0.00     0.016 A 
ATOM     44  C   UNL     1       3.805  -1.351   8.655  1.00  0.00     0.016 A 
ATOM     45  C   UNL     1       5.777  -3.282   9.169  1.00  0.00     0.010 A 
ATOM     46  C   UNL     1       5.066  -1.239   8.066  1.00  0.00     0.010 A 
ATOM     47  C   UNL     1       6.069  -2.185   8.348  1.00  0.00    -0.014 A 
BRANCH  47  48
ATOM     48  C   UNL     1       7.470  -1.908   7.950  1.00  0.00     0.031 A 
ATOM     49  C   UNL     1       8.245  -0.896   8.750  1.00  0.00     0.074 A 
ATOM     50  C   UNL     1       8.047  -2.539   6.913  1.00  0.00     0.049 A 
ATOM     51  N   UNL     1       9.454  -0.436   8.559  1.00  0.00    -0.248 NA
ATOM     52  C   UNL     1       7.559  -0.324   9.921  1.00  0.00     0.031 C 
ATOM     53  C   UNL     1       7.417  -3.571   6.091  1.00  0.00     0.029 A 
ATOM     54  N   UNL     1       9.299  -2.391   6.369  1.00  0.00    -0.354 N 
ATOM     55  C   UNL     1       9.670   0.484   9.579  1.00  0.00     0.074 A 
ATOM     56  C   UNL     1       8.457   0.543  10.363  1.00  0.00     0.031 C 
ATOM     57  C   UNL     1       8.283  -3.951   5.134  1.00  0.00     0.029 A 
ATOM     58  C   UNL     1       9.510  -3.164   5.253  1.00  0.00     0.049 A 
ATOM     59  H   UNL     1       9.981  -1.787   6.742  1.00  0.00     0.167 HD
ATOM     60  C   UNL     1      10.781   1.211   9.843  1.00  0.00     0.031 A 
ATOM     61  C   UNL     1      10.560  -3.210   4.407  1.00  0.00     0.031 A 
ATOM     62  C   UNL     1      11.976   1.168   9.044  1.00  0.00     0.049 A 
ATOM     63  C   UNL     1      11.756  -2.328   4.668  1.00  0.00     0.074 A 
ATOM     64  C   UNL     1      13.158   1.863   9.226  1.00  0.00     0.029 A 
ATOM     65  N   UNL     1      12.139   0.394   7.904  1.00  0.00    -0.354 N 
ATOM     66  N   UNL     1      11.956  -1.476   5.647  1.00  0.00    -0.248 NA
ATOM     67  C   UNL     1      12.871  -2.421   3.716  1.00  0.00     0.031 C 
ATOM     68  C   UNL     1      14.011   1.559   8.161  1.00  0.00     0.029 A 
ATOM     69  C   UNL     1      13.391   0.615   7.357  1.00  0.00     0.049 A 
ATOM     70  H   UNL     1      11.463  -0.222   7.538  1.00  0.00     0.167 HD
ATOM     71  C   UNL     1      13.231  -0.956   5.444  1.00  0.00     0.074 A 
ATOM     72  C   UNL     1      13.760  -1.599   4.259  1.00  0.00     0.031 C 
ATOM     73  C   UNL     1      13.905  -0.033   6.175  1.00  0.00     0.031 A 
BRANCH  60  74
ATOM     74  C   UNL     1      10.734   2.144  11.025  1.00  0.00    -0.014 A 
ATOM     75  C   UNL     1      10.686   1.653  12.343  1.00  0.00     0.010 A 
ATOM     76  C   UNL     1      10.759   3.535  10.816  1.00  0.00     0.010 A 
ATOM     77  C   UNL     1      10.619   2.534  13.425  1.00  0.00     0.020 A 
ATOM     78  C   UNL     1      10.726   4.420  11.897  1.00  0.00     0.020 A 
ATOM     79  C   UNL     1      10.638   3.913  13.194  1.00  0.00     0.054 A 
BRANCH  79  80
ATOM     80  S   UNL     1      10.566   5.032  14.619  1.00  0.00     0.124 S 
ATOM     81  O   UNL     1       9.189   4.853  15.074  1.00  0.00    -0.237 OA
ATOM     82  O   UNL     1      11.594   4.490  15.503  1.00  0.00    -0.237 OA
ATOM     83  O   UNL     1      10.866   6.343  14.048  1.00  0.00    -0.744 OA
ENDBRANCH  79  80
ENDBRANCH  60  74
BRANCH  61  84
ATOM     84  C   UNL     1      10.516  -4.105   3.217  1.00  0.00    -0.014 A 
ATOM     85  C   UNL     1      11.366  -5.221   3.118  1.00  0.00     0.010 A 
ATOM     86  C   UNL     1       9.613  -3.842   2.169  1.00  0.00     0.010 A 
ATOM     87  C   UNL     1      11.320  -6.050   1.992  1.00  0.00     0.020 A 
ATOM     88  C   UNL     1       9.543  -4.686   1.057  1.00  0.00     0.020 A 
ATOM     89  C   UNL     1      10.404  -5.780   0.972  1.00  0.00     0.054 A 
BRANCH  89  90
ATOM     90  S   UNL     1      10.318  -6.907  -0.448  1.00  0.00     0.124 S 
ATOM     91  O   UNL     1      11.565  -6.614  -1.146  1.00  0.00    -0.237 OA
ATOM     92  O   UNL     1      10.244  -8.217   0.196  1.00  0.00    -0.237 OA
ATOM     93  O   UNL     1       9.100  -6.493  -1.141  1.00  0.00    -0.744 OA
ENDBRANCH  89  90
ENDBRANCH  61  84
BRANCH  73  94
ATOM     94  C   UNL     1      15.310   0.311   5.747  1.00  0.00    -0.014 A 
ATOM     95  C   UNL     1      15.563   1.050   4.577  1.00  0.00     0.010 A 
ATOM     96  C   UNL     1      16.392  -0.057   6.569  1.00  0.00     0.010 A 
ATOM     97  C   UNL     1      16.874   1.385   4.223  1.00  0.00     0.020 A 
ATOM     98  C   UNL     1      17.699   0.304   6.236  1.00  0.00     0.020 A 
ATOM     99  C   UNL     1      17.933   1.012   5.056  1.00  0.00     0.054 A 
BRANCH  99 100
ATOM    100  S   UNL     1      19.619   1.500   4.597  1.00  0.00     0.124 S 
ATOM    101  O   UNL     1      19.884   0.636   3.450  1.00  0.00    -0.237 OA
ATOM    102  O   UNL     1      19.468   2.921   4.292  1.00  0.00    -0.237 OA
ATOM    103  O   UNL     1      20.405   1.206   5.793  1.00  0.00    -0.744 OA
ENDBRANCH  99 100
ENDBRANCH  73  94
ENDBRANCH  47  48
ENDBRANCH  40  42
ENDBRANCH  39  40
ENDBRANCH  38  39
ENDBRANCH  37  38
ENDBRANCH  36  37
ENDBRANCH  35  36
ENDBRANCH   1  35
TORSDOF 27
