REMARK SMILES C[C@@H]1[C@H](C(=O)OCCOCCOCCOCCOC(=O)c2ccc(-c3c4nc(c(-c5ccc(S(=O)(=O)[O-])cc5)c5ccc([nH]5)c(-c5ccc(S(=O)(=O)[O-])cc5)c5nc(c(-c6ccc(S(=O)(=O)[O-])cc6)c6ccc3[nH]6)C=C5)C=C4)cc2)CC[N@@H+]1CCOc1c(Cl)cccc1Cl
REMARK SMILES IDX 11 1 10 2 9 3 8 4 7 5 6 6 4 7 5 8 3 9 1 10 2 11 83 12 81 13
REMARK SMILES IDX 82 14 84 16 85 17 86 18 87 19 88 20 93 21 89 22 90 23 92 24
REMARK SMILES IDX 94 25 91 26 12 27 13 28 14 29 15 30 16 31 17 32 18 33 19 34
REMARK SMILES IDX 20 35 21 36 22 37 80 38 23 39 79 40 24 41 25 42 26 43 73 44
REMARK SMILES IDX 27 45 78 46 72 47 74 48 28 49 77 50 71 51 70 52 29 54 59 55
REMARK SMILES IDX 40 56 58 57 41 58 44 59 57 60 75 61 42 62 43 63 56 65 76 66
REMARK SMILES IDX 45 67 30 68 31 69 39 70 32 71 38 72 33 73 34 74 35 75 36 76
REMARK SMILES IDX 37 77 60 78 61 79 69 80 62 81 68 82 63 83 64 84 65 85 66 86
REMARK SMILES IDX 67 87 46 88 47 89 55 90 48 91 54 92 49 93 50 94 51 95 52 96
REMARK SMILES IDX 53 97
REMARK H PARENT 83 15 74 53 44 64
REMARK Flexibility Score: inf
ROOT
ATOM      1  C   UNL     1       2.800   2.489  -2.018  1.00  0.00     0.188 C 
ENDROOT
BRANCH   1   2
ATOM      2  C   UNL     1       2.089   3.843  -1.848  1.00  0.00     0.188 C 
BRANCH   2   3
ATOM      3  O   UNL     1       2.821   4.761  -1.064  1.00  0.00    -0.376 OA
BRANCH   3   4
ATOM      4  C   UNL     1       2.335   5.167   0.208  1.00  0.00     0.202 C 
BRANCH   4   5
ATOM      5  C   UNL     1       1.518   4.243   1.136  1.00  0.00     0.261 C 
BRANCH   5   6
ATOM      6  O   UNL     1       1.478   2.861   0.757  1.00  0.00    -0.463 OA
BRANCH   6   7
ATOM      7  C   UNL     1       0.252   2.368   0.456  1.00  0.00     0.315 C 
ATOM      8  O   UNL     1      -0.785   3.022   0.549  1.00  0.00    -0.252 OA
BRANCH   7   9
ATOM      9  C   UNL     1       0.295   1.025  -0.252  1.00  0.00     0.162 C 
ATOM     10  C   UNL     1       2.079   0.015   1.414  1.00  0.00     0.076 C 
ATOM     11  C   UNL     1       1.189  -0.154   0.188  1.00  0.00     0.195 C 
ATOM     12  N   UNL     1       0.327  -1.370   0.126  1.00  0.00    -0.329 N 
ATOM     13  C   UNL     1      -1.093   0.429  -0.266  1.00  0.00     0.083 C 
ATOM     14  C   UNL     1      -0.869  -1.012  -0.627  1.00  0.00     0.263 C 
ATOM     15  H   UNL     1       0.899  -2.073  -0.342  1.00  0.00     0.348 HD
BRANCH  12  16
ATOM     16  C   UNL     1       0.053  -2.160   1.342  1.00  0.00     0.304 C 
BRANCH  16  17
ATOM     17  C   UNL     1      -0.641  -1.526   2.575  1.00  0.00     0.291 C 
BRANCH  17  18
ATOM     18  O   UNL     1      -2.070  -1.729   2.637  1.00  0.00    -0.485 OA
BRANCH  18  19
ATOM     19  C   UNL     1      -2.841  -0.618   2.380  1.00  0.00     0.156 A 
ATOM     20  C   UNL     1      -2.670   0.640   2.985  1.00  0.00     0.084 A 
ATOM     21  C   UNL     1      -3.812  -0.742   1.369  1.00  0.00     0.084 A 
ATOM     22  Cl  UNL     1      -1.717   0.883   4.406  1.00  0.00    -0.080 Cl
ATOM     23  C   UNL     1      -3.279   1.775   2.430  1.00  0.00     0.024 A 
ATOM     24  C   UNL     1      -4.420   0.393   0.820  1.00  0.00     0.024 A 
ATOM     25  Cl  UNL     1      -4.232  -2.281   0.699  1.00  0.00    -0.080 Cl
ATOM     26  C   UNL     1      -4.117   1.657   1.321  1.00  0.00     0.003 A 
ENDBRANCH  18  19
ENDBRANCH  17  18
ENDBRANCH  16  17
ENDBRANCH  12  16
ENDBRANCH   7   9
ENDBRANCH   6   7
ENDBRANCH   5   6
ENDBRANCH   4   5
ENDBRANCH   3   4
ENDBRANCH   2   3
ENDBRANCH   1   2
BRANCH   1  27
ATOM     27  O   UNL     1       3.510   1.940  -0.917  1.00  0.00    -0.377 OA
BRANCH  27  28
ATOM     28  C   UNL     1       4.550   2.707  -0.309  1.00  0.00     0.188 C 
BRANCH  28  29
ATOM     29  C   UNL     1       5.462   3.575  -1.200  1.00  0.00     0.188 C 
BRANCH  29  30
ATOM     30  O   UNL     1       5.337   3.347  -2.592  1.00  0.00    -0.376 OA
BRANCH  30  31
ATOM     31  C   UNL     1       6.155   2.343  -3.178  1.00  0.00     0.202 C 
BRANCH  31  32
ATOM     32  C   UNL     1       6.144   0.926  -2.576  1.00  0.00     0.261 C 
BRANCH  32  33
ATOM     33  O   UNL     1       6.581   0.792  -1.212  1.00  0.00    -0.460 OA
BRANCH  33  34
ATOM     34  C   UNL     1       7.789   1.295  -0.876  1.00  0.00     0.338 C 
ATOM     35  O   UNL     1       8.602   1.816  -1.611  1.00  0.00    -0.246 OA
BRANCH  34  36
ATOM     36  C   UNL     1       7.890   1.271   0.598  1.00  0.00     0.060 A 
ATOM     37  C   UNL     1       7.974   2.483   1.296  1.00  0.00     0.016 A 
ATOM     38  C   UNL     1       7.934   0.055   1.281  1.00  0.00     0.016 A 
ATOM     39  C   UNL     1       8.149   2.481   2.680  1.00  0.00     0.010 A 
ATOM     40  C   UNL     1       8.135   0.054   2.664  1.00  0.00     0.010 A 
ATOM     41  C   UNL     1       8.285   1.266   3.362  1.00  0.00    -0.014 A 
BRANCH  41  42
ATOM     42  C   UNL     1       8.805   1.265   4.751  1.00  0.00     0.031 A 
ATOM     43  C   UNL     1      10.275   1.015   4.958  1.00  0.00     0.074 A 
ATOM     44  C   UNL     1       8.004   1.511   5.803  1.00  0.00     0.049 A 
ATOM     45  N   UNL     1      10.954   0.930   6.072  1.00  0.00    -0.248 NA
ATOM     46  C   UNL     1      11.089   0.838   3.743  1.00  0.00     0.031 C 
ATOM     47  C   UNL     1       6.578   1.824   5.729  1.00  0.00     0.029 A 
ATOM     48  N   UNL     1       8.285   1.532   7.147  1.00  0.00    -0.354 N 
ATOM     49  C   UNL     1      12.268   0.679   5.694  1.00  0.00     0.074 A 
ATOM     50  C   UNL     1      12.287   0.596   4.250  1.00  0.00     0.031 C 
ATOM     51  C   UNL     1       6.106   1.998   6.977  1.00  0.00     0.029 A 
ATOM     52  C   UNL     1       7.186   1.770   7.937  1.00  0.00     0.049 A 
ATOM     53  H   UNL     1       9.189   1.389   7.511  1.00  0.00     0.167 HD
ATOM     54  C   UNL     1      13.363   0.534   6.477  1.00  0.00     0.031 A 
ATOM     55  C   UNL     1       7.062   1.780   9.280  1.00  0.00     0.031 A 
ATOM     56  C   UNL     1      13.337   0.600   7.914  1.00  0.00     0.049 A 
ATOM     57  C   UNL     1       8.279   1.527  10.135  1.00  0.00     0.074 A 
ATOM     58  C   UNL     1      14.393   0.474   8.799  1.00  0.00     0.029 A 
ATOM     59  N   UNL     1      12.197   0.798   8.677  1.00  0.00    -0.354 N 
ATOM     60  N   UNL     1       9.520   1.311   9.764  1.00  0.00    -0.248 NA
ATOM     61  C   UNL     1       8.080   1.528  11.591  1.00  0.00     0.031 C 
ATOM     62  C   UNL     1      13.881   0.528  10.098  1.00  0.00     0.029 A 
ATOM     63  C   UNL     1      12.518   0.766  10.023  1.00  0.00     0.049 A 
ATOM     64  H   UNL     1      11.292   0.940   8.315  1.00  0.00     0.167 HD
ATOM     65  C   UNL     1      10.252   1.184  10.941  1.00  0.00     0.074 A 
ATOM     66  C   UNL     1       9.319   1.362  12.034  1.00  0.00     0.031 C 
ATOM     67  C   UNL     1      11.579   0.947  11.102  1.00  0.00     0.031 A 
BRANCH  54  68
ATOM     68  C   UNL     1      14.676   0.246   5.795  1.00  0.00    -0.014 A 
ATOM     69  C   UNL     1      15.329   1.221   5.020  1.00  0.00     0.010 A 
ATOM     70  C   UNL     1      15.283  -1.012   5.963  1.00  0.00     0.010 A 
ATOM     71  C   UNL     1      16.547   0.931   4.397  1.00  0.00     0.020 A 
ATOM     72  C   UNL     1      16.515  -1.296   5.368  1.00  0.00     0.020 A 
ATOM     73  C   UNL     1      17.131  -0.327   4.576  1.00  0.00     0.054 A 
BRANCH  73  74
ATOM     74  S   UNL     1      18.725  -0.665   3.779  1.00  0.00     0.124 S 
ATOM     75  O   UNL     1      18.348  -0.737   2.369  1.00  0.00    -0.237 OA
ATOM     76  O   UNL     1      19.523   0.498   4.156  1.00  0.00    -0.237 OA
ATOM     77  O   UNL     1      19.151  -1.929   4.374  1.00  0.00    -0.744 OA
ENDBRANCH  73  74
ENDBRANCH  54  68
BRANCH  55  78
ATOM     78  C   UNL     1       5.730   2.015   9.906  1.00  0.00    -0.014 A 
ATOM     79  C   UNL     1       5.481   3.177  10.657  1.00  0.00     0.010 A 
ATOM     80  C   UNL     1       4.702   1.064   9.763  1.00  0.00     0.010 A 
ATOM     81  C   UNL     1       4.238   3.376  11.267  1.00  0.00     0.020 A 
ATOM     82  C   UNL     1       3.448   1.274  10.343  1.00  0.00     0.020 A 
ATOM     83  C   UNL     1       3.227   2.424  11.101  1.00  0.00     0.054 A 
BRANCH  83  84
ATOM     84  S   UNL     1       1.608   2.730  11.860  1.00  0.00     0.124 S 
ATOM     85  O   UNL     1       1.899   2.558  13.279  1.00  0.00    -0.237 OA
ATOM     86  O   UNL     1       1.316   4.096  11.434  1.00  0.00    -0.237 OA
ATOM     87  O   UNL     1       0.753   1.704  11.267  1.00  0.00    -0.744 OA
ENDBRANCH  83  84
ENDBRANCH  55  78
BRANCH  67  88
ATOM     88  C   UNL     1      12.117   0.909  12.511  1.00  0.00    -0.014 A 
ATOM     89  C   UNL     1      11.813  -0.147  13.388  1.00  0.00     0.010 A 
ATOM     90  C   UNL     1      12.995   1.923  12.941  1.00  0.00     0.010 A 
ATOM     91  C   UNL     1      12.349  -0.170  14.679  1.00  0.00     0.020 A 
ATOM     92  C   UNL     1      13.559   1.886  14.218  1.00  0.00     0.020 A 
ATOM     93  C   UNL     1      13.220   0.846  15.085  1.00  0.00     0.054 A 
BRANCH  93  94
ATOM     94  S   UNL     1      13.933   0.770  16.751  1.00  0.00     0.124 S 
ATOM     95  O   UNL     1      12.780   1.080  17.591  1.00  0.00    -0.237 OA
ATOM     96  O   UNL     1      14.416  -0.607  16.829  1.00  0.00    -0.237 OA
ATOM     97  O   UNL     1      14.979   1.790  16.729  1.00  0.00    -0.744 OA
ENDBRANCH  93  94
ENDBRANCH  67  88
ENDBRANCH  41  42
ENDBRANCH  34  36
ENDBRANCH  33  34
ENDBRANCH  32  33
ENDBRANCH  31  32
ENDBRANCH  30  31
ENDBRANCH  29  30
ENDBRANCH  28  29
ENDBRANCH  27  28
ENDBRANCH   1  27
TORSDOF 27
