REMARK SMILES CC(C)C(=O)Nc1ccc2c([C@H](C(=O)OCCOCCOCCOCCOC(=O)c3ccc(-c4c5nc(c(-c6ccc(S(=O)(=O)[O-])cc6)c6ccc([nH]6)c(-c6ccc(S(=O)(=O)[O-])cc6)c6nc(c(-c7ccc(S(=O)(=O)[O-])cc7)c7ccc4[nH]7)C=C6)C=C5)cc3)[NH+]3CC[NH+](CC(=O)N(C)C)CC3)c[nH]c2c1
REMARK SMILES IDX 21 1 20 2 19 3 18 4 17 5 16 6 15 7 13 8 14 9 12 10 11 11
REMARK SMILES IDX 7 12 8 13 105 14 9 15 104 16 10 17 103 18 102 19 6 21 4 22
REMARK SMILES IDX 5 23 2 25 1 26 3 27 90 28 91 29 101 30 92 32 100 33 93 34
REMARK SMILES IDX 94 36 95 37 96 38 97 39 98 40 99 41 22 42 23 43 24 44 25 45
REMARK SMILES IDX 26 46 27 47 28 48 29 49 30 50 31 51 89 52 32 53 88 54 33 55
REMARK SMILES IDX 34 56 35 57 82 58 36 59 87 60 81 61 83 62 37 63 86 64 80 65
REMARK SMILES IDX 79 66 38 68 68 69 49 70 67 71 50 72 53 73 66 74 84 75 51 76
REMARK SMILES IDX 52 77 65 79 85 80 54 81 39 82 40 83 48 84 41 85 47 86 42 87
REMARK SMILES IDX 43 88 44 89 45 90 46 91 69 92 70 93 78 94 71 95 77 96 72 97
REMARK SMILES IDX 73 98 74 99 75 100 76 101 55 102 56 103 64 104 57 105 63 106
REMARK SMILES IDX 58 107 59 108 60 109 61 110 62 111
REMARK H PARENT 103 20 6 24 90 31 93 35 83 67 53 78
REMARK Flexibility Score: inf
ROOT
ATOM      1  O   UNL     1       0.782   2.678   0.596  1.00  0.00    -0.377 OA
ENDROOT
BRANCH   1   2
ATOM      2  C   UNL     1       1.202   3.711  -0.285  1.00  0.00     0.188 C 
BRANCH   2   3
ATOM      3  C   UNL     1       0.326   4.980  -0.449  1.00  0.00     0.188 C 
BRANCH   3   4
ATOM      4  O   UNL     1      -1.062   4.690  -0.422  1.00  0.00    -0.376 OA
BRANCH   4   5
ATOM      5  C   UNL     1      -1.730   4.818  -1.664  1.00  0.00     0.202 C 
BRANCH   5   6
ATOM      6  C   UNL     1      -1.255   3.822  -2.725  1.00  0.00     0.261 C 
BRANCH   6   7
ATOM      7  O   UNL     1       0.095   3.988  -3.214  1.00  0.00    -0.459 OA
BRANCH   7   8
ATOM      8  C   UNL     1       0.475   5.196  -3.728  1.00  0.00     0.370 C 
ATOM      9  O   UNL     1      -0.235   6.196  -3.737  1.00  0.00    -0.245 OA
BRANCH   8  10
ATOM     10  C   UNL     1       1.913   5.104  -4.282  1.00  0.00     0.328 C 
BRANCH  10  11
ATOM     11  C   UNL     1       1.957   5.517  -5.731  1.00  0.00     0.046 A 
ATOM     12  C   UNL     1       4.855   5.296  -8.721  1.00  0.00     0.043 A 
ATOM     13  C   UNL     1       5.312   5.026  -7.437  1.00  0.00     0.027 A 
ATOM     14  C   UNL     1       3.587   5.837  -8.946  1.00  0.00     0.052 A 
ATOM     15  C   UNL     1       4.444   5.092  -6.352  1.00  0.00     0.013 A 
ATOM     16  C   UNL     1       2.719   5.859  -7.852  1.00  0.00     0.048 A 
ATOM     17  C   UNL     1       3.107   5.462  -6.574  1.00  0.00     0.009 A 
ATOM     18  N   UNL     1       1.389   6.191  -7.786  1.00  0.00    -0.361 N 
ATOM     19  C   UNL     1       0.912   5.952  -6.530  1.00  0.00     0.094 A 
ATOM     20  H   UNL     1       0.858   6.548  -8.534  1.00  0.00     0.166 HD
BRANCH  12  21
ATOM     21  N   UNL     1       5.638   4.986  -9.830  1.00  0.00    -0.326 N 
ATOM     22  C   UNL     1       6.222   3.791 -10.145  1.00  0.00     0.226 C 
ATOM     23  O   UNL     1       6.976   3.772 -11.126  1.00  0.00    -0.274 OA
ATOM     24  H   UNL     1       5.790   5.720 -10.467  1.00  0.00     0.169 HD
BRANCH  22  25
ATOM     25  C   UNL     1       5.909   2.475  -9.404  1.00  0.00     0.072 C 
ATOM     26  C   UNL     1       6.689   2.258  -8.113  1.00  0.00     0.018 C 
ATOM     27  C   UNL     1       4.419   2.170  -9.243  1.00  0.00     0.018 C 
ENDBRANCH  22  25
ENDBRANCH  12  21
ENDBRANCH  10  11
BRANCH  10  28
ATOM     28  N   UNL     1       2.853   5.880  -3.476  1.00  0.00    -0.310 N 
ATOM     29  C   UNL     1       2.997   7.320  -3.574  1.00  0.00     0.325 C 
ATOM     30  C   UNL     1       3.777   5.239  -2.567  1.00  0.00     0.325 C 
ATOM     31  H   UNL     1       1.854   5.693  -3.564  1.00  0.00     0.349 HD
ATOM     32  C   UNL     1       3.005   8.008  -2.183  1.00  0.00     0.325 C 
ATOM     33  C   UNL     1       3.665   5.886  -1.173  1.00  0.00     0.325 C 
ATOM     34  N   UNL     1       3.716   7.338  -1.085  1.00  0.00    -0.318 N 
ATOM     35  H   UNL     1       3.154   7.575  -0.268  1.00  0.00     0.348 HD
BRANCH  34  36
ATOM     36  C   UNL     1       4.988   7.912  -0.653  1.00  0.00     0.364 C 
BRANCH  36  37
ATOM     37  C   UNL     1       6.168   7.504  -1.535  1.00  0.00     0.277 C 
ATOM     38  O   UNL     1       6.429   8.177  -2.538  1.00  0.00    -0.268 OA
ATOM     39  N   UNL     1       6.891   6.354  -1.218  1.00  0.00    -0.344 N 
ATOM     40  C   UNL     1       6.831   5.594   0.027  1.00  0.00     0.146 C 
ATOM     41  C   UNL     1       7.843   5.861  -2.197  1.00  0.00     0.146 C 
ENDBRANCH  36  37
ENDBRANCH  34  36
ENDBRANCH  10  28
ENDBRANCH   8  10
ENDBRANCH   7   8
ENDBRANCH   6   7
ENDBRANCH   5   6
ENDBRANCH   4   5
ENDBRANCH   3   4
ENDBRANCH   2   3
ENDBRANCH   1   2
BRANCH   1  42
ATOM     42  C   UNL     1      -0.078   3.052   1.658  1.00  0.00     0.188 C 
BRANCH  42  43
ATOM     43  C   UNL     1       0.382   4.177   2.610  1.00  0.00     0.188 C 
BRANCH  43  44
ATOM     44  O   UNL     1       1.464   4.960   2.111  1.00  0.00    -0.376 OA
BRANCH  44  45
ATOM     45  C   UNL     1       2.535   5.215   3.004  1.00  0.00     0.202 C 
BRANCH  45  46
ATOM     46  C   UNL     1       3.633   4.150   2.909  1.00  0.00     0.261 C 
BRANCH  46  47
ATOM     47  O   UNL     1       3.163   2.803   3.029  1.00  0.00    -0.460 OA
BRANCH  47  48
ATOM     48  C   UNL     1       2.652   2.448   4.229  1.00  0.00     0.338 C 
ATOM     49  O   UNL     1       2.615   3.127   5.240  1.00  0.00    -0.246 OA
BRANCH  48  50
ATOM     50  C   UNL     1       1.933   1.176   4.026  1.00  0.00     0.060 A 
ATOM     51  C   UNL     1       0.585   1.103   4.399  1.00  0.00     0.016 A 
ATOM     52  C   UNL     1       2.564   0.095   3.405  1.00  0.00     0.016 A 
ATOM     53  C   UNL     1      -0.152  -0.041   4.107  1.00  0.00     0.010 A 
ATOM     54  C   UNL     1       1.844  -1.075   3.173  1.00  0.00     0.010 A 
ATOM     55  C   UNL     1       0.490  -1.148   3.537  1.00  0.00    -0.014 A 
BRANCH  55  56
ATOM     56  C   UNL     1      -0.170  -2.465   3.625  1.00  0.00     0.031 A 
ATOM     57  C   UNL     1      -0.035  -3.194   4.932  1.00  0.00     0.074 A 
ATOM     58  C   UNL     1      -0.865  -2.984   2.599  1.00  0.00     0.049 A 
ATOM     59  N   UNL     1      -0.508  -4.357   5.286  1.00  0.00    -0.248 NA
ATOM     60  C   UNL     1       0.735  -2.508   5.988  1.00  0.00     0.031 C 
ATOM     61  C   UNL     1      -1.095  -2.334   1.309  1.00  0.00     0.029 A 
ATOM     62  N   UNL     1      -1.506  -4.191   2.488  1.00  0.00    -0.354 N 
ATOM     63  C   UNL     1      -0.104  -4.533   6.604  1.00  0.00     0.074 A 
ATOM     64  C   UNL     1       0.669  -3.375   6.982  1.00  0.00     0.031 C 
ATOM     65  C   UNL     1      -1.817  -3.160   0.529  1.00  0.00     0.029 A 
ATOM     66  C   UNL     1      -2.075  -4.403   1.255  1.00  0.00     0.049 A 
ATOM     67  H   UNL     1      -1.555  -4.844   3.223  1.00  0.00     0.167 HD
ATOM     68  C   UNL     1      -0.354  -5.575   7.428  1.00  0.00     0.031 A 
ATOM     69  C   UNL     1      -2.712  -5.489   0.774  1.00  0.00     0.031 A 
ATOM     70  C   UNL     1      -1.069  -6.749   7.019  1.00  0.00     0.049 A 
ATOM     71  C   UNL     1      -2.890  -6.684   1.679  1.00  0.00     0.074 A 
ATOM     72  C   UNL     1      -1.357  -7.881   7.756  1.00  0.00     0.029 A 
ATOM     73  N   UNL     1      -1.590  -6.945   5.748  1.00  0.00    -0.354 N 
ATOM     74  N   UNL     1      -2.526  -6.831   2.933  1.00  0.00    -0.248 NA
ATOM     75  C   UNL     1      -3.570  -7.855   1.110  1.00  0.00     0.031 C 
ATOM     76  C   UNL     1      -2.006  -8.788   6.912  1.00  0.00     0.029 A 
ATOM     77  C   UNL     1      -2.180  -8.192   5.671  1.00  0.00     0.049 A 
ATOM     78  H   UNL     1      -1.546  -6.293   5.012  1.00  0.00     0.167 HD
ATOM     79  C   UNL     1      -2.962  -8.097   3.311  1.00  0.00     0.074 A 
ATOM     80  C   UNL     1      -3.622  -8.671   2.155  1.00  0.00     0.031 C 
ATOM     81  C   UNL     1      -2.835  -8.729   4.505  1.00  0.00     0.031 A 
BRANCH  68  82
ATOM     82  C   UNL     1       0.207  -5.496   8.819  1.00  0.00    -0.014 A 
ATOM     83  C   UNL     1      -0.321  -4.599   9.766  1.00  0.00     0.010 A 
ATOM     84  C   UNL     1       1.287  -6.320   9.182  1.00  0.00     0.010 A 
ATOM     85  C   UNL     1       0.244  -4.504  11.040  1.00  0.00     0.020 A 
ATOM     86  C   UNL     1       1.837  -6.247  10.464  1.00  0.00     0.020 A 
ATOM     87  C   UNL     1       1.322  -5.327  11.380  1.00  0.00     0.054 A 
BRANCH  87  88
ATOM     88  S   UNL     1       2.024  -5.197  13.046  1.00  0.00     0.124 S 
ATOM     89  O   UNL     1       2.725  -3.917  12.978  1.00  0.00    -0.237 OA
ATOM     90  O   UNL     1       0.837  -5.218  13.896  1.00  0.00    -0.237 OA
ATOM     91  O   UNL     1       2.884  -6.373  13.153  1.00  0.00    -0.744 OA
ENDBRANCH  87  88
ENDBRANCH  68  82
BRANCH  69  92
ATOM     92  C   UNL     1      -3.209  -5.510  -0.631  1.00  0.00    -0.014 A 
ATOM     93  C   UNL     1      -4.588  -5.523  -0.908  1.00  0.00     0.010 A 
ATOM     94  C   UNL     1      -2.300  -5.527  -1.705  1.00  0.00     0.010 A 
ATOM     95  C   UNL     1      -5.047  -5.567  -2.230  1.00  0.00     0.020 A 
ATOM     96  C   UNL     1      -2.754  -5.544  -3.028  1.00  0.00     0.020 A 
ATOM     97  C   UNL     1      -4.126  -5.575  -3.282  1.00  0.00     0.054 A 
BRANCH  97  98
ATOM     98  S   UNL     1      -4.745  -5.582  -4.989  1.00  0.00     0.124 S 
ATOM     99  O   UNL     1      -5.247  -6.946  -5.125  1.00  0.00    -0.237 OA
ATOM    100  O   UNL     1      -5.760  -4.532  -4.960  1.00  0.00    -0.237 OA
ATOM    101  O   UNL     1      -3.559  -5.269  -5.784  1.00  0.00    -0.744 OA
ENDBRANCH  97  98
ENDBRANCH  69  92
BRANCH  81 102
ATOM    102  C   UNL     1      -3.461 -10.090   4.643  1.00  0.00    -0.014 A 
ATOM    103  C   UNL     1      -2.893 -11.222   4.035  1.00  0.00     0.010 A 
ATOM    104  C   UNL     1      -4.588 -10.245   5.472  1.00  0.00     0.010 A 
ATOM    105  C   UNL     1      -3.455 -12.485   4.237  1.00  0.00     0.020 A 
ATOM    106  C   UNL     1      -5.135 -11.509   5.699  1.00  0.00     0.020 A 
ATOM    107  C   UNL     1      -4.571 -12.620   5.070  1.00  0.00     0.054 A 
BRANCH 107 108
ATOM    108  S   UNL     1      -5.245 -14.277   5.364  1.00  0.00     0.124 S 
ATOM    109  O   UNL     1      -5.908 -14.565   4.094  1.00  0.00    -0.237 OA
ATOM    110  O   UNL     1      -4.047 -15.066   5.641  1.00  0.00    -0.237 OA
ATOM    111  O   UNL     1      -6.139 -14.091   6.505  1.00  0.00    -0.744 OA
ENDBRANCH 107 108
ENDBRANCH  81 102
ENDBRANCH  55  56
ENDBRANCH  48  50
ENDBRANCH  47  48
ENDBRANCH  46  47
ENDBRANCH  45  46
ENDBRANCH  44  45
ENDBRANCH  43  44
ENDBRANCH  42  43
ENDBRANCH   1  42
TORSDOF 29
