REMARK SMILES CC[C@@H](C)[C@H](NC(=O)[C@H](C)N1C(=O)N2CCC3=c4cc(OC)ccc4=N[C@H]3[C@@]2(C)C1=O)C(=O)OCCOCCOCCOCCOC(=O)c1ccc(-c2c3nc(c(-c4ccc(S(=O)(=O)[O-])cc4)c4ccc([nH]4)c(-c4ccc(S(=O)(=O)[O-])cc4)c4nc(c(-c5ccc(S(=O)(=O)[O-])cc5)c5ccc2[nH]5)C=C4)C=C3)cc1
REMARK SMILES IDX 39 1 38 2 37 3 36 4 35 5 34 6 32 7 33 8 5 9 3 10 4 11 2 12
REMARK SMILES IDX 1 13 6 14 7 15 8 17 9 18 10 19 11 20 12 21 30 22 14 23 13 24
REMARK SMILES IDX 28 25 31 26 15 27 27 28 29 29 16 30 17 31 26 32 18 33 25 34
REMARK SMILES IDX 19 35 24 36 20 37 23 38 21 39 22 40 40 41 41 42 42 43 43 44
REMARK SMILES IDX 44 45 45 46 46 47 47 48 48 49 49 50 50 51 108 52 51 53
REMARK SMILES IDX 107 54 52 55 53 56 54 57 101 58 55 59 106 60 100 61 102 62
REMARK SMILES IDX 56 63 105 64 99 65 98 66 57 68 87 69 68 70 86 71 69 72 72 73
REMARK SMILES IDX 85 74 103 75 70 76 71 77 84 79 104 80 73 81 58 82 59 83
REMARK SMILES IDX 67 84 60 85 66 86 61 87 62 88 63 89 64 90 65 91 88 92 89 93
REMARK SMILES IDX 97 94 90 95 96 96 91 97 92 98 93 99 94 100 95 101 74 102
REMARK SMILES IDX 75 103 83 104 76 105 82 106 77 107 78 108 79 109 80 110
REMARK SMILES IDX 81 111
REMARK H PARENT 6 16 102 67 72 78
REMARK Flexibility Score: inf
ROOT
ATOM      1  C   UNL     1      -2.526  -2.268  -4.695  1.00  0.00     0.188 C 
ENDROOT
BRANCH   1   2
ATOM      2  C   UNL     1      -2.315  -3.729  -5.067  1.00  0.00     0.188 C 
BRANCH   2   3
ATOM      3  O   UNL     1      -3.410  -4.601  -5.264  1.00  0.00    -0.376 OA
BRANCH   3   4
ATOM      4  C   UNL     1      -4.627  -4.399  -4.559  1.00  0.00     0.202 C 
BRANCH   4   5
ATOM      5  C   UNL     1      -4.626  -4.427  -3.017  1.00  0.00     0.261 C 
BRANCH   5   6
ATOM      6  O   UNL     1      -3.948  -3.338  -2.349  1.00  0.00    -0.462 OA
BRANCH   6   7
ATOM      7  C   UNL     1      -2.702  -3.583  -1.883  1.00  0.00     0.328 C 
ATOM      8  O   UNL     1      -2.138  -4.673  -1.964  1.00  0.00    -0.250 OA
BRANCH   7   9
ATOM      9  C   UNL     1      -2.079  -2.404  -1.072  1.00  0.00     0.195 C 
BRANCH   9  10
ATOM     10  C   UNL     1      -2.309  -2.919   0.415  1.00  0.00     0.019 C 
ATOM     11  C   UNL     1      -3.676  -2.506   0.979  1.00  0.00     0.010 C 
BRANCH  10  12
ATOM     12  C   UNL     1      -1.155  -2.598   1.381  1.00  0.00     0.002 C 
ATOM     13  C   UNL     1      -1.312  -3.293   2.736  1.00  0.00     0.004 C 
ENDBRANCH  10  12
ENDBRANCH   9  10
BRANCH   9  14
ATOM     14  N   UNL     1      -2.538  -0.974  -1.262  1.00  0.00    -0.341 N 
ATOM     15  C   UNL     1      -2.287   0.172  -1.991  1.00  0.00     0.243 C 
ATOM     16  H   UNL     1      -3.284  -0.798  -0.644  1.00  0.00     0.164 HD
ATOM     17  O   UNL     1      -2.948   1.143  -1.600  1.00  0.00    -0.273 OA
BRANCH  15  18
ATOM     18  C   UNL     1      -1.260   0.339  -3.168  1.00  0.00     0.181 C 
ATOM     19  C   UNL     1       0.136  -0.109  -2.624  1.00  0.00     0.042 C 
BRANCH  18  20
ATOM     20  N   UNL     1      -1.158   1.599  -4.033  1.00  0.00    -0.250 N 
ATOM     21  C   UNL     1      -1.828   2.848  -4.107  1.00  0.00     0.328 C 
ATOM     22  C   UNL     1      -0.006   1.731  -4.751  1.00  0.00     0.259 C 
ATOM     23  N   UNL     1      -0.827   3.832  -4.681  1.00  0.00    -0.307 N 
ATOM     24  O   UNL     1      -2.927   3.175  -3.700  1.00  0.00    -0.248 OA
ATOM     25  C   UNL     1       0.419   3.134  -4.522  1.00  0.00     0.147 C 
ATOM     26  O   UNL     1       0.629   0.858  -5.326  1.00  0.00    -0.271 OA
ATOM     27  C   UNL     1      -0.665   5.321  -4.255  1.00  0.00     0.127 C 
ATOM     28  C   UNL     1       0.598   3.303  -2.953  1.00  0.00     0.168 C 
ATOM     29  C   UNL     1       1.455   3.612  -5.539  1.00  0.00     0.048 C 
ATOM     30  C   UNL     1       0.741   5.634  -3.213  1.00  0.00     0.055 C 
ATOM     31  C   UNL     1       1.348   4.393  -2.320  1.00  0.00    -0.032 C 
ATOM     32  N   UNL     1      -0.203   2.579  -1.925  1.00  0.00    -0.274 NA
ATOM     33  C   UNL     1       1.320   4.061  -0.976  1.00  0.00     0.005 A 
ATOM     34  C   UNL     1      -0.023   3.378  -0.909  1.00  0.00     0.066 A 
ATOM     35  C   UNL     1       2.146   2.925  -0.338  1.00  0.00     0.056 A 
ATOM     36  C   UNL     1      -0.625   3.128   0.390  1.00  0.00     0.032 A 
ATOM     37  C   UNL     1       1.555   2.055   0.548  1.00  0.00     0.119 A 
ATOM     38  C   UNL     1       0.201   2.317   1.066  1.00  0.00     0.048 A 
BRANCH  37  39
ATOM     39  O   UNL     1       2.155   0.914   1.042  1.00  0.00    -0.497 OA
ATOM     40  C   UNL     1       1.703  -0.311   0.442  1.00  0.00     0.278 C 
ENDBRANCH  37  39
ENDBRANCH  18  20
ENDBRANCH  15  18
ENDBRANCH   9  14
ENDBRANCH   7   9
ENDBRANCH   6   7
ENDBRANCH   5   6
ENDBRANCH   4   5
ENDBRANCH   3   4
ENDBRANCH   2   3
ENDBRANCH   1   2
BRANCH   1  41
ATOM     41  O   UNL     1      -3.840  -1.860  -4.387  1.00  0.00    -0.377 OA
BRANCH  41  42
ATOM     42  C   UNL     1      -4.439  -0.867  -5.202  1.00  0.00     0.188 C 
BRANCH  42  43
ATOM     43  C   UNL     1      -4.401  -1.179  -6.706  1.00  0.00     0.188 C 
BRANCH  43  44
ATOM     44  O   UNL     1      -3.079  -1.255  -7.235  1.00  0.00    -0.376 OA
BRANCH  44  45
ATOM     45  C   UNL     1      -2.564  -0.078  -7.855  1.00  0.00     0.202 C 
BRANCH  45  46
ATOM     46  C   UNL     1      -2.423   1.144  -6.955  1.00  0.00     0.261 C 
BRANCH  46  47
ATOM     47  O   UNL     1      -3.613   1.681  -6.366  1.00  0.00    -0.460 OA
BRANCH  47  48
ATOM     48  C   UNL     1      -4.576   2.184  -7.164  1.00  0.00     0.338 C 
ATOM     49  O   UNL     1      -4.532   2.298  -8.367  1.00  0.00    -0.246 OA
BRANCH  48  50
ATOM     50  C   UNL     1      -5.785   2.325  -6.312  1.00  0.00     0.060 A 
ATOM     51  C   UNL     1      -5.813   3.190  -5.215  1.00  0.00     0.016 A 
ATOM     52  C   UNL     1      -6.897   1.529  -6.606  1.00  0.00     0.016 A 
ATOM     53  C   UNL     1      -6.972   3.284  -4.434  1.00  0.00     0.010 A 
ATOM     54  C   UNL     1      -8.049   1.616  -5.821  1.00  0.00     0.010 A 
ATOM     55  C   UNL     1      -8.109   2.521  -4.751  1.00  0.00    -0.014 A 
BRANCH  55  56
ATOM     56  C   UNL     1      -9.427   2.821  -4.136  1.00  0.00     0.031 A 
ATOM     57  C   UNL     1     -10.081   1.908  -3.144  1.00  0.00     0.074 A 
ATOM     58  C   UNL     1     -10.075   3.919  -4.573  1.00  0.00     0.049 A 
ATOM     59  N   UNL     1     -11.248   2.035  -2.562  1.00  0.00    -0.248 NA
ATOM     60  C   UNL     1      -9.345   0.696  -2.762  1.00  0.00     0.031 C 
ATOM     61  C   UNL     1      -9.540   4.857  -5.561  1.00  0.00     0.029 A 
ATOM     62  N   UNL     1     -11.309   4.430  -4.260  1.00  0.00    -0.354 N 
ATOM     63  C   UNL     1     -11.378   0.936  -1.722  1.00  0.00     0.074 A 
ATOM     64  C   UNL     1     -10.196   0.120  -1.920  1.00  0.00     0.031 C 
ATOM     65  C   UNL     1     -10.428   5.840  -5.758  1.00  0.00     0.029 A 
ATOM     66  C   UNL     1     -11.614   5.582  -4.946  1.00  0.00     0.049 A 
ATOM     67  H   UNL     1     -11.917   4.013  -3.608  1.00  0.00     0.167 HD
ATOM     68  C   UNL     1     -12.380   0.655  -0.853  1.00  0.00     0.031 A 
ATOM     69  C   UNL     1     -12.720   6.351  -4.935  1.00  0.00     0.031 A 
ATOM     70  C   UNL     1     -13.568   1.464  -0.703  1.00  0.00     0.049 A 
ATOM     71  C   UNL     1     -13.844   5.993  -4.009  1.00  0.00     0.074 A 
ATOM     72  C   UNL     1     -14.636   1.269   0.157  1.00  0.00     0.029 A 
ATOM     73  N   UNL     1     -13.852   2.614  -1.429  1.00  0.00    -0.354 N 
ATOM     74  N   UNL     1     -13.928   4.982  -3.177  1.00  0.00    -0.248 NA
ATOM     75  C   UNL     1     -15.013   6.881  -3.999  1.00  0.00     0.031 C 
ATOM     76  C   UNL     1     -15.594   2.252  -0.102  1.00  0.00     0.029 A 
ATOM     77  C   UNL     1     -15.090   3.119  -1.059  1.00  0.00     0.049 A 
ATOM     78  H   UNL     1     -13.261   3.013  -2.108  1.00  0.00     0.167 HD
ATOM     79  C   UNL     1     -15.150   5.119  -2.532  1.00  0.00     0.074 A 
ATOM     80  C   UNL     1     -15.764   6.323  -3.056  1.00  0.00     0.031 C 
ATOM     81  C   UNL     1     -15.707   4.314  -1.592  1.00  0.00     0.031 A 
BRANCH  68  82
ATOM     82  C   UNL     1     -12.238  -0.566   0.029  1.00  0.00    -0.014 A 
ATOM     83  C   UNL     1     -13.162  -1.624  -0.057  1.00  0.00     0.010 A 
ATOM     84  C   UNL     1     -11.244  -0.617   1.025  1.00  0.00     0.010 A 
ATOM     85  C   UNL     1     -13.108  -2.696   0.842  1.00  0.00     0.020 A 
ATOM     86  C   UNL     1     -11.164  -1.702   1.903  1.00  0.00     0.020 A 
ATOM     87  C   UNL     1     -12.110  -2.726   1.819  1.00  0.00     0.054 A 
BRANCH  87  88
ATOM     88  S   UNL     1     -12.052  -4.124   2.975  1.00  0.00     0.124 S 
ATOM     89  O   UNL     1     -13.190  -3.852   3.848  1.00  0.00    -0.237 OA
ATOM     90  O   UNL     1     -12.196  -5.276   2.088  1.00  0.00    -0.237 OA
ATOM     91  O   UNL     1     -10.738  -3.995   3.602  1.00  0.00    -0.744 OA
ENDBRANCH  87  88
ENDBRANCH  68  82
BRANCH  69  92
ATOM     92  C   UNL     1     -12.742   7.568  -5.794  1.00  0.00    -0.014 A 
ATOM     93  C   UNL     1     -12.734   7.448  -7.198  1.00  0.00     0.010 A 
ATOM     94  C   UNL     1     -12.595   8.840  -5.217  1.00  0.00     0.010 A 
ATOM     95  C   UNL     1     -12.485   8.562  -8.003  1.00  0.00     0.020 A 
ATOM     96  C   UNL     1     -12.379   9.964  -6.021  1.00  0.00     0.020 A 
ATOM     97  C   UNL     1     -12.284   9.809  -7.406  1.00  0.00     0.054 A 
BRANCH  97  98
ATOM     98  S   UNL     1     -11.832  11.215  -8.462  1.00  0.00     0.124 S 
ATOM     99  O   UNL     1     -10.466  10.873  -8.848  1.00  0.00    -0.237 OA
ATOM    100  O   UNL     1     -12.825  11.141  -9.530  1.00  0.00    -0.237 OA
ATOM    101  O   UNL     1     -11.960  12.367  -7.574  1.00  0.00    -0.744 OA
ENDBRANCH  97  98
ENDBRANCH  69  92
BRANCH  81 102
ATOM    102  C   UNL     1     -17.069   4.682  -1.056  1.00  0.00    -0.014 A 
ATOM    103  C   UNL     1     -17.220   5.017   0.303  1.00  0.00     0.010 A 
ATOM    104  C   UNL     1     -18.218   4.555  -1.857  1.00  0.00     0.010 A 
ATOM    105  C   UNL     1     -18.492   5.163   0.864  1.00  0.00     0.020 A 
ATOM    106  C   UNL     1     -19.492   4.735  -1.308  1.00  0.00     0.020 A 
ATOM    107  C   UNL     1     -19.621   5.006   0.056  1.00  0.00     0.054 A 
BRANCH 107 108
ATOM    108  S   UNL     1     -21.263   5.131   0.818  1.00  0.00     0.124 S 
ATOM    109  O   UNL     1     -21.344   3.890   1.581  1.00  0.00    -0.237 OA
ATOM    110  O   UNL     1     -21.155   6.353   1.611  1.00  0.00    -0.237 OA
ATOM    111  O   UNL     1     -22.167   5.220  -0.327  1.00  0.00    -0.744 OA
ENDBRANCH 107 108
ENDBRANCH  81 102
ENDBRANCH  55  56
ENDBRANCH  48  50
ENDBRANCH  47  48
ENDBRANCH  46  47
ENDBRANCH  45  46
ENDBRANCH  44  45
ENDBRANCH  43  44
ENDBRANCH  42  43
ENDBRANCH  41  42
ENDBRANCH   1  41
TORSDOF 29
