REMARK SMILES O=C(OCCOCCOCCOCCOC(=O)[C@@H]1CC[C@@H](CN2C(=O)CC3(CCCC3)CC2=O)O1)c1ccc(-c2c3nc(c(-c4ccc(S(=O)(=O)[O-])cc4)c4ccc([nH]4)c(-c4ccc(S(=O)(=O)[O-])cc4)c4nc(c(-c5ccc(S(=O)(=O)[O-])cc5)c5ccc2[nH]5)C=C4)C=C3)cc1
REMARK SMILES IDX 8 1 7 2 6 3 5 4 4 5 3 6 2 7 1 8 36 9 37 10 95 11 38 12 94 13
REMARK SMILES IDX 39 14 40 15 41 16 88 17 42 18 93 19 87 20 89 21 43 22 92 23
REMARK SMILES IDX 86 24 85 25 44 27 74 28 55 29 73 30 56 31 59 32 72 33 90 34
REMARK SMILES IDX 57 35 58 36 71 38 91 39 60 40 45 41 46 42 54 43 47 44 53 45
REMARK SMILES IDX 48 46 49 47 50 48 51 49 52 50 75 51 76 52 84 53 77 54 83 55
REMARK SMILES IDX 78 56 79 57 80 58 81 59 82 60 61 61 62 62 70 63 63 64 69 65
REMARK SMILES IDX 64 66 65 67 66 68 67 69 68 70 9 71 10 72 11 73 12 74 13 75
REMARK SMILES IDX 14 76 15 77 16 78 17 79 18 80 19 81 35 82 20 83 21 84 22 85
REMARK SMILES IDX 23 86 24 87 33 88 25 89 26 90 32 91 34 92 27 93 28 94 31 95
REMARK SMILES IDX 29 96 30 97
REMARK H PARENT 89 26 59 37
REMARK Flexibility Score: inf
ROOT
ATOM      1  C   UNL     1       2.168  -2.595  -1.391  1.00  0.00     0.188 C 
ENDROOT
BRANCH   1   2
ATOM      2  C   UNL     1       2.590  -1.633  -0.279  1.00  0.00     0.188 C 
BRANCH   2   3
ATOM      3  O   UNL     1       3.881  -1.079  -0.532  1.00  0.00    -0.376 OA
BRANCH   3   4
ATOM      4  C   UNL     1       4.767  -1.009   0.584  1.00  0.00     0.202 C 
BRANCH   4   5
ATOM      5  C   UNL     1       4.471   0.109   1.582  1.00  0.00     0.261 C 
BRANCH   5   6
ATOM      6  O   UNL     1       3.078   0.433   1.661  1.00  0.00    -0.460 OA
BRANCH   6   7
ATOM      7  C   UNL     1       2.399   1.358   0.939  1.00  0.00     0.338 C 
ATOM      8  O   UNL     1       1.211   1.541   1.208  1.00  0.00    -0.246 OA
BRANCH   7   9
ATOM      9  C   UNL     1       2.991   2.166  -0.175  1.00  0.00     0.060 A 
ATOM     10  C   UNL     1       4.096   1.805  -0.952  1.00  0.00     0.016 A 
ATOM     11  C   UNL     1       2.327   3.358  -0.505  1.00  0.00     0.016 A 
ATOM     12  C   UNL     1       4.565   2.600  -1.984  1.00  0.00     0.010 A 
ATOM     13  C   UNL     1       2.790   4.175  -1.538  1.00  0.00     0.010 A 
ATOM     14  C   UNL     1       3.935   3.805  -2.252  1.00  0.00    -0.014 A 
BRANCH  14  15
ATOM     15  C   UNL     1       4.651   4.770  -3.092  1.00  0.00     0.031 A 
ATOM     16  C   UNL     1       5.410   5.845  -2.380  1.00  0.00     0.074 A 
ATOM     17  C   UNL     1       4.711   4.607  -4.423  1.00  0.00     0.049 A 
ATOM     18  N   UNL     1       5.990   6.907  -2.858  1.00  0.00    -0.248 NA
ATOM     19  C   UNL     1       5.535   5.693  -0.917  1.00  0.00     0.031 C 
ATOM     20  C   UNL     1       4.151   3.474  -5.163  1.00  0.00     0.029 A 
ATOM     21  N   UNL     1       5.279   5.393  -5.386  1.00  0.00    -0.354 N 
ATOM     22  C   UNL     1       6.491   7.582  -1.752  1.00  0.00     0.074 A 
ATOM     23  C   UNL     1       6.167   6.804  -0.581  1.00  0.00     0.031 C 
ATOM     24  C   UNL     1       4.390   3.650  -6.473  1.00  0.00     0.029 A 
ATOM     25  C   UNL     1       5.042   4.941  -6.661  1.00  0.00     0.049 A 
ATOM     26  H   UNL     1       5.805   6.201  -5.186  1.00  0.00     0.167 HD
ATOM     27  C   UNL     1       7.137   8.770  -1.731  1.00  0.00     0.031 A 
ATOM     28  C   UNL     1       5.272   5.550  -7.840  1.00  0.00     0.031 A 
ATOM     29  C   UNL     1       7.406   9.511  -2.930  1.00  0.00     0.049 A 
ATOM     30  C   UNL     1       5.895   6.919  -7.800  1.00  0.00     0.074 A 
ATOM     31  C   UNL     1       7.978  10.758  -3.072  1.00  0.00     0.029 A 
ATOM     32  N   UNL     1       7.106   9.051  -4.209  1.00  0.00    -0.354 N 
ATOM     33  N   UNL     1       6.280   7.614  -6.752  1.00  0.00    -0.248 NA
ATOM     34  C   UNL     1       6.106   7.595  -9.084  1.00  0.00     0.031 C 
ATOM     35  C   UNL     1       7.975  11.074  -4.435  1.00  0.00     0.029 A 
ATOM     36  C   UNL     1       7.467   9.994  -5.148  1.00  0.00     0.049 A 
ATOM     37  H   UNL     1       6.696   8.180  -4.413  1.00  0.00     0.167 HD
ATOM     38  C   UNL     1       6.803   8.800  -7.248  1.00  0.00     0.074 A 
ATOM     39  C   UNL     1       6.684   8.725  -8.694  1.00  0.00     0.031 C 
ATOM     40  C   UNL     1       7.336   9.853  -6.580  1.00  0.00     0.031 A 
BRANCH  27  41
ATOM     41  C   UNL     1       7.451   9.350  -0.379  1.00  0.00    -0.014 A 
ATOM     42  C   UNL     1       8.406   8.770   0.478  1.00  0.00     0.010 A 
ATOM     43  C   UNL     1       6.704  10.450   0.081  1.00  0.00     0.010 A 
ATOM     44  C   UNL     1       8.555   9.234   1.790  1.00  0.00     0.020 A 
ATOM     45  C   UNL     1       6.871  10.937   1.380  1.00  0.00     0.020 A 
ATOM     46  C   UNL     1       7.775  10.306   2.236  1.00  0.00     0.054 A 
BRANCH  46  47
ATOM     47  S   UNL     1       7.950  10.858   3.955  1.00  0.00     0.124 S 
ATOM     48  O   UNL     1       7.279   9.785   4.686  1.00  0.00    -0.237 OA
ATOM     49  O   UNL     1       9.399  10.922   4.126  1.00  0.00    -0.237 OA
ATOM     50  O   UNL     1       7.265  12.148   3.977  1.00  0.00    -0.744 OA
ENDBRANCH  46  47
ENDBRANCH  27  41
BRANCH  28  51
ATOM     51  C   UNL     1       4.839   4.896  -9.105  1.00  0.00    -0.014 A 
ATOM     52  C   UNL     1       5.777   4.404 -10.028  1.00  0.00     0.010 A 
ATOM     53  C   UNL     1       3.467   4.693  -9.358  1.00  0.00     0.010 A 
ATOM     54  C   UNL     1       5.353   3.715 -11.172  1.00  0.00     0.020 A 
ATOM     55  C   UNL     1       3.040   3.982 -10.484  1.00  0.00     0.020 A 
ATOM     56  C   UNL     1       3.987   3.500 -11.387  1.00  0.00     0.054 A 
BRANCH  56  57
ATOM     57  S   UNL     1       3.468   2.527 -12.829  1.00  0.00     0.124 S 
ATOM     58  O   UNL     1       3.744   3.445 -13.930  1.00  0.00    -0.237 OA
ATOM     59  O   UNL     1       4.337   1.356 -12.747  1.00  0.00    -0.237 OA
ATOM     60  O   UNL     1       2.053   2.263 -12.573  1.00  0.00    -0.744 OA
ENDBRANCH  56  57
ENDBRANCH  28  51
BRANCH  40  61
ATOM     61  C   UNL     1       7.891  10.978  -7.404  1.00  0.00    -0.014 A 
ATOM     62  C   UNL     1       7.047  11.922  -8.010  1.00  0.00     0.010 A 
ATOM     63  C   UNL     1       9.286  11.156  -7.451  1.00  0.00     0.010 A 
ATOM     64  C   UNL     1       7.594  13.033  -8.654  1.00  0.00     0.020 A 
ATOM     65  C   UNL     1       9.833  12.278  -8.069  1.00  0.00     0.020 A 
ATOM     66  C   UNL     1       8.983  13.209  -8.669  1.00  0.00     0.054 A 
BRANCH  66  67
ATOM     67  S   UNL     1       9.662  14.712  -9.418  1.00  0.00     0.124 S 
ATOM     68  O   UNL     1       9.479  14.450 -10.843  1.00  0.00    -0.237 OA
ATOM     69  O   UNL     1       8.814  15.760  -8.856  1.00  0.00    -0.237 OA
ATOM     70  O   UNL     1      11.050  14.731  -8.961  1.00  0.00    -0.744 OA
ENDBRANCH  66  67
ENDBRANCH  40  61
ENDBRANCH  14  15
ENDBRANCH   7   9
ENDBRANCH   6   7
ENDBRANCH   5   6
ENDBRANCH   4   5
ENDBRANCH   3   4
ENDBRANCH   2   3
ENDBRANCH   1   2
BRANCH   1  71
ATOM     71  O   UNL     1       2.960  -3.774  -1.534  1.00  0.00    -0.377 OA
BRANCH  71  72
ATOM     72  C   UNL     1       4.370  -3.606  -1.544  1.00  0.00     0.188 C 
BRANCH  72  73
ATOM     73  C   UNL     1       5.058  -2.870  -2.711  1.00  0.00     0.188 C 
BRANCH  73  74
ATOM     74  O   UNL     1       4.293  -1.829  -3.269  1.00  0.00    -0.376 OA
BRANCH  74  75
ATOM     75  C   UNL     1       3.608  -2.034  -4.499  1.00  0.00     0.202 C 
BRANCH  75  76
ATOM     76  C   UNL     1       3.131  -3.414  -5.012  1.00  0.00     0.261 C 
BRANCH  76  77
ATOM     77  O   UNL     1       3.396  -4.534  -4.159  1.00  0.00    -0.461 OA
BRANCH  77  78
ATOM     78  C   UNL     1       4.190  -5.536  -4.622  1.00  0.00     0.335 C 
ATOM     79  O   UNL     1       4.649  -5.602  -5.766  1.00  0.00    -0.249 OA
BRANCH  78  80
ATOM     80  C   UNL     1       4.568  -6.493  -3.475  1.00  0.00     0.228 C 
ATOM     81  C   UNL     1       6.081  -6.478  -3.274  1.00  0.00     0.047 C 
ATOM     82  O   UNL     1       4.206  -7.863  -3.612  1.00  0.00    -0.361 OA
ATOM     83  C   UNL     1       6.445  -7.873  -2.824  1.00  0.00     0.037 C 
ATOM     84  C   UNL     1       5.148  -8.671  -2.878  1.00  0.00     0.139 C 
BRANCH  84  85
ATOM     85  C   UNL     1       4.560  -9.157  -1.515  1.00  0.00     0.160 C 
BRANCH  85  86
ATOM     86  N   UNL     1       5.005  -8.374  -0.352  1.00  0.00    -0.280 N 
ATOM     87  C   UNL     1       6.068  -8.857   0.397  1.00  0.00     0.229 C 
ATOM     88  C   UNL     1       4.205  -7.339   0.094  1.00  0.00     0.229 C 
ATOM     89  O   UNL     1       6.510 -10.001   0.285  1.00  0.00    -0.274 OA
ATOM     90  C   UNL     1       6.777  -7.867   1.298  1.00  0.00     0.108 C 
ATOM     91  C   UNL     1       4.923  -6.262   0.868  1.00  0.00     0.108 C 
ATOM     92  O   UNL     1       3.009  -7.241  -0.166  1.00  0.00    -0.274 OA
ATOM     93  C   UNL     1       5.903  -6.773   1.915  1.00  0.00    -0.012 C 
ATOM     94  C   UNL     1       6.811  -5.601   2.394  1.00  0.00     0.008 C 
ATOM     95  C   UNL     1       5.193  -7.255   3.196  1.00  0.00     0.008 C 
ATOM     96  C   UNL     1       6.593  -5.461   3.893  1.00  0.00     0.001 C 
ATOM     97  C   UNL     1       6.120  -6.834   4.330  1.00  0.00     0.001 C 
ENDBRANCH  85  86
ENDBRANCH  84  85
ENDBRANCH  78  80
ENDBRANCH  77  78
ENDBRANCH  76  77
ENDBRANCH  75  76
ENDBRANCH  74  75
ENDBRANCH  73  74
ENDBRANCH  72  73
ENDBRANCH  71  72
ENDBRANCH   1  71
TORSDOF 25
