REMARK SMILES Cc1[nH]cnc1C[NH+]1CCC(Oc2cccc(F)c2)(C(=O)OCCOCCOCCOCCOC(=O)c2ccc(-c3c4nc(c(-c5ccc(S(=O)(=O)[O-])cc5)c5ccc([nH]5)c(-c5ccc(S(=O)(=O)[O-])cc5)c5nc(c(-c6ccc(S(=O)(=O)[O-])cc6)c6ccc3[nH]6)C=C5)C=C4)cc2)CC1
REMARK SMILES IDX 29 1 28 2 27 3 26 4 25 5 24 6 23 7 22 8 20 9 21 10 11 11
REMARK SMILES IDX 8 12 9 13 98 14 10 16 97 17 7 18 6 19 1 20 2 21 3 22 4 23
REMARK SMILES IDX 5 25 12 26 13 27 14 28 19 29 15 30 17 31 16 32 18 33 30 34
REMARK SMILES IDX 31 35 32 36 33 37 34 38 35 39 36 40 37 41 38 42 96 43 39 44
REMARK SMILES IDX 95 45 40 46 41 47 42 48 89 49 43 50 94 51 88 52 90 53 44 54
REMARK SMILES IDX 93 55 87 56 86 57 45 59 75 60 56 61 74 62 57 63 60 64 73 65
REMARK SMILES IDX 91 66 58 67 59 68 72 70 92 71 61 72 46 73 47 74 55 75 48 76
REMARK SMILES IDX 54 77 49 78 50 79 51 80 52 81 53 82 76 83 77 84 85 85 78 86
REMARK SMILES IDX 84 87 79 88 80 89 81 90 82 91 83 92 62 93 63 94 71 95 64 96
REMARK SMILES IDX 70 97 65 98 66 99 67 100 68 101 69 102
REMARK H PARENT 8 15 3 24 90 58 60 69
REMARK Flexibility Score: inf
ROOT
ATOM      1  C   UNL     1      -0.087   1.092   4.484  1.00  0.00     0.188 C 
ENDROOT
BRANCH   1   2
ATOM      2  O   UNL     1      -0.818  -0.084   4.146  1.00  0.00    -0.377 OA
BRANCH   2   3
ATOM      3  C   UNL     1      -1.525  -0.174   2.920  1.00  0.00     0.188 C 
BRANCH   3   4
ATOM      4  C   UNL     1      -2.987   0.244   2.815  1.00  0.00     0.188 C 
BRANCH   4   5
ATOM      5  O   UNL     1      -3.546   1.037   3.833  1.00  0.00    -0.376 OA
BRANCH   5   6
ATOM      6  C   UNL     1      -3.373   0.630   5.184  1.00  0.00     0.202 C 
BRANCH   6   7
ATOM      7  C   UNL     1      -3.499  -0.850   5.610  1.00  0.00     0.261 C 
BRANCH   7   8
ATOM      8  O   UNL     1      -2.537  -1.793   5.066  1.00  0.00    -0.460 OA
BRANCH   8   9
ATOM      9  C   UNL     1      -3.009  -2.724   4.189  1.00  0.00     0.351 C 
ATOM     10  O   UNL     1      -4.186  -2.744   3.828  1.00  0.00    -0.247 OA
BRANCH   9  11
ATOM     11  C   UNL     1      -1.986  -3.815   3.747  1.00  0.00     0.216 C 
ATOM     12  N   UNL     1      -0.496  -3.508   1.170  1.00  0.00    -0.330 N 
ATOM     13  C   UNL     1       0.162  -3.037   2.378  1.00  0.00     0.267 C 
ATOM     14  C   UNL     1      -1.951  -3.494   1.207  1.00  0.00     0.267 C 
ATOM     15  H   UNL     1      -0.287  -4.506   1.168  1.00  0.00     0.348 HD
ATOM     16  C   UNL     1      -0.474  -3.488   3.715  1.00  0.00     0.122 C 
ATOM     17  C   UNL     1      -2.444  -4.359   2.372  1.00  0.00     0.122 C 
BRANCH  12  18
ATOM     18  C   UNL     1       0.112  -3.039  -0.095  1.00  0.00     0.321 C 
BRANCH  18  19
ATOM     19  C   UNL     1      -0.116  -1.600  -0.513  1.00  0.00     0.115 A 
ATOM     20  C   UNL     1       2.209  -0.786  -1.489  1.00  0.00     0.066 C 
ATOM     21  C   UNL     1       0.773  -0.717  -1.125  1.00  0.00     0.040 A 
ATOM     22  N   UNL     1       0.030   0.409  -1.401  1.00  0.00    -0.348 N 
ATOM     23  C   UNL     1      -1.246   0.181  -0.980  1.00  0.00     0.197 A 
ATOM     24  H   UNL     1       0.362   1.233  -1.827  1.00  0.00     0.167 HD
ATOM     25  N   UNL     1      -1.368  -1.012  -0.447  1.00  0.00    -0.236 NA
ENDBRANCH  18  19
ENDBRANCH  12  18
BRANCH  11  26
ATOM     26  O   UNL     1      -2.255  -4.697   4.898  1.00  0.00    -0.475 OA
BRANCH  26  27
ATOM     27  C   UNL     1      -2.057  -6.033   4.731  1.00  0.00     0.123 A 
ATOM     28  C   UNL     1      -0.814  -6.603   5.009  1.00  0.00     0.047 A 
ATOM     29  C   UNL     1      -3.144  -6.841   4.413  1.00  0.00     0.085 A 
ATOM     30  C   UNL     1      -0.622  -7.975   4.854  1.00  0.00     0.007 A 
ATOM     31  C   UNL     1      -2.948  -8.210   4.280  1.00  0.00     0.126 A 
ATOM     32  C   UNL     1      -1.694  -8.782   4.478  1.00  0.00     0.039 A 
ATOM     33  F   UNL     1      -3.985  -8.996   3.961  1.00  0.00    -0.207 F 
ENDBRANCH  26  27
ENDBRANCH  11  26
ENDBRANCH   9  11
ENDBRANCH   8   9
ENDBRANCH   7   8
ENDBRANCH   6   7
ENDBRANCH   5   6
ENDBRANCH   4   5
ENDBRANCH   3   4
ENDBRANCH   2   3
ENDBRANCH   1   2
BRANCH   1  34
ATOM     34  C   UNL     1      -0.225   2.279   3.541  1.00  0.00     0.188 C 
BRANCH  34  35
ATOM     35  O   UNL     1       0.617   2.302   2.385  1.00  0.00    -0.376 OA
BRANCH  35  36
ATOM     36  C   UNL     1       1.178   1.087   1.902  1.00  0.00     0.202 C 
BRANCH  36  37
ATOM     37  C   UNL     1       2.646   1.242   1.546  1.00  0.00     0.261 C 
BRANCH  37  38
ATOM     38  O   UNL     1       3.367   1.519   2.740  1.00  0.00    -0.460 OA
BRANCH  38  39
ATOM     39  C   UNL     1       3.294   2.820   3.107  1.00  0.00     0.338 C 
ATOM     40  O   UNL     1       3.028   3.778   2.413  1.00  0.00    -0.246 OA
BRANCH  39  41
ATOM     41  C   UNL     1       3.413   2.854   4.570  1.00  0.00     0.060 A 
ATOM     42  C   UNL     1       2.631   3.787   5.255  1.00  0.00     0.016 A 
ATOM     43  C   UNL     1       4.300   2.004   5.241  1.00  0.00     0.016 A 
ATOM     44  C   UNL     1       2.812   3.948   6.615  1.00  0.00     0.010 A 
ATOM     45  C   UNL     1       4.494   2.174   6.603  1.00  0.00     0.010 A 
ATOM     46  C   UNL     1       3.801   3.197   7.263  1.00  0.00    -0.014 A 
BRANCH  46  47
ATOM     47  C   UNL     1       4.301   3.707   8.546  1.00  0.00     0.031 A 
ATOM     48  C   UNL     1       5.496   4.617   8.505  1.00  0.00     0.074 A 
ATOM     49  C   UNL     1       3.634   3.436   9.675  1.00  0.00     0.049 A 
ATOM     50  N   UNL     1       6.092   5.238   9.485  1.00  0.00    -0.248 NA
ATOM     51  C   UNL     1       6.097   4.868   7.181  1.00  0.00     0.031 C 
ATOM     52  C   UNL     1       2.429   2.609   9.765  1.00  0.00     0.029 A 
ATOM     53  N   UNL     1       3.866   3.845  10.956  1.00  0.00    -0.354 N 
ATOM     54  C   UNL     1       7.138   5.942   8.898  1.00  0.00     0.074 A 
ATOM     55  C   UNL     1       7.117   5.655   7.485  1.00  0.00     0.031 C 
ATOM     56  C   UNL     1       2.025   2.574  11.046  1.00  0.00     0.029 A 
ATOM     57  C   UNL     1       2.962   3.344  11.858  1.00  0.00     0.049 A 
ATOM     58  H   UNL     1       4.609   4.439  11.208  1.00  0.00     0.167 HD
ATOM     59  C   UNL     1       8.032   6.759   9.498  1.00  0.00     0.031 A 
ATOM     60  C   UNL     1       2.922   3.487  13.194  1.00  0.00     0.031 A 
ATOM     61  C   UNL     1       8.030   7.012  10.912  1.00  0.00     0.049 A 
ATOM     62  C   UNL     1       3.967   4.354  13.843  1.00  0.00     0.074 A 
ATOM     63  C   UNL     1       8.880   7.816  11.646  1.00  0.00     0.029 A 
ATOM     64  N   UNL     1       7.127   6.453  11.808  1.00  0.00    -0.354 N 
ATOM     65  N   UNL     1       4.951   5.021  13.282  1.00  0.00    -0.248 NA
ATOM     66  C   UNL     1       3.886   4.505  15.299  1.00  0.00     0.031 C 
ATOM     67  C   UNL     1       8.533   7.690  12.995  1.00  0.00     0.029 A 
ATOM     68  C   UNL     1       7.415   6.874  13.092  1.00  0.00     0.049 A 
ATOM     69  H   UNL     1       6.390   5.848  11.563  1.00  0.00     0.167 HD
ATOM     70  C   UNL     1       5.587   5.699  14.315  1.00  0.00     0.074 A 
ATOM     71  C   UNL     1       4.861   5.373  15.528  1.00  0.00     0.031 C 
ATOM     72  C   UNL     1       6.669   6.519  14.273  1.00  0.00     0.031 A 
BRANCH  59  73
ATOM     73  C   UNL     1       9.105   7.378   8.642  1.00  0.00    -0.014 A 
ATOM     74  C   UNL     1       8.813   8.377   7.695  1.00  0.00     0.010 A 
ATOM     75  C   UNL     1      10.441   6.973   8.816  1.00  0.00     0.010 A 
ATOM     76  C   UNL     1       9.835   8.942   6.925  1.00  0.00     0.020 A 
ATOM     77  C   UNL     1      11.468   7.556   8.070  1.00  0.00     0.020 A 
ATOM     78  C   UNL     1      11.157   8.531   7.122  1.00  0.00     0.054 A 
BRANCH  78  79
ATOM     79  S   UNL     1      12.469   9.320   6.148  1.00  0.00     0.124 S 
ATOM     80  O   UNL     1      12.212   8.793   4.810  1.00  0.00    -0.237 OA
ATOM     81  O   UNL     1      12.187  10.741   6.328  1.00  0.00    -0.237 OA
ATOM     82  O   UNL     1      13.700   8.847   6.776  1.00  0.00    -0.744 OA
ENDBRANCH  78  79
ENDBRANCH  59  73
BRANCH  60  83
ATOM     83  C   UNL     1       1.886   2.775  13.988  1.00  0.00    -0.014 A 
ATOM     84  C   UNL     1       0.889   3.479  14.684  1.00  0.00     0.010 A 
ATOM     85  C   UNL     1       1.893   1.368  14.043  1.00  0.00     0.010 A 
ATOM     86  C   UNL     1      -0.062   2.791  15.444  1.00  0.00     0.020 A 
ATOM     87  C   UNL     1       0.925   0.676  14.773  1.00  0.00     0.020 A 
ATOM     88  C   UNL     1      -0.037   1.393  15.483  1.00  0.00     0.054 A 
BRANCH  88  89
ATOM     89  S   UNL     1      -1.295   0.521  16.456  1.00  0.00     0.124 S 
ATOM     90  O   UNL     1      -0.886   0.826  17.823  1.00  0.00    -0.237 OA
ATOM     91  O   UNL     1      -2.533   1.155  16.008  1.00  0.00    -0.237 OA
ATOM     92  O   UNL     1      -1.136  -0.873  16.050  1.00  0.00    -0.744 OA
ENDBRANCH  88  89
ENDBRANCH  60  83
BRANCH  72  93
ATOM     93  C   UNL     1       7.089   7.154  15.571  1.00  0.00    -0.014 A 
ATOM     94  C   UNL     1       7.648   6.396  16.615  1.00  0.00     0.010 A 
ATOM     95  C   UNL     1       6.940   8.544  15.731  1.00  0.00     0.010 A 
ATOM     96  C   UNL     1       7.993   7.010  17.820  1.00  0.00     0.020 A 
ATOM     97  C   UNL     1       7.322   9.166  16.919  1.00  0.00     0.020 A 
ATOM     98  C   UNL     1       7.822   8.390  17.966  1.00  0.00     0.054 A 
BRANCH  98  99
ATOM     99  S   UNL     1       8.280   9.164  19.539  1.00  0.00     0.124 S 
ATOM    100  O   UNL     1       7.211   8.706  20.422  1.00  0.00    -0.237 OA
ATOM    101  O   UNL     1       9.600   8.596  19.802  1.00  0.00    -0.237 OA
ATOM    102  O   UNL     1       8.271  10.593  19.238  1.00  0.00    -0.744 OA
ENDBRANCH  98  99
ENDBRANCH  72  93
ENDBRANCH  46  47
ENDBRANCH  39  41
ENDBRANCH  38  39
ENDBRANCH  37  38
ENDBRANCH  36  37
ENDBRANCH  35  36
ENDBRANCH  34  35
ENDBRANCH   1  34
TORSDOF 27
