REMARK SMILES Cc1ccc(O)c(C(=O)NCc2ccc(C(=O)OCCOCCOCCOCCOC(=O)c3ccc(-c4c5nc(c(-c6ccc(S(=O)(=O)[O-])cc6)c6ccc([nH]6)c(-c6ccc(S(=O)(=O)[O-])cc6)c6nc(c(-c7ccc(S(=O)(=O)[O-])cc7)c7ccc4[nH]7)C=C6)C=C5)cc3)o2)c1
REMARK SMILES IDX 23 1 22 2 21 3 20 4 19 5 18 6 16 7 17 8 15 9 12 10 13 11
REMARK SMILES IDX 93 12 14 13 11 14 10 15 8 16 9 17 7 19 1 20 2 21 3 22 94 23
REMARK SMILES IDX 4 24 5 25 6 26 24 28 25 29 26 30 27 31 28 32 29 33 30 34
REMARK SMILES IDX 31 35 32 36 33 37 34 38 92 39 35 40 91 41 36 42 37 43 38 44
REMARK SMILES IDX 85 45 39 46 90 47 84 48 86 49 40 50 89 51 83 52 82 53 41 55
REMARK SMILES IDX 71 56 52 57 70 58 53 59 56 60 69 61 87 62 54 63 55 64 68 66
REMARK SMILES IDX 88 67 57 68 42 69 43 70 51 71 44 72 50 73 45 74 46 75 47 76
REMARK SMILES IDX 48 77 49 78 72 79 73 80 81 81 74 82 80 83 75 84 76 85 77 86
REMARK SMILES IDX 78 87 79 88 58 89 59 90 67 91 60 92 66 93 61 94 62 95 63 96
REMARK SMILES IDX 64 97 65 98
REMARK H PARENT 10 18 6 27 86 54 56 65
REMARK Flexibility Score: inf
ROOT
ATOM      1  C   UNL     1       0.041  -7.432   3.872  1.00  0.00     0.188 C 
ENDROOT
BRANCH   1   2
ATOM      2  C   UNL     1       0.232  -8.619   2.916  1.00  0.00     0.188 C 
BRANCH   2   3
ATOM      3  O   UNL     1       0.789  -9.773   3.547  1.00  0.00    -0.376 OA
BRANCH   3   4
ATOM      4  C   UNL     1       2.188  -9.981   3.358  1.00  0.00     0.202 C 
BRANCH   4   5
ATOM      5  C   UNL     1       3.120  -9.035   4.133  1.00  0.00     0.261 C 
BRANCH   5   6
ATOM      6  O   UNL     1       3.088  -7.665   3.700  1.00  0.00    -0.457 OA
BRANCH   6   7
ATOM      7  C   UNL     1       3.402  -7.392   2.407  1.00  0.00     0.374 C 
ATOM      8  O   UNL     1       3.864  -8.199   1.609  1.00  0.00    -0.242 OA
BRANCH   7   9
ATOM      9  C   UNL     1       2.931  -6.061   2.107  1.00  0.00     0.211 A 
ATOM     10  C   UNL     1       1.808  -4.585   0.908  1.00  0.00     0.124 A 
ATOM     11  C   UNL     1       2.042  -4.000   2.137  1.00  0.00     0.048 A 
ATOM     12  O   UNL     1       2.386  -5.822   0.872  1.00  0.00    -0.452 OA
ATOM     13  C   UNL     1       2.769  -4.941   2.901  1.00  0.00     0.058 A 
BRANCH  10  14
ATOM     14  C   UNL     1       1.040  -4.183  -0.300  1.00  0.00     0.191 C 
BRANCH  14  15
ATOM     15  N   UNL     1      -0.299  -3.799   0.106  1.00  0.00    -0.345 N 
ATOM     16  C   UNL     1      -0.945  -2.602   0.237  1.00  0.00     0.255 C 
ATOM     17  O   UNL     1      -2.155  -2.646   0.489  1.00  0.00    -0.269 OA
ATOM     18  H   UNL     1      -0.866  -4.570   0.339  1.00  0.00     0.164 HD
BRANCH  16  19
ATOM     19  C   UNL     1      -0.318  -1.257   0.077  1.00  0.00     0.081 A 
ATOM     20  C   UNL     1       3.071   0.503   0.203  1.00  0.00     0.044 C 
ATOM     21  C   UNL     1       1.594   0.274   0.061  1.00  0.00    -0.050 A 
ATOM     22  C   UNL     1       0.737   1.352  -0.169  1.00  0.00     0.007 A 
ATOM     23  C   UNL     1       1.055  -1.016   0.205  1.00  0.00     0.021 A 
ATOM     24  C   UNL     1      -0.636   1.143  -0.268  1.00  0.00     0.047 A 
ATOM     25  C   UNL     1      -1.156  -0.146  -0.143  1.00  0.00     0.128 A 
BRANCH  25  26
ATOM     26  O   UNL     1      -2.523  -0.234  -0.232  1.00  0.00    -0.507 OA
ATOM     27  H   UNL     1      -3.034   0.537  -0.380  1.00  0.00     0.293 HD
ENDBRANCH  25  26
ENDBRANCH  16  19
ENDBRANCH  14  15
ENDBRANCH  10  14
ENDBRANCH   7   9
ENDBRANCH   6   7
ENDBRANCH   5   6
ENDBRANCH   4   5
ENDBRANCH   3   4
ENDBRANCH   2   3
ENDBRANCH   1   2
BRANCH   1  28
ATOM     28  O   UNL     1       0.484  -7.727   5.189  1.00  0.00    -0.377 OA
BRANCH  28  29
ATOM     29  C   UNL     1      -0.535  -8.120   6.105  1.00  0.00     0.188 C 
BRANCH  29  30
ATOM     30  C   UNL     1      -1.528  -9.194   5.631  1.00  0.00     0.188 C 
BRANCH  30  31
ATOM     31  O   UNL     1      -2.411  -8.706   4.612  1.00  0.00    -0.376 OA
BRANCH  31  32
ATOM     32  C   UNL     1      -3.756  -8.467   5.028  1.00  0.00     0.202 C 
BRANCH  32  33
ATOM     33  C   UNL     1      -3.948  -7.110   5.720  1.00  0.00     0.261 C 
BRANCH  33  34
ATOM     34  O   UNL     1      -3.288  -6.993   6.991  1.00  0.00    -0.460 OA
BRANCH  34  35
ATOM     35  C   UNL     1      -3.676  -7.857   7.955  1.00  0.00     0.338 C 
ATOM     36  O   UNL     1      -4.580  -8.669   7.890  1.00  0.00    -0.246 OA
BRANCH  35  37
ATOM     37  C   UNL     1      -2.693  -7.791   9.055  1.00  0.00     0.060 A 
ATOM     38  C   UNL     1      -2.154  -8.989   9.537  1.00  0.00     0.016 A 
ATOM     39  C   UNL     1      -2.326  -6.566   9.620  1.00  0.00     0.016 A 
ATOM     40  C   UNL     1      -1.280  -8.968  10.623  1.00  0.00     0.010 A 
ATOM     41  C   UNL     1      -1.463  -6.548  10.717  1.00  0.00     0.010 A 
ATOM     42  C   UNL     1      -0.967  -7.752  11.245  1.00  0.00    -0.014 A 
BRANCH  42  43
ATOM     43  C   UNL     1      -0.288  -7.751  12.561  1.00  0.00     0.031 A 
ATOM     44  C   UNL     1      -1.139  -7.773  13.802  1.00  0.00     0.074 A 
ATOM     45  C   UNL     1       1.052  -7.726  12.656  1.00  0.00     0.049 A 
ATOM     46  N   UNL     1      -0.773  -7.763  15.057  1.00  0.00    -0.248 NA
ATOM     47  C   UNL     1      -2.597  -7.811  13.598  1.00  0.00     0.031 C 
ATOM     48  C   UNL     1       1.984  -7.724  11.529  1.00  0.00     0.029 A 
ATOM     49  N   UNL     1       1.860  -7.688  13.764  1.00  0.00    -0.354 N 
ATOM     50  C   UNL     1      -1.952  -7.800  15.791  1.00  0.00     0.074 A 
ATOM     51  C   UNL     1      -3.045  -7.805  14.844  1.00  0.00     0.031 C 
ATOM     52  C   UNL     1       3.241  -7.675  12.006  1.00  0.00     0.029 A 
ATOM     53  C   UNL     1       3.200  -7.623  13.467  1.00  0.00     0.049 A 
ATOM     54  H   UNL     1       1.513  -7.706  14.685  1.00  0.00     0.167 HD
ATOM     55  C   UNL     1      -2.113  -7.830  17.135  1.00  0.00     0.031 A 
ATOM     56  C   UNL     1       4.267  -7.519  14.282  1.00  0.00     0.031 A 
ATOM     57  C   UNL     1      -1.032  -7.791  18.079  1.00  0.00     0.049 A 
ATOM     58  C   UNL     1       4.061  -7.485  15.774  1.00  0.00     0.074 A 
ATOM     59  C   UNL     1      -1.093  -7.820  19.461  1.00  0.00     0.029 A 
ATOM     60  N   UNL     1       0.308  -7.700  17.738  1.00  0.00    -0.354 N 
ATOM     61  N   UNL     1       2.941  -7.557  16.453  1.00  0.00    -0.248 NA
ATOM     62  C   UNL     1       5.266  -7.362  16.608  1.00  0.00     0.031 C 
ATOM     63  C   UNL     1       0.211  -7.708  19.956  1.00  0.00     0.029 A 
ATOM     64  C   UNL     1       1.084  -7.651  18.882  1.00  0.00     0.049 A 
ATOM     65  H   UNL     1       0.656  -7.675  16.817  1.00  0.00     0.167 HD
ATOM     66  C   UNL     1       3.309  -7.511  17.794  1.00  0.00     0.074 A 
ATOM     67  C   UNL     1       4.753  -7.412  17.830  1.00  0.00     0.031 C 
ATOM     68  C   UNL     1       2.521  -7.551  18.897  1.00  0.00     0.031 A 
BRANCH  55  69
ATOM     69  C   UNL     1      -3.523  -7.879  17.650  1.00  0.00    -0.014 A 
ATOM     70  C   UNL     1      -4.272  -9.068  17.584  1.00  0.00     0.010 A 
ATOM     71  C   UNL     1      -4.106  -6.727  18.207  1.00  0.00     0.010 A 
ATOM     72  C   UNL     1      -5.596  -9.092  18.029  1.00  0.00     0.020 A 
ATOM     73  C   UNL     1      -5.423  -6.753  18.671  1.00  0.00     0.020 A 
ATOM     74  C   UNL     1      -6.166  -7.931  18.561  1.00  0.00     0.054 A 
BRANCH  74  75
ATOM     75  S   UNL     1      -7.886  -7.986  19.134  1.00  0.00     0.124 S 
ATOM     76  O   UNL     1      -8.623  -7.920  17.874  1.00  0.00    -0.237 OA
ATOM     77  O   UNL     1      -7.955  -9.265  19.835  1.00  0.00    -0.237 OA
ATOM     78  O   UNL     1      -8.003  -6.805  19.986  1.00  0.00    -0.744 OA
ENDBRANCH  74  75
ENDBRANCH  55  69
BRANCH  56  79
ATOM     79  C   UNL     1       5.634  -7.426  13.705  1.00  0.00    -0.014 A 
ATOM     80  C   UNL     1       6.518  -8.516  13.782  1.00  0.00     0.010 A 
ATOM     81  C   UNL     1       6.057  -6.242  13.075  1.00  0.00     0.010 A 
ATOM     82  C   UNL     1       7.807  -8.420  13.249  1.00  0.00     0.020 A 
ATOM     83  C   UNL     1       7.338  -6.149  12.524  1.00  0.00     0.020 A 
ATOM     84  C   UNL     1       8.209  -7.236  12.623  1.00  0.00     0.054 A 
BRANCH  84  85
ATOM     85  S   UNL     1       9.865  -7.147  11.886  1.00  0.00     0.124 S 
ATOM     86  O   UNL     1      10.705  -6.911  13.055  1.00  0.00    -0.237 OA
ATOM     87  O   UNL     1      10.006  -8.459  11.259  1.00  0.00    -0.237 OA
ATOM     88  O   UNL     1       9.759  -6.029  10.951  1.00  0.00    -0.744 OA
ENDBRANCH  84  85
ENDBRANCH  56  79
BRANCH  68  89
ATOM     89  C   UNL     1       3.202  -7.516  20.237  1.00  0.00    -0.014 A 
ATOM     90  C   UNL     1       3.713  -6.314  20.758  1.00  0.00     0.010 A 
ATOM     91  C   UNL     1       3.271  -8.687  21.012  1.00  0.00     0.010 A 
ATOM     92  C   UNL     1       4.305  -6.291  22.023  1.00  0.00     0.020 A 
ATOM     93  C   UNL     1       3.845  -8.663  22.285  1.00  0.00     0.020 A 
ATOM     94  C   UNL     1       4.369  -7.466  22.779  1.00  0.00     0.054 A 
BRANCH  94  95
ATOM     95  S   UNL     1       5.094  -7.405  24.441  1.00  0.00     0.124 S 
ATOM     96  O   UNL     1       6.524  -7.419  24.149  1.00  0.00    -0.237 OA
ATOM     97  O   UNL     1       4.574  -6.149  24.976  1.00  0.00    -0.237 OA
ATOM     98  O   UNL     1       4.576  -8.610  25.086  1.00  0.00    -0.744 OA
ENDBRANCH  94  95
ENDBRANCH  68  89
ENDBRANCH  42  43
ENDBRANCH  35  37
ENDBRANCH  34  35
ENDBRANCH  33  34
ENDBRANCH  32  33
ENDBRANCH  31  32
ENDBRANCH  30  31
ENDBRANCH  29  30
ENDBRANCH  28  29
ENDBRANCH   1  28
TORSDOF 27
