REMARK SMILES CC1=C([C@H](NC(=O)[C@@H]2[C@H](C)c3cc(F)ccc3N2C)C(=O)OCCOCCOCCOCCOC(=O)c2ccc(-c3c4nc(c(-c5ccc(S(=O)(=O)[O-])cc5)c5ccc([nH]5)c(-c5ccc(S(=O)(=O)[O-])cc5)c5nc(c(-c6ccc(S(=O)(=O)[O-])cc6)c6ccc3[nH]6)C=C5)C=C4)cc2)[C@@H](C)N=N1
REMARK SMILES IDX 29 1 28 2 27 3 26 4 25 5 24 6 23 7 22 8 20 9 21 10 4 11 3 12
REMARK SMILES IDX 1 13 2 14 100 15 97 16 99 17 98 18 5 19 6 20 7 22 8 23 9 24
REMARK SMILES IDX 18 25 11 26 10 27 17 28 19 29 12 30 16 31 13 32 15 33 14 34
REMARK SMILES IDX 30 35 31 36 32 37 33 38 34 39 35 40 36 41 37 42 38 43 96 44
REMARK SMILES IDX 39 45 95 46 40 47 41 48 42 49 89 50 43 51 94 52 88 53 90 54
REMARK SMILES IDX 44 55 93 56 87 57 86 58 45 60 75 61 56 62 74 63 57 64 60 65
REMARK SMILES IDX 73 66 91 67 58 68 59 69 72 71 92 72 61 73 46 74 47 75 55 76
REMARK SMILES IDX 48 77 54 78 49 79 50 80 51 81 52 82 53 83 76 84 77 85 85 86
REMARK SMILES IDX 78 87 84 88 79 89 80 90 81 91 82 92 83 93 62 94 63 95 71 96
REMARK SMILES IDX 64 97 70 98 65 99 66 100 67 101 68 102 69 103
REMARK H PARENT 5 21 90 59 60 70
REMARK Flexibility Score: inf
ROOT
ATOM      1  C   UNL     1      -2.774   3.866  -0.535  1.00  0.00     0.188 C 
ENDROOT
BRANCH   1   2
ATOM      2  O   UNL     1      -1.514   3.254  -0.309  1.00  0.00    -0.377 OA
BRANCH   2   3
ATOM      3  C   UNL     1      -1.363   2.500   0.867  1.00  0.00     0.188 C 
BRANCH   3   4
ATOM      4  C   UNL     1      -1.198   3.312   2.155  1.00  0.00     0.188 C 
BRANCH   4   5
ATOM      5  O   UNL     1      -1.852   4.557   2.164  1.00  0.00    -0.376 OA
BRANCH   5   6
ATOM      6  C   UNL     1      -1.274   5.778   1.729  1.00  0.00     0.202 C 
BRANCH   6   7
ATOM      7  C   UNL     1      -0.243   6.006   0.601  1.00  0.00     0.261 C 
BRANCH   7   8
ATOM      8  O   UNL     1       0.444   4.883   0.058  1.00  0.00    -0.461 OA
BRANCH   8   9
ATOM      9  C   UNL     1       1.410   4.385   0.859  1.00  0.00     0.333 C 
ATOM     10  O   UNL     1       1.651   4.811   1.984  1.00  0.00    -0.249 OA
BRANCH   9  11
ATOM     11  C   UNL     1       2.187   3.220   0.204  1.00  0.00     0.223 C 
BRANCH  11  12
ATOM     12  C   UNL     1       3.428   3.684  -0.464  1.00  0.00     0.012 C 
ATOM     13  C   UNL     1       4.390   5.260   1.291  1.00  0.00     0.069 C 
ATOM     14  C   UNL     1       4.367   4.519  -0.002  1.00  0.00     0.064 C 
ATOM     15  N   UNL     1       5.445   4.601  -0.842  1.00  0.00    -0.160 NA
ATOM     16  C   UNL     1       3.939   3.230  -1.792  1.00  0.00     0.156 C 
ATOM     17  N   UNL     1       5.268   3.884  -1.862  1.00  0.00    -0.181 NA
ATOM     18  C   UNL     1       3.125   3.665  -3.006  1.00  0.00     0.040 C 
ENDBRANCH  11  12
BRANCH  11  19
ATOM     19  N   UNL     1       1.399   2.428  -0.737  1.00  0.00    -0.337 N 
ATOM     20  C   UNL     1       1.338   1.063  -0.886  1.00  0.00     0.244 C 
ATOM     21  H   UNL     1       0.831   2.945  -1.351  1.00  0.00     0.164 HD
ATOM     22  O   UNL     1       0.510   0.615  -1.682  1.00  0.00    -0.273 OA
BRANCH  20  23
ATOM     23  C   UNL     1       2.251   0.154  -0.018  1.00  0.00     0.178 C 
ATOM     24  C   UNL     1       2.996  -0.986  -0.789  1.00  0.00     0.050 C 
ATOM     25  N   UNL     1       1.483  -0.506   1.074  1.00  0.00    -0.362 N 
ATOM     26  C   UNL     1       2.858  -2.135   0.176  1.00  0.00    -0.016 A 
ATOM     27  C   UNL     1       2.485  -1.373  -2.172  1.00  0.00     0.015 C 
ATOM     28  C   UNL     1       1.966  -1.800   1.198  1.00  0.00     0.041 A 
ATOM     29  C   UNL     1       0.937   0.184   2.216  1.00  0.00     0.144 C 
ATOM     30  C   UNL     1       3.484  -3.372   0.138  1.00  0.00     0.045 A 
ATOM     31  C   UNL     1       1.670  -2.720   2.195  1.00  0.00     0.029 A 
ATOM     32  C   UNL     1       3.191  -4.281   1.149  1.00  0.00     0.123 A 
ATOM     33  C   UNL     1       2.292  -3.970   2.172  1.00  0.00     0.041 A 
ATOM     34  F   UNL     1       3.782  -5.484   1.144  1.00  0.00    -0.207 F 
ENDBRANCH  20  23
ENDBRANCH  11  19
ENDBRANCH   9  11
ENDBRANCH   8   9
ENDBRANCH   7   8
ENDBRANCH   6   7
ENDBRANCH   5   6
ENDBRANCH   4   5
ENDBRANCH   3   4
ENDBRANCH   2   3
ENDBRANCH   1   2
BRANCH   1  35
ATOM     35  C   UNL     1      -3.947   3.662   0.449  1.00  0.00     0.188 C 
BRANCH  35  36
ATOM     36  O   UNL     1      -4.121   2.316   0.854  1.00  0.00    -0.376 OA
BRANCH  36  37
ATOM     37  C   UNL     1      -5.074   1.535   0.151  1.00  0.00     0.202 C 
BRANCH  37  38
ATOM     38  C   UNL     1      -4.979   1.443  -1.383  1.00  0.00     0.261 C 
BRANCH  38  39
ATOM     39  O   UNL     1      -4.981   2.704  -2.082  1.00  0.00    -0.460 OA
BRANCH  39  40
ATOM     40  C   UNL     1      -6.101   3.456  -2.149  1.00  0.00     0.338 C 
ATOM     41  O   UNL     1      -7.242   3.074  -1.929  1.00  0.00    -0.246 OA
BRANCH  40  42
ATOM     42  C   UNL     1      -5.649   4.882  -2.163  1.00  0.00     0.060 A 
ATOM     43  C   UNL     1      -4.502   5.280  -2.857  1.00  0.00     0.016 A 
ATOM     44  C   UNL     1      -6.200   5.737  -1.192  1.00  0.00     0.016 A 
ATOM     45  C   UNL     1      -3.853   6.461  -2.483  1.00  0.00     0.010 A 
ATOM     46  C   UNL     1      -5.538   6.912  -0.810  1.00  0.00     0.010 A 
ATOM     47  C   UNL     1      -4.338   7.265  -1.425  1.00  0.00    -0.014 A 
BRANCH  47  48
ATOM     48  C   UNL     1      -3.684   8.576  -1.221  1.00  0.00     0.031 A 
ATOM     49  C   UNL     1      -3.725   9.382  -2.471  1.00  0.00     0.074 A 
ATOM     50  C   UNL     1      -3.232   9.190  -0.102  1.00  0.00     0.049 A 
ATOM     51  N   UNL     1      -2.741   9.757  -3.218  1.00  0.00    -0.248 NA
ATOM     52  C   UNL     1      -5.060   9.652  -3.031  1.00  0.00     0.031 C 
ATOM     53  C   UNL     1      -3.444   8.789   1.289  1.00  0.00     0.029 A 
ATOM     54  N   UNL     1      -2.548  10.381   0.026  1.00  0.00    -0.354 N 
ATOM     55  C   UNL     1      -3.327  10.481  -4.251  1.00  0.00     0.074 A 
ATOM     56  C   UNL     1      -4.742  10.225  -4.189  1.00  0.00     0.031 C 
ATOM     57  C   UNL     1      -3.082   9.802   2.112  1.00  0.00     0.029 A 
ATOM     58  C   UNL     1      -2.501  10.880   1.326  1.00  0.00     0.049 A 
ATOM     59  H   UNL     1      -2.128  10.840  -0.737  1.00  0.00     0.167 HD
ATOM     60  C   UNL     1      -2.651  11.447  -4.924  1.00  0.00     0.031 A 
ATOM     61  C   UNL     1      -2.073  12.103   1.740  1.00  0.00     0.031 A 
ATOM     62  C   UNL     1      -1.238  11.383  -4.695  1.00  0.00     0.049 A 
ATOM     63  C   UNL     1      -1.189  12.690   0.710  1.00  0.00     0.074 A 
ATOM     64  C   UNL     1      -0.176  10.645  -5.160  1.00  0.00     0.029 A 
ATOM     65  N   UNL     1      -0.831  12.033  -3.564  1.00  0.00    -0.354 N 
ATOM     66  N   UNL     1      -0.016  12.217   0.400  1.00  0.00    -0.248 NA
ATOM     67  C   UNL     1      -1.712  13.719  -0.183  1.00  0.00     0.031 C 
ATOM     68  C   UNL     1       0.846  10.757  -4.175  1.00  0.00     0.029 A 
ATOM     69  C   UNL     1       0.394  11.586  -3.150  1.00  0.00     0.049 A 
ATOM     70  H   UNL     1      -1.352  12.732  -3.106  1.00  0.00     0.167 HD
ATOM     71  C   UNL     1       0.166  12.594  -0.915  1.00  0.00     0.074 A 
ATOM     72  C   UNL     1      -0.820  13.632  -1.170  1.00  0.00     0.031 C 
ATOM     73  C   UNL     1       0.841  11.799  -1.788  1.00  0.00     0.031 A 
BRANCH  60  74
ATOM     74  C   UNL     1      -3.306  12.712  -5.423  1.00  0.00    -0.014 A 
ATOM     75  C   UNL     1      -4.561  13.157  -4.957  1.00  0.00     0.010 A 
ATOM     76  C   UNL     1      -2.549  13.627  -6.182  1.00  0.00     0.010 A 
ATOM     77  C   UNL     1      -5.069  14.416  -5.275  1.00  0.00     0.020 A 
ATOM     78  C   UNL     1      -3.030  14.913  -6.471  1.00  0.00     0.020 A 
ATOM     79  C   UNL     1      -4.297  15.290  -6.029  1.00  0.00     0.054 A 
BRANCH  79  80
ATOM     80  S   UNL     1      -4.967  16.936  -6.357  1.00  0.00     0.124 S 
ATOM     81  O   UNL     1      -6.072  16.631  -7.263  1.00  0.00    -0.237 OA
ATOM     82  O   UNL     1      -5.353  17.388  -5.024  1.00  0.00    -0.237 OA
ATOM     83  O   UNL     1      -3.845  17.651  -6.959  1.00  0.00    -0.744 OA
ENDBRANCH  79  80
ENDBRANCH  60  74
BRANCH  61  84
ATOM     84  C   UNL     1      -2.600  12.954   2.844  1.00  0.00    -0.014 A 
ATOM     85  C   UNL     1      -3.959  12.862   3.198  1.00  0.00     0.010 A 
ATOM     86  C   UNL     1      -1.877  14.078   3.302  1.00  0.00     0.010 A 
ATOM     87  C   UNL     1      -4.600  13.894   3.893  1.00  0.00     0.020 A 
ATOM     88  C   UNL     1      -2.516  15.121   3.997  1.00  0.00     0.020 A 
ATOM     89  C   UNL     1      -3.886  15.038   4.248  1.00  0.00     0.054 A 
BRANCH  89  90
ATOM     90  S   UNL     1      -4.810  16.443   4.936  1.00  0.00     0.124 S 
ATOM     91  O   UNL     1      -5.623  16.856   3.795  1.00  0.00    -0.237 OA
ATOM     92  O   UNL     1      -5.545  15.827   6.038  1.00  0.00    -0.237 OA
ATOM     93  O   UNL     1      -3.767  17.384   5.335  1.00  0.00    -0.744 OA
ENDBRANCH  89  90
ENDBRANCH  61  84
BRANCH  73  94
ATOM     94  C   UNL     1       2.007  11.002  -1.291  1.00  0.00    -0.014 A 
ATOM     95  C   UNL     1       3.218  11.217  -1.976  1.00  0.00     0.010 A 
ATOM     96  C   UNL     1       1.965  10.033  -0.275  1.00  0.00     0.010 A 
ATOM     97  C   UNL     1       4.349  10.466  -1.691  1.00  0.00     0.020 A 
ATOM     98  C   UNL     1       3.115   9.294   0.043  1.00  0.00     0.020 A 
ATOM     99  C   UNL     1       4.292   9.508  -0.683  1.00  0.00     0.054 A 
BRANCH  99 100
ATOM    100  S   UNL     1       5.798   8.568  -0.351  1.00  0.00     0.124 S 
ATOM    101  O   UNL     1       5.773   7.590  -1.433  1.00  0.00    -0.237 OA
ATOM    102  O   UNL     1       6.849   9.579  -0.450  1.00  0.00    -0.237 OA
ATOM    103  O   UNL     1       5.583   8.042   0.994  1.00  0.00    -0.744 OA
ENDBRANCH  99 100
ENDBRANCH  73  94
ENDBRANCH  47  48
ENDBRANCH  40  42
ENDBRANCH  39  40
ENDBRANCH  38  39
ENDBRANCH  37  38
ENDBRANCH  36  37
ENDBRANCH  35  36
ENDBRANCH   1  35
TORSDOF 26
