REMARK SMILES Nc1ncccc1C[N@@H+]1CC2(CC[NH2+]CC2)C[C@H]1C(=O)OCCOCCOCCOCCOC(=O)c1ccc(-c2c3nc(c(-c4ccc(S(=O)(=O)[O-])cc4)c4ccc([nH]4)c(-c4ccc(S(=O)(=O)[O-])cc4)c4nc(c(-c5ccc(S(=O)(=O)[O-])cc5)c5ccc2[nH]5)C=C4)C=C3)cc1
REMARK SMILES IDX 27 1 26 2 25 3 24 4 23 5 22 6 21 7 19 8 20 9 18 10 9 11
REMARK SMILES IDX 10 12 11 14 17 15 12 16 16 17 13 18 15 19 14 20 8 23 7 24
REMARK SMILES IDX 2 25 3 26 4 27 6 28 5 29 1 30 28 33 29 34 30 35 31 36 32 37
REMARK SMILES IDX 33 38 34 39 35 40 36 41 37 42 95 43 38 44 94 45 39 46 40 47
REMARK SMILES IDX 41 48 88 49 42 50 93 51 87 52 89 53 43 54 92 55 86 56 85 57
REMARK SMILES IDX 44 59 74 60 55 61 73 62 56 63 59 64 72 65 90 66 57 67 58 68
REMARK SMILES IDX 71 70 91 71 60 72 45 73 46 74 54 75 47 76 53 77 48 78 49 79
REMARK SMILES IDX 50 80 51 81 52 82 75 83 76 84 84 85 77 86 83 87 78 88 79 89
REMARK SMILES IDX 80 90 81 91 82 92 61 93 62 94 70 95 63 96 69 97 64 98 65 99
REMARK SMILES IDX 66 100 67 101 68 102
REMARK H PARENT 9 13 14 21 14 22 1 31 1 32 89 58 59 69
REMARK Flexibility Score: inf
ROOT
ATOM      1  O   UNL     1       0.571  -5.512   3.800  1.00  0.00    -0.377 OA
ENDROOT
BRANCH   1   2
ATOM      2  C   UNL     1       1.658  -4.795   3.253  1.00  0.00     0.188 C 
BRANCH   2   3
ATOM      3  C   UNL     1       2.365  -3.864   4.253  1.00  0.00     0.188 C 
BRANCH   3   4
ATOM      4  O   UNL     1       2.178  -4.021   5.653  1.00  0.00    -0.376 OA
BRANCH   4   5
ATOM      5  C   UNL     1       0.885  -4.182   6.221  1.00  0.00     0.202 C 
BRANCH   5   6
ATOM      6  C   UNL     1      -0.373  -3.457   5.714  1.00  0.00     0.261 C 
BRANCH   6   7
ATOM      7  O   UNL     1      -0.381  -3.049   4.346  1.00  0.00    -0.459 OA
BRANCH   7   8
ATOM      8  C   UNL     1      -0.067  -1.754   4.108  1.00  0.00     0.365 C 
ATOM      9  O   UNL     1       0.231  -0.948   4.986  1.00  0.00    -0.245 OA
BRANCH   8  10
ATOM     10  C   UNL     1      -0.180  -1.350   2.632  1.00  0.00     0.296 C 
ATOM     11  N   UNL     1      -0.055  -2.445   1.647  1.00  0.00    -0.319 N 
ATOM     12  C   UNL     1      -1.392  -2.965   1.351  1.00  0.00     0.270 C 
ATOM     13  H   UNL     1       0.491  -3.187   2.083  1.00  0.00     0.349 HD
ATOM     14  C   UNL     1      -2.423  -1.912   1.820  1.00  0.00     0.036 C 
ATOM     15  C   UNL     1      -1.563  -0.766   2.393  1.00  0.00     0.091 C 
ATOM     16  C   UNL     1      -3.382  -2.489   2.891  1.00  0.00     0.074 C 
ATOM     17  C   UNL     1      -3.299  -1.382   0.668  1.00  0.00     0.074 C 
ATOM     18  C   UNL     1      -4.414  -3.461   2.305  1.00  0.00     0.261 C 
ATOM     19  C   UNL     1      -4.274  -2.425   0.137  1.00  0.00     0.261 C 
ATOM     20  N   UNL     1      -5.165  -2.874   1.194  1.00  0.00    -0.346 N 
ATOM     21  H   UNL     1      -5.700  -2.078   1.539  1.00  0.00     0.346 HD
ATOM     22  H   UNL     1      -5.785  -3.587   0.812  1.00  0.00     0.346 HD
BRANCH  11  23
ATOM     23  C   UNL     1       0.826  -2.206   0.483  1.00  0.00     0.303 C 
BRANCH  23  24
ATOM     24  C   UNL     1       0.679  -0.867  -0.199  1.00  0.00     0.048 A 
ATOM     25  C   UNL     1       1.498   0.220   0.108  1.00  0.00     0.132 A 
ATOM     26  N   UNL     1       1.142   1.492  -0.149  1.00  0.00    -0.239 NA
ATOM     27  C   UNL     1      -0.020   1.694  -0.804  1.00  0.00     0.113 A 
ATOM     28  C   UNL     1      -0.405  -0.631  -1.047  1.00  0.00     0.015 A 
ATOM     29  C   UNL     1      -0.789   0.674  -1.325  1.00  0.00     0.021 A 
BRANCH  25  30
ATOM     30  N   UNL     1       2.723   0.070   0.731  1.00  0.00    -0.383 N 
ATOM     31  H   UNL     1       3.273   0.861   0.932  1.00  0.00     0.158 HD
ATOM     32  H   UNL     1       3.044  -0.828   0.974  1.00  0.00     0.158 HD
ENDBRANCH  25  30
ENDBRANCH  23  24
ENDBRANCH  11  23
ENDBRANCH   8  10
ENDBRANCH   7   8
ENDBRANCH   6   7
ENDBRANCH   5   6
ENDBRANCH   4   5
ENDBRANCH   3   4
ENDBRANCH   2   3
ENDBRANCH   1   2
BRANCH   1  33
ATOM     33  C   UNL     1       0.821  -6.860   4.166  1.00  0.00     0.188 C 
BRANCH  33  34
ATOM     34  C   UNL     1       2.177  -7.200   4.822  1.00  0.00     0.188 C 
BRANCH  34  35
ATOM     35  O   UNL     1       3.313  -6.690   4.133  1.00  0.00    -0.376 OA
BRANCH  35  36
ATOM     36  C   UNL     1       4.036  -7.563   3.278  1.00  0.00     0.202 C 
BRANCH  36  37
ATOM     37  C   UNL     1       3.337  -8.038   1.993  1.00  0.00     0.261 C 
BRANCH  37  38
ATOM     38  O   UNL     1       2.096  -8.737   2.163  1.00  0.00    -0.460 OA
BRANCH  38  39
ATOM     39  C   UNL     1       2.117  -9.872   2.900  1.00  0.00     0.338 C 
ATOM     40  O   UNL     1       3.087 -10.403   3.392  1.00  0.00    -0.246 OA
BRANCH  39  41
ATOM     41  C   UNL     1       0.712 -10.249   3.179  1.00  0.00     0.060 A 
ATOM     42  C   UNL     1       0.293 -10.351   4.512  1.00  0.00     0.016 A 
ATOM     43  C   UNL     1      -0.183 -10.496   2.135  1.00  0.00     0.016 A 
ATOM     44  C   UNL     1      -1.013 -10.744   4.806  1.00  0.00     0.010 A 
ATOM     45  C   UNL     1      -1.484 -10.911   2.431  1.00  0.00     0.010 A 
ATOM     46  C   UNL     1      -1.893 -11.075   3.767  1.00  0.00    -0.014 A 
BRANCH  46  47
ATOM     47  C   UNL     1      -3.153 -11.796   4.072  1.00  0.00     0.031 A 
ATOM     48  C   UNL     1      -3.163 -13.295   3.924  1.00  0.00     0.074 A 
ATOM     49  C   UNL     1      -4.255 -11.149   4.492  1.00  0.00     0.049 A 
ATOM     50  N   UNL     1      -4.149 -14.138   4.082  1.00  0.00    -0.248 NA
ATOM     51  C   UNL     1      -1.886 -13.925   3.546  1.00  0.00     0.031 C 
ATOM     52  C   UNL     1      -4.356  -9.710   4.729  1.00  0.00     0.029 A 
ATOM     53  N   UNL     1      -5.507 -11.628   4.789  1.00  0.00    -0.354 N 
ATOM     54  C   UNL     1      -3.616 -15.395   3.815  1.00  0.00     0.074 A 
ATOM     55  C   UNL     1      -2.230 -15.200   3.452  1.00  0.00     0.031 C 
ATOM     56  C   UNL     1      -5.607  -9.422   5.130  1.00  0.00     0.029 A 
ATOM     57  C   UNL     1      -6.405 -10.648   5.139  1.00  0.00     0.049 A 
ATOM     58  H   UNL     1      -5.739 -12.584   4.754  1.00  0.00     0.167 HD
ATOM     59  C   UNL     1      -4.223 -16.604   3.873  1.00  0.00     0.031 A 
ATOM     60  C   UNL     1      -7.723 -10.730   5.412  1.00  0.00     0.031 A 
ATOM     61  C   UNL     1      -5.607 -16.792   4.215  1.00  0.00     0.049 A 
ATOM     62  C   UNL     1      -8.402 -12.078   5.374  1.00  0.00     0.074 A 
ATOM     63  C   UNL     1      -6.318 -17.976   4.303  1.00  0.00     0.029 A 
ATOM     64  N   UNL     1      -6.494 -15.769   4.517  1.00  0.00    -0.354 N 
ATOM     65  N   UNL     1      -7.882 -13.259   5.136  1.00  0.00    -0.248 NA
ATOM     66  C   UNL     1      -9.846 -12.103   5.650  1.00  0.00     0.031 C 
ATOM     67  C   UNL     1      -7.649 -17.664   4.594  1.00  0.00     0.029 A 
ATOM     68  C   UNL     1      -7.752 -16.292   4.764  1.00  0.00     0.049 A 
ATOM     69  H   UNL     1      -6.263 -14.813   4.551  1.00  0.00     0.167 HD
ATOM     70  C   UNL     1      -8.928 -14.169   5.270  1.00  0.00     0.074 A 
ATOM     71  C   UNL     1     -10.104 -13.403   5.623  1.00  0.00     0.031 C 
ATOM     72  C   UNL     1      -8.914 -15.518   5.120  1.00  0.00     0.031 A 
BRANCH  59  73
ATOM     73  C   UNL     1      -3.397 -17.814   3.521  1.00  0.00    -0.014 A 
ATOM     74  C   UNL     1      -2.360 -18.261   4.360  1.00  0.00     0.010 A 
ATOM     75  C   UNL     1      -3.687 -18.535   2.348  1.00  0.00     0.010 A 
ATOM     76  C   UNL     1      -1.603 -19.383   4.013  1.00  0.00     0.020 A 
ATOM     77  C   UNL     1      -2.953 -19.677   2.014  1.00  0.00     0.020 A 
ATOM     78  C   UNL     1      -1.905 -20.084   2.841  1.00  0.00     0.054 A 
BRANCH  78  79
ATOM     79  S   UNL     1      -0.922 -21.551   2.430  1.00  0.00     0.124 S 
ATOM     80  O   UNL     1       0.365 -20.961   2.071  1.00  0.00    -0.237 OA
ATOM     81  O   UNL     1      -0.939 -22.307   3.680  1.00  0.00    -0.237 OA
ATOM     82  O   UNL     1      -1.655 -22.163   1.325  1.00  0.00    -0.744 OA
ENDBRANCH  78  79
ENDBRANCH  59  73
BRANCH  60  83
ATOM     83  C   UNL     1      -8.503  -9.499   5.728  1.00  0.00    -0.014 A 
ATOM     84  C   UNL     1      -9.054  -9.306   7.007  1.00  0.00     0.010 A 
ATOM     85  C   UNL     1      -8.717  -8.520   4.739  1.00  0.00     0.010 A 
ATOM     86  C   UNL     1      -9.822  -8.170   7.285  1.00  0.00     0.020 A 
ATOM     87  C   UNL     1      -9.456  -7.368   5.023  1.00  0.00     0.020 A 
ATOM     88  C   UNL     1     -10.015  -7.207   6.291  1.00  0.00     0.054 A 
BRANCH  88  89
ATOM     89  S   UNL     1     -10.980  -5.722   6.690  1.00  0.00     0.124 S 
ATOM     90  O   UNL     1     -12.333  -6.258   6.796  1.00  0.00    -0.237 OA
ATOM     91  O   UNL     1     -10.373  -5.282   7.944  1.00  0.00    -0.237 OA
ATOM     92  O   UNL     1     -10.742  -4.842   5.549  1.00  0.00    -0.744 OA
ENDBRANCH  88  89
ENDBRANCH  60  83
BRANCH  72  93
ATOM     93  C   UNL     1     -10.197 -16.266   5.384  1.00  0.00    -0.014 A 
ATOM     94  C   UNL     1     -11.296 -16.175   4.512  1.00  0.00     0.010 A 
ATOM     95  C   UNL     1     -10.277 -17.125   6.497  1.00  0.00     0.010 A 
ATOM     96  C   UNL     1     -12.463 -16.902   4.766  1.00  0.00     0.020 A 
ATOM     97  C   UNL     1     -11.428 -17.880   6.735  1.00  0.00     0.020 A 
ATOM     98  C   UNL     1     -12.520 -17.752   5.875  1.00  0.00     0.054 A 
BRANCH  98  99
ATOM     99  S   UNL     1     -14.029 -18.720   6.156  1.00  0.00     0.124 S 
ATOM    100  O   UNL     1     -14.975 -17.692   6.582  1.00  0.00    -0.237 OA
ATOM    101  O   UNL     1     -14.283 -19.303   4.841  1.00  0.00    -0.237 OA
ATOM    102  O   UNL     1     -13.641 -19.676   7.191  1.00  0.00    -0.744 OA
ENDBRANCH  98  99
ENDBRANCH  72  93
ENDBRANCH  46  47
ENDBRANCH  39  41
ENDBRANCH  38  39
ENDBRANCH  37  38
ENDBRANCH  36  37
ENDBRANCH  35  36
ENDBRANCH  34  35
ENDBRANCH  33  34
ENDBRANCH   1  33
TORSDOF 26
