REMARK SMILES C[C@@H](Oc1ccc(/C=N/NC(=O)c2ccc(I)c(O)c2)cc1)C(=O)OCCOCCOCCOCCOC(=O)c1ccc(-c2c3nc(c(-c4ccc(S(=O)(=O)[O-])cc4)c4ccc([nH]4)c(-c4ccc(S(=O)(=O)[O-])cc4)c4nc(c(-c5ccc(S(=O)(=O)[O-])cc5)c5ccc2[nH]5)C=C4)C=C3)cc1
REMARK SMILES IDX 29 1 28 2 27 3 26 4 25 5 23 6 24 7 2 8 1 9 3 10 4 11 5 12
REMARK SMILES IDX 22 13 6 14 21 15 7 16 8 17 9 18 10 19 11 20 12 22 13 23
REMARK SMILES IDX 14 24 20 25 15 26 18 27 16 28 17 29 19 30 30 32 31 33 32 34
REMARK SMILES IDX 33 35 34 36 35 37 36 38 37 39 38 40 39 41 40 42 41 43 99 44
REMARK SMILES IDX 42 45 98 46 43 47 44 48 45 49 92 50 46 51 97 52 91 53 93 54
REMARK SMILES IDX 47 55 96 56 90 57 89 58 48 60 78 61 59 62 77 63 60 64 63 65
REMARK SMILES IDX 76 66 94 67 61 68 62 69 75 71 95 72 64 73 49 74 50 75 58 76
REMARK SMILES IDX 51 77 57 78 52 79 53 80 54 81 55 82 56 83 79 84 80 85 88 86
REMARK SMILES IDX 81 87 87 88 82 89 83 90 84 91 85 92 86 93 65 94 66 95 74 96
REMARK SMILES IDX 67 97 73 98 68 99 69 100 70 101 71 102 72 103
REMARK H PARENT 10 21 19 31 93 59 63 70
REMARK Flexibility Score: inf
ROOT
ATOM      1  C   UNL     1      -2.397   0.638   2.159  1.00  0.00     0.188 C 
ENDROOT
BRANCH   1   2
ATOM      2  O   UNL     1      -3.713   0.934   1.728  1.00  0.00    -0.376 OA
BRANCH   2   3
ATOM      3  C   UNL     1      -3.999   1.266   0.372  1.00  0.00     0.202 C 
BRANCH   3   4
ATOM      4  C   UNL     1      -3.057   2.091  -0.522  1.00  0.00     0.261 C 
BRANCH   4   5
ATOM      5  O   UNL     1      -1.732   1.571  -0.713  1.00  0.00    -0.461 OA
BRANCH   5   6
ATOM      6  C   UNL     1      -0.725   2.282  -0.154  1.00  0.00     0.347 C 
ATOM      7  O   UNL     1      -0.890   3.297   0.522  1.00  0.00    -0.248 OA
BRANCH   6   8
ATOM      8  C   UNL     1       0.669   1.726  -0.431  1.00  0.00     0.279 C 
ATOM      9  C   UNL     1       0.806   0.268  -0.863  1.00  0.00     0.066 C 
BRANCH   8  10
ATOM     10  O   UNL     1       1.210   2.599  -1.439  1.00  0.00    -0.479 OA
BRANCH  10  11
ATOM     11  C   UNL     1       2.545   2.813  -1.263  1.00  0.00     0.120 A 
ATOM     12  C   UNL     1       2.973   4.117  -1.021  1.00  0.00     0.047 A 
ATOM     13  C   UNL     1       3.462   1.772  -1.384  1.00  0.00     0.047 A 
ATOM     14  C   UNL     1       4.335   4.376  -0.876  1.00  0.00     0.013 A 
ATOM     15  C   UNL     1       4.802   2.007  -1.143  1.00  0.00     0.013 A 
ATOM     16  C   UNL     1       5.234   3.311  -0.920  1.00  0.00    -0.005 A 
BRANCH  16  17
ATOM     17  C   UNL     1       6.682   3.504  -0.878  1.00  0.00     0.141 C 
ATOM     18  N   UNL     1       7.254   4.307  -1.714  1.00  0.00    -0.180 NA
BRANCH  18  19
ATOM     19  N   UNL     1       8.615   4.273  -1.783  1.00  0.00    -0.243 N 
ATOM     20  C   UNL     1       9.468   3.182  -1.838  1.00  0.00     0.271 C 
ATOM     21  H   UNL     1       9.057   5.152  -1.796  1.00  0.00     0.194 HD
ATOM     22  O   UNL     1      10.688   3.344  -1.811  1.00  0.00    -0.267 OA
BRANCH  20  23
ATOM     23  C   UNL     1       8.944   1.795  -1.919  1.00  0.00     0.045 A 
ATOM     24  C   UNL     1       9.494   0.841  -1.053  1.00  0.00     0.015 A 
ATOM     25  C   UNL     1       7.929   1.429  -2.812  1.00  0.00     0.061 A 
ATOM     26  C   UNL     1       8.987  -0.460  -1.028  1.00  0.00     0.019 A 
ATOM     27  C   UNL     1       7.415   0.130  -2.774  1.00  0.00     0.129 A 
ATOM     28  C   UNL     1       7.935  -0.812  -1.878  1.00  0.00     0.055 A 
ATOM     29  I   UNL     1       7.149  -2.744  -1.720  1.00  0.00    -0.040 I 
BRANCH  27  30
ATOM     30  O   UNL     1       6.355  -0.201  -3.572  1.00  0.00    -0.507 OA
ATOM     31  H   UNL     1       6.006  -1.070  -3.551  1.00  0.00     0.293 HD
ENDBRANCH  27  30
ENDBRANCH  20  23
ENDBRANCH  18  19
ENDBRANCH  16  17
ENDBRANCH  10  11
ENDBRANCH   8  10
ENDBRANCH   6   8
ENDBRANCH   5   6
ENDBRANCH   4   5
ENDBRANCH   3   4
ENDBRANCH   2   3
ENDBRANCH   1   2
BRANCH   1  32
ATOM     32  C   UNL     1      -1.617  -0.513   1.516  1.00  0.00     0.188 C 
BRANCH  32  33
ATOM     33  O   UNL     1      -2.023  -0.820   0.200  1.00  0.00    -0.377 OA
BRANCH  33  34
ATOM     34  C   UNL     1      -2.973  -1.849  -0.032  1.00  0.00     0.188 C 
BRANCH  34  35
ATOM     35  C   UNL     1      -3.934  -2.243   1.099  1.00  0.00     0.188 C 
BRANCH  35  36
ATOM     36  O   UNL     1      -3.296  -2.465   2.347  1.00  0.00    -0.376 OA
BRANCH  36  37
ATOM     37  C   UNL     1      -2.886  -3.784   2.679  1.00  0.00     0.202 C 
BRANCH  37  38
ATOM     38  C   UNL     1      -1.873  -4.491   1.762  1.00  0.00     0.261 C 
BRANCH  38  39
ATOM     39  O   UNL     1      -2.275  -4.732   0.403  1.00  0.00    -0.460 OA
BRANCH  39  40
ATOM     40  C   UNL     1      -3.441  -5.367   0.173  1.00  0.00     0.338 C 
ATOM     41  O   UNL     1      -4.195  -5.846   1.005  1.00  0.00    -0.246 OA
BRANCH  40  42
ATOM     42  C   UNL     1      -3.761  -5.211  -1.261  1.00  0.00     0.060 A 
ATOM     43  C   UNL     1      -4.940  -4.548  -1.630  1.00  0.00     0.016 A 
ATOM     44  C   UNL     1      -2.905  -5.727  -2.236  1.00  0.00     0.016 A 
ATOM     45  C   UNL     1      -5.286  -4.435  -2.977  1.00  0.00     0.010 A 
ATOM     46  C   UNL     1      -3.265  -5.632  -3.583  1.00  0.00     0.010 A 
ATOM     47  C   UNL     1      -4.474  -5.018  -3.957  1.00  0.00    -0.014 A 
BRANCH  47  48
ATOM     48  C   UNL     1      -4.974  -5.170  -5.345  1.00  0.00     0.031 A 
ATOM     49  C   UNL     1      -5.546  -6.501  -5.754  1.00  0.00     0.074 A 
ATOM     50  C   UNL     1      -4.918  -4.158  -6.229  1.00  0.00     0.049 A 
ATOM     51  N   UNL     1      -5.956  -6.904  -6.928  1.00  0.00    -0.248 NA
ATOM     52  C   UNL     1      -5.661  -7.516  -4.693  1.00  0.00     0.031 C 
ATOM     53  C   UNL     1      -4.434  -2.809  -5.943  1.00  0.00     0.029 A 
ATOM     54  N   UNL     1      -5.259  -4.120  -7.559  1.00  0.00    -0.354 N 
ATOM     55  C   UNL     1      -6.356  -8.224  -6.753  1.00  0.00     0.074 A 
ATOM     56  C   UNL     1      -6.118  -8.560  -5.367  1.00  0.00     0.031 C 
ATOM     57  C   UNL     1      -4.486  -2.080  -7.072  1.00  0.00     0.029 A 
ATOM     58  C   UNL     1      -4.966  -2.922  -8.167  1.00  0.00     0.049 A 
ATOM     59  H   UNL     1      -5.674  -4.877  -8.031  1.00  0.00     0.167 HD
ATOM     60  C   UNL     1      -6.873  -9.080  -7.666  1.00  0.00     0.031 A 
ATOM     61  C   UNL     1      -5.040  -2.559  -9.464  1.00  0.00     0.031 A 
ATOM     62  C   UNL     1      -7.089  -8.744  -9.048  1.00  0.00     0.049 A 
ATOM     63  C   UNL     1      -5.547  -3.550 -10.481  1.00  0.00     0.074 A 
ATOM     64  C   UNL     1      -7.629  -9.531 -10.049  1.00  0.00     0.029 A 
ATOM     65  N   UNL     1      -6.761  -7.527  -9.628  1.00  0.00    -0.354 N 
ATOM     66  N   UNL     1      -5.954  -4.785 -10.298  1.00  0.00    -0.248 NA
ATOM     67  C   UNL     1      -5.612  -3.099 -11.879  1.00  0.00     0.031 C 
ATOM     68  C   UNL     1      -7.560  -8.818 -11.249  1.00  0.00     0.029 A 
ATOM     69  C   UNL     1      -7.053  -7.555 -10.981  1.00  0.00     0.049 A 
ATOM     70  H   UNL     1      -6.378  -6.758  -9.148  1.00  0.00     0.167 HD
ATOM     71  C   UNL     1      -6.350  -5.246 -11.551  1.00  0.00     0.074 A 
ATOM     72  C   UNL     1      -6.143  -4.155 -12.481  1.00  0.00     0.031 C 
ATOM     73  C   UNL     1      -6.844  -6.461 -11.897  1.00  0.00     0.031 A 
BRANCH  60  74
ATOM     74  C   UNL     1      -7.184 -10.481  -7.207  1.00  0.00    -0.014 A 
ATOM     75  C   UNL     1      -8.230 -10.747  -6.305  1.00  0.00     0.010 A 
ATOM     76  C   UNL     1      -6.425 -11.556  -7.707  1.00  0.00     0.010 A 
ATOM     77  C   UNL     1      -8.478 -12.054  -5.874  1.00  0.00     0.020 A 
ATOM     78  C   UNL     1      -6.691 -12.867  -7.306  1.00  0.00     0.020 A 
ATOM     79  C   UNL     1      -7.704 -13.105  -6.375  1.00  0.00     0.054 A 
BRANCH  79  80
ATOM     80  S   UNL     1      -8.052 -14.790  -5.803  1.00  0.00     0.124 S 
ATOM     81  O   UNL     1      -7.579 -14.742  -4.421  1.00  0.00    -0.237 OA
ATOM     82  O   UNL     1      -9.499 -14.891  -5.968  1.00  0.00    -0.237 OA
ATOM     83  O   UNL     1      -7.264 -15.632  -6.700  1.00  0.00    -0.744 OA
ENDBRANCH  79  80
ENDBRANCH  60  74
BRANCH  61  84
ATOM     84  C   UNL     1      -4.587  -1.201  -9.878  1.00  0.00    -0.014 A 
ATOM     85  C   UNL     1      -5.503  -0.240 -10.339  1.00  0.00     0.010 A 
ATOM     86  C   UNL     1      -3.223  -0.859  -9.796  1.00  0.00     0.010 A 
ATOM     87  C   UNL     1      -5.065   1.034 -10.714  1.00  0.00     0.020 A 
ATOM     88  C   UNL     1      -2.786   0.423 -10.141  1.00  0.00     0.020 A 
ATOM     89  C   UNL     1      -3.709   1.360 -10.605  1.00  0.00     0.054 A 
BRANCH  89  90
ATOM     90  S   UNL     1      -3.177   3.042 -11.030  1.00  0.00     0.124 S 
ATOM     91  O   UNL     1      -3.330   3.052 -12.481  1.00  0.00    -0.237 OA
ATOM     92  O   UNL     1      -4.126   3.867 -10.286  1.00  0.00    -0.237 OA
ATOM     93  O   UNL     1      -1.800   3.098 -10.544  1.00  0.00    -0.744 OA
ENDBRANCH  89  90
ENDBRANCH  61  84
BRANCH  73  94
ATOM     94  C   UNL     1      -7.243  -6.677 -13.335  1.00  0.00    -0.014 A 
ATOM     95  C   UNL     1      -6.283  -6.799 -14.355  1.00  0.00     0.010 A 
ATOM     96  C   UNL     1      -8.604  -6.848 -13.653  1.00  0.00     0.010 A 
ATOM     97  C   UNL     1      -6.679  -7.071 -15.668  1.00  0.00     0.020 A 
ATOM     98  C   UNL     1      -9.001  -7.151 -14.958  1.00  0.00     0.020 A 
ATOM     99  C   UNL     1      -8.035  -7.252 -15.960  1.00  0.00     0.054 A 
BRANCH  99 100
ATOM    100  S   UNL     1      -8.514  -7.670 -17.659  1.00  0.00     0.124 S 
ATOM    101  O   UNL     1      -8.263  -6.417 -18.365  1.00  0.00    -0.237 OA
ATOM    102  O   UNL     1      -7.607  -8.768 -17.985  1.00  0.00    -0.237 OA
ATOM    103  O   UNL     1      -9.921  -8.047 -17.541  1.00  0.00    -0.744 OA
ENDBRANCH  99 100
ENDBRANCH  73  94
ENDBRANCH  47  48
ENDBRANCH  40  42
ENDBRANCH  39  40
ENDBRANCH  38  39
ENDBRANCH  37  38
ENDBRANCH  36  37
ENDBRANCH  35  36
ENDBRANCH  34  35
ENDBRANCH  33  34
ENDBRANCH  32  33
ENDBRANCH   1  32
TORSDOF 29
