REMARK SMILES CS(=O)(=O)c1ccc(N2N=C(C(=O)OCCOCCOCCOCCOC(=O)c3ccc(-c4c5nc(c(-c6ccc(S(=O)(=O)[O-])cc6)c6ccc([nH]6)c(-c6ccc(S(=O)(=O)[O-])cc6)c6nc(c(-c7ccc(S(=O)(=O)[O-])cc7)c7ccc4[nH]7)C=C6)C=C5)cc3)C[C@H]2c2cccs2)cc1
REMARK SMILES IDX 21 1 20 2 19 3 18 4 17 5 16 6 15 7 14 8 12 9 13 10 11 11
REMARK SMILES IDX 9 12 10 13 90 14 89 15 8 16 5 17 6 18 97 19 7 20 96 21 2 22
REMARK SMILES IDX 1 23 3 24 4 25 91 26 92 27 95 28 93 29 94 30 22 31 23 32
REMARK SMILES IDX 24 33 25 34 26 35 27 36 28 37 29 38 30 39 88 40 31 41 87 42
REMARK SMILES IDX 32 43 33 44 34 45 81 46 35 47 86 48 80 49 82 50 36 51 85 52
REMARK SMILES IDX 79 53 78 54 37 56 67 57 48 58 66 59 49 60 52 61 65 62 83 63
REMARK SMILES IDX 50 64 51 65 64 67 84 68 53 69 38 70 39 71 47 72 40 73 46 74
REMARK SMILES IDX 41 75 42 76 43 77 44 78 45 79 68 80 69 81 77 82 70 83 76 84
REMARK SMILES IDX 71 85 72 86 73 87 74 88 75 89 54 90 55 91 63 92 56 93 62 94
REMARK SMILES IDX 57 95 58 96 59 97 60 98 61 99
REMARK H PARENT 82 55 52 66
REMARK Flexibility Score: inf
ROOT
ATOM      1  C   UNL     1       4.159  -2.493  11.379  1.00  0.00     0.188 C 
ENDROOT
BRANCH   1   2
ATOM      2  O   UNL     1       3.802  -1.406  10.524  1.00  0.00    -0.377 OA
BRANCH   2   3
ATOM      3  C   UNL     1       3.828  -1.613   9.123  1.00  0.00     0.188 C 
BRANCH   3   4
ATOM      4  C   UNL     1       5.221  -1.462   8.484  1.00  0.00     0.188 C 
BRANCH   4   5
ATOM      5  O   UNL     1       6.311  -1.699   9.351  1.00  0.00    -0.376 OA
BRANCH   5   6
ATOM      6  C   UNL     1       6.841  -0.703  10.213  1.00  0.00     0.202 C 
BRANCH   6   7
ATOM      7  C   UNL     1       6.152   0.610  10.637  1.00  0.00     0.261 C 
BRANCH   7   8
ATOM      8  O   UNL     1       4.937   0.945   9.980  1.00  0.00    -0.459 OA
BRANCH   8   9
ATOM      9  C   UNL     1       5.025   1.761   8.921  1.00  0.00     0.354 C 
ATOM     10  O   UNL     1       6.007   2.329   8.484  1.00  0.00    -0.245 OA
BRANCH   9  11
ATOM     11  C   UNL     1       3.699   1.724   8.210  1.00  0.00     0.148 C 
ATOM     12  N   UNL     1       2.266   1.607   6.662  1.00  0.00    -0.256 N 
ATOM     13  N   UNL     1       3.600   1.511   6.930  1.00  0.00    -0.169 NA
ATOM     14  C   UNL     1       1.532   2.256   7.773  1.00  0.00     0.154 C 
ATOM     15  C   UNL     1       2.405   1.824   8.961  1.00  0.00     0.099 C 
BRANCH  12  16
ATOM     16  C   UNL     1       1.859   1.579   5.337  1.00  0.00     0.060 A 
ATOM     17  C   UNL     1       0.993   1.490   2.659  1.00  0.00     0.067 A 
ATOM     18  C   UNL     1       1.038   0.314   3.410  1.00  0.00     0.022 A 
ATOM     19  C   UNL     1       1.415   2.697   3.218  1.00  0.00     0.022 A 
ATOM     20  C   UNL     1       1.475   0.367   4.741  1.00  0.00     0.029 A 
ATOM     21  C   UNL     1       1.859   2.729   4.542  1.00  0.00     0.029 A 
BRANCH  17  22
ATOM     22  S   UNL     1       0.374   1.490   0.994  1.00  0.00     0.175 S 
ATOM     23  C   UNL     1       1.103   0.091   0.192  1.00  0.00     0.163 C 
ATOM     24  O   UNL     1       0.902   2.671   0.333  1.00  0.00    -0.224 OA
ATOM     25  O   UNL     1      -1.056   1.266   1.081  1.00  0.00    -0.224 OA
ENDBRANCH  17  22
ENDBRANCH  12  16
BRANCH  14  26
ATOM     26  C   UNL     1       1.351   3.770   7.690  1.00  0.00     0.030 A 
ATOM     27  C   UNL     1       0.391   4.459   6.967  1.00  0.00     0.017 A 
ATOM     28  S   UNL     1       2.382   4.877   8.517  1.00  0.00    -0.147 S 
ATOM     29  C   UNL     1       0.516   5.873   7.086  1.00  0.00     0.012 A 
ATOM     30  C   UNL     1       1.535   6.231   7.936  1.00  0.00     0.065 A 
ENDBRANCH  14  26
ENDBRANCH   9  11
ENDBRANCH   8   9
ENDBRANCH   7   8
ENDBRANCH   6   7
ENDBRANCH   5   6
ENDBRANCH   4   5
ENDBRANCH   3   4
ENDBRANCH   2   3
ENDBRANCH   1   2
BRANCH   1  31
ATOM     31  C   UNL     1       4.932  -3.726  10.854  1.00  0.00     0.188 C 
BRANCH  31  32
ATOM     32  O   UNL     1       4.579  -4.138   9.542  1.00  0.00    -0.376 OA
BRANCH  32  33
ATOM     33  C   UNL     1       3.726  -5.260   9.387  1.00  0.00     0.202 C 
BRANCH  33  34
ATOM     34  C   UNL     1       2.288  -5.120   9.910  1.00  0.00     0.261 C 
BRANCH  34  35
ATOM     35  O   UNL     1       2.155  -4.803  11.303  1.00  0.00    -0.460 OA
BRANCH  35  36
ATOM     36  C   UNL     1       2.651  -5.696  12.185  1.00  0.00     0.338 C 
ATOM     37  O   UNL     1       3.174  -6.768  11.928  1.00  0.00    -0.246 OA
BRANCH  36  38
ATOM     38  C   UNL     1       2.628  -5.074  13.524  1.00  0.00     0.060 A 
ATOM     39  C   UNL     1       3.832  -4.934  14.225  1.00  0.00     0.016 A 
ATOM     40  C   UNL     1       1.425  -4.643  14.088  1.00  0.00     0.016 A 
ATOM     41  C   UNL     1       3.828  -4.410  15.518  1.00  0.00     0.010 A 
ATOM     42  C   UNL     1       1.421  -4.132  15.388  1.00  0.00     0.010 A 
ATOM     43  C   UNL     1       2.617  -4.053  16.125  1.00  0.00    -0.014 A 
BRANCH  43  44
ATOM     44  C   UNL     1       2.578  -3.791  17.584  1.00  0.00     0.031 A 
ATOM     45  C   UNL     1       2.123  -4.899  18.498  1.00  0.00     0.074 A 
ATOM     46  C   UNL     1       2.968  -2.610  18.096  1.00  0.00     0.049 A 
ATOM     47  N   UNL     1       1.989  -4.901  19.799  1.00  0.00    -0.248 NA
ATOM     48  C   UNL     1       1.770  -6.177  17.856  1.00  0.00     0.031 C 
ATOM     49  C   UNL     1       3.472  -1.476  17.323  1.00  0.00     0.029 A 
ATOM     50  N   UNL     1       2.998  -2.172  19.397  1.00  0.00    -0.354 N 
ATOM     51  C   UNL     1       1.529  -6.170  20.129  1.00  0.00     0.074 A 
ATOM     52  C   UNL     1       1.374  -6.902  18.891  1.00  0.00     0.031 C 
ATOM     53  C   UNL     1       3.759  -0.469  18.166  1.00  0.00     0.029 A 
ATOM     54  C   UNL     1       3.426  -0.872  19.532  1.00  0.00     0.049 A 
ATOM     55  H   UNL     1       2.738  -2.735  20.162  1.00  0.00     0.167 HD
ATOM     56  C   UNL     1       1.265  -6.686  21.354  1.00  0.00     0.031 A 
ATOM     57  C   UNL     1       3.518  -0.092  20.628  1.00  0.00     0.031 A 
ATOM     58  C   UNL     1       1.405  -5.951  22.583  1.00  0.00     0.049 A 
ATOM     59  C   UNL     1       3.145  -0.663  21.973  1.00  0.00     0.074 A 
ATOM     60  C   UNL     1       1.176  -6.387  23.876  1.00  0.00     0.029 A 
ATOM     61  N   UNL     1       1.802  -4.625  22.672  1.00  0.00    -0.354 N 
ATOM     62  N   UNL     1       2.735  -1.873  22.273  1.00  0.00    -0.248 NA
ATOM     63  C   UNL     1       3.258   0.236  23.130  1.00  0.00     0.031 C 
ATOM     64  C   UNL     1       1.368  -5.305  24.741  1.00  0.00     0.029 A 
ATOM     65  C   UNL     1       1.794  -4.217  23.996  1.00  0.00     0.049 A 
ATOM     66  H   UNL     1       2.052  -4.057  21.908  1.00  0.00     0.167 HD
ATOM     67  C   UNL     1       2.575  -1.889  23.656  1.00  0.00     0.074 A 
ATOM     68  C   UNL     1       2.947  -0.573  24.133  1.00  0.00     0.031 C 
ATOM     69  C   UNL     1       2.164  -2.903  24.459  1.00  0.00     0.031 A 
BRANCH  56  70
ATOM     70  C   UNL     1       0.758  -8.103  21.419  1.00  0.00    -0.014 A 
ATOM     71  C   UNL     1       1.588  -9.195  21.105  1.00  0.00     0.010 A 
ATOM     72  C   UNL     1      -0.563  -8.348  21.837  1.00  0.00     0.010 A 
ATOM     73  C   UNL     1       1.095 -10.501  21.171  1.00  0.00     0.020 A 
ATOM     74  C   UNL     1      -1.051  -9.654  21.934  1.00  0.00     0.020 A 
ATOM     75  C   UNL     1      -0.223 -10.722  21.585  1.00  0.00     0.054 A 
BRANCH  75  76
ATOM     76  S   UNL     1      -0.827 -12.429  21.685  1.00  0.00     0.124 S 
ATOM     77  O   UNL     1      -0.920 -12.799  20.275  1.00  0.00    -0.237 OA
ATOM     78  O   UNL     1       0.228 -13.098  22.441  1.00  0.00    -0.237 OA
ATOM     79  O   UNL     1      -2.106 -12.305  22.380  1.00  0.00    -0.744 OA
ENDBRANCH  75  76
ENDBRANCH  56  70
BRANCH  57  80
ATOM     80  C   UNL     1       3.970   1.322  20.501  1.00  0.00    -0.014 A 
ATOM     81  C   UNL     1       5.196   1.740  21.047  1.00  0.00     0.010 A 
ATOM     82  C   UNL     1       3.165   2.265  19.835  1.00  0.00     0.010 A 
ATOM     83  C   UNL     1       5.601   3.075  20.945  1.00  0.00     0.020 A 
ATOM     84  C   UNL     1       3.580   3.592  19.702  1.00  0.00     0.020 A 
ATOM     85  C   UNL     1       4.791   3.992  20.267  1.00  0.00     0.054 A 
BRANCH  85  86
ATOM     86  S   UNL     1       5.363   5.706  20.098  1.00  0.00     0.124 S 
ATOM     87  O   UNL     1       5.227   6.208  21.461  1.00  0.00    -0.237 OA
ATOM     88  O   UNL     1       6.732   5.533  19.619  1.00  0.00    -0.237 OA
ATOM     89  O   UNL     1       4.438   6.279  19.123  1.00  0.00    -0.744 OA
ENDBRANCH  85  86
ENDBRANCH  57  80
BRANCH  69  90
ATOM     90  C   UNL     1       2.135  -2.649  25.945  1.00  0.00    -0.014 A 
ATOM     91  C   UNL     1       1.196  -1.780  26.527  1.00  0.00     0.010 A 
ATOM     92  C   UNL     1       3.039  -3.335  26.779  1.00  0.00     0.010 A 
ATOM     93  C   UNL     1       1.188  -1.569  27.910  1.00  0.00     0.020 A 
ATOM     94  C   UNL     1       3.012  -3.154  28.164  1.00  0.00     0.020 A 
ATOM     95  C   UNL     1       2.098  -2.258  28.719  1.00  0.00     0.054 A 
BRANCH  95  96
ATOM     96  S   UNL     1       2.047  -1.990  30.512  1.00  0.00     0.124 S 
ATOM     97  O   UNL     1       2.587  -0.638  30.633  1.00  0.00    -0.237 OA
ATOM     98  O   UNL     1       0.625  -2.128  30.816  1.00  0.00    -0.237 OA
ATOM     99  O   UNL     1       2.899  -3.050  31.047  1.00  0.00    -0.744 OA
ENDBRANCH  95  96
ENDBRANCH  69  90
ENDBRANCH  43  44
ENDBRANCH  36  38
ENDBRANCH  35  36
ENDBRANCH  34  35
ENDBRANCH  33  34
ENDBRANCH  32  33
ENDBRANCH  31  32
ENDBRANCH   1  31
TORSDOF 26
