REMARK SMILES O=C(OCCOCCOCCOCCOC(=O)c1ccc(Nc2c([N+](=O)[O-])c(=O)oc3ccccc23)cc1O)c1ccc(-c2c3nc(c(-c4ccc(S(=O)(=O)[O-])cc4)c4ccc([nH]4)c(-c4ccc(S(=O)(=O)[O-])cc4)c4nc(c(-c5ccc(S(=O)(=O)[O-])cc5)c5ccc2[nH]5)C=C4)C=C3)cc1
REMARK SMILES IDX 9 1 8 2 7 3 6 4 5 5 4 6 3 7 2 8 1 9 40 10 41 11 99 12 42 13
REMARK SMILES IDX 98 14 43 15 44 16 45 17 92 18 46 19 97 20 91 21 93 22 47 23
REMARK SMILES IDX 96 24 90 25 89 26 48 28 78 29 59 30 77 31 60 32 63 33 76 34
REMARK SMILES IDX 94 35 61 36 62 37 75 39 95 40 64 41 49 42 50 43 58 44 51 45
REMARK SMILES IDX 57 46 52 47 53 48 54 49 55 50 56 51 79 52 80 53 88 54 81 55
REMARK SMILES IDX 87 56 82 57 83 58 84 59 85 60 86 61 65 62 66 63 74 64 67 65
REMARK SMILES IDX 73 66 68 67 69 68 70 69 71 70 72 71 10 72 11 73 12 74 13 75
REMARK SMILES IDX 14 76 15 77 16 78 17 79 18 80 19 81 38 82 20 83 37 84 21 85
REMARK SMILES IDX 39 86 22 88 23 90 24 91 36 92 28 93 31 94 35 95 29 96 30 97
REMARK SMILES IDX 32 98 34 99 33 100 25 101 26 102 27 103
REMARK H PARENT 93 27 63 38 39 87 22 89
REMARK Flexibility Score: inf
ROOT
ATOM      1  O   UNL     1       2.535  -2.171  -3.194  1.00  0.00    -0.377 OA
ENDROOT
BRANCH   1   2
ATOM      2  C   UNL     1       1.859  -1.226  -2.367  1.00  0.00     0.188 C 
BRANCH   2   3
ATOM      3  C   UNL     1       2.288  -1.232  -0.901  1.00  0.00     0.188 C 
BRANCH   3   4
ATOM      4  O   UNL     1       3.627  -0.748  -0.767  1.00  0.00    -0.376 OA
BRANCH   4   5
ATOM      5  C   UNL     1       4.414  -1.408   0.224  1.00  0.00     0.202 C 
BRANCH   5   6
ATOM      6  C   UNL     1       4.242  -0.839   1.634  1.00  0.00     0.261 C 
BRANCH   6   7
ATOM      7  O   UNL     1       2.884  -0.459   1.900  1.00  0.00    -0.460 OA
BRANCH   7   8
ATOM      8  C   UNL     1       2.314   0.760   1.728  1.00  0.00     0.338 C 
ATOM      9  O   UNL     1       1.129   0.891   2.038  1.00  0.00    -0.246 OA
BRANCH   8  10
ATOM     10  C   UNL     1       3.033   1.967   1.203  1.00  0.00     0.060 A 
ATOM     11  C   UNL     1       4.164   1.954   0.382  1.00  0.00     0.016 A 
ATOM     12  C   UNL     1       2.481   3.219   1.528  1.00  0.00     0.016 A 
ATOM     13  C   UNL     1       4.782   3.127  -0.031  1.00  0.00     0.010 A 
ATOM     14  C   UNL     1       3.078   4.407   1.095  1.00  0.00     0.010 A 
ATOM     15  C   UNL     1       4.257   4.358   0.346  1.00  0.00    -0.014 A 
BRANCH  15  16
ATOM     16  C   UNL     1       5.079   5.558   0.108  1.00  0.00     0.031 A 
ATOM     17  C   UNL     1       5.855   6.106   1.270  1.00  0.00     0.074 A 
ATOM     18  C   UNL     1       5.233   6.039  -1.138  1.00  0.00     0.049 A 
ATOM     19  N   UNL     1       6.617   7.162   1.332  1.00  0.00    -0.248 NA
ATOM     20  C   UNL     1       5.772   5.347   2.532  1.00  0.00     0.031 C 
ATOM     21  C   UNL     1       4.628   5.469  -2.345  1.00  0.00     0.029 A 
ATOM     22  N   UNL     1       5.970   7.095  -1.600  1.00  0.00    -0.354 N 
ATOM     23  C   UNL     1       7.076   7.213   2.643  1.00  0.00     0.074 A 
ATOM     24  C   UNL     1       6.509   6.086   3.345  1.00  0.00     0.031 C 
ATOM     25  C   UNL     1       5.034   6.176  -3.413  1.00  0.00     0.029 A 
ATOM     26  C   UNL     1       5.871   7.281  -2.959  1.00  0.00     0.049 A 
ATOM     27  H   UNL     1       6.519   7.667  -1.016  1.00  0.00     0.167 HD
ATOM     28  C   UNL     1       7.891   8.133   3.208  1.00  0.00     0.031 A 
ATOM     29  C   UNL     1       6.375   8.262  -3.733  1.00  0.00     0.031 A 
ATOM     30  C   UNL     1       8.423   9.252   2.483  1.00  0.00     0.049 A 
ATOM     31  C   UNL     1       7.190   9.336  -3.061  1.00  0.00     0.074 A 
ATOM     32  C   UNL     1       9.195  10.298   2.948  1.00  0.00     0.029 A 
ATOM     33  N   UNL     1       8.231   9.461   1.123  1.00  0.00    -0.354 N 
ATOM     34  N   UNL     1       7.554   9.425  -1.801  1.00  0.00    -0.248 NA
ATOM     35  C   UNL     1       7.649  10.447  -3.902  1.00  0.00     0.031 C 
ATOM     36  C   UNL     1       9.429  11.167   1.876  1.00  0.00     0.029 A 
ATOM     37  C   UNL     1       8.854  10.630   0.732  1.00  0.00     0.049 A 
ATOM     38  H   UNL     1       7.726   8.864   0.525  1.00  0.00     0.167 HD
ATOM     39  C   UNL     1       8.294  10.596  -1.700  1.00  0.00     0.074 A 
ATOM     40  C   UNL     1       8.345  11.168  -3.033  1.00  0.00     0.031 C 
ATOM     41  C   UNL     1       8.876  11.157  -0.610  1.00  0.00     0.031 A 
BRANCH  28  42
ATOM     42  C   UNL     1       8.159   7.997   4.682  1.00  0.00    -0.014 A 
ATOM     43  C   UNL     1       8.985   6.979   5.192  1.00  0.00     0.010 A 
ATOM     44  C   UNL     1       7.533   8.883   5.578  1.00  0.00     0.010 A 
ATOM     45  C   UNL     1       9.142   6.821   6.573  1.00  0.00     0.020 A 
ATOM     46  C   UNL     1       7.707   8.743   6.958  1.00  0.00     0.020 A 
ATOM     47  C   UNL     1       8.494   7.699   7.447  1.00  0.00     0.054 A 
BRANCH  47  48
ATOM     48  S   UNL     1       8.703   7.466   9.235  1.00  0.00     0.124 S 
ATOM     49  O   UNL     1       7.891   6.277   9.480  1.00  0.00    -0.237 OA
ATOM     50  O   UNL     1      10.146   7.280   9.367  1.00  0.00    -0.237 OA
ATOM     51  O   UNL     1       8.183   8.705   9.809  1.00  0.00    -0.744 OA
ENDBRANCH  47  48
ENDBRANCH  28  42
BRANCH  29  52
ATOM     52  C   UNL     1       6.068   8.308  -5.191  1.00  0.00    -0.014 A 
ATOM     53  C   UNL     1       7.080   8.156  -6.155  1.00  0.00     0.010 A 
ATOM     54  C   UNL     1       4.743   8.507  -5.627  1.00  0.00     0.010 A 
ATOM     55  C   UNL     1       6.776   8.218  -7.521  1.00  0.00     0.020 A 
ATOM     56  C   UNL     1       4.431   8.539  -6.989  1.00  0.00     0.020 A 
ATOM     57  C   UNL     1       5.452   8.409  -7.929  1.00  0.00     0.054 A 
BRANCH  57  58
ATOM     58  S   UNL     1       5.073   8.449  -9.704  1.00  0.00     0.124 S 
ATOM     59  O   UNL     1       5.595   9.754 -10.097  1.00  0.00    -0.237 OA
ATOM     60  O   UNL     1       5.809   7.294 -10.212  1.00  0.00    -0.237 OA
ATOM     61  O   UNL     1       3.618   8.318  -9.747  1.00  0.00    -0.744 OA
ENDBRANCH  57  58
ENDBRANCH  29  52
BRANCH  41  62
ATOM     62  C   UNL     1       9.638  12.433  -0.827  1.00  0.00    -0.014 A 
ATOM     63  C   UNL     1       8.968  13.650  -1.036  1.00  0.00     0.010 A 
ATOM     64  C   UNL     1      11.042  12.419  -0.743  1.00  0.00     0.010 A 
ATOM     65  C   UNL     1       9.694  14.833  -1.183  1.00  0.00     0.020 A 
ATOM     66  C   UNL     1      11.769  13.603  -0.863  1.00  0.00     0.020 A 
ATOM     67  C   UNL     1      11.090  14.802  -1.094  1.00  0.00     0.054 A 
BRANCH  67  68
ATOM     68  S   UNL     1      12.008  16.358  -1.230  1.00  0.00     0.124 S 
ATOM     69  O   UNL     1      11.937  16.627  -2.664  1.00  0.00    -0.237 OA
ATOM     70  O   UNL     1      11.236  17.262  -0.381  1.00  0.00    -0.237 OA
ATOM     71  O   UNL     1      13.337  16.022  -0.724  1.00  0.00    -0.744 OA
ENDBRANCH  67  68
ENDBRANCH  41  62
ENDBRANCH  15  16
ENDBRANCH   8  10
ENDBRANCH   7   8
ENDBRANCH   6   7
ENDBRANCH   5   6
ENDBRANCH   4   5
ENDBRANCH   3   4
ENDBRANCH   2   3
ENDBRANCH   1   2
BRANCH   1  72
ATOM     72  C   UNL     1       3.959  -2.145  -3.163  1.00  0.00     0.188 C 
BRANCH  72  73
ATOM     73  C   UNL     1       4.695  -0.832  -3.511  1.00  0.00     0.188 C 
BRANCH  73  74
ATOM     74  O   UNL     1       3.858   0.247  -3.904  1.00  0.00    -0.376 OA
BRANCH  74  75
ATOM     75  C   UNL     1       3.865   0.547  -5.298  1.00  0.00     0.202 C 
BRANCH  75  76
ATOM     76  C   UNL     1       3.078  -0.455  -6.150  1.00  0.00     0.261 C 
BRANCH  76  77
ATOM     77  O   UNL     1       3.606  -1.794  -6.129  1.00  0.00    -0.460 OA
BRANCH  77  78
ATOM     78  C   UNL     1       4.816  -2.018  -6.692  1.00  0.00     0.341 C 
ATOM     79  O   UNL     1       5.527  -1.207  -7.258  1.00  0.00    -0.246 OA
BRANCH  78  80
ATOM     80  C   UNL     1       5.267  -3.360  -6.257  1.00  0.00     0.101 A 
ATOM     81  C   UNL     1       6.446  -3.444  -5.503  1.00  0.00     0.022 A 
ATOM     82  C   UNL     1       4.485  -4.501  -6.428  1.00  0.00     0.132 A 
ATOM     83  C   UNL     1       6.813  -4.652  -4.893  1.00  0.00     0.027 A 
ATOM     84  C   UNL     1       4.873  -5.713  -5.849  1.00  0.00     0.073 A 
ATOM     85  C   UNL     1       6.047  -5.809  -5.082  1.00  0.00     0.042 A 
BRANCH  82  86
ATOM     86  O   UNL     1       3.337  -4.449  -7.166  1.00  0.00    -0.507 OA
ATOM     87  H   UNL     1       3.068  -3.642  -7.559  1.00  0.00     0.293 HD
ENDBRANCH  82  86
BRANCH  85  88
ATOM     88  N   UNL     1       6.356  -7.046  -4.483  1.00  0.00    -0.349 N 
ATOM     89  H   UNL     1       5.795  -7.809  -4.751  1.00  0.00     0.167 HD
BRANCH  88  90
ATOM     90  C   UNL     1       7.354  -7.319  -3.562  1.00  0.00     0.137 A 
ATOM     91  C   UNL     1       7.278  -7.192  -2.224  1.00  0.00     0.377 A 
ATOM     92  C   UNL     1       8.626  -7.869  -4.083  1.00  0.00     0.048 A 
ATOM     93  C   UNL     1       8.303  -7.566  -1.254  1.00  0.00     0.417 A 
ATOM     94  C   UNL     1       9.660  -8.165  -3.192  1.00  0.00     0.141 A 
ATOM     95  C   UNL     1       8.868  -8.083  -5.448  1.00  0.00     0.014 A 
ATOM     96  O   UNL     1       8.143  -7.544  -0.040  1.00  0.00    -0.238 OA
ATOM     97  O   UNL     1       9.505  -7.996  -1.803  1.00  0.00    -0.418 OA
ATOM     98  C   UNL     1      10.896  -8.653  -3.617  1.00  0.00     0.048 A 
ATOM     99  C   UNL     1      10.101  -8.578  -5.889  1.00  0.00     0.001 A 
ATOM    100  C   UNL     1      11.115  -8.860  -4.975  1.00  0.00     0.004 A 
BRANCH  91 101
ATOM    101  N   UNL     1       6.042  -6.740  -1.666  1.00  0.00     0.073 N 
ATOM    102  O   UNL     1       5.086  -7.530  -1.694  1.00  0.00    -0.258 OA
ATOM    103  O   UNL     1       6.021  -5.593  -1.200  1.00  0.00    -0.258 OA
ENDBRANCH  91 101
ENDBRANCH  88  90
ENDBRANCH  85  88
ENDBRANCH  78  80
ENDBRANCH  77  78
ENDBRANCH  76  77
ENDBRANCH  75  76
ENDBRANCH  74  75
ENDBRANCH  73  74
ENDBRANCH  72  73
ENDBRANCH   1  72
TORSDOF 27
