REMARK SMILES CC(=O)c1cc(C(=O)N(CC(=O)OCCOCCOCCOCCOC(=O)c2ccc(-c3c4nc(c(-c5ccc(S(=O)(=O)[O-])cc5)c5ccc([nH]5)c(-c5ccc(S(=O)(=O)[O-])cc5)c5nc(c(-c6ccc(S(=O)(=O)[O-])cc6)c6ccc3[nH]6)C=C5)C=C4)cc2)C(C)(C)C)n(C)c1
REMARK SMILES IDX 18 1 17 2 16 3 15 4 14 5 13 6 11 7 12 8 10 9 9 10 7 11 8 12
REMARK SMILES IDX 6 13 4 14 5 15 94 16 92 17 93 18 2 19 1 20 3 21 88 22 89 23
REMARK SMILES IDX 90 24 91 25 19 26 20 27 21 28 22 29 23 30 24 31 25 32 26 33
REMARK SMILES IDX 27 34 28 35 29 36 87 37 30 38 86 39 31 40 32 41 33 42 80 43
REMARK SMILES IDX 34 44 85 45 79 46 81 47 35 48 84 49 78 50 77 51 36 53 66 54
REMARK SMILES IDX 47 55 65 56 48 57 51 58 64 59 82 60 49 61 50 62 63 64 83 65
REMARK SMILES IDX 52 66 37 67 38 68 46 69 39 70 45 71 40 72 41 73 42 74 43 75
REMARK SMILES IDX 44 76 67 77 68 78 76 79 69 80 75 81 70 82 71 83 72 84 73 85
REMARK SMILES IDX 74 86 53 87 54 88 62 89 55 90 61 91 56 92 57 93 58 94 59 95
REMARK SMILES IDX 60 96
REMARK H PARENT 81 52 51 63
REMARK Flexibility Score: inf
ROOT
ATOM      1  C   UNL     1       2.635  -0.607  -9.611  1.00  0.00     0.188 C 
ENDROOT
BRANCH   1   2
ATOM      2  C   UNL     1       1.667  -1.416 -10.496  1.00  0.00     0.188 C 
BRANCH   2   3
ATOM      3  O   UNL     1       0.372  -0.923 -10.827  1.00  0.00    -0.376 OA
BRANCH   3   4
ATOM      4  C   UNL     1      -0.136   0.233 -10.181  1.00  0.00     0.202 C 
BRANCH   4   5
ATOM      5  C   UNL     1      -0.487   0.102  -8.687  1.00  0.00     0.261 C 
BRANCH   5   6
ATOM      6  O   UNL     1       0.518  -0.491  -7.829  1.00  0.00    -0.462 OA
BRANCH   6   7
ATOM      7  C   UNL     1       0.446  -1.837  -7.686  1.00  0.00     0.325 C 
ATOM      8  O   UNL     1      -0.463  -2.526  -8.150  1.00  0.00    -0.250 OA
BRANCH   7   9
ATOM      9  C   UNL     1       1.469  -2.480  -6.713  1.00  0.00     0.243 C 
BRANCH   9  10
ATOM     10  N   UNL     1       2.795  -2.327  -6.061  1.00  0.00    -0.321 N 
BRANCH  10  11
ATOM     11  C   UNL     1       2.909  -2.000  -4.684  1.00  0.00     0.271 C 
ATOM     12  O   UNL     1       4.013  -1.662  -4.248  1.00  0.00    -0.267 OA
BRANCH  11  13
ATOM     13  C   UNL     1       1.789  -2.028  -3.722  1.00  0.00     0.107 A 
ATOM     14  C   UNL     1       0.696  -1.488  -1.758  1.00  0.00     0.036 A 
ATOM     15  C   UNL     1       1.864  -1.298  -2.530  1.00  0.00     0.045 A 
ATOM     16  C   UNL     1      -0.101  -2.321  -2.507  1.00  0.00     0.097 A 
ATOM     17  N   UNL     1       0.597  -2.739  -3.617  1.00  0.00    -0.346 N 
ATOM     18  C   UNL     1       0.059  -3.821  -4.420  1.00  0.00     0.150 C 
BRANCH  14  19
ATOM     19  C   UNL     1       0.347  -0.964  -0.442  1.00  0.00     0.161 C 
ATOM     20  C   UNL     1       1.148   0.193   0.096  1.00  0.00     0.093 C 
ATOM     21  O   UNL     1      -0.577  -1.449   0.212  1.00  0.00    -0.294 OA
ENDBRANCH  14  19
ENDBRANCH  11  13
ENDBRANCH  10  11
BRANCH  10  22
ATOM     22  C   UNL     1       4.095  -2.573  -6.826  1.00  0.00     0.036 C 
ATOM     23  C   UNL     1       4.838  -1.238  -7.075  1.00  0.00     0.034 C 
ATOM     24  C   UNL     1       5.097  -3.499  -6.062  1.00  0.00     0.034 C 
ATOM     25  C   UNL     1       3.883  -3.347  -8.148  1.00  0.00     0.034 C 
ENDBRANCH  10  22
ENDBRANCH   9  10
ENDBRANCH   7   9
ENDBRANCH   6   7
ENDBRANCH   5   6
ENDBRANCH   4   5
ENDBRANCH   3   4
ENDBRANCH   2   3
ENDBRANCH   1   2
BRANCH   1  26
ATOM     26  O   UNL     1       2.430   0.786  -9.652  1.00  0.00    -0.377 OA
BRANCH  26  27
ATOM     27  C   UNL     1       3.412   1.524 -10.345  1.00  0.00     0.188 C 
BRANCH  27  28
ATOM     28  C   UNL     1       3.720   1.019 -11.764  1.00  0.00     0.188 C 
BRANCH  28  29
ATOM     29  O   UNL     1       4.095  -0.354 -11.785  1.00  0.00    -0.376 OA
BRANCH  29  30
ATOM     30  C   UNL     1       5.455  -0.722 -11.902  1.00  0.00     0.202 C 
BRANCH  30  31
ATOM     31  C   UNL     1       6.471  -0.353 -10.806  1.00  0.00     0.261 C 
BRANCH  31  32
ATOM     32  O   UNL     1       6.351   0.932 -10.190  1.00  0.00    -0.460 OA
BRANCH  32  33
ATOM     33  C   UNL     1       6.727   2.002 -10.923  1.00  0.00     0.338 C 
ATOM     34  O   UNL     1       7.156   1.981 -12.066  1.00  0.00    -0.246 OA
BRANCH  33  35
ATOM     35  C   UNL     1       6.324   3.226 -10.194  1.00  0.00     0.060 A 
ATOM     36  C   UNL     1       5.395   4.082 -10.799  1.00  0.00     0.016 A 
ATOM     37  C   UNL     1       6.826   3.518  -8.922  1.00  0.00     0.016 A 
ATOM     38  C   UNL     1       4.979   5.241 -10.148  1.00  0.00     0.010 A 
ATOM     39  C   UNL     1       6.444   4.707  -8.289  1.00  0.00     0.010 A 
ATOM     40  C   UNL     1       5.545   5.588  -8.916  1.00  0.00    -0.014 A 
BRANCH  40  41
ATOM     41  C   UNL     1       5.387   6.978  -8.428  1.00  0.00     0.031 A 
ATOM     42  C   UNL     1       6.442   7.978  -8.822  1.00  0.00     0.074 A 
ATOM     43  C   UNL     1       4.318   7.363  -7.710  1.00  0.00     0.049 A 
ATOM     44  N   UNL     1       6.533   9.248  -8.529  1.00  0.00    -0.248 NA
ATOM     45  C   UNL     1       7.538   7.474  -9.668  1.00  0.00     0.031 C 
ATOM     46  C   UNL     1       3.200   6.503  -7.324  1.00  0.00     0.029 A 
ATOM     47  N   UNL     1       4.000   8.588  -7.178  1.00  0.00    -0.354 N 
ATOM     48  C   UNL     1       7.696   9.693  -9.147  1.00  0.00     0.074 A 
ATOM     49  C   UNL     1       8.291   8.554  -9.810  1.00  0.00     0.031 C 
ATOM     50  C   UNL     1       2.323   7.227  -6.605  1.00  0.00     0.029 A 
ATOM     51  C   UNL     1       2.832   8.590  -6.454  1.00  0.00     0.049 A 
ATOM     52  H   UNL     1       4.556   9.391  -7.304  1.00  0.00     0.167 HD
ATOM     53  C   UNL     1       8.223  10.939  -9.164  1.00  0.00     0.031 A 
ATOM     54  C   UNL     1       2.255   9.574  -5.734  1.00  0.00     0.031 A 
ATOM     55  C   UNL     1       7.641  12.062  -8.482  1.00  0.00     0.049 A 
ATOM     56  C   UNL     1       2.909  10.933  -5.690  1.00  0.00     0.074 A 
ATOM     57  C   UNL     1       8.095  13.368  -8.435  1.00  0.00     0.029 A 
ATOM     58  N   UNL     1       6.486  12.011  -7.717  1.00  0.00    -0.354 N 
ATOM     59  N   UNL     1       3.999  11.345  -6.295  1.00  0.00    -0.248 NA
ATOM     60  C   UNL     1       2.251  11.962  -4.873  1.00  0.00     0.031 C 
ATOM     61  C   UNL     1       7.251  14.091  -7.587  1.00  0.00     0.029 A 
ATOM     62  C   UNL     1       6.228  13.254  -7.168  1.00  0.00     0.049 A 
ATOM     63  H   UNL     1       5.932  11.208  -7.583  1.00  0.00     0.167 HD
ATOM     64  C   UNL     1       4.136  12.689  -5.959  1.00  0.00     0.074 A 
ATOM     65  C   UNL     1       3.013  13.022  -5.108  1.00  0.00     0.031 C 
ATOM     66  C   UNL     1       5.101  13.570  -6.325  1.00  0.00     0.031 A 
BRANCH  53  67
ATOM     67  C   UNL     1       9.518  11.136  -9.906  1.00  0.00    -0.014 A 
ATOM     68  C   UNL     1       9.575  11.078 -11.310  1.00  0.00     0.010 A 
ATOM     69  C   UNL     1      10.693  11.415  -9.184  1.00  0.00     0.010 A 
ATOM     70  C   UNL     1      10.790  11.260 -11.976  1.00  0.00     0.020 A 
ATOM     71  C   UNL     1      11.904  11.628  -9.848  1.00  0.00     0.020 A 
ATOM     72  C   UNL     1      11.947  11.534 -11.240  1.00  0.00     0.054 A 
BRANCH  72  73
ATOM     73  S   UNL     1      13.503  11.796 -12.133  1.00  0.00     0.124 S 
ATOM     74  O   UNL     1      13.807  10.448 -12.610  1.00  0.00    -0.237 OA
ATOM     75  O   UNL     1      13.121  12.755 -13.165  1.00  0.00    -0.237 OA
ATOM     76  O   UNL     1      14.409  12.312 -11.110  1.00  0.00    -0.744 OA
ENDBRANCH  72  73
ENDBRANCH  53  67
BRANCH  54  77
ATOM     77  C   UNL     1       1.002   9.308  -4.972  1.00  0.00    -0.014 A 
ATOM     78  C   UNL     1      -0.208   9.929  -5.329  1.00  0.00     0.010 A 
ATOM     79  C   UNL     1       1.019   8.435  -3.867  1.00  0.00     0.010 A 
ATOM     80  C   UNL     1      -1.371   9.698  -4.586  1.00  0.00     0.020 A 
ATOM     81  C   UNL     1      -0.147   8.177  -3.142  1.00  0.00     0.020 A 
ATOM     82  C   UNL     1      -1.333   8.819  -3.499  1.00  0.00     0.054 A 
BRANCH  82  83
ATOM     83  S   UNL     1      -2.865   8.498  -2.581  1.00  0.00     0.124 S 
ATOM     84  O   UNL     1      -3.066   9.758  -1.874  1.00  0.00    -0.237 OA
ATOM     85  O   UNL     1      -3.817   8.212  -3.651  1.00  0.00    -0.237 OA
ATOM     86  O   UNL     1      -2.524   7.354  -1.738  1.00  0.00    -0.744 OA
ENDBRANCH  82  83
ENDBRANCH  54  77
BRANCH  66  87
ATOM     87  C   UNL     1       4.967  14.994  -5.851  1.00  0.00    -0.014 A 
ATOM     88  C   UNL     1       5.166  15.343  -4.503  1.00  0.00     0.010 A 
ATOM     89  C   UNL     1       4.703  16.010  -6.789  1.00  0.00     0.010 A 
ATOM     90  C   UNL     1       5.071  16.678  -4.098  1.00  0.00     0.020 A 
ATOM     91  C   UNL     1       4.641  17.348  -6.394  1.00  0.00     0.020 A 
ATOM     92  C   UNL     1       4.811  17.672  -5.047  1.00  0.00     0.054 A 
BRANCH  92  93
ATOM     93  S   UNL     1       4.739  19.401  -4.503  1.00  0.00     0.124 S 
ATOM     94  O   UNL     1       3.476  19.436  -3.769  1.00  0.00    -0.237 OA
ATOM     95  O   UNL     1       5.944  19.529  -3.687  1.00  0.00    -0.237 OA
ATOM     96  O   UNL     1       4.755  20.159  -5.751  1.00  0.00    -0.744 OA
ENDBRANCH  92  93
ENDBRANCH  66  87
ENDBRANCH  40  41
ENDBRANCH  33  35
ENDBRANCH  32  33
ENDBRANCH  31  32
ENDBRANCH  30  31
ENDBRANCH  29  30
ENDBRANCH  28  29
ENDBRANCH  27  28
ENDBRANCH  26  27
ENDBRANCH   1  26
TORSDOF 28
