REMARK SMILES O=C(COc1ccc(Cl)c2ccccc12)N[C@@H](Cc1c[nH]c2ccccc12)C(=O)OCCOCCOCCOCCOC(=O)c1ccc(-c2c3nc(c(-c4ccc(S(=O)(=O)[O-])cc4)c4ccc([nH]4)c(-c4ccc(S(=O)(=O)[O-])cc4)c4nc(c(-c5ccc(S(=O)(=O)[O-])cc5)c5ccc2[nH]5)C=C4)C=C3)cc1
REMARK SMILES IDX 35 1 34 2 33 3 32 4 31 5 30 6 28 7 29 8 17 9 16 10 1 11 2 12
REMARK SMILES IDX 3 14 4 15 5 16 6 17 15 18 7 19 10 20 14 21 8 22 11 23 13 24
REMARK SMILES IDX 9 25 12 26 18 27 19 28 20 29 27 30 21 31 22 32 26 33 23 35
REMARK SMILES IDX 25 36 24 37 36 38 37 39 38 40 39 41 40 42 41 43 42 44 43 45
REMARK SMILES IDX 44 46 45 47 46 48 104 49 47 50 103 51 48 52 49 53 50 54
REMARK SMILES IDX 97 55 51 56 102 57 96 58 98 59 52 60 101 61 95 62 94 63
REMARK SMILES IDX 53 65 83 66 64 67 82 68 65 69 68 70 81 71 99 72 66 73 67 74
REMARK SMILES IDX 80 76 100 77 69 78 54 79 55 80 63 81 56 82 62 83 57 84 58 85
REMARK SMILES IDX 59 86 60 87 61 88 84 89 85 90 93 91 86 92 92 93 87 94 88 95
REMARK SMILES IDX 89 96 90 97 91 98 70 99 71 100 79 101 72 102 78 103 73 104
REMARK SMILES IDX 74 105 75 106 76 107 77 108
REMARK H PARENT 16 13 21 34 98 64 68 75
REMARK Flexibility Score: inf
ROOT
ATOM      1  C   UNL     1       3.167   0.655   3.139  1.00  0.00     0.188 C 
ENDROOT
BRANCH   1   2
ATOM      2  C   UNL     1       2.011   0.311   4.094  1.00  0.00     0.188 C 
BRANCH   2   3
ATOM      3  O   UNL     1       2.259  -0.068   5.435  1.00  0.00    -0.376 OA
BRANCH   3   4
ATOM      4  C   UNL     1       3.114  -1.133   5.806  1.00  0.00     0.202 C 
BRANCH   4   5
ATOM      5  C   UNL     1       3.375  -2.354   4.915  1.00  0.00     0.261 C 
BRANCH   5   6
ATOM      6  O   UNL     1       3.289  -2.110   3.507  1.00  0.00    -0.462 OA
BRANCH   6   7
ATOM      7  C   UNL     1       2.277  -2.716   2.837  1.00  0.00     0.329 C 
ATOM      8  O   UNL     1       1.468  -3.479   3.357  1.00  0.00    -0.250 OA
BRANCH   7   9
ATOM      9  C   UNL     1       2.337  -2.486   1.309  1.00  0.00     0.196 C 
BRANCH   9  10
ATOM     10  N   UNL     1       2.804  -1.221   0.687  1.00  0.00    -0.339 N 
ATOM     11  O   UNL     1       0.729  -0.437   0.142  1.00  0.00    -0.271 OA
ATOM     12  C   UNL     1       1.952  -0.341   0.049  1.00  0.00     0.258 C 
ATOM     13  H   UNL     1       3.763  -1.000   0.731  1.00  0.00     0.164 HD
BRANCH  12  14
ATOM     14  C   UNL     1       2.614   0.727  -0.866  1.00  0.00     0.329 C 
BRANCH  14  15
ATOM     15  O   UNL     1       3.343   1.816  -0.322  1.00  0.00    -0.483 OA
BRANCH  15  16
ATOM     16  C   UNL     1       2.655   2.948   0.067  1.00  0.00     0.128 A 
ATOM     17  C   UNL     1       1.338   2.899   0.525  1.00  0.00     0.048 A 
ATOM     18  C   UNL     1       3.387   4.172   0.129  1.00  0.00     0.025 A 
ATOM     19  C   UNL     1       0.752   4.021   1.105  1.00  0.00     0.025 A 
ATOM     20  C   UNL     1       2.792   5.319   0.732  1.00  0.00     0.004 A 
ATOM     21  C   UNL     1       4.709   4.293  -0.359  1.00  0.00     0.012 A 
ATOM     22  C   UNL     1       1.470   5.210   1.224  1.00  0.00     0.049 A 
ATOM     23  C   UNL     1       3.572   6.494   0.881  1.00  0.00     0.010 A 
ATOM     24  C   UNL     1       5.446   5.474  -0.221  1.00  0.00     0.001 A 
ATOM     25  Cl  UNL     1       0.683   6.503   2.072  1.00  0.00    -0.084 Cl
ATOM     26  C   UNL     1       4.885   6.567   0.421  1.00  0.00     0.001 A 
ENDBRANCH  15  16
ENDBRANCH  14  15
ENDBRANCH  12  14
ENDBRANCH   9  10
BRANCH   9  27
ATOM     27  C   UNL     1       3.109  -3.679   0.723  1.00  0.00     0.074 C 
BRANCH  27  28
ATOM     28  C   UNL     1       4.546  -3.837   1.161  1.00  0.00    -0.020 A 
ATOM     29  C   UNL     1       5.524  -2.872   1.341  1.00  0.00     0.087 A 
ATOM     30  C   UNL     1       5.171  -5.096   1.465  1.00  0.00     0.003 A 
ATOM     31  N   UNL     1       6.689  -3.489   1.721  1.00  0.00    -0.361 N 
ATOM     32  C   UNL     1       6.504  -4.845   1.786  1.00  0.00     0.046 A 
ATOM     33  C   UNL     1       4.720  -6.432   1.486  1.00  0.00     0.010 A 
ATOM     34  H   UNL     1       7.535  -3.025   1.918  1.00  0.00     0.166 HD
ATOM     35  C   UNL     1       7.415  -5.857   2.107  1.00  0.00     0.026 A 
ATOM     36  C   UNL     1       5.616  -7.458   1.809  1.00  0.00     0.001 A 
ATOM     37  C   UNL     1       6.945  -7.171   2.109  1.00  0.00     0.002 A 
ENDBRANCH  27  28
ENDBRANCH   9  27
ENDBRANCH   7   9
ENDBRANCH   6   7
ENDBRANCH   5   6
ENDBRANCH   4   5
ENDBRANCH   3   4
ENDBRANCH   2   3
ENDBRANCH   1   2
BRANCH   1  38
ATOM     38  O   UNL     1       4.020   1.713   3.501  1.00  0.00    -0.377 OA
BRANCH  38  39
ATOM     39  C   UNL     1       4.953   1.392   4.513  1.00  0.00     0.188 C 
BRANCH  39  40
ATOM     40  C   UNL     1       4.745   2.222   5.785  1.00  0.00     0.188 C 
BRANCH  40  41
ATOM     41  O   UNL     1       3.538   2.943   5.976  1.00  0.00    -0.376 OA
BRANCH  41  42
ATOM     42  C   UNL     1       3.002   3.757   4.941  1.00  0.00     0.202 C 
BRANCH  42  43
ATOM     43  C   UNL     1       3.862   4.479   3.890  1.00  0.00     0.261 C 
BRANCH  43  44
ATOM     44  O   UNL     1       5.234   4.112   3.829  1.00  0.00    -0.460 OA
BRANCH  44  45
ATOM     45  C   UNL     1       6.147   5.062   4.049  1.00  0.00     0.338 C 
ATOM     46  O   UNL     1       5.979   6.248   4.300  1.00  0.00    -0.246 OA
BRANCH  45  47
ATOM     47  C   UNL     1       7.434   4.365   4.057  1.00  0.00     0.060 A 
ATOM     48  C   UNL     1       7.941   3.945   5.290  1.00  0.00     0.016 A 
ATOM     49  C   UNL     1       8.115   4.107   2.864  1.00  0.00     0.016 A 
ATOM     50  C   UNL     1       9.167   3.301   5.342  1.00  0.00     0.010 A 
ATOM     51  C   UNL     1       9.363   3.487   2.919  1.00  0.00     0.010 A 
ATOM     52  C   UNL     1       9.906   3.126   4.164  1.00  0.00    -0.014 A 
BRANCH  52  53
ATOM     53  C   UNL     1      11.343   2.818   4.302  1.00  0.00     0.031 A 
ATOM     54  C   UNL     1      12.294   3.980   4.378  1.00  0.00     0.074 A 
ATOM     55  C   UNL     1      11.763   1.554   4.471  1.00  0.00     0.049 A 
ATOM     56  N   UNL     1      13.584   3.982   4.576  1.00  0.00    -0.248 NA
ATOM     57  C   UNL     1      11.705   5.324   4.225  1.00  0.00     0.031 C 
ATOM     58  C   UNL     1      10.900   0.372   4.491  1.00  0.00     0.029 A 
ATOM     59  N   UNL     1      13.021   1.058   4.684  1.00  0.00    -0.354 N 
ATOM     60  C   UNL     1      13.958   5.322   4.580  1.00  0.00     0.074 A 
ATOM     61  C   UNL     1      12.770   6.103   4.331  1.00  0.00     0.031 C 
ATOM     62  C   UNL     1      11.659  -0.716   4.710  1.00  0.00     0.029 A 
ATOM     63  C   UNL     1      13.058  -0.309   4.818  1.00  0.00     0.049 A 
ATOM     64  H   UNL     1      13.823   1.626   4.735  1.00  0.00     0.167 HD
ATOM     65  C   UNL     1      15.186   5.851   4.782  1.00  0.00     0.031 A 
ATOM     66  C   UNL     1      14.110  -1.131   4.999  1.00  0.00     0.031 A 
ATOM     67  C   UNL     1      16.363   5.055   4.998  1.00  0.00     0.049 A 
ATOM     68  C   UNL     1      15.483  -0.524   5.124  1.00  0.00     0.074 A 
ATOM     69  C   UNL     1      17.666   5.474   5.182  1.00  0.00     0.029 A 
ATOM     70  N   UNL     1      16.372   3.668   5.050  1.00  0.00    -0.354 N 
ATOM     71  N   UNL     1      15.826   0.743   5.116  1.00  0.00    -0.248 NA
ATOM     72  C   UNL     1      16.607  -1.454   5.292  1.00  0.00     0.031 C 
ATOM     73  C   UNL     1      18.473   4.337   5.291  1.00  0.00     0.029 A 
ATOM     74  C   UNL     1      17.663   3.212   5.240  1.00  0.00     0.049 A 
ATOM     75  H   UNL     1      15.577   3.094   4.965  1.00  0.00     0.167 HD
ATOM     76  C   UNL     1      17.204   0.765   5.300  1.00  0.00     0.074 A 
ATOM     77  C   UNL     1      17.626  -0.616   5.432  1.00  0.00     0.031 C 
ATOM     78  C   UNL     1      18.047   1.827   5.359  1.00  0.00     0.031 A 
BRANCH  65  79
ATOM     79  C   UNL     1      15.313   7.351   4.728  1.00  0.00    -0.014 A 
ATOM     80  C   UNL     1      14.783   8.167   5.744  1.00  0.00     0.010 A 
ATOM     81  C   UNL     1      15.979   7.953   3.646  1.00  0.00     0.010 A 
ATOM     82  C   UNL     1      14.886   9.559   5.660  1.00  0.00     0.020 A 
ATOM     83  C   UNL     1      16.109   9.343   3.572  1.00  0.00     0.020 A 
ATOM     84  C   UNL     1      15.548  10.138   4.573  1.00  0.00     0.054 A 
BRANCH  84  85
ATOM     85  S   UNL     1      15.688  11.945   4.500  1.00  0.00     0.124 S 
ATOM     86  O   UNL     1      14.316  12.342   4.190  1.00  0.00    -0.237 OA
ATOM     87  O   UNL     1      16.151  12.284   5.843  1.00  0.00    -0.237 OA
ATOM     88  O   UNL     1      16.658  12.175   3.432  1.00  0.00    -0.744 OA
ENDBRANCH  84  85
ENDBRANCH  65  79
BRANCH  66  89
ATOM     89  C   UNL     1      13.903  -2.604   5.051  1.00  0.00    -0.014 A 
ATOM     90  C   UNL     1      14.100  -3.325   6.241  1.00  0.00     0.010 A 
ATOM     91  C   UNL     1      13.482  -3.294   3.898  1.00  0.00     0.010 A 
ATOM     92  C   UNL     1      13.885  -4.708   6.276  1.00  0.00     0.020 A 
ATOM     93  C   UNL     1      13.241  -4.670   3.935  1.00  0.00     0.020 A 
ATOM     94  C   UNL     1      13.451  -5.370   5.124  1.00  0.00     0.054 A 
BRANCH  94  95
ATOM     95  S   UNL     1      13.106  -7.150   5.207  1.00  0.00     0.124 S 
ATOM     96  O   UNL     1      14.449  -7.717   5.262  1.00  0.00    -0.237 OA
ATOM     97  O   UNL     1      12.319  -7.260   6.432  1.00  0.00    -0.237 OA
ATOM     98  O   UNL     1      12.364  -7.409   3.975  1.00  0.00    -0.744 OA
ENDBRANCH  94  95
ENDBRANCH  66  89
BRANCH  78  99
ATOM     99  C   UNL     1      19.503   1.536   5.602  1.00  0.00    -0.014 A 
ATOM    100  C   UNL     1      20.310   0.974   4.598  1.00  0.00     0.010 A 
ATOM    101  C   UNL     1      20.081   1.892   6.834  1.00  0.00     0.010 A 
ATOM    102  C   UNL     1      21.667   0.743   4.835  1.00  0.00     0.020 A 
ATOM    103  C   UNL     1      21.443   1.690   7.064  1.00  0.00     0.020 A 
ATOM    104  C   UNL     1      22.224   1.102   6.067  1.00  0.00     0.054 A 
BRANCH 104 105
ATOM    105  S   UNL     1      23.997   0.830   6.333  1.00  0.00     0.124 S 
ATOM    106  O   UNL     1      24.059  -0.620   6.493  1.00  0.00    -0.237 OA
ATOM    107  O   UNL     1      24.589   1.353   5.104  1.00  0.00    -0.237 OA
ATOM    108  O   UNL     1      24.289   1.604   7.537  1.00  0.00    -0.744 OA
ENDBRANCH 104 105
ENDBRANCH  78  99
ENDBRANCH  52  53
ENDBRANCH  45  47
ENDBRANCH  44  45
ENDBRANCH  43  44
ENDBRANCH  42  43
ENDBRANCH  41  42
ENDBRANCH  40  41
ENDBRANCH  39  40
ENDBRANCH  38  39
ENDBRANCH   1  38
TORSDOF 29
