REMARK SMILES CC1=C(C)C[C@@H](C(=O)OCCOCCOCCOCCOC(=O)c2ccc(-c3c4nc(c(-c5ccc(S(=O)(=O)[O-])cc5)c5ccc([nH]5)c(-c5ccc(S(=O)(=O)[O-])cc5)c5nc(c(-c6ccc(S(=O)(=O)[O-])cc6)c6ccc3[nH]6)C=C5)C=C4)cc2)[C@@H](C(=O)N2CCN(c3cccc(C(F)(F)F)c3)CC2)C1
REMARK SMILES IDX 15 1 14 2 13 3 12 4 11 5 10 6 9 7 7 8 8 9 6 10 1 11 2 12
REMARK SMILES IDX 3 13 103 14 4 15 5 16 84 17 85 18 86 19 87 20 88 21 102 22
REMARK SMILES IDX 89 23 101 24 90 25 91 26 92 27 100 28 93 29 95 30 94 31
REMARK SMILES IDX 96 32 97 33 98 34 99 35 16 36 17 37 18 38 19 39 20 40 21 41
REMARK SMILES IDX 22 42 23 43 24 44 25 45 83 46 26 47 82 48 27 49 28 50 29 51
REMARK SMILES IDX 76 52 30 53 81 54 75 55 77 56 31 57 80 58 74 59 73 60 32 62
REMARK SMILES IDX 62 63 43 64 61 65 44 66 47 67 60 68 78 69 45 70 46 71 59 73
REMARK SMILES IDX 79 74 48 75 33 76 34 77 42 78 35 79 41 80 36 81 37 82 38 83
REMARK SMILES IDX 39 84 40 85 63 86 64 87 72 88 65 89 71 90 66 91 67 92 68 93
REMARK SMILES IDX 69 94 70 95 49 96 50 97 58 98 51 99 57 100 52 101 53 102
REMARK SMILES IDX 54 103 55 104 56 105
REMARK H PARENT 77 61 47 72
REMARK Flexibility Score: inf
ROOT
ATOM      1  O   UNL     1      -2.351  -4.677   3.221  1.00  0.00    -0.377 OA
ENDROOT
BRANCH   1   2
ATOM      2  C   UNL     1      -2.690  -5.993   2.830  1.00  0.00     0.188 C 
BRANCH   2   3
ATOM      3  C   UNL     1      -1.497  -6.923   2.609  1.00  0.00     0.188 C 
BRANCH   3   4
ATOM      4  O   UNL     1      -0.698  -7.266   3.731  1.00  0.00    -0.376 OA
BRANCH   4   5
ATOM      5  C   UNL     1      -0.118  -6.221   4.503  1.00  0.00     0.202 C 
BRANCH   5   6
ATOM      6  C   UNL     1       0.830  -5.212   3.829  1.00  0.00     0.261 C 
BRANCH   6   7
ATOM      7  O   UNL     1       0.254  -4.403   2.773  1.00  0.00    -0.463 OA
BRANCH   7   8
ATOM      8  C   UNL     1       0.668  -4.710   1.532  1.00  0.00     0.310 C 
ATOM      9  O   UNL     1       1.428  -5.658   1.308  1.00  0.00    -0.252 OA
BRANCH   8  10
ATOM     10  C   UNL     1       0.088  -3.939   0.346  1.00  0.00     0.116 C 
ATOM     11  C   UNL     1       1.240   0.262  -0.100  1.00  0.00     0.039 C 
ATOM     12  C   UNL     1       0.920  -1.196  -0.274  1.00  0.00    -0.074 C 
ATOM     13  C   UNL     1       1.811  -2.199  -0.379  1.00  0.00    -0.073 C 
ATOM     14  C   UNL     1      -0.551  -1.516  -0.390  1.00  0.00     0.045 C 
ATOM     15  C   UNL     1       3.308  -2.066  -0.381  1.00  0.00     0.039 C 
ATOM     16  C   UNL     1       1.293  -3.600  -0.569  1.00  0.00     0.046 C 
ATOM     17  C   UNL     1      -1.004  -2.834   0.304  1.00  0.00     0.097 C 
BRANCH  17  18
ATOM     18  C   UNL     1      -1.770  -2.350   1.539  1.00  0.00     0.227 C 
ATOM     19  O   UNL     1      -1.159  -1.968   2.539  1.00  0.00    -0.275 OA
ATOM     20  N   UNL     1      -3.146  -2.060   1.360  1.00  0.00    -0.339 N 
ATOM     21  C   UNL     1      -3.772  -1.204   2.375  1.00  0.00     0.141 C 
ATOM     22  C   UNL     1      -4.095  -2.890   0.585  1.00  0.00     0.141 C 
ATOM     23  C   UNL     1      -5.015  -0.450   1.883  1.00  0.00     0.138 C 
ATOM     24  C   UNL     1      -5.444  -2.216   0.205  1.00  0.00     0.138 C 
ATOM     25  N   UNL     1      -5.978  -1.393   1.294  1.00  0.00    -0.368 N 
BRANCH  25  26
ATOM     26  C   UNL     1      -7.335  -1.197   1.494  1.00  0.00     0.037 A 
ATOM     27  C   UNL     1      -7.887   0.082   1.650  1.00  0.00     0.026 A 
ATOM     28  C   UNL     1      -8.191  -2.285   1.717  1.00  0.00     0.039 A 
ATOM     29  C   UNL     1      -9.197   0.273   2.102  1.00  0.00     0.003 A 
ATOM     30  C   UNL     1      -9.470  -2.116   2.292  1.00  0.00     0.058 A 
ATOM     31  C   UNL     1      -9.975  -0.822   2.457  1.00  0.00     0.013 A 
BRANCH  30  32
ATOM     32  C   UNL     1     -10.242  -3.296   2.831  1.00  0.00     0.416 C 
ATOM     33  F   UNL     1     -10.707  -3.084   4.095  1.00  0.00    -0.166 F 
ATOM     34  F   UNL     1     -11.333  -3.605   2.079  1.00  0.00    -0.166 F 
ATOM     35  F   UNL     1      -9.500  -4.438   2.903  1.00  0.00    -0.166 F 
ENDBRANCH  30  32
ENDBRANCH  25  26
ENDBRANCH  17  18
ENDBRANCH   8  10
ENDBRANCH   7   8
ENDBRANCH   6   7
ENDBRANCH   5   6
ENDBRANCH   4   5
ENDBRANCH   3   4
ENDBRANCH   2   3
ENDBRANCH   1   2
BRANCH   1  36
ATOM     36  C   UNL     1      -2.713  -4.164   4.505  1.00  0.00     0.188 C 
BRANCH  36  37
ATOM     37  C   UNL     1      -3.638  -4.982   5.412  1.00  0.00     0.188 C 
BRANCH  37  38
ATOM     38  O   UNL     1      -4.858  -5.475   4.852  1.00  0.00    -0.376 OA
BRANCH  38  39
ATOM     39  C   UNL     1      -5.519  -4.678   3.876  1.00  0.00     0.202 C 
BRANCH  39  40
ATOM     40  C   UNL     1      -6.505  -3.692   4.468  1.00  0.00     0.261 C 
BRANCH  40  41
ATOM     41  O   UNL     1      -5.808  -2.579   5.026  1.00  0.00    -0.460 OA
BRANCH  41  42
ATOM     42  C   UNL     1      -5.801  -2.570   6.368  1.00  0.00     0.338 C 
ATOM     43  O   UNL     1      -6.393  -3.336   7.121  1.00  0.00    -0.246 OA
BRANCH  42  44
ATOM     44  C   UNL     1      -4.821  -1.593   6.844  1.00  0.00     0.060 A 
ATOM     45  C   UNL     1      -4.038  -1.995   7.928  1.00  0.00     0.016 A 
ATOM     46  C   UNL     1      -4.749  -0.291   6.335  1.00  0.00     0.016 A 
ATOM     47  C   UNL     1      -3.285  -1.057   8.604  1.00  0.00     0.010 A 
ATOM     48  C   UNL     1      -3.980   0.654   7.014  1.00  0.00     0.010 A 
ATOM     49  C   UNL     1      -3.328   0.284   8.202  1.00  0.00    -0.014 A 
BRANCH  49  50
ATOM     50  C   UNL     1      -2.943   1.284   9.219  1.00  0.00     0.031 A 
ATOM     51  C   UNL     1      -4.040   1.925  10.030  1.00  0.00     0.074 A 
ATOM     52  C   UNL     1      -1.650   1.451   9.538  1.00  0.00     0.049 A 
ATOM     53  N   UNL     1      -3.950   2.689  11.087  1.00  0.00    -0.248 NA
ATOM     54  C   UNL     1      -5.426   1.659   9.603  1.00  0.00     0.031 C 
ATOM     55  C   UNL     1      -0.523   0.809   8.859  1.00  0.00     0.029 A 
ATOM     56  N   UNL     1      -1.073   2.175  10.546  1.00  0.00    -0.354 N 
ATOM     57  C   UNL     1      -5.259   2.992  11.445  1.00  0.00     0.074 A 
ATOM     58  C   UNL     1      -6.126   2.370  10.473  1.00  0.00     0.031 C 
ATOM     59  C   UNL     1       0.613   1.149   9.490  1.00  0.00     0.029 A 
ATOM     60  C   UNL     1       0.294   2.051  10.594  1.00  0.00     0.049 A 
ATOM     61  H   UNL     1      -1.587   2.731  11.175  1.00  0.00     0.167 HD
ATOM     62  C   UNL     1      -5.702   3.713  12.502  1.00  0.00     0.031 A 
ATOM     63  C   UNL     1       1.183   2.606  11.438  1.00  0.00     0.031 A 
ATOM     64  C   UNL     1      -4.826   4.330  13.461  1.00  0.00     0.049 A 
ATOM     65  C   UNL     1       0.669   3.463  12.564  1.00  0.00     0.074 A 
ATOM     66  C   UNL     1      -5.158   5.092  14.566  1.00  0.00     0.029 A 
ATOM     67  N   UNL     1      -3.441   4.253  13.426  1.00  0.00    -0.354 N 
ATOM     68  N   UNL     1      -0.572   3.745  12.890  1.00  0.00    -0.248 NA
ATOM     69  C   UNL     1       1.676   4.062  13.447  1.00  0.00     0.031 C 
ATOM     70  C   UNL     1      -3.971   5.531  15.161  1.00  0.00     0.029 A 
ATOM     71  C   UNL     1      -2.901   4.979  14.473  1.00  0.00     0.049 A 
ATOM     72  H   UNL     1      -2.920   3.756  12.755  1.00  0.00     0.167 HD
ATOM     73  C   UNL     1      -0.495   4.533  14.033  1.00  0.00     0.074 A 
ATOM     74  C   UNL     1       0.914   4.659  14.353  1.00  0.00     0.031 C 
ATOM     75  C   UNL     1      -1.493   5.101  14.757  1.00  0.00     0.031 A 
BRANCH  62  76
ATOM     76  C   UNL     1      -7.189   3.912  12.638  1.00  0.00    -0.014 A 
ATOM     77  C   UNL     1      -8.050   2.850  12.975  1.00  0.00     0.010 A 
ATOM     78  C   UNL     1      -7.734   5.194  12.440  1.00  0.00     0.010 A 
ATOM     79  C   UNL     1      -9.430   3.060  13.074  1.00  0.00     0.020 A 
ATOM     80  C   UNL     1      -9.108   5.414  12.568  1.00  0.00     0.020 A 
ATOM     81  C   UNL     1      -9.950   4.342  12.870  1.00  0.00     0.054 A 
BRANCH  81  82
ATOM     82  S   UNL     1     -11.739   4.593  13.029  1.00  0.00     0.124 S 
ATOM     83  O   UNL     1     -12.247   3.912  11.841  1.00  0.00    -0.237 OA
ATOM     84  O   UNL     1     -12.041   3.945  14.302  1.00  0.00    -0.237 OA
ATOM     85  O   UNL     1     -11.888   6.046  13.022  1.00  0.00    -0.744 OA
ENDBRANCH  81  82
ENDBRANCH  62  76
BRANCH  63  86
ATOM     86  C   UNL     1       2.639   2.379  11.236  1.00  0.00    -0.014 A 
ATOM     87  C   UNL     1       3.402   1.656  12.169  1.00  0.00     0.010 A 
ATOM     88  C   UNL     1       3.273   2.893  10.089  1.00  0.00     0.010 A 
ATOM     89  C   UNL     1       4.774   1.471  11.970  1.00  0.00     0.020 A 
ATOM     90  C   UNL     1       4.636   2.683   9.870  1.00  0.00     0.020 A 
ATOM     91  C   UNL     1       5.382   1.984  10.819  1.00  0.00     0.054 A 
BRANCH  91  92
ATOM     92  S   UNL     1       7.154   1.697  10.561  1.00  0.00     0.124 S 
ATOM     93  O   UNL     1       7.753   2.568  11.567  1.00  0.00    -0.237 OA
ATOM     94  O   UNL     1       7.279   0.263  10.807  1.00  0.00    -0.237 OA
ATOM     95  O   UNL     1       7.368   2.105   9.174  1.00  0.00    -0.744 OA
ENDBRANCH  91  92
ENDBRANCH  63  86
BRANCH  75  96
ATOM     96  C   UNL     1      -1.090   5.880  15.982  1.00  0.00    -0.014 A 
ATOM     97  C   UNL     1      -0.395   7.098  15.882  1.00  0.00     0.010 A 
ATOM     98  C   UNL     1      -1.426   5.386  17.256  1.00  0.00     0.010 A 
ATOM     99  C   UNL     1       0.015   7.773  17.034  1.00  0.00     0.020 A 
ATOM    100  C   UNL     1      -1.053   6.078  18.410  1.00  0.00     0.020 A 
ATOM    101  C   UNL     1      -0.311   7.254  18.291  1.00  0.00     0.054 A 
BRANCH 101 102
ATOM    102  S   UNL     1       0.237   8.145  19.771  1.00  0.00     0.124 S 
ATOM    103  O   UNL     1       1.669   7.860  19.782  1.00  0.00    -0.237 OA
ATOM    104  O   UNL     1      -0.127   9.527  19.467  1.00  0.00    -0.237 OA
ATOM    105  O   UNL     1      -0.530   7.528  20.851  1.00  0.00    -0.744 OA
ENDBRANCH 101 102
ENDBRANCH  75  96
ENDBRANCH  49  50
ENDBRANCH  42  44
ENDBRANCH  41  42
ENDBRANCH  40  41
ENDBRANCH  39  40
ENDBRANCH  38  39
ENDBRANCH  37  38
ENDBRANCH  36  37
ENDBRANCH   1  36
TORSDOF 26
