REMARK SMILES CCCOc1ccc(NC(=O)CCC(=O)OCCOCCOCCOCCOC(=O)c2ccc(-c3c4nc(c(-c5ccc(S(=O)(=O)[O-])cc5)c5ccc([nH]5)c(-c5ccc(S(=O)(=O)[O-])cc5)c5nc(c(-c6ccc(S(=O)(=O)[O-])cc6)c6ccc3[nH]6)C=C5)C=C4)cc2)cc1
REMARK SMILES IDX 20 1 19 2 18 3 17 4 16 5 14 6 15 7 13 8 12 9 10 10 9 11
REMARK SMILES IDX 11 13 8 14 5 15 6 16 92 17 7 18 91 19 4 20 3 21 2 22 1 23
REMARK SMILES IDX 21 24 22 25 23 26 24 27 25 28 26 29 27 30 28 31 29 32 30 33
REMARK SMILES IDX 31 34 32 35 90 36 33 37 89 38 34 39 35 40 36 41 83 42 37 43
REMARK SMILES IDX 88 44 82 45 84 46 38 47 87 48 81 49 80 50 39 52 69 53 50 54
REMARK SMILES IDX 68 55 51 56 54 57 67 58 85 59 52 60 53 61 66 63 86 64 55 65
REMARK SMILES IDX 40 66 41 67 49 68 42 69 48 70 43 71 44 72 45 73 46 74 47 75
REMARK SMILES IDX 70 76 71 77 79 78 72 79 78 80 73 81 74 82 75 83 76 84 77 85
REMARK SMILES IDX 56 86 57 87 65 88 58 89 64 90 59 91 60 92 61 93 62 94 63 95
REMARK H PARENT 9 12 84 51 54 62
REMARK Flexibility Score: inf
ROOT
ATOM      1  C   UNL     1       1.171   5.714   1.180  1.00  0.00     0.188 C 
ENDROOT
BRANCH   1   2
ATOM      2  O   UNL     1       0.083   4.777   1.129  1.00  0.00    -0.376 OA
BRANCH   2   3
ATOM      3  C   UNL     1      -1.198   5.363   0.867  1.00  0.00     0.202 C 
BRANCH   3   4
ATOM      4  C   UNL     1      -1.746   5.033  -0.533  1.00  0.00     0.261 C 
BRANCH   4   5
ATOM      5  O   UNL     1      -0.841   5.347  -1.604  1.00  0.00    -0.463 OA
BRANCH   5   6
ATOM      6  C   UNL     1      -0.538   6.641  -1.821  1.00  0.00     0.306 C 
ATOM      7  O   UNL     1      -1.056   7.585  -1.238  1.00  0.00    -0.252 OA
BRANCH   6   8
ATOM      8  C   UNL     1       0.515   6.790  -2.893  1.00  0.00     0.132 C 
BRANCH   8   9
ATOM      9  C   UNL     1       1.548   5.660  -2.934  1.00  0.00     0.112 C 
BRANCH   9  10
ATOM     10  C   UNL     1       1.216   4.607  -3.967  1.00  0.00     0.224 C 
ATOM     11  N   UNL     1       0.785   3.338  -3.732  1.00  0.00    -0.326 N 
ATOM     12  H   UNL     1       0.646   2.847  -4.574  1.00  0.00     0.169 HD
ATOM     13  O   UNL     1       1.335   4.928  -5.160  1.00  0.00    -0.275 OA
BRANCH  11  14
ATOM     14  C   UNL     1       0.484   2.532  -2.617  1.00  0.00     0.041 A 
ATOM     15  C   UNL     1      -0.290   0.831  -0.482  1.00  0.00     0.119 A 
ATOM     16  C   UNL     1       0.289   2.054  -0.229  1.00  0.00     0.048 A 
ATOM     17  C   UNL     1      -0.484   0.440  -1.800  1.00  0.00     0.048 A 
ATOM     18  C   UNL     1       0.660   2.886  -1.293  1.00  0.00     0.030 A 
ATOM     19  C   UNL     1      -0.077   1.272  -2.858  1.00  0.00     0.030 A 
BRANCH  15  20
ATOM     20  O   UNL     1      -0.782   0.039   0.509  1.00  0.00    -0.494 OA
BRANCH  20  21
ATOM     21  C   UNL     1       0.151  -0.285   1.550  1.00  0.00     0.229 C 
BRANCH  21  22
ATOM     22  C   UNL     1       0.358  -1.795   1.507  1.00  0.00     0.038 C 
ATOM     23  C   UNL     1       1.335  -2.201   0.410  1.00  0.00     0.007 C 
ENDBRANCH  21  22
ENDBRANCH  20  21
ENDBRANCH  15  20
ENDBRANCH  11  14
ENDBRANCH   9  10
ENDBRANCH   8   9
ENDBRANCH   6   8
ENDBRANCH   5   6
ENDBRANCH   4   5
ENDBRANCH   3   4
ENDBRANCH   2   3
ENDBRANCH   1   2
BRANCH   1  24
ATOM     24  C   UNL     1       2.512   4.956   1.312  1.00  0.00     0.188 C 
BRANCH  24  25
ATOM     25  O   UNL     1       2.941   4.584   0.005  1.00  0.00    -0.377 OA
BRANCH  25  26
ATOM     26  C   UNL     1       3.709   3.402  -0.214  1.00  0.00     0.188 C 
BRANCH  26  27
ATOM     27  C   UNL     1       3.737   2.310   0.863  1.00  0.00     0.188 C 
BRANCH  27  28
ATOM     28  O   UNL     1       4.636   2.534   1.950  1.00  0.00    -0.376 OA
BRANCH  28  29
ATOM     29  C   UNL     1       5.915   3.073   1.628  1.00  0.00     0.202 C 
BRANCH  29  30
ATOM     30  C   UNL     1       6.883   2.190   0.820  1.00  0.00     0.261 C 
BRANCH  30  31
ATOM     31  O   UNL     1       6.367   1.695  -0.432  1.00  0.00    -0.460 OA
BRANCH  31  32
ATOM     32  C   UNL     1       6.112   0.358  -0.448  1.00  0.00     0.338 C 
ATOM     33  O   UNL     1       6.206  -0.404   0.499  1.00  0.00    -0.246 OA
BRANCH  32  34
ATOM     34  C   UNL     1       5.593  -0.093  -1.760  1.00  0.00     0.060 A 
ATOM     35  C   UNL     1       4.502  -0.973  -1.758  1.00  0.00     0.016 A 
ATOM     36  C   UNL     1       6.253   0.194  -2.957  1.00  0.00     0.016 A 
ATOM     37  C   UNL     1       4.113  -1.625  -2.933  1.00  0.00     0.010 A 
ATOM     38  C   UNL     1       5.865  -0.465  -4.134  1.00  0.00     0.010 A 
ATOM     39  C   UNL     1       4.826  -1.415  -4.120  1.00  0.00    -0.014 A 
BRANCH  39  40
ATOM     40  C   UNL     1       4.635  -2.331  -5.279  1.00  0.00     0.031 A 
ATOM     41  C   UNL     1       5.620  -3.457  -5.483  1.00  0.00     0.074 A 
ATOM     42  C   UNL     1       3.603  -2.197  -6.133  1.00  0.00     0.049 A 
ATOM     43  N   UNL     1       5.706  -4.321  -6.462  1.00  0.00    -0.248 NA
ATOM     44  C   UNL     1       6.643  -3.628  -4.438  1.00  0.00     0.031 C 
ATOM     45  C   UNL     1       2.535  -1.206  -6.027  1.00  0.00     0.029 A 
ATOM     46  N   UNL     1       3.295  -2.904  -7.272  1.00  0.00    -0.354 N 
ATOM     47  C   UNL     1       6.799  -5.127  -6.162  1.00  0.00     0.074 A 
ATOM     48  C   UNL     1       7.357  -4.634  -4.920  1.00  0.00     0.031 C 
ATOM     49  C   UNL     1       1.694  -1.360  -7.066  1.00  0.00     0.029 A 
ATOM     50  C   UNL     1       2.184  -2.433  -7.931  1.00  0.00     0.049 A 
ATOM     51  H   UNL     1       3.820  -3.675  -7.585  1.00  0.00     0.167 HD
ATOM     52  C   UNL     1       7.298  -6.182  -6.850  1.00  0.00     0.031 A 
ATOM     53  C   UNL     1       1.641  -2.804  -9.110  1.00  0.00     0.031 A 
ATOM     54  C   UNL     1       6.760  -6.674  -8.090  1.00  0.00     0.049 A 
ATOM     55  C   UNL     1       2.268  -3.919  -9.910  1.00  0.00     0.074 A 
ATOM     56  C   UNL     1       7.205  -7.735  -8.860  1.00  0.00     0.029 A 
ATOM     57  N   UNL     1       5.663  -6.137  -8.745  1.00  0.00    -0.354 N 
ATOM     58  N   UNL     1       3.307  -4.665  -9.616  1.00  0.00    -0.248 NA
ATOM     59  C   UNL     1       1.646  -4.242 -11.204  1.00  0.00     0.031 C 
ATOM     60  C   UNL     1       6.407  -7.809 -10.007  1.00  0.00     0.029 A 
ATOM     61  C   UNL     1       5.430  -6.830  -9.922  1.00  0.00     0.049 A 
ATOM     62  H   UNL     1       5.129  -5.376  -8.422  1.00  0.00     0.167 HD
ATOM     63  C   UNL     1       3.442  -5.563 -10.673  1.00  0.00     0.074 A 
ATOM     64  C   UNL     1       2.376  -5.273 -11.608  1.00  0.00     0.031 C 
ATOM     65  C   UNL     1       4.364  -6.541 -10.848  1.00  0.00     0.031 A 
BRANCH  52  66
ATOM     66  C   UNL     1       8.525  -6.852  -6.290  1.00  0.00    -0.014 A 
ATOM     67  C   UNL     1       8.456  -7.653  -5.136  1.00  0.00     0.010 A 
ATOM     68  C   UNL     1       9.761  -6.693  -6.941  1.00  0.00     0.010 A 
ATOM     69  C   UNL     1       9.611  -8.244  -4.616  1.00  0.00     0.020 A 
ATOM     70  C   UNL     1      10.914  -7.305  -6.440  1.00  0.00     0.020 A 
ATOM     71  C   UNL     1      10.834  -8.060  -5.269  1.00  0.00     0.054 A 
BRANCH  71  72
ATOM     72  S   UNL     1      12.319  -8.838  -4.575  1.00  0.00     0.124 S 
ATOM     73  O   UNL     1      12.584  -7.995  -3.412  1.00  0.00    -0.237 OA
ATOM     74  O   UNL     1      11.862 -10.193  -4.277  1.00  0.00    -0.237 OA
ATOM     75  O   UNL     1      13.299  -8.737  -5.653  1.00  0.00    -0.744 OA
ENDBRANCH  71  72
ENDBRANCH  52  66
BRANCH  53  76
ATOM     76  C   UNL     1       0.440  -2.095  -9.631  1.00  0.00    -0.014 A 
ATOM     77  C   UNL     1      -0.805  -2.745  -9.694  1.00  0.00     0.010 A 
ATOM     78  C   UNL     1       0.540  -0.766 -10.083  1.00  0.00     0.010 A 
ATOM     79  C   UNL     1      -1.924  -2.085 -10.211  1.00  0.00     0.020 A 
ATOM     80  C   UNL     1      -0.583  -0.094 -10.575  1.00  0.00     0.020 A 
ATOM     81  C   UNL     1      -1.806  -0.762 -10.645  1.00  0.00     0.054 A 
BRANCH  81  82
ATOM     82  S   UNL     1      -3.285   0.093 -11.258  1.00  0.00     0.124 S 
ATOM     83  O   UNL     1      -3.470  -0.521 -12.569  1.00  0.00    -0.237 OA
ATOM     84  O   UNL     1      -4.287  -0.250 -10.250  1.00  0.00    -0.237 OA
ATOM     85  O   UNL     1      -2.885   1.498 -11.273  1.00  0.00    -0.744 OA
ENDBRANCH  81  82
ENDBRANCH  53  76
BRANCH  65  86
ATOM     86  C   UNL     1       4.246  -7.410 -12.075  1.00  0.00    -0.014 A 
ATOM     87  C   UNL     1       4.582  -6.925 -13.351  1.00  0.00     0.010 A 
ATOM     88  C   UNL     1       3.855  -8.755 -11.936  1.00  0.00     0.010 A 
ATOM     89  C   UNL     1       4.503  -7.762 -14.469  1.00  0.00     0.020 A 
ATOM     90  C   UNL     1       3.798  -9.601 -13.046  1.00  0.00     0.020 A 
ATOM     91  C   UNL     1       4.111  -9.095 -14.310  1.00  0.00     0.054 A 
BRANCH  91  92
ATOM     92  S   UNL     1       4.061 -10.175 -15.768  1.00  0.00     0.124 S 
ATOM     93  O   UNL     1       2.854  -9.714 -16.447  1.00  0.00    -0.237 OA
ATOM     94  O   UNL     1       5.320  -9.864 -16.442  1.00  0.00    -0.237 OA
ATOM     95  O   UNL     1       3.983 -11.520 -15.201  1.00  0.00    -0.744 OA
ENDBRANCH  91  92
ENDBRANCH  65  86
ENDBRANCH  39  40
ENDBRANCH  32  34
ENDBRANCH  31  32
ENDBRANCH  30  31
ENDBRANCH  29  30
ENDBRANCH  28  29
ENDBRANCH  27  28
ENDBRANCH  26  27
ENDBRANCH  25  26
ENDBRANCH  24  25
ENDBRANCH   1  24
TORSDOF 29
