REMARK SMILES O=C(COc1ccccc1/C=C1/SC(=O)N(c2ccc(F)cc2)C1=O)OCCOCCOCCOCCOC(=O)c1ccc(-c2c3nc(c(-c4ccc(S(=O)(=O)[O-])cc4)c4ccc([nH]4)c(-c4ccc(S(=O)(=O)[O-])cc4)c4nc(c(-c5ccc(S(=O)(=O)[O-])cc5)c5ccc2[nH]5)C=C4)C=C3)cc1
REMARK SMILES IDX 31 1 30 2 29 3 28 4 27 5 26 6 2 7 1 8 3 9 4 10 5 11 6 12
REMARK SMILES IDX 10 13 7 14 9 15 8 16 11 17 12 18 13 19 24 20 14 21 16 22
REMARK SMILES IDX 25 23 15 24 17 25 18 26 23 27 19 28 22 29 20 30 21 31 32 32
REMARK SMILES IDX 33 33 34 34 35 35 36 36 37 37 38 38 39 39 40 40 41 41 42 42
REMARK SMILES IDX 100 43 43 44 99 45 44 46 45 47 46 48 93 49 47 50 98 51 92 52
REMARK SMILES IDX 94 53 48 54 97 55 91 56 90 57 49 59 79 60 60 61 78 62 61 63
REMARK SMILES IDX 64 64 77 65 95 66 62 67 63 68 76 70 96 71 65 72 50 73 51 74
REMARK SMILES IDX 59 75 52 76 58 77 53 78 54 79 55 80 56 81 57 82 80 83 81 84
REMARK SMILES IDX 89 85 82 86 88 87 83 88 84 89 85 90 86 91 87 92 66 93 67 94
REMARK SMILES IDX 75 95 68 96 74 97 69 98 70 99 71 100 72 101 73 102
REMARK H PARENT 94 58 64 69
REMARK Flexibility Score: inf
ROOT
ATOM      1  C   UNL     1       2.021  -1.613  -2.006  1.00  0.00     0.188 C 
ENDROOT
BRANCH   1   2
ATOM      2  C   UNL     1       2.772  -0.468  -2.735  1.00  0.00     0.188 C 
BRANCH   2   3
ATOM      3  O   UNL     1       4.182  -0.487  -2.588  1.00  0.00    -0.376 OA
BRANCH   3   4
ATOM      4  C   UNL     1       4.888   0.246  -1.610  1.00  0.00     0.202 C 
BRANCH   4   5
ATOM      5  C   UNL     1       4.410   0.268  -0.167  1.00  0.00     0.261 C 
BRANCH   5   6
ATOM      6  O   UNL     1       2.990   0.164   0.022  1.00  0.00    -0.461 OA
BRANCH   6   7
ATOM      7  C   UNL     1       2.058   1.110  -0.237  1.00  0.00     0.344 C 
ATOM      8  O   UNL     1       0.870   0.808  -0.344  1.00  0.00    -0.248 OA
BRANCH   7   9
ATOM      9  C   UNL     1       2.530   2.517  -0.411  1.00  0.00     0.351 C 
BRANCH   9  10
ATOM     10  O   UNL     1       3.528   2.821   0.541  1.00  0.00    -0.481 OA
BRANCH  10  11
ATOM     11  C   UNL     1       3.054   3.349   1.706  1.00  0.00     0.127 A 
ATOM     12  C   UNL     1       3.502   4.661   1.900  1.00  0.00     0.047 A 
ATOM     13  C   UNL     1       2.268   2.696   2.680  1.00  0.00     0.018 A 
ATOM     14  C   UNL     1       3.123   5.373   3.027  1.00  0.00     0.004 A 
ATOM     15  C   UNL     1       1.882   3.446   3.800  1.00  0.00     0.012 A 
ATOM     16  C   UNL     1       2.300   4.769   3.969  1.00  0.00     0.001 A 
BRANCH  13  17
ATOM     17  C   UNL     1       1.740   1.314   2.662  1.00  0.00     0.033 C 
ATOM     18  C   UNL     1       2.365   0.143   2.887  1.00  0.00     0.084 C 
ATOM     19  S   UNL     1       1.568  -1.379   2.703  1.00  0.00    -0.022 SA
ATOM     20  C   UNL     1       3.817  -0.092   3.132  1.00  0.00     0.272 C 
ATOM     21  C   UNL     1       3.090  -2.239   2.493  1.00  0.00     0.298 C 
ATOM     22  N   UNL     1       4.144  -1.423   2.857  1.00  0.00    -0.236 N 
ATOM     23  O   UNL     1       4.580   0.827   3.399  1.00  0.00    -0.268 OA
ATOM     24  O   UNL     1       3.110  -3.378   2.058  1.00  0.00    -0.260 OA
BRANCH  22  25
ATOM     25  C   UNL     1       5.513  -1.840   2.766  1.00  0.00     0.053 A 
ATOM     26  C   UNL     1       6.489  -1.264   3.596  1.00  0.00     0.030 A 
ATOM     27  C   UNL     1       5.946  -2.743   1.775  1.00  0.00     0.030 A 
ATOM     28  C   UNL     1       7.850  -1.509   3.392  1.00  0.00     0.041 A 
ATOM     29  C   UNL     1       7.310  -2.962   1.548  1.00  0.00     0.041 A 
ATOM     30  C   UNL     1       8.250  -2.329   2.349  1.00  0.00     0.123 A 
ATOM     31  F   UNL     1       9.554  -2.496   2.099  1.00  0.00    -0.207 F 
ENDBRANCH  22  25
ENDBRANCH  13  17
ENDBRANCH  10  11
ENDBRANCH   9  10
ENDBRANCH   7   9
ENDBRANCH   6   7
ENDBRANCH   5   6
ENDBRANCH   4   5
ENDBRANCH   3   4
ENDBRANCH   2   3
ENDBRANCH   1   2
BRANCH   1  32
ATOM     32  O   UNL     1       2.549  -2.921  -2.210  1.00  0.00    -0.377 OA
BRANCH  32  33
ATOM     33  C   UNL     1       3.865  -3.099  -1.709  1.00  0.00     0.188 C 
BRANCH  33  34
ATOM     34  C   UNL     1       4.973  -3.103  -2.782  1.00  0.00     0.188 C 
BRANCH  34  35
ATOM     35  O   UNL     1       4.711  -2.868  -4.160  1.00  0.00    -0.376 OA
BRANCH  35  36
ATOM     36  C   UNL     1       3.479  -3.254  -4.741  1.00  0.00     0.202 C 
BRANCH  36  37
ATOM     37  C   UNL     1       2.988  -4.707  -4.667  1.00  0.00     0.261 C 
BRANCH  37  38
ATOM     38  O   UNL     1       3.373  -5.448  -3.508  1.00  0.00    -0.460 OA
BRANCH  38  39
ATOM     39  C   UNL     1       4.540  -6.115  -3.639  1.00  0.00     0.338 C 
ATOM     40  O   UNL     1       5.254  -6.166  -4.632  1.00  0.00    -0.246 OA
BRANCH  39  41
ATOM     41  C   UNL     1       4.950  -6.643  -2.326  1.00  0.00     0.060 A 
ATOM     42  C   UNL     1       6.239  -6.329  -1.875  1.00  0.00     0.016 A 
ATOM     43  C   UNL     1       4.113  -7.473  -1.577  1.00  0.00     0.016 A 
ATOM     44  C   UNL     1       6.718  -6.883  -0.699  1.00  0.00     0.010 A 
ATOM     45  C   UNL     1       4.612  -8.068  -0.415  1.00  0.00     0.010 A 
ATOM     46  C   UNL     1       5.932  -7.810  -0.007  1.00  0.00    -0.014 A 
BRANCH  46  47
ATOM     47  C   UNL     1       6.617  -8.677   0.974  1.00  0.00     0.031 A 
ATOM     48  C   UNL     1       7.134 -10.009   0.500  1.00  0.00     0.074 A 
ATOM     49  C   UNL     1       6.887  -8.230   2.211  1.00  0.00     0.049 A 
ATOM     50  N   UNL     1       7.833 -10.904   1.146  1.00  0.00    -0.248 NA
ATOM     51  C   UNL     1       6.833 -10.374  -0.896  1.00  0.00     0.031 C 
ATOM     52  C   UNL     1       6.487  -6.929   2.748  1.00  0.00     0.029 A 
ATOM     53  N   UNL     1       7.580  -8.821   3.234  1.00  0.00    -0.354 N 
ATOM     54  C   UNL     1       8.062 -11.931   0.237  1.00  0.00     0.074 A 
ATOM     55  C   UNL     1       7.394 -11.570  -0.993  1.00  0.00     0.031 C 
ATOM     56  C   UNL     1       6.942  -6.822   4.008  1.00  0.00     0.029 A 
ATOM     57  C   UNL     1       7.635  -8.056   4.373  1.00  0.00     0.049 A 
ATOM     58  H   UNL     1       7.998  -9.709   3.160  1.00  0.00     0.167 HD
ATOM     59  C   UNL     1       8.777 -13.067   0.408  1.00  0.00     0.031 A 
ATOM     60  C   UNL     1       8.168  -8.336   5.578  1.00  0.00     0.031 A 
ATOM     61  C   UNL     1       9.417 -13.427   1.645  1.00  0.00     0.049 A 
ATOM     62  C   UNL     1       8.883  -9.648   5.771  1.00  0.00     0.074 A 
ATOM     63  C   UNL     1      10.150 -14.564   1.936  1.00  0.00     0.029 A 
ATOM     64  N   UNL     1       9.399 -12.656   2.798  1.00  0.00    -0.354 N 
ATOM     65  N   UNL     1       9.094 -10.611   4.903  1.00  0.00    -0.248 NA
ATOM     66  C   UNL     1       9.447  -9.903   7.102  1.00  0.00     0.031 C 
ATOM     67  C   UNL     1      10.523 -14.508   3.283  1.00  0.00     0.029 A 
ATOM     68  C   UNL     1      10.086 -13.303   3.811  1.00  0.00     0.049 A 
ATOM     69  H   UNL     1       8.962 -11.778   2.883  1.00  0.00     0.167 HD
ATOM     70  C   UNL     1       9.833 -11.577   5.579  1.00  0.00     0.074 A 
ATOM     71  C   UNL     1      10.059 -11.064   6.915  1.00  0.00     0.031 C 
ATOM     72  C   UNL     1      10.284 -12.780   5.140  1.00  0.00     0.031 A 
BRANCH  59  73
ATOM     73  C   UNL     1       8.874 -14.013  -0.760  1.00  0.00    -0.014 A 
ATOM     74  C   UNL     1       9.632 -13.689  -1.900  1.00  0.00     0.010 A 
ATOM     75  C   UNL     1       8.231 -15.263  -0.701  1.00  0.00     0.010 A 
ATOM     76  C   UNL     1       9.726 -14.587  -2.968  1.00  0.00     0.020 A 
ATOM     77  C   UNL     1       8.346 -16.175  -1.754  1.00  0.00     0.020 A 
ATOM     78  C   UNL     1       9.085 -15.826  -2.886  1.00  0.00     0.054 A 
BRANCH  78  79
ATOM     79  S   UNL     1       9.264 -16.990  -4.266  1.00  0.00     0.124 S 
ATOM     80  O   UNL     1       8.480 -16.340  -5.314  1.00  0.00    -0.237 OA
ATOM     81  O   UNL     1      10.708 -17.009  -4.482  1.00  0.00    -0.237 OA
ATOM     82  O   UNL     1       8.698 -18.234  -3.748  1.00  0.00    -0.744 OA
ENDBRANCH  78  79
ENDBRANCH  59  73
BRANCH  60  83
ATOM     83  C   UNL     1       8.007  -7.374   6.703  1.00  0.00    -0.014 A 
ATOM     84  C   UNL     1       9.112  -6.714   7.266  1.00  0.00     0.010 A 
ATOM     85  C   UNL     1       6.724  -7.126   7.229  1.00  0.00     0.010 A 
ATOM     86  C   UNL     1       8.941  -5.844   8.349  1.00  0.00     0.020 A 
ATOM     87  C   UNL     1       6.545  -6.233   8.288  1.00  0.00     0.020 A 
ATOM     88  C   UNL     1       7.658  -5.608   8.851  1.00  0.00     0.054 A 
BRANCH  88  89
ATOM     89  S   UNL     1       7.454  -4.444  10.226  1.00  0.00     0.124 S 
ATOM     90  O   UNL     1       8.009  -5.196  11.347  1.00  0.00    -0.237 OA
ATOM     91  O   UNL     1       8.237  -3.293   9.783  1.00  0.00    -0.237 OA
ATOM     92  O   UNL     1       6.010  -4.221  10.275  1.00  0.00    -0.744 OA
ENDBRANCH  88  89
ENDBRANCH  60  83
BRANCH  72  93
ATOM     93  C   UNL     1      11.086 -13.607   6.113  1.00  0.00    -0.014 A 
ATOM     94  C   UNL     1      10.490 -14.179   7.252  1.00  0.00     0.010 A 
ATOM     95  C   UNL     1      12.456 -13.824   5.876  1.00  0.00     0.010 A 
ATOM     96  C   UNL     1      11.263 -14.895   8.169  1.00  0.00     0.020 A 
ATOM     97  C   UNL     1      13.224 -14.572   6.772  1.00  0.00     0.020 A 
ATOM     98  C   UNL     1      12.628 -15.080   7.927  1.00  0.00     0.054 A 
BRANCH  98  99
ATOM     99  S   UNL     1      13.611 -16.006   9.136  1.00  0.00     0.124 S 
ATOM    100  O   UNL     1      13.704 -15.057  10.242  1.00  0.00    -0.237 OA
ATOM    101  O   UNL     1      12.784 -17.184   9.387  1.00  0.00    -0.237 OA
ATOM    102  O   UNL     1      14.865 -16.270   8.435  1.00  0.00    -0.744 OA
ENDBRANCH  98  99
ENDBRANCH  72  93
ENDBRANCH  46  47
ENDBRANCH  39  41
ENDBRANCH  38  39
ENDBRANCH  37  38
ENDBRANCH  36  37
ENDBRANCH  35  36
ENDBRANCH  34  35
ENDBRANCH  33  34
ENDBRANCH  32  33
ENDBRANCH   1  32
TORSDOF 27
