REMARK SMILES CO[C@@H]1C[C@H](C(=O)OCCOCCOCCOCCOC(=O)c2ccc(-c3c4nc(c(-c5ccc(S(=O)(=O)[O-])cc5)c5ccc([nH]5)c(-c5ccc(S(=O)(=O)[O-])cc5)c5nc(c(-c6ccc(S(=O)(=O)[O-])cc6)c6ccc3[nH]6)C=C5)C=C4)cc2)N(C(=O)c2ccc([N+](=O)[O-])s2)C1
REMARK SMILES IDX 14 1 13 2 12 3 11 4 10 5 9 6 8 7 6 8 7 9 5 10 3 11 4 12
REMARK SMILES IDX 94 13 83 14 2 15 1 16 84 17 85 18 86 19 87 20 93 21 88 22
REMARK SMILES IDX 89 23 90 24 91 25 92 26 15 27 16 28 17 29 18 30 19 31 20 32
REMARK SMILES IDX 21 33 22 34 23 35 24 36 82 37 25 38 81 39 26 40 27 41 28 42
REMARK SMILES IDX 75 43 29 44 80 45 74 46 76 47 30 48 79 49 73 50 72 51 31 53
REMARK SMILES IDX 61 54 42 55 60 56 43 57 46 58 59 59 77 60 44 61 45 62 58 64
REMARK SMILES IDX 78 65 47 66 32 67 33 68 41 69 34 70 40 71 35 72 36 73 37 74
REMARK SMILES IDX 38 75 39 76 62 77 63 78 71 79 64 80 70 81 65 82 66 83 67 84
REMARK SMILES IDX 68 85 69 86 48 87 49 88 57 89 50 90 56 91 51 92 52 93 53 94
REMARK SMILES IDX 54 95 55 96
REMARK H PARENT 76 52 46 63
REMARK Flexibility Score: inf
ROOT
ATOM      1  O   UNL     1      -0.045   0.950  -1.657  1.00  0.00    -0.377 OA
ENDROOT
BRANCH   1   2
ATOM      2  C   UNL     1       0.350   1.109  -3.017  1.00  0.00     0.188 C 
BRANCH   2   3
ATOM      3  C   UNL     1       0.261  -0.195  -3.812  1.00  0.00     0.188 C 
BRANCH   3   4
ATOM      4  O   UNL     1      -1.041  -0.664  -4.160  1.00  0.00    -0.376 OA
BRANCH   4   5
ATOM      5  C   UNL     1      -2.040  -0.712  -3.147  1.00  0.00     0.202 C 
BRANCH   5   6
ATOM      6  C   UNL     1      -1.877  -1.751  -2.028  1.00  0.00     0.261 C 
BRANCH   6   7
ATOM      7  O   UNL     1      -0.601  -1.710  -1.369  1.00  0.00    -0.462 OA
BRANCH   7   8
ATOM      8  C   UNL     1       0.244  -2.704  -1.722  1.00  0.00     0.329 C 
ATOM      9  O   UNL     1      -0.022  -3.575  -2.547  1.00  0.00    -0.250 OA
BRANCH   8  10
ATOM     10  C   UNL     1       1.619  -2.651  -1.039  1.00  0.00     0.198 C 
ATOM     11  C   UNL     1       1.377  -2.205   1.324  1.00  0.00     0.140 C 
ATOM     12  C   UNL     1       1.942  -1.622   0.023  1.00  0.00     0.071 C 
ATOM     13  C   UNL     1       1.224  -3.721   1.035  1.00  0.00     0.152 C 
ATOM     14  N   UNL     1       1.763  -3.900  -0.309  1.00  0.00    -0.321 N 
BRANCH  11  15
ATOM     15  O   UNL     1       0.138  -1.587   1.664  1.00  0.00    -0.380 OA
ATOM     16  C   UNL     1       0.286  -0.215   2.030  1.00  0.00     0.195 C 
ENDBRANCH  11  15
BRANCH  14  17
ATOM     17  C   UNL     1       2.147  -5.123  -0.839  1.00  0.00     0.265 C 
ATOM     18  O   UNL     1       2.025  -6.167  -0.204  1.00  0.00    -0.268 OA
BRANCH  17  19
ATOM     19  C   UNL     1       2.765  -5.066  -2.158  1.00  0.00     0.099 A 
ATOM     20  C   UNL     1       3.889  -4.355  -2.545  1.00  0.00     0.033 A 
ATOM     21  S   UNL     1       2.071  -5.905  -3.481  1.00  0.00    -0.058 S 
ATOM     22  C   UNL     1       4.052  -4.339  -3.961  1.00  0.00     0.099 A 
ATOM     23  C   UNL     1       3.094  -5.112  -4.583  1.00  0.00     0.324 A 
BRANCH  23  24
ATOM     24  N   UNL     1       2.928  -5.272  -6.005  1.00  0.00     0.074 N 
ATOM     25  O   UNL     1       3.715  -4.632  -6.719  1.00  0.00    -0.258 OA
ATOM     26  O   UNL     1       2.038  -6.023  -6.420  1.00  0.00    -0.258 OA
ENDBRANCH  23  24
ENDBRANCH  17  19
ENDBRANCH  14  17
ENDBRANCH   8  10
ENDBRANCH   7   8
ENDBRANCH   6   7
ENDBRANCH   5   6
ENDBRANCH   4   5
ENDBRANCH   3   4
ENDBRANCH   2   3
ENDBRANCH   1   2
BRANCH   1  27
ATOM     27  C   UNL     1      -0.988   1.879  -1.112  1.00  0.00     0.188 C 
BRANCH  27  28
ATOM     28  C   UNL     1      -1.061   3.262  -1.762  1.00  0.00     0.188 C 
BRANCH  28  29
ATOM     29  O   UNL     1       0.189   3.930  -1.934  1.00  0.00    -0.376 OA
BRANCH  29  30
ATOM     30  C   UNL     1       1.132   3.849  -0.866  1.00  0.00     0.202 C 
BRANCH  30  31
ATOM     31  C   UNL     1       0.847   4.756   0.331  1.00  0.00     0.261 C 
BRANCH  31  32
ATOM     32  O   UNL     1      -0.273   4.294   1.105  1.00  0.00    -0.460 OA
BRANCH  32  33
ATOM     33  C   UNL     1      -1.413   5.008   0.948  1.00  0.00     0.338 C 
ATOM     34  O   UNL     1      -1.585   5.972   0.220  1.00  0.00    -0.246 OA
BRANCH  33  35
ATOM     35  C   UNL     1      -2.508   4.354   1.682  1.00  0.00     0.060 A 
ATOM     36  C   UNL     1      -3.712   4.111   1.008  1.00  0.00     0.016 A 
ATOM     37  C   UNL     1      -2.385   4.082   3.046  1.00  0.00     0.016 A 
ATOM     38  C   UNL     1      -4.820   3.649   1.712  1.00  0.00     0.010 A 
ATOM     39  C   UNL     1      -3.500   3.631   3.753  1.00  0.00     0.010 A 
ATOM     40  C   UNL     1      -4.731   3.457   3.096  1.00  0.00    -0.014 A 
BRANCH  40  41
ATOM     41  C   UNL     1      -5.964   3.268   3.891  1.00  0.00     0.031 A 
ATOM     42  C   UNL     1      -6.574   4.470   4.560  1.00  0.00     0.074 A 
ATOM     43  C   UNL     1      -6.529   2.055   4.008  1.00  0.00     0.049 A 
ATOM     44  N   UNL     1      -7.609   4.539   5.354  1.00  0.00    -0.248 NA
ATOM     45  C   UNL     1      -5.925   5.767   4.301  1.00  0.00     0.031 C 
ATOM     46  C   UNL     1      -6.048   0.833   3.365  1.00  0.00     0.029 A 
ATOM     47  N   UNL     1      -7.628   1.653   4.721  1.00  0.00    -0.354 N 
ATOM     48  C   UNL     1      -7.731   5.881   5.697  1.00  0.00     0.074 A 
ATOM     49  C   UNL     1      -6.650   6.587   5.047  1.00  0.00     0.031 C 
ATOM     50  C   UNL     1      -6.843  -0.189   3.725  1.00  0.00     0.029 A 
ATOM     51  C   UNL     1      -7.864   0.302   4.649  1.00  0.00     0.049 A 
ATOM     52  H   UNL     1      -8.194   2.273   5.234  1.00  0.00     0.167 HD
ATOM     53  C   UNL     1      -8.663   6.471   6.483  1.00  0.00     0.031 A 
ATOM     54  C   UNL     1      -8.785  -0.453   5.279  1.00  0.00     0.031 A 
ATOM     55  C   UNL     1      -9.723   5.755   7.141  1.00  0.00     0.049 A 
ATOM     56  C   UNL     1      -9.768   0.214   6.206  1.00  0.00     0.074 A 
ATOM     57  C   UNL     1     -10.723   6.254   7.955  1.00  0.00     0.029 A 
ATOM     58  N   UNL     1      -9.913   4.383   7.064  1.00  0.00    -0.354 N 
ATOM     59  N   UNL     1      -9.882   1.486   6.510  1.00  0.00    -0.248 NA
ATOM     60  C   UNL     1     -10.750  -0.655   6.869  1.00  0.00     0.031 C 
ATOM     61  C   UNL     1     -11.487   5.176   8.415  1.00  0.00     0.029 A 
ATOM     62  C   UNL     1     -11.001   4.014   7.837  1.00  0.00     0.049 A 
ATOM     63  H   UNL     1      -9.357   3.764   6.539  1.00  0.00     0.167 HD
ATOM     64  C   UNL     1     -10.965   1.573   7.378  1.00  0.00     0.074 A 
ATOM     65  C   UNL     1     -11.478   0.228   7.540  1.00  0.00     0.031 C 
ATOM     66  C   UNL     1     -11.492   2.667   7.984  1.00  0.00     0.031 A 
BRANCH  53  67
ATOM     67  C   UNL     1      -8.547   7.956   6.702  1.00  0.00    -0.014 A 
ATOM     68  C   UNL     1      -8.832   8.870   5.671  1.00  0.00     0.010 A 
ATOM     69  C   UNL     1      -8.169   8.446   7.965  1.00  0.00     0.010 A 
ATOM     70  C   UNL     1      -8.701  10.245   5.889  1.00  0.00     0.020 A 
ATOM     71  C   UNL     1      -8.063   9.820   8.194  1.00  0.00     0.020 A 
ATOM     72  C   UNL     1      -8.313  10.711   7.149  1.00  0.00     0.054 A 
BRANCH  72  73
ATOM     73  S   UNL     1      -8.165  12.500   7.408  1.00  0.00     0.124 S 
ATOM     74  O   UNL     1      -6.942  12.810   6.671  1.00  0.00    -0.237 OA
ATOM     75  O   UNL     1      -9.399  13.013   6.820  1.00  0.00    -0.237 OA
ATOM     76  O   UNL     1      -8.067  12.634   8.859  1.00  0.00    -0.744 OA
ENDBRANCH  72  73
ENDBRANCH  53  67
BRANCH  54  77
ATOM     77  C   UNL     1      -8.806  -1.926   5.071  1.00  0.00    -0.014 A 
ATOM     78  C   UNL     1      -9.855  -2.537   4.362  1.00  0.00     0.010 A 
ATOM     79  C   UNL     1      -7.764  -2.727   5.574  1.00  0.00     0.010 A 
ATOM     80  C   UNL     1      -9.869  -3.922   4.174  1.00  0.00     0.020 A 
ATOM     81  C   UNL     1      -7.761  -4.109   5.365  1.00  0.00     0.020 A 
ATOM     82  C   UNL     1      -8.820  -4.699   4.675  1.00  0.00     0.054 A 
BRANCH  82  83
ATOM     83  S   UNL     1      -8.834  -6.488   4.373  1.00  0.00     0.124 S 
ATOM     84  O   UNL     1      -9.877  -6.942   5.288  1.00  0.00    -0.237 OA
ATOM     85  O   UNL     1      -9.162  -6.564   2.951  1.00  0.00    -0.237 OA
ATOM     86  O   UNL     1      -7.475  -6.902   4.715  1.00  0.00    -0.744 OA
ENDBRANCH  82  83
ENDBRANCH  54  77
BRANCH  66  87
ATOM     87  C   UNL     1     -12.706   2.461   8.850  1.00  0.00    -0.014 A 
ATOM     88  C   UNL     1     -12.609   1.845  10.109  1.00  0.00     0.010 A 
ATOM     89  C   UNL     1     -13.953   2.949   8.417  1.00  0.00     0.010 A 
ATOM     90  C   UNL     1     -13.745   1.693  10.909  1.00  0.00     0.020 A 
ATOM     91  C   UNL     1     -15.085   2.824   9.226  1.00  0.00     0.020 A 
ATOM     92  C   UNL     1     -14.976   2.183  10.461  1.00  0.00     0.054 A 
BRANCH  92  93
ATOM     93  S   UNL     1     -16.427   2.014  11.537  1.00  0.00     0.124 S 
ATOM     94  O   UNL     1     -16.734   0.592  11.410  1.00  0.00    -0.237 OA
ATOM     95  O   UNL     1     -15.912   2.433  12.838  1.00  0.00    -0.237 OA
ATOM     96  O   UNL     1     -17.407   2.919  10.941  1.00  0.00    -0.744 OA
ENDBRANCH  92  93
ENDBRANCH  66  87
ENDBRANCH  40  41
ENDBRANCH  33  35
ENDBRANCH  32  33
ENDBRANCH  31  32
ENDBRANCH  30  31
ENDBRANCH  29  30
ENDBRANCH  28  29
ENDBRANCH  27  28
ENDBRANCH   1  27
TORSDOF 27
