REMARK SMILES Cc1ccccc1OCC(=O)N[C@@H](Cc1c[nH]c2ccccc12)C(=O)OCCOCCOCCOCCOC(=O)c1ccc(-c2c3nc(c(-c4ccc(S(=O)(=O)[O-])cc4)c4ccc([nH]4)c(-c4ccc(S(=O)(=O)[O-])cc4)c4nc(c(-c5ccc(S(=O)(=O)[O-])cc5)c5ccc2[nH]5)C=C4)C=C3)cc1
REMARK SMILES IDX 31 1 30 2 29 3 28 4 27 5 26 6 24 7 25 8 13 9 12 10 10 11
REMARK SMILES IDX 11 12 9 14 8 15 7 16 1 17 2 18 3 19 4 20 6 21 5 22 14 23
REMARK SMILES IDX 15 24 16 25 23 26 17 27 18 28 22 29 19 31 21 32 20 33 32 34
REMARK SMILES IDX 33 35 34 36 35 37 36 38 37 39 38 40 39 41 40 42 41 43 42 44
REMARK SMILES IDX 100 45 43 46 99 47 44 48 45 49 46 50 93 51 47 52 98 53 92 54
REMARK SMILES IDX 94 55 48 56 97 57 91 58 90 59 49 61 79 62 60 63 78 64 61 65
REMARK SMILES IDX 64 66 77 67 95 68 62 69 63 70 76 72 96 73 65 74 50 75 51 76
REMARK SMILES IDX 59 77 52 78 58 79 53 80 54 81 55 82 56 83 57 84 80 85 81 86
REMARK SMILES IDX 89 87 82 88 88 89 83 90 84 91 85 92 86 93 87 94 66 95 67 96
REMARK SMILES IDX 75 97 68 98 74 99 69 100 70 101 71 102 72 103 73 104
REMARK H PARENT 12 13 17 30 94 60 64 71
REMARK Flexibility Score: inf
ROOT
ATOM      1  C   UNL     1       4.351   3.816   1.120  1.00  0.00     0.188 C 
ENDROOT
BRANCH   1   2
ATOM      2  C   UNL     1       3.108   4.659   1.306  1.00  0.00     0.188 C 
BRANCH   2   3
ATOM      3  O   UNL     1       3.123   6.063   1.147  1.00  0.00    -0.376 OA
BRANCH   3   4
ATOM      4  C   UNL     1       2.749   6.713   2.352  1.00  0.00     0.202 C 
BRANCH   4   5
ATOM      5  C   UNL     1       1.335   6.409   2.891  1.00  0.00     0.261 C 
BRANCH   5   6
ATOM      6  O   UNL     1       0.970   5.018   3.014  1.00  0.00    -0.462 OA
BRANCH   6   7
ATOM      7  C   UNL     1       0.059   4.541   2.145  1.00  0.00     0.329 C 
ATOM      8  O   UNL     1      -0.607   5.231   1.378  1.00  0.00    -0.250 OA
BRANCH   7   9
ATOM      9  C   UNL     1      -0.088   3.011   2.204  1.00  0.00     0.196 C 
BRANCH   9  10
ATOM     10  N   UNL     1       1.126   2.197   2.318  1.00  0.00    -0.339 N 
ATOM     11  C   UNL     1       1.832   1.593   1.318  1.00  0.00     0.258 C 
ATOM     12  O   UNL     1       2.676   0.747   1.615  1.00  0.00    -0.271 OA
ATOM     13  H   UNL     1       1.476   2.070   3.230  1.00  0.00     0.164 HD
BRANCH  11  14
ATOM     14  C   UNL     1       1.638   2.062  -0.155  1.00  0.00     0.329 C 
BRANCH  14  15
ATOM     15  O   UNL     1       0.810   1.508  -1.148  1.00  0.00    -0.484 OA
BRANCH  15  16
ATOM     16  C   UNL     1       0.083   0.461  -0.686  1.00  0.00     0.122 A 
ATOM     17  C   UNL     1       2.107  -1.077  -0.836  1.00  0.00     0.048 C 
ATOM     18  C   UNL     1       0.657  -0.804  -0.548  1.00  0.00    -0.009 A 
ATOM     19  C   UNL     1      -0.166  -1.845  -0.112  1.00  0.00     0.007 A 
ATOM     20  C   UNL     1      -1.521  -1.621   0.157  1.00  0.00     0.001 A 
ATOM     21  C   UNL     1      -1.271   0.692  -0.440  1.00  0.00     0.047 A 
ATOM     22  C   UNL     1      -2.074  -0.352  -0.004  1.00  0.00     0.004 A 
ENDBRANCH  15  16
ENDBRANCH  14  15
ENDBRANCH  11  14
ENDBRANCH   9  10
BRANCH   9  23
ATOM     23  C   UNL     1      -1.163   2.593   3.217  1.00  0.00     0.074 C 
BRANCH  23  24
ATOM     24  C   UNL     1      -0.697   2.156   4.580  1.00  0.00    -0.020 A 
ATOM     25  C   UNL     1      -0.538   2.964   5.682  1.00  0.00     0.087 A 
ATOM     26  C   UNL     1      -0.365   0.827   5.016  1.00  0.00     0.003 A 
ATOM     27  N   UNL     1      -0.239   2.193   6.770  1.00  0.00    -0.361 N 
ATOM     28  C   UNL     1      -0.141   0.876   6.395  1.00  0.00     0.046 A 
ATOM     29  C   UNL     1      -0.243  -0.419   4.367  1.00  0.00     0.010 A 
ATOM     30  H   UNL     1      -0.113   2.531   7.686  1.00  0.00     0.166 HD
ATOM     31  C   UNL     1       0.136  -0.260   7.165  1.00  0.00     0.026 A 
ATOM     32  C   UNL     1       0.068  -1.560   5.117  1.00  0.00     0.001 A 
ATOM     33  C   UNL     1       0.236  -1.482   6.498  1.00  0.00     0.002 A 
ENDBRANCH  23  24
ENDBRANCH   9  23
ENDBRANCH   7   9
ENDBRANCH   6   7
ENDBRANCH   5   6
ENDBRANCH   4   5
ENDBRANCH   3   4
ENDBRANCH   2   3
ENDBRANCH   1   2
BRANCH   1  34
ATOM     34  O   UNL     1       5.543   4.274   1.715  1.00  0.00    -0.377 OA
BRANCH  34  35
ATOM     35  C   UNL     1       5.929   5.570   1.318  1.00  0.00     0.188 C 
BRANCH  35  36
ATOM     36  C   UNL     1       7.300   5.640   0.658  1.00  0.00     0.188 C 
BRANCH  36  37
ATOM     37  O   UNL     1       7.449   4.891  -0.533  1.00  0.00    -0.376 OA
BRANCH  37  38
ATOM     38  C   UNL     1       7.389   3.488  -0.303  1.00  0.00     0.202 C 
BRANCH  38  39
ATOM     39  C   UNL     1       8.230   2.848   0.833  1.00  0.00     0.261 C 
BRANCH  39  40
ATOM     40  O   UNL     1       8.068   3.180   2.271  1.00  0.00    -0.460 OA
BRANCH  40  41
ATOM     41  C   UNL     1       8.116   3.679   3.515  1.00  0.00     0.338 C 
ATOM     42  O   UNL     1       7.492   3.042   4.346  1.00  0.00    -0.246 OA
BRANCH  41  43
ATOM     43  C   UNL     1       8.777   4.989   4.035  1.00  0.00     0.060 A 
ATOM     44  C   UNL     1       8.678   5.074   5.431  1.00  0.00     0.016 A 
ATOM     45  C   UNL     1       8.457   6.196   3.443  1.00  0.00     0.016 A 
ATOM     46  C   UNL     1       7.677   5.856   6.032  1.00  0.00     0.010 A 
ATOM     47  C   UNL     1       7.414   6.962   3.977  1.00  0.00     0.010 A 
ATOM     48  C   UNL     1       6.855   6.596   5.198  1.00  0.00    -0.014 A 
BRANCH  48  49
ATOM     49  C   UNL     1       5.364   6.542   5.305  1.00  0.00     0.031 A 
ATOM     50  C   UNL     1       4.506   7.766   5.114  1.00  0.00     0.074 A 
ATOM     51  C   UNL     1       4.826   5.286   5.334  1.00  0.00     0.049 A 
ATOM     52  N   UNL     1       3.225   7.851   5.304  1.00  0.00    -0.248 NA
ATOM     53  C   UNL     1       5.063   9.054   4.691  1.00  0.00     0.031 C 
ATOM     54  C   UNL     1       3.468   4.836   5.048  1.00  0.00     0.029 A 
ATOM     55  N   UNL     1       5.432   4.099   5.737  1.00  0.00    -0.354 N 
ATOM     56  C   UNL     1       2.772   9.085   4.832  1.00  0.00     0.074 A 
ATOM     57  C   UNL     1       3.971   9.801   4.488  1.00  0.00     0.031 C 
ATOM     58  C   UNL     1       3.310   3.541   5.364  1.00  0.00     0.029 A 
ATOM     59  C   UNL     1       4.463   3.174   6.139  1.00  0.00     0.049 A 
ATOM     60  H   UNL     1       6.403   3.934   5.740  1.00  0.00     0.167 HD
ATOM     61  C   UNL     1       1.430   9.347   4.700  1.00  0.00     0.031 A 
ATOM     62  C   UNL     1       4.379   2.902   7.472  1.00  0.00     0.031 A 
ATOM     63  C   UNL     1       0.603   8.362   5.427  1.00  0.00     0.049 A 
ATOM     64  C   UNL     1       3.202   3.663   8.150  1.00  0.00     0.074 A 
ATOM     65  C   UNL     1      -0.545   7.639   5.146  1.00  0.00     0.029 A 
ATOM     66  N   UNL     1       1.063   7.861   6.649  1.00  0.00    -0.354 N 
ATOM     67  N   UNL     1       2.520   4.683   7.649  1.00  0.00    -0.248 NA
ATOM     68  C   UNL     1       2.619   3.222   9.416  1.00  0.00     0.031 C 
ATOM     69  C   UNL     1      -0.652   6.601   6.112  1.00  0.00     0.029 A 
ATOM     70  C   UNL     1       0.406   6.704   7.009  1.00  0.00     0.049 A 
ATOM     71  H   UNL     1       1.771   8.283   7.188  1.00  0.00     0.167 HD
ATOM     72  C   UNL     1       1.502   5.064   8.500  1.00  0.00     0.074 A 
ATOM     73  C   UNL     1       1.590   4.077   9.566  1.00  0.00     0.031 C 
ATOM     74  C   UNL     1       0.633   6.122   8.332  1.00  0.00     0.031 A 
BRANCH  61  75
ATOM     75  C   UNL     1       0.818  10.394   3.735  1.00  0.00    -0.014 A 
ATOM     76  C   UNL     1      -0.590  10.509   3.608  1.00  0.00     0.010 A 
ATOM     77  C   UNL     1       1.548  11.200   2.832  1.00  0.00     0.010 A 
ATOM     78  C   UNL     1      -1.221  11.311   2.633  1.00  0.00     0.020 A 
ATOM     79  C   UNL     1       0.930  12.050   1.881  1.00  0.00     0.020 A 
ATOM     80  C   UNL     1      -0.455  12.086   1.772  1.00  0.00     0.054 A 
BRANCH  80  81
ATOM     81  S   UNL     1      -1.287  13.145   0.549  1.00  0.00     0.124 S 
ATOM     82  O   UNL     1      -1.882  12.170  -0.361  1.00  0.00    -0.237 OA
ATOM     83  O   UNL     1      -2.233  13.896   1.369  1.00  0.00    -0.237 OA
ATOM     84  O   UNL     1      -0.199  13.939  -0.019  1.00  0.00    -0.744 OA
ENDBRANCH  80  81
ENDBRANCH  61  75
BRANCH  62  85
ATOM     85  C   UNL     1       5.734   2.402   7.954  1.00  0.00    -0.014 A 
ATOM     86  C   UNL     1       6.186   1.198   7.339  1.00  0.00     0.010 A 
ATOM     87  C   UNL     1       6.735   3.253   8.462  1.00  0.00     0.010 A 
ATOM     88  C   UNL     1       7.547   0.959   7.055  1.00  0.00     0.020 A 
ATOM     89  C   UNL     1       8.115   2.994   8.210  1.00  0.00     0.020 A 
ATOM     90  C   UNL     1       8.510   1.879   7.457  1.00  0.00     0.054 A 
BRANCH  90  91
ATOM     91  S   UNL     1      10.225   1.707   6.800  1.00  0.00     0.124 S 
ATOM     92  O   UNL     1      10.812   0.728   7.709  1.00  0.00    -0.237 OA
ATOM     93  O   UNL     1      10.031   1.246   5.428  1.00  0.00    -0.237 OA
ATOM     94  O   UNL     1      10.787   3.054   6.909  1.00  0.00    -0.744 OA
ENDBRANCH  90  91
ENDBRANCH  62  85
BRANCH  74  95
ATOM     95  C   UNL     1      -0.164   6.798   9.453  1.00  0.00    -0.014 A 
ATOM     96  C   UNL     1       0.037   6.566  10.818  1.00  0.00     0.010 A 
ATOM     97  C   UNL     1      -1.040   7.877   9.131  1.00  0.00     0.010 A 
ATOM     98  C   UNL     1      -0.633   7.314  11.796  1.00  0.00     0.020 A 
ATOM     99  C   UNL     1      -1.674   8.663  10.094  1.00  0.00     0.020 A 
ATOM    100  C   UNL     1      -1.480   8.360  11.429  1.00  0.00     0.054 A 
BRANCH 100 101
ATOM    101  S   UNL     1      -2.256   9.363  12.715  1.00  0.00     0.124 S 
ATOM    102  O   UNL     1      -3.343   8.493  13.154  1.00  0.00    -0.237 OA
ATOM    103  O   UNL     1      -1.169   9.545  13.675  1.00  0.00    -0.237 OA
ATOM    104  O   UNL     1      -2.667  10.575  12.011  1.00  0.00    -0.744 OA
ENDBRANCH 100 101
ENDBRANCH  74  95
ENDBRANCH  48  49
ENDBRANCH  41  43
ENDBRANCH  40  41
ENDBRANCH  39  40
ENDBRANCH  38  39
ENDBRANCH  37  38
ENDBRANCH  36  37
ENDBRANCH  35  36
ENDBRANCH  34  35
ENDBRANCH   1  34
TORSDOF 29
