REMARK SMILES N#Cc1cccnc1N1CC[NH+]([C@@H](C(=O)OCCOCCOCCOCCOC(=O)c2ccc(-c3c4nc(c(-c5ccc(S(=O)(=O)[O-])cc5)c5ccc([nH]5)c(-c5ccc(S(=O)(=O)[O-])cc5)c5nc(c(-c6ccc(S(=O)(=O)[O-])cc6)c6ccc3[nH]6)C=C5)C=C4)cc2)c2c[nH]c3cc(CO)ccc23)CC1
REMARK SMILES IDX 22 1 21 2 20 3 19 4 18 5 17 6 16 7 14 8 15 9 13 10 12 11
REMARK SMILES IDX 9 12 10 13 103 14 11 15 102 16 8 18 3 19 4 20 5 21 7 22 6 23
REMARK SMILES IDX 2 24 1 25 91 26 92 27 101 28 93 29 94 30 100 31 95 33 99 34
REMARK SMILES IDX 96 35 97 36 98 37 23 39 24 40 25 41 26 42 27 43 28 44 29 45
REMARK SMILES IDX 30 46 31 47 32 48 90 49 33 50 89 51 34 52 35 53 36 54 83 55
REMARK SMILES IDX 37 56 88 57 82 58 84 59 38 60 87 61 81 62 80 63 39 65 69 66
REMARK SMILES IDX 50 67 68 68 51 69 54 70 67 71 85 72 52 73 53 74 66 76 86 77
REMARK SMILES IDX 55 78 40 79 41 80 49 81 42 82 48 83 43 84 44 85 45 86 46 87
REMARK SMILES IDX 47 88 70 89 71 90 79 91 72 92 78 93 73 94 74 95 75 96 76 97
REMARK SMILES IDX 77 98 56 99 57 100 65 101 58 102 64 103 59 104 60 105 61 106
REMARK SMILES IDX 62 107 63 108
REMARK H PARENT 12 17 93 32 98 38 84 64 54 75
REMARK Flexibility Score: inf
ROOT
ATOM      1  O   UNL     1      -2.201  -3.414   0.514  1.00  0.00    -0.377 OA
ENDROOT
BRANCH   1   2
ATOM      2  C   UNL     1      -3.050  -4.424   0.048  1.00  0.00     0.188 C 
BRANCH   2   3
ATOM      3  C   UNL     1      -3.196  -5.657   0.932  1.00  0.00     0.188 C 
BRANCH   3   4
ATOM      4  O   UNL     1      -3.534  -5.444   2.290  1.00  0.00    -0.376 OA
BRANCH   4   5
ATOM      5  C   UNL     1      -2.721  -4.538   3.032  1.00  0.00     0.202 C 
BRANCH   5   6
ATOM      6  C   UNL     1      -1.189  -4.733   3.067  1.00  0.00     0.261 C 
BRANCH   6   7
ATOM      7  O   UNL     1      -0.517  -4.741   1.778  1.00  0.00    -0.459 OA
BRANCH   7   8
ATOM      8  C   UNL     1      -0.079  -5.925   1.273  1.00  0.00     0.370 C 
ATOM      9  O   UNL     1      -0.180  -6.982   1.895  1.00  0.00    -0.245 OA
BRANCH   8  10
ATOM     10  C   UNL     1       0.590  -5.833  -0.130  1.00  0.00     0.328 C 
BRANCH  10  11
ATOM     11  N   UNL     1       1.891  -5.027  -0.244  1.00  0.00    -0.316 N 
ATOM     12  N   UNL     1       1.297  -2.132  -0.027  1.00  0.00    -0.344 N 
ATOM     13  C   UNL     1       1.055  -2.947  -1.197  1.00  0.00     0.179 C 
ATOM     14  C   UNL     1       1.739  -2.807   1.205  1.00  0.00     0.179 C 
ATOM     15  C   UNL     1       2.051  -4.071  -1.331  1.00  0.00     0.285 C 
ATOM     16  C   UNL     1       2.309  -4.266   0.971  1.00  0.00     0.285 C 
ATOM     17  H   UNL     1       2.475  -5.843  -0.425  1.00  0.00     0.349 HD
BRANCH  12  18
ATOM     18  C   UNL     1       0.800  -0.816   0.003  1.00  0.00     0.146 A 
ATOM     19  C   UNL     1       1.945   0.394   0.375  1.00  0.00     0.095 A 
ATOM     20  C   UNL     1       1.384   2.058   0.389  1.00  0.00     0.025 A 
ATOM     21  C   UNL     1      -0.542   2.504  -0.070  1.00  0.00     0.022 A 
ATOM     22  N   UNL     1      -0.877  -0.448  -0.366  1.00  0.00    -0.238 NA
ATOM     23  C   UNL     1      -1.608   1.141  -0.390  1.00  0.00     0.113 A 
BRANCH  19  24
ATOM     24  C   UNL     1       3.339   0.128   0.467  1.00  0.00     0.103 C 
ATOM     25  N   UNL     1       4.481  -0.074   0.493  1.00  0.00    -0.192 NA
ENDBRANCH  19  24
ENDBRANCH  12  18
ENDBRANCH  10  11
BRANCH  10  26
ATOM     26  C   UNL     1      -0.205  -6.390  -1.457  1.00  0.00     0.046 A 
ATOM     27  C   UNL     1       0.488  -7.224  -2.352  1.00  0.00     0.094 A 
ATOM     28  C   UNL     1      -1.149  -5.845  -2.462  1.00  0.00     0.009 A 
ATOM     29  N   UNL     1       0.809  -6.237  -3.304  1.00  0.00    -0.361 N 
ATOM     30  C   UNL     1      -0.341  -5.524  -3.555  1.00  0.00     0.046 A 
ATOM     31  C   UNL     1      -2.546  -5.778  -2.755  1.00  0.00     0.011 A 
ATOM     32  H   UNL     1       1.691  -6.086  -3.713  1.00  0.00     0.166 HD
ATOM     33  C   UNL     1      -0.743  -4.664  -4.595  1.00  0.00     0.032 A 
ATOM     34  C   UNL     1      -3.007  -4.973  -3.829  1.00  0.00     0.007 A 
ATOM     35  C   UNL     1      -2.105  -4.303  -4.662  1.00  0.00    -0.021 A 
BRANCH  35  36
ATOM     36  C   UNL     1      -2.576  -3.208  -5.602  1.00  0.00     0.191 C 
BRANCH  36  37
ATOM     37  O   UNL     1      -3.541  -2.334  -5.015  1.00  0.00    -0.392 OA
ATOM     38  H   UNL     1      -4.333  -2.841  -4.777  1.00  0.00     0.211 HD
ENDBRANCH  36  37
ENDBRANCH  35  36
ENDBRANCH  10  26
ENDBRANCH   8  10
ENDBRANCH   7   8
ENDBRANCH   6   7
ENDBRANCH   5   6
ENDBRANCH   4   5
ENDBRANCH   3   4
ENDBRANCH   2   3
ENDBRANCH   1   2
BRANCH   1  39
ATOM     39  C   UNL     1      -2.779  -2.133   0.613  1.00  0.00     0.188 C 
BRANCH  39  40
ATOM     40  C   UNL     1      -3.518  -1.575  -0.631  1.00  0.00     0.188 C 
BRANCH  40  41
ATOM     41  O   UNL     1      -2.999  -1.466  -1.971  1.00  0.00    -0.376 OA
BRANCH  41  42
ATOM     42  C   UNL     1      -1.750  -2.077  -2.249  1.00  0.00     0.202 C 
BRANCH  42  43
ATOM     43  C   UNL     1      -0.897  -1.351  -3.323  1.00  0.00     0.261 C 
BRANCH  43  44
ATOM     44  O   UNL     1       0.167  -0.586  -2.724  1.00  0.00    -0.460 OA
BRANCH  44  45
ATOM     45  C   UNL     1      -0.204   0.653  -2.389  1.00  0.00     0.338 C 
ATOM     46  O   UNL     1      -0.991   1.339  -3.034  1.00  0.00    -0.246 OA
BRANCH  45  47
ATOM     47  C   UNL     1       0.432   1.169  -1.033  1.00  0.00     0.060 A 
ATOM     48  C   UNL     1      -0.063   0.962   0.937  1.00  0.00     0.016 A 
ATOM     49  C   UNL     1       0.996   2.782  -1.577  1.00  0.00     0.016 A 
ATOM     50  C   UNL     1      -0.037   2.385   1.987  1.00  0.00     0.010 A 
ATOM     51  C   UNL     1       1.053   4.079  -0.414  1.00  0.00     0.010 A 
ATOM     52  C   UNL     1       0.543   3.896   1.296  1.00  0.00    -0.014 A 
BRANCH  52  53
ATOM     53  C   UNL     1       0.633   5.056   2.169  1.00  0.00     0.031 A 
ATOM     54  C   UNL     1       0.331   6.385   1.574  1.00  0.00     0.074 A 
ATOM     55  C   UNL     1       1.076   4.872   3.424  1.00  0.00     0.049 A 
ATOM     56  N   UNL     1       0.776   7.541   1.960  1.00  0.00    -0.248 NA
ATOM     57  C   UNL     1      -0.418   6.421   0.301  1.00  0.00     0.031 C 
ATOM     58  C   UNL     1       1.455   3.596   4.050  1.00  0.00     0.029 A 
ATOM     59  N   UNL     1       1.267   5.773   4.424  1.00  0.00    -0.354 N 
ATOM     60  C   UNL     1       0.454   8.401   0.924  1.00  0.00     0.074 A 
ATOM     61  C   UNL     1      -0.073   7.614  -0.158  1.00  0.00     0.031 C 
ATOM     62  C   UNL     1       1.663   3.774   5.357  1.00  0.00     0.029 A 
ATOM     63  C   UNL     1       1.654   5.196   5.609  1.00  0.00     0.049 A 
ATOM     64  H   UNL     1       1.141   6.743   4.310  1.00  0.00     0.167 HD
ATOM     65  C   UNL     1       0.517   9.745   0.928  1.00  0.00     0.031 A 
ATOM     66  C   UNL     1       2.038   5.777   6.752  1.00  0.00     0.031 A 
ATOM     67  C   UNL     1       0.895  10.468   2.104  1.00  0.00     0.049 A 
ATOM     68  C   UNL     1       2.088   7.271   6.731  1.00  0.00     0.074 A 
ATOM     69  C   UNL     1       0.943  11.830   2.304  1.00  0.00     0.029 A 
ATOM     70  N   UNL     1       1.234   9.860   3.308  1.00  0.00    -0.354 N 
ATOM     71  N   UNL     1       1.802   8.088   5.741  1.00  0.00    -0.248 NA
ATOM     72  C   UNL     1       2.510   7.924   7.966  1.00  0.00     0.031 C 
ATOM     73  C   UNL     1       1.371  12.044   3.616  1.00  0.00     0.029 A 
ATOM     74  C   UNL     1       1.508  10.818   4.256  1.00  0.00     0.049 A 
ATOM     75  H   UNL     1       1.273   8.887   3.459  1.00  0.00     0.167 HD
ATOM     76  C   UNL     1       1.976   9.363   6.247  1.00  0.00     0.074 A 
ATOM     77  C   UNL     1       2.351   9.197   7.642  1.00  0.00     0.031 C 
ATOM     78  C   UNL     1       1.857  10.566   5.631  1.00  0.00     0.031 A 
BRANCH  65  79
ATOM     79  C   UNL     1       0.114  10.465  -0.322  1.00  0.00    -0.014 A 
ATOM     80  C   UNL     1      -1.207  10.403  -0.808  1.00  0.00     0.010 A 
ATOM     81  C   UNL     1       1.068  11.218  -1.024  1.00  0.00     0.010 A 
ATOM     82  C   UNL     1      -1.561  11.066  -1.982  1.00  0.00     0.020 A 
ATOM     83  C   UNL     1       0.708  11.919  -2.177  1.00  0.00     0.020 A 
ATOM     84  C   UNL     1      -0.605  11.837  -2.647  1.00  0.00     0.054 A 
BRANCH  84  85
ATOM     85  S   UNL     1      -1.128  12.787  -4.097  1.00  0.00     0.124 S 
ATOM     86  O   UNL     1      -1.413  11.732  -5.066  1.00  0.00    -0.237 OA
ATOM     87  O   UNL     1      -2.294  13.508  -3.592  1.00  0.00    -0.237 OA
ATOM     88  O   UNL     1       0.033  13.618  -4.404  1.00  0.00    -0.744 OA
ENDBRANCH  84  85
ENDBRANCH  65  79
BRANCH  66  89
ATOM     89  C   UNL     1       2.435   4.969   7.934  1.00  0.00    -0.014 A 
ATOM     90  C   UNL     1       1.722   5.082   9.138  1.00  0.00     0.010 A 
ATOM     91  C   UNL     1       3.535   4.090   7.874  1.00  0.00     0.010 A 
ATOM     92  C   UNL     1       2.146   4.397  10.278  1.00  0.00     0.020 A 
ATOM     93  C   UNL     1       3.930   3.361   8.996  1.00  0.00     0.020 A 
ATOM     94  C   UNL     1       3.253   3.548  10.201  1.00  0.00     0.054 A 
BRANCH  94  95
ATOM     95  S   UNL     1       3.807   2.704  11.705  1.00  0.00     0.124 S 
ATOM     96  O   UNL     1       4.308   3.817  12.506  1.00  0.00    -0.237 OA
ATOM     97  O   UNL     1       2.577   2.080  12.183  1.00  0.00    -0.237 OA
ATOM     98  O   UNL     1       4.824   1.774  11.221  1.00  0.00    -0.744 OA
ENDBRANCH  94  95
ENDBRANCH  66  89
BRANCH  78  99
ATOM     99  C   UNL     1       2.064  11.764   6.502  1.00  0.00    -0.014 A 
ATOM    100  C   UNL     1       3.327  12.064   7.038  1.00  0.00     0.010 A 
ATOM    101  C   UNL     1       0.969  12.604   6.766  1.00  0.00     0.010 A 
ATOM    102  C   UNL     1       3.474  13.155   7.887  1.00  0.00     0.020 A 
ATOM    103  C   UNL     1       1.128  13.729   7.565  1.00  0.00     0.020 A 
ATOM    104  C   UNL     1       2.374  13.981   8.141  1.00  0.00     0.054 A 
BRANCH 104 105
ATOM    105  S   UNL     1       2.601  15.404   9.230  1.00  0.00     0.124 S 
ATOM    106  O   UNL     1       2.788  14.763  10.529  1.00  0.00    -0.237 OA
ATOM    107  O   UNL     1       3.786  16.045   8.666  1.00  0.00    -0.237 OA
ATOM    108  O   UNL     1       1.359  16.157   9.080  1.00  0.00    -0.744 OA
ENDBRANCH 104 105
ENDBRANCH  78  99
ENDBRANCH  52  53
ENDBRANCH  45  47
ENDBRANCH  44  45
ENDBRANCH  43  44
ENDBRANCH  42  43
ENDBRANCH  41  42
ENDBRANCH  40  41
ENDBRANCH  39  40
ENDBRANCH   1  39
TORSDOF 29
