REMARK SMILES CC(=O)Nc1ccc(/C(=C\c2ccc(S(C)(=O)=O)cc2)C(=O)OCCOCCOCCOCCOC(=O)c2ccc(-c3c4nc(c(-c5ccc(S(=O)(=O)[O-])cc5)c5ccc([nH]5)c(-c5ccc(S(=O)(=O)[O-])cc5)c5nc(c(-c6ccc(S(=O)(=O)[O-])cc6)c6ccc3[nH]6)C=C5)C=C4)cc2)cc1
REMARK SMILES IDX 30 1 29 2 28 3 27 4 26 5 25 6 24 7 23 8 21 9 22 10 9 11
REMARK SMILES IDX 10 12 8 13 5 14 6 15 99 16 7 17 98 18 4 19 1 20 2 21 3 22
REMARK SMILES IDX 11 24 12 25 20 26 13 27 19 28 14 29 15 30 16 31 17 32 18 33
REMARK SMILES IDX 31 34 32 35 33 36 34 37 35 38 36 39 37 40 38 41 39 42 97 43
REMARK SMILES IDX 40 44 96 45 41 46 42 47 43 48 90 49 44 50 95 51 89 52 91 53
REMARK SMILES IDX 45 54 94 55 88 56 87 57 46 59 76 60 57 61 75 62 58 63 61 64
REMARK SMILES IDX 74 65 92 66 59 67 60 68 73 70 93 71 62 72 47 73 48 74 56 75
REMARK SMILES IDX 49 76 55 77 50 78 51 79 52 80 53 81 54 82 77 83 78 84 86 85
REMARK SMILES IDX 79 86 85 87 80 88 81 89 82 90 83 91 84 92 63 93 64 94 72 95
REMARK SMILES IDX 65 96 71 97 66 98 67 99 68 100 69 101 70 102
REMARK H PARENT 4 23 91 58 61 69
REMARK Flexibility Score: inf
ROOT
ATOM      1  C   UNL     1       5.503   4.144  -5.941  1.00  0.00     0.188 C 
ENDROOT
BRANCH   1   2
ATOM      2  O   UNL     1       4.611   3.047  -6.111  1.00  0.00    -0.377 OA
BRANCH   2   3
ATOM      3  C   UNL     1       4.218   2.291  -4.977  1.00  0.00     0.188 C 
BRANCH   3   4
ATOM      4  C   UNL     1       5.236   2.000  -3.857  1.00  0.00     0.188 C 
BRANCH   4   5
ATOM      5  O   UNL     1       6.524   2.561  -4.041  1.00  0.00    -0.376 OA
BRANCH   5   6
ATOM      6  C   UNL     1       7.598   1.665  -4.277  1.00  0.00     0.202 C 
BRANCH   6   7
ATOM      7  C   UNL     1       7.544   0.861  -5.583  1.00  0.00     0.261 C 
BRANCH   7   8
ATOM      8  O   UNL     1       6.297   0.194  -5.831  1.00  0.00    -0.460 OA
BRANCH   8   9
ATOM      9  C   UNL     1       6.018  -0.935  -5.132  1.00  0.00     0.338 C 
ATOM     10  O   UNL     1       6.758  -1.459  -4.314  1.00  0.00    -0.246 OA
BRANCH   9  11
ATOM     11  C   UNL     1       4.585  -1.347  -5.377  1.00  0.00     0.067 C 
ATOM     12  C   UNL     1       4.164  -1.182  -6.659  1.00  0.00     0.024 C 
BRANCH  11  13
ATOM     13  C   UNL     1       3.728  -1.781  -4.220  1.00  0.00    -0.011 A 
ATOM     14  C   UNL     1       1.836  -2.119  -2.105  1.00  0.00     0.041 A 
ATOM     15  C   UNL     1       1.707  -2.818  -3.305  1.00  0.00     0.027 A 
ATOM     16  C   UNL     1       2.988  -1.374  -1.909  1.00  0.00     0.027 A 
ATOM     17  C   UNL     1       2.648  -2.662  -4.338  1.00  0.00     0.011 A 
ATOM     18  C   UNL     1       3.927  -1.234  -2.942  1.00  0.00     0.011 A 
BRANCH  14  19
ATOM     19  N   UNL     1       0.827  -2.279  -1.143  1.00  0.00    -0.326 N 
ATOM     20  C   UNL     1       0.962  -0.113   0.093  1.00  0.00     0.114 C 
ATOM     21  C   UNL     1       0.464  -1.525  -0.064  1.00  0.00     0.221 C 
ATOM     22  O   UNL     1      -0.338  -1.996   0.747  1.00  0.00    -0.275 OA
ATOM     23  H   UNL     1       0.277  -3.086  -1.270  1.00  0.00     0.169 HD
ENDBRANCH  14  19
ENDBRANCH  11  13
BRANCH  12  24
ATOM     24  C   UNL     1       2.864  -1.554  -7.234  1.00  0.00    -0.025 A 
ATOM     25  C   UNL     1       2.868  -2.632  -8.129  1.00  0.00     0.009 A 
ATOM     26  C   UNL     1       1.646  -1.009  -6.805  1.00  0.00     0.009 A 
ATOM     27  C   UNL     1       1.678  -3.275  -8.455  1.00  0.00     0.021 A 
ATOM     28  C   UNL     1       0.447  -1.656  -7.123  1.00  0.00     0.021 A 
ATOM     29  C   UNL     1       0.480  -2.816  -7.905  1.00  0.00     0.067 A 
BRANCH  29  30
ATOM     30  S   UNL     1      -0.954  -3.857  -8.029  1.00  0.00     0.175 S 
ATOM     31  C   UNL     1      -1.457  -3.722  -9.719  1.00  0.00     0.163 C 
ATOM     32  O   UNL     1      -0.502  -5.217  -7.798  1.00  0.00    -0.224 OA
ATOM     33  O   UNL     1      -1.996  -3.281  -7.200  1.00  0.00    -0.224 OA
ENDBRANCH  29  30
ENDBRANCH  12  24
ENDBRANCH   9  11
ENDBRANCH   8   9
ENDBRANCH   7   8
ENDBRANCH   6   7
ENDBRANCH   5   6
ENDBRANCH   4   5
ENDBRANCH   3   4
ENDBRANCH   2   3
ENDBRANCH   1   2
BRANCH   1  34
ATOM     34  C   UNL     1       5.423   5.021  -4.668  1.00  0.00     0.188 C 
BRANCH  34  35
ATOM     35  O   UNL     1       4.378   4.672  -3.772  1.00  0.00    -0.376 OA
BRANCH  35  36
ATOM     36  C   UNL     1       3.255   5.534  -3.710  1.00  0.00     0.202 C 
BRANCH  36  37
ATOM     37  C   UNL     1       2.409   5.669  -4.983  1.00  0.00     0.261 C 
BRANCH  37  38
ATOM     38  O   UNL     1       3.110   6.042  -6.177  1.00  0.00    -0.460 OA
BRANCH  38  39
ATOM     39  C   UNL     1       3.702   7.256  -6.207  1.00  0.00     0.338 C 
ATOM     40  O   UNL     1       3.712   8.092  -5.320  1.00  0.00    -0.246 OA
BRANCH  39  41
ATOM     41  C   UNL     1       4.508   7.313  -7.444  1.00  0.00     0.060 A 
ATOM     42  C   UNL     1       5.899   7.471  -7.360  1.00  0.00     0.016 A 
ATOM     43  C   UNL     1       3.884   7.162  -8.683  1.00  0.00     0.016 A 
ATOM     44  C   UNL     1       6.669   7.496  -8.525  1.00  0.00     0.010 A 
ATOM     45  C   UNL     1       4.651   7.214  -9.847  1.00  0.00     0.010 A 
ATOM     46  C   UNL     1       6.042   7.409  -9.774  1.00  0.00    -0.014 A 
BRANCH  46  47
ATOM     47  C   UNL     1       6.786   7.733 -11.014  1.00  0.00     0.031 A 
ATOM     48  C   UNL     1       6.657   9.127 -11.565  1.00  0.00     0.074 A 
ATOM     49  C   UNL     1       7.532   6.815 -11.653  1.00  0.00     0.049 A 
ATOM     50  N   UNL     1       7.105   9.620 -12.688  1.00  0.00    -0.248 NA
ATOM     51  C   UNL     1       5.911  10.090 -10.736  1.00  0.00     0.031 C 
ATOM     52  C   UNL     1       7.775   5.449 -11.193  1.00  0.00     0.029 A 
ATOM     53  N   UNL     1       8.210   6.896 -12.844  1.00  0.00    -0.354 N 
ATOM     54  C   UNL     1       6.681  10.944 -12.710  1.00  0.00     0.074 A 
ATOM     55  C   UNL     1       5.921  11.170 -11.502  1.00  0.00     0.031 C 
ATOM     56  C   UNL     1       8.535   4.813 -12.104  1.00  0.00     0.029 A 
ATOM     57  C   UNL     1       8.793   5.711 -13.229  1.00  0.00     0.049 A 
ATOM     58  H   UNL     1       8.272   7.724 -13.373  1.00  0.00     0.167 HD
ATOM     59  C   UNL     1       6.905  11.887 -13.655  1.00  0.00     0.031 A 
ATOM     60  C   UNL     1       9.430   5.383 -14.371  1.00  0.00     0.031 A 
ATOM     61  C   UNL     1       7.644  11.649 -14.864  1.00  0.00     0.049 A 
ATOM     62  C   UNL     1       9.594   6.426 -15.450  1.00  0.00     0.074 A 
ATOM     63  C   UNL     1       7.938  12.541 -15.880  1.00  0.00     0.029 A 
ATOM     64  N   UNL     1       8.197  10.430 -15.227  1.00  0.00    -0.354 N 
ATOM     65  N   UNL     1       9.208   7.680 -15.451  1.00  0.00    -0.248 NA
ATOM     66  C   UNL     1      10.281   6.009 -16.681  1.00  0.00     0.031 C 
ATOM     67  C   UNL     1       8.612  11.844 -16.887  1.00  0.00     0.029 A 
ATOM     68  C   UNL     1       8.805  10.538 -16.465  1.00  0.00     0.049 A 
ATOM     69  H   UNL     1       8.162   9.610 -14.684  1.00  0.00     0.167 HD
ATOM     70  C   UNL     1       9.637   8.210 -16.665  1.00  0.00     0.074 A 
ATOM     71  C   UNL     1      10.317   7.143 -17.369  1.00  0.00     0.031 C 
ATOM     72  C   UNL     1       9.487   9.468 -17.149  1.00  0.00     0.031 A 
BRANCH  59  73
ATOM     73  C   UNL     1       6.303  13.249 -13.435  1.00  0.00    -0.014 A 
ATOM     74  C   UNL     1       6.782  14.107 -12.430  1.00  0.00     0.010 A 
ATOM     75  C   UNL     1       5.260  13.688 -14.271  1.00  0.00     0.010 A 
ATOM     76  C   UNL     1       6.205  15.366 -12.241  1.00  0.00     0.020 A 
ATOM     77  C   UNL     1       4.702  14.958 -14.106  1.00  0.00     0.020 A 
ATOM     78  C   UNL     1       5.168  15.783 -13.081  1.00  0.00     0.054 A 
BRANCH  78  79
ATOM     79  S   UNL     1       4.457  17.432 -12.829  1.00  0.00     0.124 S 
ATOM     80  O   UNL     1       3.727  17.257 -11.575  1.00  0.00    -0.237 OA
ATOM     81  O   UNL     1       5.642  18.282 -12.752  1.00  0.00    -0.237 OA
ATOM     82  O   UNL     1       3.622  17.635 -14.010  1.00  0.00    -0.744 OA
ENDBRANCH  78  79
ENDBRANCH  59  73
BRANCH  60  83
ATOM     83  C   UNL     1       9.939   3.997 -14.571  1.00  0.00    -0.014 A 
ATOM     84  C   UNL     1      11.320   3.739 -14.627  1.00  0.00     0.010 A 
ATOM     85  C   UNL     1       9.040   2.924 -14.712  1.00  0.00     0.010 A 
ATOM     86  C   UNL     1      11.791   2.438 -14.833  1.00  0.00     0.020 A 
ATOM     87  C   UNL     1       9.507   1.618 -14.887  1.00  0.00     0.020 A 
ATOM     88  C   UNL     1      10.881   1.385 -14.956  1.00  0.00     0.054 A 
BRANCH  88  89
ATOM     89  S   UNL     1      11.517  -0.302 -15.166  1.00  0.00     0.124 S 
ATOM     90  O   UNL     1      12.037  -0.265 -16.528  1.00  0.00    -0.237 OA
ATOM     91  O   UNL     1      12.519  -0.392 -14.106  1.00  0.00    -0.237 OA
ATOM     92  O   UNL     1      10.336  -1.140 -14.968  1.00  0.00    -0.744 OA
ENDBRANCH  88  89
ENDBRANCH  60  83
BRANCH  72  93
ATOM     93  C   UNL     1      10.109   9.790 -18.484  1.00  0.00    -0.014 A 
ATOM     94  C   UNL     1       9.568   9.300 -19.685  1.00  0.00     0.010 A 
ATOM     95  C   UNL     1      11.201  10.677 -18.537  1.00  0.00     0.010 A 
ATOM     96  C   UNL     1      10.117   9.679 -20.913  1.00  0.00     0.020 A 
ATOM     97  C   UNL     1      11.734  11.082 -19.763  1.00  0.00     0.020 A 
ATOM     98  C   UNL     1      11.193  10.573 -20.945  1.00  0.00     0.054 A 
BRANCH  98  99
ATOM     99  S   UNL     1      11.840  11.104 -22.554  1.00  0.00     0.124 S 
ATOM    100  O   UNL     1      12.511   9.895 -23.026  1.00  0.00    -0.237 OA
ATOM    101  O   UNL     1      10.627  11.474 -23.279  1.00  0.00    -0.237 OA
ATOM    102  O   UNL     1      12.726  12.217 -22.223  1.00  0.00    -0.744 OA
ENDBRANCH  98  99
ENDBRANCH  72  93
ENDBRANCH  46  47
ENDBRANCH  39  41
ENDBRANCH  38  39
ENDBRANCH  37  38
ENDBRANCH  36  37
ENDBRANCH  35  36
ENDBRANCH  34  35
ENDBRANCH   1  34
TORSDOF 27
