REMARK SMILES Cc1cc(C)c(NS(=O)(=O)c2cccc3cc(C)cnc23)c(C(=O)OCCOCCOCCOCCOC(=O)c2ccc(-c3c4nc(c(-c5ccc(S(=O)(=O)[O-])cc5)c5ccc([nH]5)c(-c5ccc(S(=O)(=O)[O-])cc5)c5nc(c(-c6ccc(S(=O)(=O)[O-])cc6)c6ccc3[nH]6)C=C5)C=C4)cc2)c1
REMARK SMILES IDX 31 1 30 2 29 3 28 4 27 5 26 6 25 7 23 8 24 9 22 10 1 11 2 12
REMARK SMILES IDX 3 13 100 14 4 15 5 16 6 17 7 18 8 20 9 21 10 22 11 23 12 24
REMARK SMILES IDX 21 25 13 26 15 27 20 28 14 29 16 30 19 31 17 32 18 33 32 34
REMARK SMILES IDX 33 35 34 36 35 37 36 38 37 39 38 40 39 41 40 42 41 43 99 44
REMARK SMILES IDX 42 45 98 46 43 47 44 48 45 49 92 50 46 51 97 52 91 53 93 54
REMARK SMILES IDX 47 55 96 56 90 57 89 58 48 60 78 61 59 62 77 63 60 64 63 65
REMARK SMILES IDX 76 66 94 67 61 68 62 69 75 71 95 72 64 73 49 74 50 75 58 76
REMARK SMILES IDX 51 77 57 78 52 79 53 80 54 81 55 82 56 83 79 84 80 85 88 86
REMARK SMILES IDX 81 87 87 88 82 89 83 90 84 91 85 92 86 93 65 94 66 95 74 96
REMARK SMILES IDX 67 97 73 98 68 99 69 100 70 101 71 102 72 103
REMARK H PARENT 7 19 93 59 63 70
REMARK Flexibility Score: inf
ROOT
ATOM      1  O   UNL     1       1.148  -3.939   2.382  1.00  0.00    -0.377 OA
ENDROOT
BRANCH   1   2
ATOM      2  C   UNL     1      -0.161  -3.479   2.076  1.00  0.00     0.188 C 
BRANCH   2   3
ATOM      3  C   UNL     1      -1.146  -4.430   1.362  1.00  0.00     0.188 C 
BRANCH   3   4
ATOM      4  O   UNL     1      -0.643  -5.735   1.120  1.00  0.00    -0.376 OA
BRANCH   4   5
ATOM      5  C   UNL     1      -0.375  -6.103  -0.220  1.00  0.00     0.202 C 
BRANCH   5   6
ATOM      6  C   UNL     1       0.803  -5.391  -0.891  1.00  0.00     0.261 C 
BRANCH   6   7
ATOM      7  O   UNL     1       0.803  -3.960  -0.800  1.00  0.00    -0.460 OA
BRANCH   7   8
ATOM      8  C   UNL     1      -0.194  -3.286  -1.411  1.00  0.00     0.340 C 
ATOM      9  O   UNL     1      -1.140  -3.776  -2.004  1.00  0.00    -0.246 OA
BRANCH   8  10
ATOM     10  C   UNL     1      -0.017  -1.829  -1.198  1.00  0.00     0.084 A 
ATOM     11  C   UNL     1       2.830   0.619  -0.745  1.00  0.00     0.044 C 
ATOM     12  C   UNL     1       1.483   0.061  -1.093  1.00  0.00    -0.050 A 
ATOM     13  C   UNL     1       0.406   0.874  -1.460  1.00  0.00     0.009 A 
ATOM     14  C   UNL     1       1.277  -1.312  -1.053  1.00  0.00     0.021 A 
ATOM     15  C   UNL     1      -0.898   0.348  -1.604  1.00  0.00    -0.026 A 
ATOM     16  C   UNL     1      -1.933   1.175  -2.306  1.00  0.00     0.046 C 
ATOM     17  C   UNL     1      -1.143  -0.976  -1.234  1.00  0.00     0.066 A 
BRANCH  17  18
ATOM     18  N   UNL     1      -2.212  -1.348  -0.327  1.00  0.00    -0.278 N 
ATOM     19  H   UNL     1      -2.016  -2.153   0.205  1.00  0.00     0.180 HD
BRANCH  18  20
ATOM     20  S   UNL     1      -3.703  -0.686  -0.007  1.00  0.00     0.264 S 
ATOM     21  O   UNL     1      -4.418  -0.668  -1.270  1.00  0.00    -0.201 OA
ATOM     22  O   UNL     1      -4.243  -1.459   1.096  1.00  0.00    -0.201 OA
BRANCH  20  23
ATOM     23  C   UNL     1      -3.646   0.990   0.566  1.00  0.00     0.114 A 
ATOM     24  C   UNL     1      -4.767   1.768   0.197  1.00  0.00     0.024 A 
ATOM     25  C   UNL     1      -2.481   1.566   1.062  1.00  0.00     0.091 A 
ATOM     26  C   UNL     1      -4.693   3.151   0.192  1.00  0.00     0.002 A 
ATOM     27  C   UNL     1      -2.389   2.975   0.933  1.00  0.00     0.002 A 
ATOM     28  N   UNL     1      -1.450   0.854   1.563  1.00  0.00    -0.255 NA
ATOM     29  C   UNL     1      -3.486   3.752   0.516  1.00  0.00     0.010 A 
ATOM     30  C   UNL     1      -1.145   3.583   1.133  1.00  0.00     0.015 A 
ATOM     31  C   UNL     1      -0.270   1.481   1.782  1.00  0.00     0.115 A 
ATOM     32  C   UNL     1      -0.043   2.818   1.504  1.00  0.00    -0.032 A 
ATOM     33  C   UNL     1       1.330   3.409   1.515  1.00  0.00     0.046 C 
ENDBRANCH  20  23
ENDBRANCH  18  20
ENDBRANCH  17  18
ENDBRANCH   8  10
ENDBRANCH   7   8
ENDBRANCH   6   7
ENDBRANCH   5   6
ENDBRANCH   4   5
ENDBRANCH   3   4
ENDBRANCH   2   3
ENDBRANCH   1   2
BRANCH   1  34
ATOM     34  C   UNL     1       1.331  -5.253   2.905  1.00  0.00     0.188 C 
BRANCH  34  35
ATOM     35  C   UNL     1       0.211  -5.962   3.705  1.00  0.00     0.188 C 
BRANCH  35  36
ATOM     36  O   UNL     1      -0.892  -5.136   4.037  1.00  0.00    -0.376 OA
BRANCH  36  37
ATOM     37  C   UNL     1      -1.044  -4.743   5.387  1.00  0.00     0.202 C 
BRANCH  37  38
ATOM     38  C   UNL     1       0.059  -3.848   5.964  1.00  0.00     0.261 C 
BRANCH  38  39
ATOM     39  O   UNL     1       1.397  -4.360   5.874  1.00  0.00    -0.460 OA
BRANCH  39  40
ATOM     40  C   UNL     1       1.668  -5.513   6.531  1.00  0.00     0.338 C 
ATOM     41  O   UNL     1       0.908  -6.166   7.217  1.00  0.00    -0.246 OA
BRANCH  40  42
ATOM     42  C   UNL     1       3.012  -5.950   6.096  1.00  0.00     0.060 A 
ATOM     43  C   UNL     1       3.160  -7.188   5.455  1.00  0.00     0.016 A 
ATOM     44  C   UNL     1       4.114  -5.118   6.298  1.00  0.00     0.016 A 
ATOM     45  C   UNL     1       4.423  -7.610   5.040  1.00  0.00     0.010 A 
ATOM     46  C   UNL     1       5.380  -5.552   5.906  1.00  0.00     0.010 A 
ATOM     47  C   UNL     1       5.544  -6.813   5.307  1.00  0.00    -0.014 A 
BRANCH  47  48
ATOM     48  C   UNL     1       6.904  -7.383   5.167  1.00  0.00     0.031 A 
ATOM     49  C   UNL     1       7.561  -7.945   6.398  1.00  0.00     0.074 A 
ATOM     50  C   UNL     1       7.541  -7.407   3.983  1.00  0.00     0.049 A 
ATOM     51  N   UNL     1       8.760  -8.443   6.545  1.00  0.00    -0.248 NA
ATOM     52  C   UNL     1       6.754  -7.938   7.630  1.00  0.00     0.031 C 
ATOM     53  C   UNL     1       6.991  -6.935   2.714  1.00  0.00     0.029 A 
ATOM     54  N   UNL     1       8.803  -7.844   3.665  1.00  0.00    -0.354 N 
ATOM     55  C   UNL     1       8.855  -8.800   7.885  1.00  0.00     0.074 A 
ATOM     56  C   UNL     1       7.606  -8.432   8.514  1.00  0.00     0.031 C 
ATOM     57  C   UNL     1       7.919  -7.096   1.753  1.00  0.00     0.029 A 
ATOM     58  C   UNL     1       9.137  -7.647   2.347  1.00  0.00     0.049 A 
ATOM     59  H   UNL     1       9.411  -8.258   4.319  1.00  0.00     0.167 HD
ATOM     60  C   UNL     1       9.888  -9.388   8.534  1.00  0.00     0.031 A 
ATOM     61  C   UNL     1      10.300  -7.865   1.701  1.00  0.00     0.031 A 
ATOM     62  C   UNL     1      11.138  -9.727   7.909  1.00  0.00     0.049 A 
ATOM     63  C   UNL     1      11.468  -8.443   2.460  1.00  0.00     0.074 A 
ATOM     64  C   UNL     1      12.247 -10.329   8.475  1.00  0.00     0.029 A 
ATOM     65  N   UNL     1      11.449  -9.482   6.579  1.00  0.00    -0.354 N 
ATOM     66  N   UNL     1      11.539  -8.797   3.722  1.00  0.00    -0.248 NA
ATOM     67  C   UNL     1      12.711  -8.658   1.705  1.00  0.00     0.031 C 
ATOM     68  C   UNL     1      13.252 -10.390   7.504  1.00  0.00     0.029 A 
ATOM     69  C   UNL     1      12.744  -9.893   6.313  1.00  0.00     0.049 A 
ATOM     70  H   UNL     1      10.839  -9.075   5.922  1.00  0.00     0.167 HD
ATOM     71  C   UNL     1      12.822  -9.305   3.904  1.00  0.00     0.074 A 
ATOM     72  C   UNL     1      13.488  -9.221   2.620  1.00  0.00     0.031 C 
ATOM     73  C   UNL     1      13.395  -9.799   5.030  1.00  0.00     0.031 A 
BRANCH  60  74
ATOM     74  C   UNL     1       9.715  -9.654  10.006  1.00  0.00    -0.014 A 
ATOM     75  C   UNL     1       8.812 -10.626  10.473  1.00  0.00     0.010 A 
ATOM     76  C   UNL     1      10.475  -8.924  10.937  1.00  0.00     0.010 A 
ATOM     77  C   UNL     1       8.637 -10.829  11.845  1.00  0.00     0.020 A 
ATOM     78  C   UNL     1      10.327  -9.146  12.309  1.00  0.00     0.020 A 
ATOM     79  C   UNL     1       9.394 -10.083  12.754  1.00  0.00     0.054 A 
BRANCH  79  80
ATOM     80  S   UNL     1       9.152 -10.371  14.528  1.00  0.00     0.124 S 
ATOM     81  O   UNL     1       7.836  -9.777  14.753  1.00  0.00    -0.237 OA
ATOM     82  O   UNL     1       9.209 -11.827  14.627  1.00  0.00    -0.237 OA
ATOM     83  O   UNL     1      10.268  -9.663  15.151  1.00  0.00    -0.744 OA
ENDBRANCH  79  80
ENDBRANCH  60  74
BRANCH  61  84
ATOM     84  C   UNL     1      10.423  -7.513   0.259  1.00  0.00    -0.014 A 
ATOM     85  C   UNL     1      10.548  -8.515  -0.720  1.00  0.00     0.010 A 
ATOM     86  C   UNL     1      10.402  -6.165  -0.145  1.00  0.00     0.010 A 
ATOM     87  C   UNL     1      10.654  -8.175  -2.072  1.00  0.00     0.020 A 
ATOM     88  C   UNL     1      10.479  -5.823  -1.497  1.00  0.00     0.020 A 
ATOM     89  C   UNL     1      10.611  -6.831  -2.453  1.00  0.00     0.054 A 
BRANCH  89  90
ATOM     90  S   UNL     1      10.677  -6.419  -4.219  1.00  0.00     0.124 S 
ATOM     91  O   UNL     1      12.066  -6.717  -4.551  1.00  0.00    -0.237 OA
ATOM     92  O   UNL     1       9.680  -7.322  -4.789  1.00  0.00    -0.237 OA
ATOM     93  O   UNL     1      10.314  -5.003  -4.254  1.00  0.00    -0.744 OA
ENDBRANCH  89  90
ENDBRANCH  61  84
BRANCH  73  94
ATOM     94  C   UNL     1      14.803 -10.328   4.924  1.00  0.00    -0.014 A 
ATOM     95  C   UNL     1      15.901  -9.465   4.751  1.00  0.00     0.010 A 
ATOM     96  C   UNL     1      15.035 -11.709   5.066  1.00  0.00     0.010 A 
ATOM     97  C   UNL     1      17.200  -9.979   4.691  1.00  0.00     0.020 A 
ATOM     98  C   UNL     1      16.334 -12.222   5.038  1.00  0.00     0.020 A 
ATOM     99  C   UNL     1      17.408 -11.354   4.836  1.00  0.00     0.054 A 
BRANCH  99 100
ATOM    100  S   UNL     1      19.107 -11.988   4.798  1.00  0.00     0.124 S 
ATOM    101  O   UNL     1      19.454 -11.847   3.387  1.00  0.00    -0.237 OA
ATOM    102  O   UNL     1      19.806 -11.086   5.710  1.00  0.00    -0.237 OA
ATOM    103  O   UNL     1      18.975 -13.364   5.272  1.00  0.00    -0.744 OA
ENDBRANCH  99 100
ENDBRANCH  73  94
ENDBRANCH  47  48
ENDBRANCH  40  42
ENDBRANCH  39  40
ENDBRANCH  38  39
ENDBRANCH  37  38
ENDBRANCH  36  37
ENDBRANCH  35  36
ENDBRANCH  34  35
ENDBRANCH   1  34
TORSDOF 26
