REMARK SMILES COc1c(C)cc(Br)cc1C(=O)Nc1ccc(O)c(C(=O)OCCOCCOCCOCCOC(=O)c2ccc(-c3c4nc(c(-c5ccc(S(=O)(=O)[O-])cc5)c5ccc([nH]5)c(-c5ccc(S(=O)(=O)[O-])cc5)c5nc(c(-c6ccc(S(=O)(=O)[O-])cc6)c6ccc3[nH]6)C=C5)C=C4)cc2)c1
REMARK SMILES IDX 28 1 27 2 26 3 25 4 24 5 23 6 22 7 20 8 21 9 19 10 14 11
REMARK SMILES IDX 15 12 97 13 16 14 17 15 13 16 11 17 12 18 10 20 3 21 4 22
REMARK SMILES IDX 5 23 6 24 9 25 7 26 8 27 2 28 1 29 18 30 29 32 30 33 31 34
REMARK SMILES IDX 32 35 33 36 34 37 35 38 36 39 37 40 38 41 96 42 39 43 95 44
REMARK SMILES IDX 40 45 41 46 42 47 89 48 43 49 94 50 88 51 90 52 44 53 93 54
REMARK SMILES IDX 87 55 86 56 45 58 75 59 56 60 74 61 57 62 60 63 73 64 91 65
REMARK SMILES IDX 58 66 59 67 72 69 92 70 61 71 46 72 47 73 55 74 48 75 54 76
REMARK SMILES IDX 49 77 50 78 51 79 52 80 53 81 76 82 77 83 85 84 78 85 84 86
REMARK SMILES IDX 79 87 80 88 81 89 82 90 83 91 62 92 63 93 71 94 64 95 70 96
REMARK SMILES IDX 65 97 66 98 67 99 68 100 69 101
REMARK H PARENT 13 19 18 31 90 57 60 68
REMARK Flexibility Score: inf
ROOT
ATOM      1  O   UNL     1      -0.665  -2.109  -5.174  1.00  0.00    -0.377 OA
ENDROOT
BRANCH   1   2
ATOM      2  C   UNL     1      -0.615  -0.846  -4.523  1.00  0.00     0.188 C 
BRANCH   2   3
ATOM      3  C   UNL     1      -1.079   0.430  -5.261  1.00  0.00     0.188 C 
BRANCH   3   4
ATOM      4  O   UNL     1      -0.528   0.540  -6.564  1.00  0.00    -0.376 OA
BRANCH   4   5
ATOM      5  C   UNL     1       0.499   1.454  -6.888  1.00  0.00     0.202 C 
BRANCH   5   6
ATOM      6  C   UNL     1       1.819   1.454  -6.110  1.00  0.00     0.261 C 
BRANCH   6   7
ATOM      7  O   UNL     1       1.673   1.173  -4.724  1.00  0.00    -0.460 OA
BRANCH   7   8
ATOM      8  C   UNL     1       1.499   2.172  -3.834  1.00  0.00     0.342 C 
ATOM      9  O   UNL     1       1.458   3.365  -4.074  1.00  0.00    -0.246 OA
BRANCH   8  10
ATOM     10  C   UNL     1       1.034   1.524  -2.576  1.00  0.00     0.103 A 
ATOM     11  C   UNL     1      -0.677   1.413  -0.900  1.00  0.00     0.042 A 
ATOM     12  C   UNL     1      -0.489   0.033  -0.790  1.00  0.00     0.030 A 
ATOM     13  C   UNL     1      -0.002   2.145  -1.871  1.00  0.00     0.045 A 
ATOM     14  C   UNL     1       0.609  -0.558  -1.414  1.00  0.00     0.049 A 
ATOM     15  C   UNL     1       1.426   0.220  -2.229  1.00  0.00     0.130 A 
BRANCH  11  16
ATOM     16  N   UNL     1      -1.547   2.046  -0.018  1.00  0.00    -0.322 N 
ATOM     17  C   UNL     1      -1.354   2.297   1.332  1.00  0.00     0.259 C 
ATOM     18  O   UNL     1      -2.359   2.550   2.006  1.00  0.00    -0.269 OA
ATOM     19  H   UNL     1      -2.402   2.352  -0.398  1.00  0.00     0.170 HD
BRANCH  17  20
ATOM     20  C   UNL     1      -0.001   2.497   1.970  1.00  0.00     0.083 A 
ATOM     21  C   UNL     1       1.210   1.859   1.669  1.00  0.00     0.134 A 
ATOM     22  C   UNL     1       2.449   2.376   2.092  1.00  0.00    -0.007 A 
ATOM     23  C   UNL     1       3.739   1.881   1.495  1.00  0.00     0.048 C 
ATOM     24  C   UNL     1       2.458   3.338   3.099  1.00  0.00     0.023 A 
ATOM     25  C   UNL     1       0.041   3.465   2.989  1.00  0.00     0.033 A 
ATOM     26  C   UNL     1       1.251   3.834   3.581  1.00  0.00     0.019 A 
ATOM     27  Br  UNL     1       1.256   5.035   5.040  1.00  0.00    -0.051 Br
BRANCH  21  28
ATOM     28  O   UNL     1       1.248   0.658   1.035  1.00  0.00    -0.496 OA
ATOM     29  C   UNL     1       1.430  -0.429   1.945  1.00  0.00     0.278 C 
ENDBRANCH  21  28
ENDBRANCH  17  20
ENDBRANCH  11  16
BRANCH  15  30
ATOM     30  O   UNL     1       2.571  -0.320  -2.742  1.00  0.00    -0.507 OA
ATOM     31  H   UNL     1       2.826  -1.190  -2.505  1.00  0.00     0.293 HD
ENDBRANCH  15  30
ENDBRANCH   8  10
ENDBRANCH   7   8
ENDBRANCH   6   7
ENDBRANCH   5   6
ENDBRANCH   4   5
ENDBRANCH   3   4
ENDBRANCH   2   3
ENDBRANCH   1   2
BRANCH   1  32
ATOM     32  C   UNL     1      -0.082  -2.122  -6.474  1.00  0.00     0.188 C 
BRANCH  32  33
ATOM     33  C   UNL     1      -1.164  -1.948  -7.552  1.00  0.00     0.188 C 
BRANCH  33  34
ATOM     34  O   UNL     1      -2.404  -1.489  -7.035  1.00  0.00    -0.376 OA
BRANCH  34  35
ATOM     35  C   UNL     1      -3.322  -2.408  -6.462  1.00  0.00     0.202 C 
BRANCH  35  36
ATOM     36  C   UNL     1      -2.947  -3.718  -5.730  1.00  0.00     0.261 C 
BRANCH  36  37
ATOM     37  O   UNL     1      -1.802  -4.461  -6.161  1.00  0.00    -0.460 OA
BRANCH  37  38
ATOM     38  C   UNL     1      -1.850  -5.071  -7.366  1.00  0.00     0.338 C 
ATOM     39  O   UNL     1      -2.776  -5.086  -8.143  1.00  0.00    -0.246 OA
BRANCH  38  40
ATOM     40  C   UNL     1      -0.469  -5.537  -7.652  1.00  0.00     0.060 A 
ATOM     41  C   UNL     1       0.202  -5.018  -8.767  1.00  0.00     0.016 A 
ATOM     42  C   UNL     1       0.174  -6.437  -6.798  1.00  0.00     0.016 A 
ATOM     43  C   UNL     1       1.510  -5.413  -9.044  1.00  0.00     0.010 A 
ATOM     44  C   UNL     1       1.474  -6.860  -7.097  1.00  0.00     0.010 A 
ATOM     45  C   UNL     1       2.136  -6.371  -8.237  1.00  0.00    -0.014 A 
BRANCH  45  46
ATOM     46  C   UNL     1       3.393  -7.005  -8.701  1.00  0.00     0.031 A 
ATOM     47  C   UNL     1       3.297  -8.327  -9.413  1.00  0.00     0.074 A 
ATOM     48  C   UNL     1       4.588  -6.414  -8.521  1.00  0.00     0.049 A 
ATOM     49  N   UNL     1       4.252  -9.088  -9.877  1.00  0.00    -0.248 NA
ATOM     50  C   UNL     1       1.941  -8.861  -9.629  1.00  0.00     0.031 C 
ATOM     51  C   UNL     1       4.804  -5.113  -7.890  1.00  0.00     0.029 A 
ATOM     52  N   UNL     1       5.850  -6.843  -8.850  1.00  0.00    -0.354 N 
ATOM     53  C   UNL     1       3.616 -10.198 -10.423  1.00  0.00     0.074 A 
ATOM     54  C   UNL     1       2.196 -10.021 -10.216  1.00  0.00     0.031 C 
ATOM     55  C   UNL     1       6.124  -4.858  -7.862  1.00  0.00     0.029 A 
ATOM     56  C   UNL     1       6.847  -5.991  -8.438  1.00  0.00     0.049 A 
ATOM     57  H   UNL     1       6.024  -7.682  -9.334  1.00  0.00     0.167 HD
ATOM     58  C   UNL     1       4.167 -11.269 -11.039  1.00  0.00     0.031 A 
ATOM     59  C   UNL     1       8.188  -6.125  -8.494  1.00  0.00     0.031 A 
ATOM     60  C   UNL     1       5.581 -11.444 -11.235  1.00  0.00     0.049 A 
ATOM     61  C   UNL     1       8.780  -7.361  -9.124  1.00  0.00     0.074 A 
ATOM     62  C   UNL     1       6.235 -12.480 -11.877  1.00  0.00     0.029 A 
ATOM     63  N   UNL     1       6.559 -10.573 -10.779  1.00  0.00    -0.354 N 
ATOM     64  N   UNL     1       8.165  -8.382  -9.675  1.00  0.00    -0.248 NA
ATOM     65  C   UNL     1      10.247  -7.460  -9.149  1.00  0.00     0.031 C 
ATOM     66  C   UNL     1       7.611 -12.275 -11.743  1.00  0.00     0.029 A 
ATOM     67  C   UNL     1       7.813 -11.070 -11.089  1.00  0.00     0.049 A 
ATOM     68  H   UNL     1       6.386  -9.727 -10.306  1.00  0.00     0.167 HD
ATOM     69  C   UNL     1       9.171  -9.229 -10.134  1.00  0.00     0.074 A 
ATOM     70  C   UNL     1      10.431  -8.591  -9.815  1.00  0.00     0.031 C 
ATOM     71  C   UNL     1       9.061 -10.425 -10.764  1.00  0.00     0.031 A 
BRANCH  58  72
ATOM     72  C   UNL     1       3.244 -12.364 -11.505  1.00  0.00    -0.014 A 
ATOM     73  C   UNL     1       2.379 -12.184 -12.599  1.00  0.00     0.010 A 
ATOM     74  C   UNL     1       3.290 -13.617 -10.868  1.00  0.00     0.010 A 
ATOM     75  C   UNL     1       1.561 -13.231 -13.031  1.00  0.00     0.020 A 
ATOM     76  C   UNL     1       2.497 -14.676 -11.316  1.00  0.00     0.020 A 
ATOM     77  C   UNL     1       1.628 -14.472 -12.389  1.00  0.00     0.054 A 
BRANCH  77  78
ATOM     78  S   UNL     1       0.593 -15.827 -13.005  1.00  0.00     0.124 S 
ATOM     79  O   UNL     1      -0.745 -15.386 -12.615  1.00  0.00    -0.237 OA
ATOM     80  O   UNL     1       0.866 -15.811 -14.439  1.00  0.00    -0.237 OA
ATOM     81  O   UNL     1       1.093 -17.000 -12.291  1.00  0.00    -0.744 OA
ENDBRANCH  77  78
ENDBRANCH  58  72
BRANCH  59  82
ATOM     82  C   UNL     1       9.069  -5.082  -7.895  1.00  0.00    -0.014 A 
ATOM     83  C   UNL     1       9.917  -4.297  -8.697  1.00  0.00     0.010 A 
ATOM     84  C   UNL     1       9.076  -4.884  -6.501  1.00  0.00     0.010 A 
ATOM     85  C   UNL     1      10.770  -3.353  -8.115  1.00  0.00     0.020 A 
ATOM     86  C   UNL     1       9.902  -3.919  -5.919  1.00  0.00     0.020 A 
ATOM     87  C   UNL     1      10.754  -3.168  -6.729  1.00  0.00     0.054 A 
BRANCH  87  88
ATOM     88  S   UNL     1      11.838  -1.909  -5.999  1.00  0.00     0.124 S 
ATOM     89  O   UNL     1      13.156  -2.517  -6.152  1.00  0.00    -0.237 OA
ATOM     90  O   UNL     1      11.575  -0.744  -6.840  1.00  0.00    -0.237 OA
ATOM     91  O   UNL     1      11.355  -1.798  -4.624  1.00  0.00    -0.744 OA
ENDBRANCH  87  88
ENDBRANCH  59  82
BRANCH  71  92
ATOM     92  C   UNL     1      10.334 -11.114 -11.187  1.00  0.00    -0.014 A 
ATOM     93  C   UNL     1      11.211 -11.680 -10.245  1.00  0.00     0.010 A 
ATOM     94  C   UNL     1      10.621 -11.254 -12.559  1.00  0.00     0.010 A 
ATOM     95  C   UNL     1      12.368 -12.342 -10.665  1.00  0.00     0.020 A 
ATOM     96  C   UNL     1      11.759 -11.944 -12.983  1.00  0.00     0.020 A 
ATOM     97  C   UNL     1      12.634 -12.472 -12.032  1.00  0.00     0.054 A 
BRANCH  97  98
ATOM     98  S   UNL     1      14.120 -13.373 -12.550  1.00  0.00     0.124 S 
ATOM     99  O   UNL     1      15.184 -12.449 -12.171  1.00  0.00    -0.237 OA
ATOM    100  O   UNL     1      14.041 -14.599 -11.760  1.00  0.00    -0.237 OA
ATOM    101  O   UNL     1      13.934 -13.553 -13.989  1.00  0.00    -0.744 OA
ENDBRANCH  97  98
ENDBRANCH  71  92
ENDBRANCH  45  46
ENDBRANCH  38  40
ENDBRANCH  37  38
ENDBRANCH  36  37
ENDBRANCH  35  36
ENDBRANCH  34  35
ENDBRANCH  33  34
ENDBRANCH  32  33
ENDBRANCH   1  32
TORSDOF 27
