REMARK SMILES O=C(OCCOCCOCCOCCOC(=O)c1ccccc1C(=O)Nc1ccc(Cl)cn1)c1ccc(-c2c3nc(c(-c4ccc(S(=O)(=O)[O-])cc4)c4ccc([nH]4)c(-c4ccc(S(=O)(=O)[O-])cc4)c4nc(c(-c5ccc(S(=O)(=O)[O-])cc5)c5ccc2[nH]5)C=C4)C=C3)cc1
REMARK SMILES IDX 8 1 7 2 6 3 5 4 4 5 3 6 2 7 1 8 34 9 35 10 93 11 36 12 92 13
REMARK SMILES IDX 37 14 38 15 39 16 86 17 40 18 91 19 85 20 87 21 41 22 90 23
REMARK SMILES IDX 84 24 83 25 42 27 72 28 53 29 71 30 54 31 57 32 70 33 88 34
REMARK SMILES IDX 55 35 56 36 69 38 89 39 58 40 43 41 44 42 52 43 45 44 51 45
REMARK SMILES IDX 46 46 47 47 48 48 49 49 50 50 73 51 74 52 82 53 75 54 81 55
REMARK SMILES IDX 76 56 77 57 78 58 79 59 80 60 59 61 60 62 68 63 61 64 67 65
REMARK SMILES IDX 62 66 63 67 64 68 65 69 66 70 9 71 10 72 11 73 12 74 13 75
REMARK SMILES IDX 14 76 15 77 16 78 17 79 18 80 19 81 23 82 20 83 22 84 21 85
REMARK SMILES IDX 24 86 25 87 26 88 27 90 28 91 33 92 29 93 32 94 30 95 31 96
REMARK H PARENT 87 26 57 37 26 89
REMARK Flexibility Score: inf
ROOT
ATOM      1  C   UNL     1       2.888  -2.301  -0.082  1.00  0.00     0.188 C 
ENDROOT
BRANCH   1   2
ATOM      2  C   UNL     1       3.033  -0.843   0.267  1.00  0.00     0.188 C 
BRANCH   2   3
ATOM      3  O   UNL     1       4.339  -0.378   0.045  1.00  0.00    -0.376 OA
BRANCH   3   4
ATOM      4  C   UNL     1       5.173  -0.298   1.193  1.00  0.00     0.202 C 
BRANCH   4   5
ATOM      5  C   UNL     1       4.700   0.767   2.190  1.00  0.00     0.261 C 
BRANCH   5   6
ATOM      6  O   UNL     1       4.484   2.019   1.512  1.00  0.00    -0.460 OA
BRANCH   6   7
ATOM      7  C   UNL     1       3.267   2.165   0.919  1.00  0.00     0.338 C 
ATOM      8  O   UNL     1       2.184   1.944   1.437  1.00  0.00    -0.246 OA
BRANCH   7   9
ATOM      9  C   UNL     1       3.465   2.458  -0.527  1.00  0.00     0.060 A 
ATOM     10  C   UNL     1       4.665   2.054  -1.133  1.00  0.00     0.016 A 
ATOM     11  C   UNL     1       2.450   3.020  -1.309  1.00  0.00     0.016 A 
ATOM     12  C   UNL     1       4.863   2.165  -2.487  1.00  0.00     0.010 A 
ATOM     13  C   UNL     1       2.705   3.281  -2.660  1.00  0.00     0.010 A 
ATOM     14  C   UNL     1       3.935   2.891  -3.221  1.00  0.00    -0.014 A 
BRANCH  14  15
ATOM     15  C   UNL     1       4.523   3.590  -4.372  1.00  0.00     0.031 A 
ATOM     16  C   UNL     1       5.275   4.856  -4.056  1.00  0.00     0.074 A 
ATOM     17  C   UNL     1       4.586   3.008  -5.576  1.00  0.00     0.049 A 
ATOM     18  N   UNL     1       5.924   5.660  -4.850  1.00  0.00    -0.248 NA
ATOM     19  C   UNL     1       5.345   5.241  -2.631  1.00  0.00     0.031 C 
ATOM     20  C   UNL     1       4.078   1.675  -5.902  1.00  0.00     0.029 A 
ATOM     21  N   UNL     1       5.122   3.467  -6.745  1.00  0.00    -0.354 N 
ATOM     22  C   UNL     1       6.452   6.647  -4.025  1.00  0.00     0.074 A 
ATOM     23  C   UNL     1       6.083   6.334  -2.670  1.00  0.00     0.031 C 
ATOM     24  C   UNL     1       4.285   1.446  -7.210  1.00  0.00     0.029 A 
ATOM     25  C   UNL     1       4.886   2.635  -7.810  1.00  0.00     0.049 A 
ATOM     26  H   UNL     1       5.627   4.310  -6.817  1.00  0.00     0.167 HD
ATOM     27  C   UNL     1       7.148   7.748  -4.380  1.00  0.00     0.031 A 
ATOM     28  C   UNL     1       5.078   2.859  -9.124  1.00  0.00     0.031 A 
ATOM     29  C   UNL     1       7.414   8.070  -5.751  1.00  0.00     0.049 A 
ATOM     30  C   UNL     1       5.692   4.174  -9.530  1.00  0.00     0.074 A 
ATOM     31  C   UNL     1       8.011   9.197  -6.274  1.00  0.00     0.029 A 
ATOM     32  N   UNL     1       7.057   7.258  -6.821  1.00  0.00    -0.354 N 
ATOM     33  N   UNL     1       6.120   5.152  -8.762  1.00  0.00    -0.248 NA
ATOM     34  C   UNL     1       5.846   4.425 -10.966  1.00  0.00     0.031 C 
ATOM     35  C   UNL     1       7.939   9.104  -7.667  1.00  0.00     0.029 A 
ATOM     36  C   UNL     1       7.388   7.874  -8.009  1.00  0.00     0.049 A 
ATOM     37  H   UNL     1       6.631   6.374  -6.742  1.00  0.00     0.167 HD
ATOM     38  C   UNL     1       6.623   6.122  -9.620  1.00  0.00     0.074 A 
ATOM     39  C   UNL     1       6.441   5.612 -10.967  1.00  0.00     0.031 C 
ATOM     40  C   UNL     1       7.193   7.319  -9.328  1.00  0.00     0.031 A 
BRANCH  27  41
ATOM     41  C   UNL     1       7.487   8.722  -3.283  1.00  0.00    -0.014 A 
ATOM     42  C   UNL     1       8.406   8.412  -2.262  1.00  0.00     0.010 A 
ATOM     43  C   UNL     1       6.792   9.943  -3.225  1.00  0.00     0.010 A 
ATOM     44  C   UNL     1       8.571   9.275  -1.173  1.00  0.00     0.020 A 
ATOM     45  C   UNL     1       6.980  10.824  -2.159  1.00  0.00     0.020 A 
ATOM     46  C   UNL     1       7.848  10.472  -1.125  1.00  0.00     0.054 A 
BRANCH  46  47
ATOM     47  S   UNL     1       8.053  11.558   0.312  1.00  0.00     0.124 S 
ATOM     48  O   UNL     1       7.387  10.796   1.365  1.00  0.00    -0.237 OA
ATOM     49  O   UNL     1       9.506  11.657   0.432  1.00  0.00    -0.237 OA
ATOM     50  O   UNL     1       7.378  12.791  -0.085  1.00  0.00    -0.744 OA
ENDBRANCH  46  47
ENDBRANCH  27  41
BRANCH  28  51
ATOM     51  C   UNL     1       4.590   1.860 -10.113  1.00  0.00    -0.014 A 
ATOM     52  C   UNL     1       5.475   1.120 -10.912  1.00  0.00     0.010 A 
ATOM     53  C   UNL     1       3.207   1.604 -10.213  1.00  0.00     0.010 A 
ATOM     54  C   UNL     1       4.989   0.133 -11.779  1.00  0.00     0.020 A 
ATOM     55  C   UNL     1       2.720   0.601 -11.054  1.00  0.00     0.020 A 
ATOM     56  C   UNL     1       3.615  -0.129 -11.833  1.00  0.00     0.054 A 
BRANCH  56  57
ATOM     57  S   UNL     1       3.020  -1.480 -12.889  1.00  0.00     0.124 S 
ATOM     58  O   UNL     1       3.272  -0.957 -14.227  1.00  0.00    -0.237 OA
ATOM     59  O   UNL     1       3.866  -2.596 -12.474  1.00  0.00    -0.237 OA
ATOM     60  O   UNL     1       1.611  -1.609 -12.522  1.00  0.00    -0.744 OA
ENDBRANCH  56  57
ENDBRANCH  28  51
BRANCH  40  61
ATOM     61  C   UNL     1       7.724   8.140 -10.468  1.00  0.00    -0.014 A 
ATOM     62  C   UNL     1       6.867   8.850 -11.324  1.00  0.00     0.010 A 
ATOM     63  C   UNL     1       9.116   8.321 -10.573  1.00  0.00     0.010 A 
ATOM     64  C   UNL     1       7.397   9.735 -12.265  1.00  0.00     0.020 A 
ATOM     65  C   UNL     1       9.646   9.229 -11.488  1.00  0.00     0.020 A 
ATOM     66  C   UNL     1       8.782   9.929 -12.330  1.00  0.00     0.054 A 
BRANCH  66  67
ATOM     67  S   UNL     1       9.434  11.168 -13.481  1.00  0.00     0.124 S 
ATOM     68  O   UNL     1       9.194  10.537 -14.775  1.00  0.00    -0.237 OA
ATOM     69  O   UNL     1       8.611  12.339 -13.188  1.00  0.00    -0.237 OA
ATOM     70  O   UNL     1      10.840  11.291 -13.100  1.00  0.00    -0.744 OA
ENDBRANCH  66  67
ENDBRANCH  40  61
ENDBRANCH  14  15
ENDBRANCH   7   9
ENDBRANCH   6   7
ENDBRANCH   5   6
ENDBRANCH   4   5
ENDBRANCH   3   4
ENDBRANCH   2   3
ENDBRANCH   1   2
BRANCH   1  71
ATOM     71  O   UNL     1       3.993  -3.054  -0.584  1.00  0.00    -0.377 OA
BRANCH  71  72
ATOM     72  C   UNL     1       5.134  -2.615  -1.364  1.00  0.00     0.188 C 
BRANCH  72  73
ATOM     73  C   UNL     1       5.372  -2.174  -2.997  1.00  0.00     0.188 C 
BRANCH  73  74
ATOM     74  O   UNL     1       4.618  -2.334  -4.324  1.00  0.00    -0.376 OA
BRANCH  74  75
ATOM     75  C   UNL     1       3.784  -3.443  -5.090  1.00  0.00     0.202 C 
BRANCH  75  76
ATOM     76  C   UNL     1       2.772  -4.886  -4.335  1.00  0.00     0.261 C 
BRANCH  76  77
ATOM     77  O   UNL     1       3.212  -5.472  -2.411  1.00  0.00    -0.460 OA
BRANCH  77  78
ATOM     78  C   UNL     1       4.308  -5.791  -1.478  1.00  0.00     0.339 C 
ATOM     79  O   UNL     1       5.534  -5.727  -1.718  1.00  0.00    -0.246 OA
BRANCH  78  80
ATOM     80  C   UNL     1       4.139  -6.530  -0.259  1.00  0.00     0.072 A 
ATOM     81  C   UNL     1       5.106  -6.079   0.707  1.00  0.00     0.016 A 
ATOM     82  C   UNL     1       3.849  -7.883  -0.391  1.00  0.00     0.054 A 
ATOM     83  C   UNL     1       5.863  -6.978   1.450  1.00  0.00     0.001 A 
ATOM     84  C   UNL     1       4.544  -8.759   0.484  1.00  0.00     0.015 A 
ATOM     85  C   UNL     1       5.568  -8.325   1.347  1.00  0.00     0.001 A 
BRANCH  82  86
ATOM     86  C   UNL     1       2.875  -8.533  -1.326  1.00  0.00     0.257 C 
ATOM     87  O   UNL     1       2.255  -9.484  -0.824  1.00  0.00    -0.269 OA
ATOM     88  N   UNL     1       2.571  -8.259  -2.659  1.00  0.00    -0.307 N 
ATOM     89  H   UNL     1       2.253  -9.027  -3.187  1.00  0.00     0.171 HD
BRANCH  88  90
ATOM     90  C   UNL     1       2.655  -7.036  -3.359  1.00  0.00     0.132 A 
ATOM     91  C   UNL     1       4.249  -6.391  -3.784  1.00  0.00     0.049 A 
ATOM     92  N   UNL     1       1.353  -6.079  -2.826  1.00  0.00    -0.238 NA
ATOM     93  C   UNL     1       4.527  -4.617  -3.432  1.00  0.00     0.026 A 
ATOM     94  C   UNL     1       1.560  -4.444  -2.478  1.00  0.00     0.134 A 
ATOM     95  C   UNL     1       3.065  -3.609  -2.766  1.00  0.00     0.059 A 
ATOM     96  Cl  UNL     1       2.516  -1.853  -3.031  1.00  0.00    -0.083 Cl
ENDBRANCH  88  90
ENDBRANCH  82  86
ENDBRANCH  78  80
ENDBRANCH  77  78
ENDBRANCH  76  77
ENDBRANCH  75  76
ENDBRANCH  74  75
ENDBRANCH  73  74
ENDBRANCH  72  73
ENDBRANCH  71  72
ENDBRANCH   1  71
TORSDOF 25
