REMARK SMILES Cc1ccc(N[C@H](CC(=O)c2ccccc2)C(=O)OCCOCCOCCOCCOC(=O)c2ccc(-c3c4nc(c(-c5ccc(S(=O)(=O)[O-])cc5)c5ccc([nH]5)c(-c5ccc(S(=O)(=O)[O-])cc5)c5nc(c(-c6ccc(S(=O)(=O)[O-])cc6)c6ccc3[nH]6)C=C5)C=C4)cc2)cc1Cl
REMARK SMILES IDX 25 1 24 2 23 3 22 4 21 5 20 6 19 7 17 8 18 9 7 10 6 11 5 13
REMARK SMILES IDX 1 14 2 15 3 16 95 17 4 18 94 19 96 20 8 21 9 22 10 23 11 24
REMARK SMILES IDX 12 25 16 26 13 27 15 28 14 29 26 30 27 31 28 32 29 33 30 34
REMARK SMILES IDX 31 35 32 36 33 37 34 38 35 39 93 40 36 41 92 42 37 43 38 44
REMARK SMILES IDX 39 45 86 46 40 47 91 48 85 49 87 50 41 51 90 52 84 53 83 54
REMARK SMILES IDX 42 56 72 57 53 58 71 59 54 60 57 61 70 62 88 63 55 64 56 65
REMARK SMILES IDX 69 67 89 68 58 69 43 70 44 71 52 72 45 73 51 74 46 75 47 76
REMARK SMILES IDX 48 77 49 78 50 79 73 80 74 81 82 82 75 83 81 84 76 85 77 86
REMARK SMILES IDX 78 87 79 88 80 89 59 90 60 91 68 92 61 93 67 94 62 95 63 96
REMARK SMILES IDX 64 97 65 98 66 99
REMARK H PARENT 6 12 87 55 57 66
REMARK Flexibility Score: inf
ROOT
ATOM      1  O   UNL     1      -3.571  -3.424  -2.931  1.00  0.00    -0.377 OA
ENDROOT
BRANCH   1   2
ATOM      2  C   UNL     1      -2.166  -3.281  -2.936  1.00  0.00     0.188 C 
BRANCH   2   3
ATOM      3  C   UNL     1      -1.410  -4.568  -3.271  1.00  0.00     0.188 C 
BRANCH   3   4
ATOM      4  O   UNL     1      -2.052  -5.625  -3.964  1.00  0.00    -0.376 OA
BRANCH   4   5
ATOM      5  C   UNL     1      -3.324  -6.117  -3.549  1.00  0.00     0.202 C 
BRANCH   5   6
ATOM      6  C   UNL     1      -3.642  -6.412  -2.072  1.00  0.00     0.261 C 
BRANCH   6   7
ATOM      7  O   UNL     1      -3.618  -5.278  -1.181  1.00  0.00    -0.462 OA
BRANCH   7   8
ATOM      8  C   UNL     1      -2.635  -5.272  -0.258  1.00  0.00     0.329 C 
ATOM      9  O   UNL     1      -1.803  -6.174  -0.133  1.00  0.00    -0.250 OA
BRANCH   8  10
ATOM     10  C   UNL     1      -2.638  -4.084   0.733  1.00  0.00     0.197 C 
BRANCH  10  11
ATOM     11  N   UNL     1      -3.051  -4.627   2.043  1.00  0.00    -0.372 N 
ATOM     12  H   UNL     1      -2.942  -5.603   2.112  1.00  0.00     0.161 HD
BRANCH  11  13
ATOM     13  C   UNL     1      -3.556  -4.054   3.184  1.00  0.00     0.036 A 
ATOM     14  C   UNL     1      -4.574  -2.179   6.968  1.00  0.00     0.046 C 
ATOM     15  C   UNL     1      -4.311  -2.862   5.662  1.00  0.00    -0.032 A 
ATOM     16  C   UNL     1      -3.602  -4.066   5.631  1.00  0.00     0.007 A 
ATOM     17  C   UNL     1      -4.692  -2.296   4.449  1.00  0.00     0.046 A 
ATOM     18  C   UNL     1      -3.232  -4.644   4.411  1.00  0.00     0.026 A 
ATOM     19  C   UNL     1      -4.344  -2.908   3.241  1.00  0.00     0.046 A 
ATOM     20  Cl  UNL     1      -5.564  -0.803   4.365  1.00  0.00    -0.084 Cl
ENDBRANCH  11  13
ENDBRANCH  10  11
BRANCH  10  21
ATOM     21  C   UNL     1      -3.212  -2.740   0.315  1.00  0.00     0.118 C 
BRANCH  21  22
ATOM     22  C   UNL     1      -2.316  -1.527   0.623  1.00  0.00     0.165 C 
ATOM     23  O   UNL     1      -2.092  -0.663  -0.226  1.00  0.00    -0.294 OA
BRANCH  22  24
ATOM     24  C   UNL     1      -1.766  -1.290   1.987  1.00  0.00     0.018 A 
ATOM     25  C   UNL     1      -2.235  -0.192   2.716  1.00  0.00     0.012 A 
ATOM     26  C   UNL     1      -0.769  -2.102   2.537  1.00  0.00     0.012 A 
ATOM     27  C   UNL     1      -1.787   0.022   4.024  1.00  0.00     0.001 A 
ATOM     28  C   UNL     1      -0.338  -1.898   3.849  1.00  0.00     0.001 A 
ATOM     29  C   UNL     1      -0.859  -0.846   4.598  1.00  0.00     0.000 A 
ENDBRANCH  22  24
ENDBRANCH  21  22
ENDBRANCH  10  21
ENDBRANCH   8  10
ENDBRANCH   7   8
ENDBRANCH   6   7
ENDBRANCH   5   6
ENDBRANCH   4   5
ENDBRANCH   3   4
ENDBRANCH   2   3
ENDBRANCH   1   2
BRANCH   1  30
ATOM     30  C   UNL     1      -4.317  -2.961  -4.048  1.00  0.00     0.188 C 
BRANCH  30  31
ATOM     31  C   UNL     1      -3.633  -2.968  -5.424  1.00  0.00     0.188 C 
BRANCH  31  32
ATOM     32  O   UNL     1      -2.389  -2.286  -5.451  1.00  0.00    -0.376 OA
BRANCH  32  33
ATOM     33  C   UNL     1      -2.367  -0.891  -5.722  1.00  0.00     0.202 C 
BRANCH  33  34
ATOM     34  C   UNL     1      -3.174   0.075  -4.834  1.00  0.00     0.261 C 
BRANCH  34  35
ATOM     35  O   UNL     1      -4.604  -0.086  -4.790  1.00  0.00    -0.460 OA
BRANCH  35  36
ATOM     36  C   UNL     1      -5.295  -0.181  -5.941  1.00  0.00     0.338 C 
ATOM     37  O   UNL     1      -4.857  -0.061  -7.075  1.00  0.00    -0.246 OA
BRANCH  36  38
ATOM     38  C   UNL     1      -6.653  -0.667  -5.615  1.00  0.00     0.060 A 
ATOM     39  C   UNL     1      -7.103  -1.865  -6.186  1.00  0.00     0.016 A 
ATOM     40  C   UNL     1      -7.487   0.062  -4.764  1.00  0.00     0.016 A 
ATOM     41  C   UNL     1      -8.404  -2.311  -5.948  1.00  0.00     0.010 A 
ATOM     42  C   UNL     1      -8.797  -0.375  -4.543  1.00  0.00     0.010 A 
ATOM     43  C   UNL     1      -9.275  -1.542  -5.166  1.00  0.00    -0.014 A 
BRANCH  43  44
ATOM     44  C   UNL     1     -10.729  -1.844  -5.167  1.00  0.00     0.031 A 
ATOM     45  C   UNL     1     -11.626  -1.029  -6.062  1.00  0.00     0.074 A 
ATOM     46  C   UNL     1     -11.246  -2.832  -4.414  1.00  0.00     0.049 A 
ATOM     47  N   UNL     1     -12.927  -1.062  -6.186  1.00  0.00    -0.248 NA
ATOM     48  C   UNL     1     -10.963  -0.044  -6.935  1.00  0.00     0.031 C 
ATOM     49  C   UNL     1     -10.481  -3.724  -3.544  1.00  0.00     0.029 A 
ATOM     50  N   UNL     1     -12.547  -3.241  -4.254  1.00  0.00    -0.354 N 
ATOM     51  C   UNL     1     -13.239  -0.104  -7.145  1.00  0.00     0.074 A 
ATOM     52  C   UNL     1     -11.996   0.519  -7.543  1.00  0.00     0.031 C 
ATOM     53  C   UNL     1     -11.331  -4.563  -2.926  1.00  0.00     0.029 A 
ATOM     54  C   UNL     1     -12.701  -4.244  -3.326  1.00  0.00     0.049 A 
ATOM     55  H   UNL     1     -13.300  -2.853  -4.757  1.00  0.00     0.167 HD
ATOM     56  C   UNL     1     -14.450   0.221  -7.657  1.00  0.00     0.031 A 
ATOM     57  C   UNL     1     -13.819  -4.815  -2.832  1.00  0.00     0.031 A 
ATOM     58  C   UNL     1     -15.688  -0.385  -7.245  1.00  0.00     0.049 A 
ATOM     59  C   UNL     1     -15.165  -4.372  -3.350  1.00  0.00     0.074 A 
ATOM     60  C   UNL     1     -16.968  -0.118  -7.698  1.00  0.00     0.029 A 
ATOM     61  N   UNL     1     -15.802  -1.377  -6.283  1.00  0.00    -0.354 N 
ATOM     62  N   UNL     1     -15.444  -3.473  -4.265  1.00  0.00    -0.248 NA
ATOM     63  C   UNL     1     -16.349  -5.028  -2.775  1.00  0.00     0.031 C 
ATOM     64  C   UNL     1     -17.862  -0.906  -6.967  1.00  0.00     0.029 A 
ATOM     65  C   UNL     1     -17.133  -1.717  -6.112  1.00  0.00     0.049 A 
ATOM     66  H   UNL     1     -15.048  -1.779  -5.793  1.00  0.00     0.167 HD
ATOM     67  C   UNL     1     -16.830  -3.481  -4.397  1.00  0.00     0.074 A 
ATOM     68  C   UNL     1     -17.331  -4.485  -3.482  1.00  0.00     0.031 C 
ATOM     69  C   UNL     1     -17.618  -2.725  -5.203  1.00  0.00     0.031 A 
BRANCH  56  70
ATOM     70  C   UNL     1     -14.496   1.300  -8.708  1.00  0.00    -0.014 A 
ATOM     71  C   UNL     1     -13.983   1.079  -9.999  1.00  0.00     0.010 A 
ATOM     72  C   UNL     1     -15.105   2.534  -8.417  1.00  0.00     0.010 A 
ATOM     73  C   UNL     1     -14.053   2.082 -10.970  1.00  0.00     0.020 A 
ATOM     74  C   UNL     1     -15.205   3.529  -9.394  1.00  0.00     0.020 A 
ATOM     75  C   UNL     1     -14.666   3.300 -10.662  1.00  0.00     0.054 A 
BRANCH  75  76
ATOM     76  S   UNL     1     -14.778   4.565 -11.956  1.00  0.00     0.124 S 
ATOM     77  O   UNL     1     -13.384   4.977 -12.097  1.00  0.00    -0.237 OA
ATOM     78  O   UNL     1     -15.330   3.819 -13.084  1.00  0.00    -0.237 OA
ATOM     79  O   UNL     1     -15.669   5.572 -11.383  1.00  0.00    -0.744 OA
ENDBRANCH  75  76
ENDBRANCH  56  70
BRANCH  57  80
ATOM     80  C   UNL     1     -13.722  -5.840  -1.752  1.00  0.00    -0.014 A 
ATOM     81  C   UNL     1     -14.112  -7.172  -1.977  1.00  0.00     0.010 A 
ATOM     82  C   UNL     1     -13.262  -5.473  -0.474  1.00  0.00     0.010 A 
ATOM     83  C   UNL     1     -14.070  -8.109  -0.939  1.00  0.00     0.020 A 
ATOM     84  C   UNL     1     -13.185  -6.414   0.557  1.00  0.00     0.020 A 
ATOM     85  C   UNL     1     -13.605  -7.723   0.322  1.00  0.00     0.054 A 
BRANCH  85  86
ATOM     86  S   UNL     1     -13.530  -8.963   1.645  1.00  0.00     0.124 S 
ATOM     87  O   UNL     1     -14.942  -9.167   1.952  1.00  0.00    -0.237 OA
ATOM     88  O   UNL     1     -12.856 -10.081   0.989  1.00  0.00    -0.237 OA
ATOM     89  O   UNL     1     -12.751  -8.302   2.690  1.00  0.00    -0.744 OA
ENDBRANCH  85  86
ENDBRANCH  57  80
BRANCH  69  90
ATOM     90  C   UNL     1     -19.103  -2.985  -5.175  1.00  0.00    -0.014 A 
ATOM     91  C   UNL     1     -19.892  -2.634  -4.065  1.00  0.00     0.010 A 
ATOM     92  C   UNL     1     -19.729  -3.536  -6.310  1.00  0.00     0.010 A 
ATOM     93  C   UNL     1     -21.271  -2.861  -4.077  1.00  0.00     0.020 A 
ATOM     94  C   UNL     1     -21.112  -3.733  -6.339  1.00  0.00     0.020 A 
ATOM     95  C   UNL     1     -21.873  -3.407  -5.215  1.00  0.00     0.054 A 
BRANCH  95  96
ATOM     96  S   UNL     1     -23.671  -3.650  -5.220  1.00  0.00     0.124 S 
ATOM     97  O   UNL     1     -23.830  -4.765  -4.290  1.00  0.00    -0.237 OA
ATOM     98  O   UNL     1     -24.168  -2.361  -4.747  1.00  0.00    -0.237 OA
ATOM     99  O   UNL     1     -23.976  -3.955  -6.616  1.00  0.00    -0.744 OA
ENDBRANCH  95  96
ENDBRANCH  69  90
ENDBRANCH  43  44
ENDBRANCH  36  38
ENDBRANCH  35  36
ENDBRANCH  34  35
ENDBRANCH  33  34
ENDBRANCH  32  33
ENDBRANCH  31  32
ENDBRANCH  30  31
ENDBRANCH   1  30
TORSDOF 28
