REMARK SMILES N#CCOc1ccccc1[C@H]1[NH2+][C@@H](C(=O)OCCOCCOCCOCCOC(=O)c2ccc(-c3c4nc(c(-c5ccc(S(=O)(=O)[O-])cc5)c5ccc([nH]5)c(-c5ccc(S(=O)(=O)[O-])cc5)c5nc(c(-c6ccc(S(=O)(=O)[O-])cc6)c6ccc3[nH]6)C=C5)C=C4)cc2)CS1
REMARK SMILES IDX 21 1 20 2 19 3 18 4 17 5 16 6 14 7 15 8 13 9 11 10 12 11
REMARK SMILES IDX 92 12 91 15 10 16 5 17 6 18 7 19 9 20 8 21 4 22 3 23 2 24
REMARK SMILES IDX 1 25 22 26 23 27 24 28 25 29 26 30 27 31 28 32 29 33 30 34
REMARK SMILES IDX 31 35 32 36 90 37 33 38 89 39 34 40 35 41 36 42 83 43 37 44
REMARK SMILES IDX 88 45 82 46 84 47 38 48 87 49 81 50 80 51 39 53 69 54 50 55
REMARK SMILES IDX 68 56 51 57 54 58 67 59 85 60 52 61 53 62 66 64 86 65 55 66
REMARK SMILES IDX 40 67 41 68 49 69 42 70 48 71 43 72 44 73 45 74 46 75 47 76
REMARK SMILES IDX 70 77 71 78 79 79 72 80 78 81 73 82 74 83 75 84 76 85 77 86
REMARK SMILES IDX 56 87 57 88 65 89 58 90 64 91 59 92 60 93 61 94 62 95 63 96
REMARK H PARENT 12 13 12 14 84 52 54 63
REMARK Flexibility Score: inf
ROOT
ATOM      1  C   UNL     1       1.862  -0.940   2.403  1.00  0.00     0.188 C 
ENDROOT
BRANCH   1   2
ATOM      2  C   UNL     1       2.872  -0.484   3.470  1.00  0.00     0.188 C 
BRANCH   2   3
ATOM      3  O   UNL     1       2.442   0.186   4.647  1.00  0.00    -0.376 OA
BRANCH   3   4
ATOM      4  C   UNL     1       1.174   0.811   4.665  1.00  0.00     0.202 C 
BRANCH   4   5
ATOM      5  C   UNL     1       0.902   1.976   3.700  1.00  0.00     0.261 C 
BRANCH   5   6
ATOM      6  O   UNL     1       1.454   1.924   2.375  1.00  0.00    -0.459 OA
BRANCH   6   7
ATOM      7  C   UNL     1       2.562   2.677   2.087  1.00  0.00     0.365 C 
ATOM      8  O   UNL     1       3.356   3.086   2.925  1.00  0.00    -0.245 OA
BRANCH   7   9
ATOM      9  C   UNL     1       2.627   3.031   0.571  1.00  0.00     0.304 C 
ATOM     10  C   UNL     1       1.712   2.311  -1.560  1.00  0.00     0.278 C 
ATOM     11  N   UNL     1       1.434   2.468  -0.129  1.00  0.00    -0.319 N 
ATOM     12  S   UNL     1       3.478   2.345  -1.908  1.00  0.00    -0.087 SA
ATOM     13  H   UNL     1       1.207   1.558   0.272  1.00  0.00     0.348 HD
ATOM     14  H   UNL     1       0.648   3.107  -0.011  1.00  0.00     0.348 HD
ATOM     15  C   UNL     1       3.930   2.606  -0.117  1.00  0.00     0.153 C 
BRANCH  10  16
ATOM     16  C   UNL     1       0.553   1.540  -2.307  1.00  0.00     0.062 A 
ATOM     17  C   UNL     1       0.086   0.173  -2.509  1.00  0.00     0.131 A 
ATOM     18  C   UNL     1      -1.156  -0.022  -3.170  1.00  0.00     0.047 A 
ATOM     19  C   UNL     1      -1.984   1.020  -3.576  1.00  0.00     0.004 A 
ATOM     20  C   UNL     1      -0.360   2.558  -2.767  1.00  0.00     0.015 A 
ATOM     21  C   UNL     1      -1.585   2.318  -3.371  1.00  0.00     0.001 A 
BRANCH  17  22
ATOM     22  O   UNL     1       0.600  -1.132  -2.353  1.00  0.00    -0.478 OA
BRANCH  22  23
ATOM     23  C   UNL     1       0.893  -1.721  -1.032  1.00  0.00     0.349 C 
BRANCH  23  24
ATOM     24  C   UNL     1       1.998  -0.727  -0.715  1.00  0.00     0.104 C 
ATOM     25  N   UNL     1       2.916   0.097  -0.452  1.00  0.00    -0.195 NA
ENDBRANCH  23  24
ENDBRANCH  22  23
ENDBRANCH  17  22
ENDBRANCH  10  16
ENDBRANCH   7   9
ENDBRANCH   6   7
ENDBRANCH   5   6
ENDBRANCH   4   5
ENDBRANCH   3   4
ENDBRANCH   2   3
ENDBRANCH   1   2
BRANCH   1  26
ATOM     26  O   UNL     1       0.500  -1.038   2.780  1.00  0.00    -0.377 OA
BRANCH  26  27
ATOM     27  C   UNL     1       0.014  -2.329   3.108  1.00  0.00     0.188 C 
BRANCH  27  28
ATOM     28  C   UNL     1       0.885  -3.129   4.083  1.00  0.00     0.188 C 
BRANCH  28  29
ATOM     29  O   UNL     1       2.196  -3.328   3.564  1.00  0.00    -0.376 OA
BRANCH  29  30
ATOM     30  C   UNL     1       2.539  -4.596   3.034  1.00  0.00     0.202 C 
BRANCH  30  31
ATOM     31  C   UNL     1       1.902  -4.995   1.694  1.00  0.00     0.261 C 
BRANCH  31  32
ATOM     32  O   UNL     1       0.470  -4.943   1.615  1.00  0.00    -0.460 OA
BRANCH  32  33
ATOM     33  C   UNL     1      -0.227  -5.755   2.446  1.00  0.00     0.338 C 
ATOM     34  O   UNL     1       0.228  -6.545   3.242  1.00  0.00    -0.246 OA
BRANCH  33  35
ATOM     35  C   UNL     1      -1.653  -5.366   2.348  1.00  0.00     0.060 A 
ATOM     36  C   UNL     1      -2.314  -4.916   3.498  1.00  0.00     0.016 A 
ATOM     37  C   UNL     1      -2.329  -5.441   1.128  1.00  0.00     0.016 A 
ATOM     38  C   UNL     1      -3.664  -4.564   3.437  1.00  0.00     0.010 A 
ATOM     39  C   UNL     1      -3.686  -5.110   1.073  1.00  0.00     0.010 A 
ATOM     40  C   UNL     1      -4.367  -4.699   2.233  1.00  0.00    -0.014 A 
BRANCH  40  41
ATOM     41  C   UNL     1      -5.848  -4.601   2.220  1.00  0.00     0.031 A 
ATOM     42  C   UNL     1      -6.647  -5.876   2.248  1.00  0.00     0.074 A 
ATOM     43  C   UNL     1      -6.474  -3.411   2.184  1.00  0.00     0.049 A 
ATOM     44  N   UNL     1      -7.939  -6.048   2.163  1.00  0.00    -0.248 NA
ATOM     45  C   UNL     1      -5.880  -7.126   2.386  1.00  0.00     0.031 C 
ATOM     46  C   UNL     1      -5.817  -2.105   2.210  1.00  0.00     0.029 A 
ATOM     47  N   UNL     1      -7.812  -3.113   2.108  1.00  0.00    -0.354 N 
ATOM     48  C   UNL     1      -8.141  -7.422   2.223  1.00  0.00     0.074 A 
ATOM     49  C   UNL     1      -6.837  -8.039   2.322  1.00  0.00     0.031 C 
ATOM     50  C   UNL     1      -6.755  -1.144   2.137  1.00  0.00     0.029 A 
ATOM     51  C   UNL     1      -8.074  -1.766   2.018  1.00  0.00     0.049 A 
ATOM     52  H   UNL     1      -8.518  -3.799   2.117  1.00  0.00     0.167 HD
ATOM     53  C   UNL     1      -9.308  -8.109   2.199  1.00  0.00     0.031 A 
ATOM     54  C   UNL     1      -9.239  -1.113   1.831  1.00  0.00     0.031 A 
ATOM     55  C   UNL     1     -10.601  -7.492   2.081  1.00  0.00     0.049 A 
ATOM     56  C   UNL     1     -10.518  -1.903   1.715  1.00  0.00     0.074 A 
ATOM     57  C   UNL     1     -11.844  -8.099   2.059  1.00  0.00     0.029 A 
ATOM     58  N   UNL     1     -10.820  -6.128   1.955  1.00  0.00    -0.354 N 
ATOM     59  N   UNL     1     -10.697  -3.201   1.794  1.00  0.00    -0.248 NA
ATOM     60  C   UNL     1     -11.755  -1.140   1.491  1.00  0.00     0.031 C 
ATOM     61  C   UNL     1     -12.809  -7.109   1.850  1.00  0.00     0.029 A 
ATOM     62  C   UNL     1     -12.175  -5.877   1.821  1.00  0.00     0.049 A 
ATOM     63  H   UNL     1     -10.116  -5.440   1.960  1.00  0.00     0.167 HD
ATOM     64  C   UNL     1     -12.068  -3.405   1.665  1.00  0.00     0.074 A 
ATOM     65  C   UNL     1     -12.672  -2.098   1.514  1.00  0.00     0.031 C 
ATOM     66  C   UNL     1     -12.764  -4.569   1.676  1.00  0.00     0.031 A 
BRANCH  53  67
ATOM     67  C   UNL     1      -9.233  -9.613   2.258  1.00  0.00    -0.014 A 
ATOM     68  C   UNL     1      -8.829 -10.282   3.428  1.00  0.00     0.010 A 
ATOM     69  C   UNL     1      -9.608 -10.370   1.132  1.00  0.00     0.010 A 
ATOM     70  C   UNL     1      -8.765 -11.677   3.458  1.00  0.00     0.020 A 
ATOM     71  C   UNL     1      -9.576 -11.766   1.169  1.00  0.00     0.020 A 
ATOM     72  C   UNL     1      -9.139 -12.411   2.327  1.00  0.00     0.054 A 
BRANCH  72  73
ATOM     73  S   UNL     1      -9.068 -14.221   2.404  1.00  0.00     0.124 S 
ATOM     74  O   UNL     1      -7.627 -14.464   2.428  1.00  0.00    -0.237 OA
ATOM     75  O   UNL     1      -9.775 -14.515   3.647  1.00  0.00    -0.237 OA
ATOM     76  O   UNL     1      -9.750 -14.648   1.185  1.00  0.00    -0.744 OA
ENDBRANCH  72  73
ENDBRANCH  53  67
BRANCH  54  77
ATOM     77  C   UNL     1      -9.252   0.373   1.714  1.00  0.00    -0.014 A 
ATOM     78  C   UNL     1      -9.861   1.167   2.702  1.00  0.00     0.010 A 
ATOM     79  C   UNL     1      -8.659   1.003   0.604  1.00  0.00     0.010 A 
ATOM     80  C   UNL     1      -9.893   2.560   2.573  1.00  0.00     0.020 A 
ATOM     81  C   UNL     1      -8.659   2.396   0.488  1.00  0.00     0.020 A 
ATOM     82  C   UNL     1      -9.286   3.166   1.469  1.00  0.00     0.054 A 
BRANCH  82  83
ATOM     83  S   UNL     1      -9.294   4.976   1.351  1.00  0.00     0.124 S 
ATOM     84  O   UNL     1     -10.698   5.256   1.066  1.00  0.00    -0.237 OA
ATOM     85  O   UNL     1      -8.824   5.377   2.674  1.00  0.00    -0.237 OA
ATOM     86  O   UNL     1      -8.366   5.252   0.257  1.00  0.00    -0.744 OA
ENDBRANCH  82  83
ENDBRANCH  54  77
BRANCH  66  87
ATOM     87  C   UNL     1     -14.267  -4.492   1.569  1.00  0.00    -0.014 A 
ATOM     88  C   UNL     1     -14.902  -4.132   0.367  1.00  0.00     0.010 A 
ATOM     89  C   UNL     1     -15.056  -4.863   2.674  1.00  0.00     0.010 A 
ATOM     90  C   UNL     1     -16.297  -4.118   0.282  1.00  0.00     0.020 A 
ATOM     91  C   UNL     1     -16.450  -4.882   2.583  1.00  0.00     0.020 A 
ATOM     92  C   UNL     1     -17.062  -4.498   1.389  1.00  0.00     0.054 A 
BRANCH  92  93
ATOM     93  S   UNL     1     -18.869  -4.526   1.233  1.00  0.00     0.124 S 
ATOM     94  O   UNL     1     -19.192  -3.104   1.174  1.00  0.00    -0.237 OA
ATOM     95  O   UNL     1     -19.070  -5.269  -0.009  1.00  0.00    -0.237 OA
ATOM     96  O   UNL     1     -19.312  -5.216   2.443  1.00  0.00    -0.744 OA
ENDBRANCH  92  93
ENDBRANCH  66  87
ENDBRANCH  40  41
ENDBRANCH  33  35
ENDBRANCH  32  33
ENDBRANCH  31  32
ENDBRANCH  30  31
ENDBRANCH  29  30
ENDBRANCH  28  29
ENDBRANCH  27  28
ENDBRANCH  26  27
ENDBRANCH   1  26
TORSDOF 27
