REMARK SMILES O=C(C[C@@H](C(=O)OCCOCCOCCOCCOC(=O)c1ccc(-c2c3nc(c(-c4ccc(S(=O)(=O)[O-])cc4)c4ccc([nH]4)c(-c4ccc(S(=O)(=O)[O-])cc4)c4nc(c(-c5ccc(S(=O)(=O)[O-])cc5)c5ccc2[nH]5)C=C4)C=C3)cc1)[NH+]1CCN(c2cccc(Cl)c2)CC1)c1ccc(F)cc1
REMARK SMILES IDX 13 1 12 2 11 3 10 4 9 5 8 6 7 7 5 8 6 9 4 10 3 11 2 12 1 13
REMARK SMILES IDX 95 14 96 15 101 16 97 17 100 18 98 19 99 20 82 21 83 22
REMARK SMILES IDX 94 23 84 25 93 26 85 27 86 28 87 29 92 30 88 31 90 32 89 33
REMARK SMILES IDX 91 34 14 35 15 36 16 37 17 38 18 39 19 40 20 41 21 42 22 43
REMARK SMILES IDX 23 44 81 45 24 46 80 47 25 48 26 49 27 50 74 51 28 52 79 53
REMARK SMILES IDX 73 54 75 55 29 56 78 57 72 58 71 59 30 61 60 62 41 63 59 64
REMARK SMILES IDX 42 65 45 66 58 67 76 68 43 69 44 70 57 72 77 73 46 74 31 75
REMARK SMILES IDX 32 76 40 77 33 78 39 79 34 80 35 81 36 82 37 83 38 84 61 85
REMARK SMILES IDX 62 86 70 87 63 88 69 89 64 90 65 91 66 92 67 93 68 94 47 95
REMARK SMILES IDX 48 96 56 97 49 98 55 99 50 100 51 101 52 102 53 103 54 104
REMARK H PARENT 82 24 75 60 45 71
REMARK Flexibility Score: inf
ROOT
ATOM      1  O   UNL     1       5.192   0.427  -2.040  1.00  0.00    -0.377 OA
ENDROOT
BRANCH   1   2
ATOM      2  C   UNL     1       5.536   0.325  -0.680  1.00  0.00     0.188 C 
BRANCH   2   3
ATOM      3  C   UNL     1       6.958   0.054  -0.164  1.00  0.00     0.188 C 
BRANCH   3   4
ATOM      4  O   UNL     1       7.539  -1.203  -0.481  1.00  0.00    -0.376 OA
BRANCH   4   5
ATOM      5  C   UNL     1       6.866  -2.393  -0.070  1.00  0.00     0.202 C 
BRANCH   5   6
ATOM      6  C   UNL     1       6.225  -2.429   1.325  1.00  0.00     0.261 C 
BRANCH   6   7
ATOM      7  O   UNL     1       5.036  -1.597   1.392  1.00  0.00    -0.459 OA
BRANCH   7   8
ATOM      8  C   UNL     1       4.769  -1.007   2.581  1.00  0.00     0.365 C 
ATOM      9  O   UNL     1       5.427  -1.247   3.590  1.00  0.00    -0.245 OA
BRANCH   8  10
ATOM     10  C   UNL     1       3.591   0.038   2.564  1.00  0.00     0.303 C 
BRANCH  10  11
ATOM     11  C   UNL     1       2.760   0.304   1.292  1.00  0.00     0.158 C 
BRANCH  11  12
ATOM     12  C   UNL     1       1.839  -0.805   0.813  1.00  0.00     0.169 C 
ATOM     13  O   UNL     1       0.734  -0.997   1.308  1.00  0.00    -0.294 OA
BRANCH  12  14
ATOM     14  C   UNL     1       2.269  -1.641  -0.328  1.00  0.00     0.018 A 
ATOM     15  C   UNL     1       2.857  -2.880  -0.055  1.00  0.00     0.015 A 
ATOM     16  C   UNL     1       2.107  -1.206  -1.648  1.00  0.00     0.015 A 
ATOM     17  C   UNL     1       3.380  -3.643  -1.098  1.00  0.00     0.040 A 
ATOM     18  C   UNL     1       2.607  -1.991  -2.690  1.00  0.00     0.040 A 
ATOM     19  C   UNL     1       3.267  -3.184  -2.404  1.00  0.00     0.123 A 
ATOM     20  F   UNL     1       3.824  -3.890  -3.395  1.00  0.00    -0.207 F 
ENDBRANCH  12  14
ENDBRANCH  11  12
ENDBRANCH  10  11
BRANCH  10  21
ATOM     21  N   UNL     1       4.160   1.278   3.174  1.00  0.00    -0.320 N 
ATOM     22  C   UNL     1       5.018   2.148   2.361  1.00  0.00     0.284 C 
ATOM     23  C   UNL     1       3.268   2.076   4.022  1.00  0.00     0.284 C 
ATOM     24  H   UNL     1       4.808   0.784   3.788  1.00  0.00     0.348 HD
ATOM     25  C   UNL     1       4.293   3.244   1.550  1.00  0.00     0.178 C 
ATOM     26  C   UNL     1       2.554   3.282   3.358  1.00  0.00     0.178 C 
ATOM     27  N   UNL     1       3.440   4.013   2.447  1.00  0.00    -0.360 N 
BRANCH  27  28
ATOM     28  C   UNL     1       3.507   5.386   2.410  1.00  0.00     0.038 A 
ATOM     29  C   UNL     1       3.207   6.093   1.237  1.00  0.00     0.026 A 
ATOM     30  C   UNL     1       3.968   6.104   3.517  1.00  0.00     0.046 A 
ATOM     31  C   UNL     1       3.369   7.479   1.165  1.00  0.00     0.004 A 
ATOM     32  C   UNL     1       4.153   7.485   3.439  1.00  0.00     0.043 A 
ATOM     33  C   UNL     1       3.854   8.177   2.268  1.00  0.00     0.020 A 
ATOM     34  Cl  UNL     1       4.793   8.336   4.793  1.00  0.00    -0.084 Cl
ENDBRANCH  27  28
ENDBRANCH  10  21
ENDBRANCH   8  10
ENDBRANCH   7   8
ENDBRANCH   6   7
ENDBRANCH   5   6
ENDBRANCH   4   5
ENDBRANCH   3   4
ENDBRANCH   2   3
ENDBRANCH   1   2
BRANCH   1  35
ATOM     35  C   UNL     1       5.824  -0.496  -2.898  1.00  0.00     0.188 C 
BRANCH  35  36
ATOM     36  C   UNL     1       7.128   0.084  -3.433  1.00  0.00     0.188 C 
BRANCH  36  37
ATOM     37  O   UNL     1       7.460   1.309  -2.789  1.00  0.00    -0.376 OA
BRANCH  37  38
ATOM     38  C   UNL     1       6.978   2.525  -3.349  1.00  0.00     0.202 C 
BRANCH  38  39
ATOM     39  C   UNL     1       5.485   2.772  -3.663  1.00  0.00     0.261 C 
BRANCH  39  40
ATOM     40  O   UNL     1       4.740   1.788  -4.397  1.00  0.00    -0.460 OA
BRANCH  40  41
ATOM     41  C   UNL     1       5.155   1.431  -5.633  1.00  0.00     0.338 C 
ATOM     42  O   UNL     1       6.122   1.838  -6.228  1.00  0.00    -0.246 OA
BRANCH  41  43
ATOM     43  C   UNL     1       4.279   0.308  -6.061  1.00  0.00     0.060 A 
ATOM     44  C   UNL     1       4.836  -0.958  -6.294  1.00  0.00     0.016 A 
ATOM     45  C   UNL     1       2.903   0.505  -6.196  1.00  0.00     0.016 A 
ATOM     46  C   UNL     1       4.020  -2.025  -6.685  1.00  0.00     0.010 A 
ATOM     47  C   UNL     1       2.094  -0.553  -6.620  1.00  0.00     0.010 A 
ATOM     48  C   UNL     1       2.652  -1.815  -6.898  1.00  0.00    -0.014 A 
BRANCH  48  49
ATOM     49  C   UNL     1       1.840  -2.805  -7.652  1.00  0.00     0.031 A 
ATOM     50  C   UNL     1       1.684  -2.579  -9.131  1.00  0.00     0.074 A 
ATOM     51  C   UNL     1       1.219  -3.841  -7.057  1.00  0.00     0.049 A 
ATOM     52  N   UNL     1       0.924  -3.206  -9.988  1.00  0.00    -0.248 NA
ATOM     53  C   UNL     1       2.490  -1.494  -9.721  1.00  0.00     0.031 C 
ATOM     54  C   UNL     1       1.345  -4.207  -5.651  1.00  0.00     0.029 A 
ATOM     55  N   UNL     1       0.335  -4.764  -7.560  1.00  0.00    -0.354 N 
ATOM     56  C   UNL     1       1.144  -2.582 -11.209  1.00  0.00     0.074 A 
ATOM     57  C   UNL     1       2.094  -1.517 -10.984  1.00  0.00     0.031 C 
ATOM     58  C   UNL     1       0.534  -5.248  -5.388  1.00  0.00     0.029 A 
ATOM     59  C   UNL     1      -0.191  -5.605  -6.604  1.00  0.00     0.049 A 
ATOM     60  H   UNL     1       0.099  -4.820  -8.514  1.00  0.00     0.167 HD
ATOM     61  C   UNL     1       0.600  -2.871 -12.412  1.00  0.00     0.031 A 
ATOM     62  C   UNL     1      -1.166  -6.534  -6.694  1.00  0.00     0.031 A 
ATOM     63  C   UNL     1      -0.347  -3.929 -12.628  1.00  0.00     0.049 A 
ATOM     64  C   UNL     1      -1.816  -6.781  -8.034  1.00  0.00     0.074 A 
ATOM     65  C   UNL     1      -0.931  -4.323 -13.818  1.00  0.00     0.029 A 
ATOM     66  N   UNL     1      -0.857  -4.751 -11.636  1.00  0.00    -0.354 N 
ATOM     67  N   UNL     1      -1.562  -6.214  -9.190  1.00  0.00    -0.248 NA
ATOM     68  C   UNL     1      -2.872  -7.804  -8.089  1.00  0.00     0.031 C 
ATOM     69  C   UNL     1      -1.847  -5.338 -13.536  1.00  0.00     0.029 A 
ATOM     70  C   UNL     1      -1.774  -5.630 -12.182  1.00  0.00     0.049 A 
ATOM     71  H   UNL     1      -0.604  -4.714 -10.685  1.00  0.00     0.167 HD
ATOM     72  C   UNL     1      -2.387  -6.848 -10.114  1.00  0.00     0.074 A 
ATOM     73  C   UNL     1      -3.147  -7.841  -9.385  1.00  0.00     0.031 C 
ATOM     74  C   UNL     1      -2.498  -6.634 -11.447  1.00  0.00     0.031 A 
BRANCH  61  75
ATOM     75  C   UNL     1       0.983  -2.014 -13.585  1.00  0.00    -0.014 A 
ATOM     76  C   UNL     1       2.256  -2.108 -14.174  1.00  0.00     0.010 A 
ATOM     77  C   UNL     1       0.020  -1.164 -14.158  1.00  0.00     0.010 A 
ATOM     78  C   UNL     1       2.560  -1.361 -15.315  1.00  0.00     0.020 A 
ATOM     79  C   UNL     1       0.311  -0.437 -15.314  1.00  0.00     0.020 A 
ATOM     80  C   UNL     1       1.582  -0.538 -15.883  1.00  0.00     0.054 A 
BRANCH  80  81
ATOM     81  S   UNL     1       1.979   0.355 -17.410  1.00  0.00     0.124 S 
ATOM     82  O   UNL     1       2.933   1.354 -16.936  1.00  0.00    -0.237 OA
ATOM     83  O   UNL     1       2.539  -0.696 -18.256  1.00  0.00    -0.237 OA
ATOM     84  O   UNL     1       0.691   0.885 -17.849  1.00  0.00    -0.744 OA
ENDBRANCH  80  81
ENDBRANCH  61  75
BRANCH  62  85
ATOM     85  C   UNL     1      -1.623  -7.284  -5.487  1.00  0.00    -0.014 A 
ATOM     86  C   UNL     1      -1.439  -8.675  -5.390  1.00  0.00     0.010 A 
ATOM     87  C   UNL     1      -2.301  -6.616  -4.450  1.00  0.00     0.010 A 
ATOM     88  C   UNL     1      -1.966  -9.389  -4.308  1.00  0.00     0.020 A 
ATOM     89  C   UNL     1      -2.800  -7.321  -3.350  1.00  0.00     0.020 A 
ATOM     90  C   UNL     1      -2.648  -8.707  -3.297  1.00  0.00     0.054 A 
BRANCH  90  91
ATOM     91  S   UNL     1      -3.327  -9.655  -1.906  1.00  0.00     0.124 S 
ATOM     92  O   UNL     1      -4.445 -10.354  -2.532  1.00  0.00    -0.237 OA
ATOM     93  O   UNL     1      -2.195 -10.493  -1.515  1.00  0.00    -0.237 OA
ATOM     94  O   UNL     1      -3.695  -8.626  -0.937  1.00  0.00    -0.744 OA
ENDBRANCH  90  91
ENDBRANCH  62  85
BRANCH  74  95
ATOM     95  C   UNL     1      -3.414  -7.532 -12.235  1.00  0.00    -0.014 A 
ATOM     96  C   UNL     1      -4.812  -7.426 -12.143  1.00  0.00     0.010 A 
ATOM     97  C   UNL     1      -2.853  -8.431 -13.163  1.00  0.00     0.010 A 
ATOM     98  C   UNL     1      -5.632  -8.213 -12.954  1.00  0.00     0.020 A 
ATOM     99  C   UNL     1      -3.669  -9.196 -13.998  1.00  0.00     0.020 A 
ATOM    100  C   UNL     1      -5.056  -9.088 -13.882  1.00  0.00     0.054 A 
BRANCH 100 101
ATOM    101  S   UNL     1      -6.143 -10.040 -14.977  1.00  0.00     0.124 S 
ATOM    102  O   UNL     1      -6.724 -11.014 -14.058  1.00  0.00    -0.237 OA
ATOM    103  O   UNL     1      -7.062  -9.021 -15.478  1.00  0.00    -0.237 OA
ATOM    104  O   UNL     1      -5.232 -10.594 -15.977  1.00  0.00    -0.744 OA
ENDBRANCH 100 101
ENDBRANCH  74  95
ENDBRANCH  48  49
ENDBRANCH  41  43
ENDBRANCH  40  41
ENDBRANCH  39  40
ENDBRANCH  38  39
ENDBRANCH  37  38
ENDBRANCH  36  37
ENDBRANCH  35  36
ENDBRANCH   1  35
TORSDOF 28
