REMARK SMILES CC1(C)CCC[C@@H]1NC(=O)NC1(CC(=O)OCCOCCOCCOCCOC(=O)c2ccc(-c3c4nc(c(-c5ccc(S(=O)(=O)[O-])cc5)c5ccc([nH]5)c(-c5ccc(S(=O)(=O)[O-])cc5)c5nc(c(-c6ccc(S(=O)(=O)[O-])cc6)c6ccc3[nH]6)C=C5)C=C4)cc2)CCCCC1
REMARK SMILES IDX 22 1 21 2 20 3 19 4 18 5 17 6 16 7 14 8 15 9 13 10 12 11
REMARK SMILES IDX 91 12 95 13 92 14 94 15 93 16 11 17 8 18 9 19 10 21 7 23
REMARK SMILES IDX 1 24 2 25 3 26 4 27 5 28 6 29 23 30 24 31 25 32 26 33 27 34
REMARK SMILES IDX 28 35 29 36 30 37 31 38 32 39 90 40 33 41 89 42 34 43 35 44
REMARK SMILES IDX 36 45 83 46 37 47 88 48 82 49 84 50 38 51 87 52 81 53 80 54
REMARK SMILES IDX 39 56 69 57 50 58 68 59 51 60 54 61 67 62 85 63 52 64 53 65
REMARK SMILES IDX 66 67 86 68 55 69 40 70 41 71 49 72 42 73 48 74 43 75 44 76
REMARK SMILES IDX 45 77 46 78 47 79 70 80 71 81 79 82 72 83 78 84 73 85 74 86
REMARK SMILES IDX 75 87 76 88 77 89 56 90 57 91 65 92 58 93 64 94 59 95 60 96
REMARK SMILES IDX 61 97 62 98 63 99
REMARK H PARENT 8 20 11 22 84 55 54 66
REMARK Flexibility Score: inf
ROOT
ATOM      1  O   UNL     1       0.778   5.607   3.875  1.00  0.00    -0.377 OA
ENDROOT
BRANCH   1   2
ATOM      2  C   UNL     1      -0.193   5.612   2.841  1.00  0.00     0.188 C 
BRANCH   2   3
ATOM      3  C   UNL     1      -1.299   6.679   2.991  1.00  0.00     0.188 C 
BRANCH   3   4
ATOM      4  O   UNL     1      -1.858   7.014   4.264  1.00  0.00    -0.376 OA
BRANCH   4   5
ATOM      5  C   UNL     1      -1.175   6.614   5.442  1.00  0.00     0.202 C 
BRANCH   5   6
ATOM      6  C   UNL     1      -1.486   5.169   5.875  1.00  0.00     0.261 C 
BRANCH   6   7
ATOM      7  O   UNL     1      -1.754   4.263   4.783  1.00  0.00    -0.463 OA
BRANCH   7   8
ATOM      8  C   UNL     1      -3.010   4.272   4.298  1.00  0.00     0.308 C 
ATOM      9  O   UNL     1      -3.945   4.867   4.831  1.00  0.00    -0.252 OA
BRANCH   8  10
ATOM     10  C   UNL     1      -3.248   3.495   3.007  1.00  0.00     0.151 C 
BRANCH  10  11
ATOM     11  C   UNL     1      -2.255   2.618   2.136  1.00  0.00     0.052 C 
ATOM     12  C   UNL     1      -3.206   1.576   1.486  1.00  0.00     0.029 C 
ATOM     13  C   UNL     1      -1.116   1.984   2.964  1.00  0.00     0.029 C 
ATOM     14  C   UNL     1      -3.520   0.348   2.330  1.00  0.00     0.002 C 
ATOM     15  C   UNL     1      -1.552   0.812   3.827  1.00  0.00     0.002 C 
ATOM     16  C   UNL     1      -2.298  -0.238   3.020  1.00  0.00     0.000 C 
BRANCH  11  17
ATOM     17  N   UNL     1      -1.674   3.421   0.994  1.00  0.00    -0.332 N 
ATOM     18  N   UNL     1      -0.301   2.142  -0.520  1.00  0.00    -0.335 N 
ATOM     19  C   UNL     1      -0.853   3.273  -0.059  1.00  0.00     0.315 C 
ATOM     20  H   UNL     1       0.374   2.318  -1.215  1.00  0.00     0.165 HD
ATOM     21  O   UNL     1      -0.576   4.310  -0.676  1.00  0.00    -0.249 OA
ATOM     22  H   UNL     1      -2.002   4.348   1.035  1.00  0.00     0.165 HD
BRANCH  18  23
ATOM     23  C   UNL     1      -0.448   0.725  -0.254  1.00  0.00     0.089 C 
ATOM     24  C   UNL     1       1.876   0.136   0.689  1.00  0.00     0.013 C 
ATOM     25  C   UNL     1       0.824  -0.161  -0.383  1.00  0.00    -0.015 C 
ATOM     26  C   UNL     1       1.516  -0.115  -1.762  1.00  0.00     0.013 C 
ATOM     27  C   UNL     1       0.190  -1.558  -0.184  1.00  0.00     0.008 C 
ATOM     28  C   UNL     1      -1.208  -1.475  -0.818  1.00  0.00     0.003 C 
ATOM     29  C   UNL     1      -1.422  -0.006  -1.186  1.00  0.00     0.025 C 
ENDBRANCH  18  23
ENDBRANCH  11  17
ENDBRANCH  10  11
ENDBRANCH   8  10
ENDBRANCH   7   8
ENDBRANCH   6   7
ENDBRANCH   5   6
ENDBRANCH   4   5
ENDBRANCH   3   4
ENDBRANCH   2   3
ENDBRANCH   1   2
BRANCH   1  30
ATOM     30  C   UNL     1       2.061   6.066   3.483  1.00  0.00     0.188 C 
BRANCH  30  31
ATOM     31  C   UNL     1       2.062   7.520   2.990  1.00  0.00     0.188 C 
BRANCH  31  32
ATOM     32  O   UNL     1       1.167   7.712   1.909  1.00  0.00    -0.376 OA
BRANCH  32  33
ATOM     33  C   UNL     1       1.596   7.707   0.563  1.00  0.00     0.202 C 
BRANCH  33  34
ATOM     34  C   UNL     1       2.458   6.587  -0.048  1.00  0.00     0.261 C 
BRANCH  34  35
ATOM     35  O   UNL     1       3.364   5.887   0.806  1.00  0.00    -0.460 OA
BRANCH  35  36
ATOM     36  C   UNL     1       4.504   6.515   1.158  1.00  0.00     0.338 C 
ATOM     37  O   UNL     1       4.845   7.643   0.844  1.00  0.00    -0.246 OA
BRANCH  36  38
ATOM     38  C   UNL     1       5.170   5.674   2.176  1.00  0.00     0.060 A 
ATOM     39  C   UNL     1       5.392   6.212   3.450  1.00  0.00     0.016 A 
ATOM     40  C   UNL     1       5.536   4.354   1.892  1.00  0.00     0.016 A 
ATOM     41  C   UNL     1       6.002   5.442   4.438  1.00  0.00     0.010 A 
ATOM     42  C   UNL     1       6.183   3.595   2.871  1.00  0.00     0.010 A 
ATOM     43  C   UNL     1       6.447   4.149   4.136  1.00  0.00    -0.014 A 
BRANCH  43  44
ATOM     44  C   UNL     1       7.399   3.486   5.057  1.00  0.00     0.031 A 
ATOM     45  C   UNL     1       8.869   3.658   4.783  1.00  0.00     0.074 A 
ATOM     46  C   UNL     1       6.979   2.789   6.127  1.00  0.00     0.049 A 
ATOM     47  N   UNL     1       9.896   3.172   5.428  1.00  0.00    -0.248 NA
ATOM     48  C   UNL     1       9.226   4.498   3.625  1.00  0.00     0.031 C 
ATOM     49  C   UNL     1       5.585   2.606   6.526  1.00  0.00     0.029 A 
ATOM     50  N   UNL     1       7.696   2.105   7.077  1.00  0.00    -0.354 N 
ATOM     51  C   UNL     1      11.017   3.639   4.751  1.00  0.00     0.074 A 
ATOM     52  C   UNL     1      10.547   4.422   3.631  1.00  0.00     0.031 C 
ATOM     53  C   UNL     1       5.547   1.848   7.638  1.00  0.00     0.029 A 
ATOM     54  C   UNL     1       6.910   1.467   8.007  1.00  0.00     0.049 A 
ATOM     55  H   UNL     1       8.679   2.075   7.091  1.00  0.00     0.167 HD
ATOM     56  C   UNL     1      12.324   3.436   5.039  1.00  0.00     0.031 A 
ATOM     57  C   UNL     1       7.255   0.651   9.024  1.00  0.00     0.031 A 
ATOM     58  C   UNL     1      12.784   2.636   6.141  1.00  0.00     0.049 A 
ATOM     59  C   UNL     1       8.715   0.366   9.273  1.00  0.00     0.074 A 
ATOM     60  C   UNL     1      14.086   2.367   6.524  1.00  0.00     0.029 A 
ATOM     61  N   UNL     1      11.957   1.967   7.031  1.00  0.00    -0.354 N 
ATOM     62  N   UNL     1       9.767   0.829   8.637  1.00  0.00    -0.248 NA
ATOM     63  C   UNL     1       9.035  -0.544  10.381  1.00  0.00     0.031 C 
ATOM     64  C   UNL     1      14.046   1.482   7.605  1.00  0.00     0.029 A 
ATOM     65  C   UNL     1      12.720   1.259   7.943  1.00  0.00     0.049 A 
ATOM     66  H   UNL     1      10.973   1.991   7.016  1.00  0.00     0.167 HD
ATOM     67  C   UNL     1      10.873   0.291   9.289  1.00  0.00     0.074 A 
ATOM     68  C   UNL     1      10.361  -0.521  10.375  1.00  0.00     0.031 C 
ATOM     69  C   UNL     1      12.192   0.456   9.018  1.00  0.00     0.031 A 
BRANCH  56  70
ATOM     70  C   UNL     1      13.342   4.053   4.117  1.00  0.00    -0.014 A 
ATOM     71  C   UNL     1      13.544   5.444   4.072  1.00  0.00     0.010 A 
ATOM     72  C   UNL     1      14.127   3.221   3.298  1.00  0.00     0.010 A 
ATOM     73  C   UNL     1      14.486   5.994   3.198  1.00  0.00     0.020 A 
ATOM     74  C   UNL     1      15.091   3.765   2.445  1.00  0.00     0.020 A 
ATOM     75  C   UNL     1      15.253   5.150   2.389  1.00  0.00     0.054 A 
BRANCH  75  76
ATOM     76  S   UNL     1      16.485   5.890   1.283  1.00  0.00     0.124 S 
ATOM     77  O   UNL     1      15.641   6.525   0.274  1.00  0.00    -0.237 OA
ATOM     78  O   UNL     1      17.200   6.804   2.169  1.00  0.00    -0.237 OA
ATOM     79  O   UNL     1      17.262   4.746   0.814  1.00  0.00    -0.744 OA
ENDBRANCH  75  76
ENDBRANCH  56  70
BRANCH  57  80
ATOM     80  C   UNL     1       6.200   0.025   9.870  1.00  0.00    -0.014 A 
ATOM     81  C   UNL     1       6.055   0.376  11.224  1.00  0.00     0.010 A 
ATOM     82  C   UNL     1       5.333  -0.938   9.321  1.00  0.00     0.010 A 
ATOM     83  C   UNL     1       5.076  -0.234  12.015  1.00  0.00     0.020 A 
ATOM     84  C   UNL     1       4.333  -1.528  10.099  1.00  0.00     0.020 A 
ATOM     85  C   UNL     1       4.217  -1.179  11.445  1.00  0.00     0.054 A 
BRANCH  85  86
ATOM     86  S   UNL     1       2.920  -1.918  12.477  1.00  0.00     0.124 S 
ATOM     87  O   UNL     1       3.691  -2.786  13.361  1.00  0.00    -0.237 OA
ATOM     88  O   UNL     1       2.316  -0.747  13.107  1.00  0.00    -0.237 OA
ATOM     89  O   UNL     1       2.066  -2.607  11.511  1.00  0.00    -0.744 OA
ENDBRANCH  85  86
ENDBRANCH  57  80
BRANCH  69  90
ATOM     90  C   UNL     1      13.183  -0.219   9.931  1.00  0.00    -0.014 A 
ATOM     91  C   UNL     1      13.358  -1.614   9.922  1.00  0.00     0.010 A 
ATOM     92  C   UNL     1      14.000   0.568  10.764  1.00  0.00     0.010 A 
ATOM     93  C   UNL     1      14.309  -2.212  10.755  1.00  0.00     0.020 A 
ATOM     94  C   UNL     1      14.974  -0.023  11.573  1.00  0.00     0.020 A 
ATOM     95  C   UNL     1      15.112  -1.411  11.573  1.00  0.00     0.054 A 
BRANCH  95  96
ATOM     96  S   UNL     1      16.369  -2.209  12.610  1.00  0.00     0.124 S 
ATOM     97  O   UNL     1      15.553  -2.855  13.634  1.00  0.00    -0.237 OA
ATOM     98  O   UNL     1      17.031  -3.112  11.671  1.00  0.00    -0.237 OA
ATOM     99  O   UNL     1      17.190  -1.095  13.079  1.00  0.00    -0.744 OA
ENDBRANCH  95  96
ENDBRANCH  69  90
ENDBRANCH  43  44
ENDBRANCH  36  38
ENDBRANCH  35  36
ENDBRANCH  34  35
ENDBRANCH  33  34
ENDBRANCH  32  33
ENDBRANCH  31  32
ENDBRANCH  30  31
ENDBRANCH   1  30
TORSDOF 26
