REMARK SMILES CCC[C@H]([NH2+]Cc1nc(C(C)(C)C)cs1)C(=O)OCCOCCOCCOCCOC(=O)c1ccc(-c2c3nc(c(-c4ccc(S(=O)(=O)[O-])cc4)c4ccc([nH]4)c(-c4ccc(S(=O)(=O)[O-])cc4)c4nc(c(-c5ccc(S(=O)(=O)[O-])cc5)c5ccc2[nH]5)C=C4)C=C3)cc1
REMARK SMILES IDX 23 1 22 2 21 3 20 4 19 5 18 6 16 7 17 8 4 9 3 10 2 11 1 12
REMARK SMILES IDX 5 13 6 16 7 17 8 18 15 19 9 20 14 21 10 22 11 23 12 24 13 25
REMARK SMILES IDX 24 26 25 27 26 28 27 29 28 30 29 31 30 32 31 33 32 34 33 35
REMARK SMILES IDX 34 36 92 37 35 38 91 39 36 40 37 41 38 42 85 43 39 44 90 45
REMARK SMILES IDX 84 46 86 47 40 48 89 49 83 50 82 51 41 53 71 54 52 55 70 56
REMARK SMILES IDX 53 57 56 58 69 59 87 60 54 61 55 62 68 64 88 65 57 66 42 67
REMARK SMILES IDX 43 68 51 69 44 70 50 71 45 72 46 73 47 74 48 75 49 76 72 77
REMARK SMILES IDX 73 78 81 79 74 80 80 81 75 82 76 83 77 84 78 85 79 86 58 87
REMARK SMILES IDX 59 88 67 89 60 90 66 91 61 92 62 93 63 94 64 95 65 96
REMARK H PARENT 5 14 5 15 86 52 56 63
REMARK Flexibility Score: inf
ROOT
ATOM      1  C   UNL     1       3.704   4.799   0.709  1.00  0.00     0.188 C 
ENDROOT
BRANCH   1   2
ATOM      2  C   UNL     1       2.843   5.642  -0.232  1.00  0.00     0.188 C 
BRANCH   2   3
ATOM      3  O   UNL     1       2.501   6.964   0.175  1.00  0.00    -0.376 OA
BRANCH   3   4
ATOM      4  C   UNL     1       1.964   7.194   1.478  1.00  0.00     0.202 C 
BRANCH   4   5
ATOM      5  C   UNL     1       0.603   6.585   1.890  1.00  0.00     0.261 C 
BRANCH   5   6
ATOM      6  O   UNL     1       0.504   5.141   1.956  1.00  0.00    -0.459 OA
BRANCH   6   7
ATOM      7  C   UNL     1      -0.037   4.568   0.859  1.00  0.00     0.364 C 
ATOM      8  O   UNL     1      -0.332   5.248  -0.127  1.00  0.00    -0.245 OA
BRANCH   7   9
ATOM      9  C   UNL     1      -0.207   3.026   0.816  1.00  0.00     0.293 C 
BRANCH   9  10
ATOM     10  C   UNL     1      -1.682   2.669   0.485  1.00  0.00     0.077 C 
BRANCH  10  11
ATOM     11  C   UNL     1      -2.403   3.474  -0.612  1.00  0.00     0.003 C 
ATOM     12  C   UNL     1      -1.738   3.433  -1.982  1.00  0.00     0.004 C 
ENDBRANCH  10  11
ENDBRANCH   9  10
BRANCH   9  13
ATOM     13  N   UNL     1       0.182   2.104   1.941  1.00  0.00    -0.329 N 
ATOM     14  H   UNL     1       0.660   1.304   1.526  1.00  0.00     0.347 HD
ATOM     15  H   UNL     1      -0.696   1.897   2.416  1.00  0.00     0.347 HD
BRANCH  13  16
ATOM     16  C   UNL     1       1.048   2.631   2.991  1.00  0.00     0.330 C 
BRANCH  16  17
ATOM     17  C   UNL     1       1.778   1.599   3.852  1.00  0.00     0.147 A 
ATOM     18  N   UNL     1       2.500   0.568   3.430  1.00  0.00    -0.240 NA
ATOM     19  S   UNL     1       1.879   1.898   5.551  1.00  0.00    -0.121 S 
ATOM     20  C   UNL     1       3.194  -0.024   4.502  1.00  0.00     0.057 A 
ATOM     21  C   UNL     1       2.978   0.605   5.716  1.00  0.00     0.091 A 
BRANCH  20  22
ATOM     22  C   UNL     1       4.054  -1.280   4.307  1.00  0.00     0.005 C 
ATOM     23  C   UNL     1       5.496  -1.087   4.829  1.00  0.00     0.017 C 
ATOM     24  C   UNL     1       3.441  -2.456   5.096  1.00  0.00     0.017 C 
ATOM     25  C   UNL     1       4.150  -1.682   2.824  1.00  0.00     0.017 C 
ENDBRANCH  20  22
ENDBRANCH  16  17
ENDBRANCH  13  16
ENDBRANCH   9  13
ENDBRANCH   7   9
ENDBRANCH   6   7
ENDBRANCH   5   6
ENDBRANCH   4   5
ENDBRANCH   3   4
ENDBRANCH   2   3
ENDBRANCH   1   2
BRANCH   1  26
ATOM     26  O   UNL     1       3.159   4.797   2.012  1.00  0.00    -0.377 OA
BRANCH  26  27
ATOM     27  C   UNL     1       3.978   4.966   3.161  1.00  0.00     0.188 C 
BRANCH  27  28
ATOM     28  C   UNL     1       5.418   5.412   2.931  1.00  0.00     0.188 C 
BRANCH  28  29
ATOM     29  O   UNL     1       6.273   4.465   2.285  1.00  0.00    -0.376 OA
BRANCH  29  30
ATOM     30  C   UNL     1       6.034   3.079   2.520  1.00  0.00     0.202 C 
BRANCH  30  31
ATOM     31  C   UNL     1       6.544   2.552   3.859  1.00  0.00     0.261 C 
BRANCH  31  32
ATOM     32  O   UNL     1       5.773   3.018   4.976  1.00  0.00    -0.460 OA
BRANCH  32  33
ATOM     33  C   UNL     1       6.355   4.013   5.685  1.00  0.00     0.338 C 
ATOM     34  O   UNL     1       7.442   4.522   5.482  1.00  0.00    -0.246 OA
BRANCH  33  35
ATOM     35  C   UNL     1       5.407   4.535   6.684  1.00  0.00     0.060 A 
ATOM     36  C   UNL     1       5.236   5.922   6.754  1.00  0.00     0.016 A 
ATOM     37  C   UNL     1       4.796   3.691   7.613  1.00  0.00     0.016 A 
ATOM     38  C   UNL     1       4.515   6.478   7.804  1.00  0.00     0.010 A 
ATOM     39  C   UNL     1       4.075   4.250   8.670  1.00  0.00     0.010 A 
ATOM     40  C   UNL     1       3.983   5.647   8.798  1.00  0.00    -0.014 A 
BRANCH  40  41
ATOM     41  C   UNL     1       3.522   6.261  10.064  1.00  0.00     0.031 A 
ATOM     42  C   UNL     1       4.455   6.258  11.246  1.00  0.00     0.074 A 
ATOM     43  C   UNL     1       2.329   6.874  10.131  1.00  0.00     0.049 A 
ATOM     44  N   UNL     1       4.283   6.767  12.438  1.00  0.00    -0.248 NA
ATOM     45  C   UNL     1       5.756   5.592  11.059  1.00  0.00     0.031 C 
ATOM     46  C   UNL     1       1.370   6.979   9.031  1.00  0.00     0.029 A 
ATOM     47  N   UNL     1       1.727   7.534  11.170  1.00  0.00    -0.354 N 
ATOM     48  C   UNL     1       5.447   6.479  13.143  1.00  0.00     0.074 A 
ATOM     49  C   UNL     1       6.302   5.719  12.259  1.00  0.00     0.031 C 
ATOM     50  C   UNL     1       0.298   7.672   9.454  1.00  0.00     0.029 A 
ATOM     51  C   UNL     1       0.484   8.029  10.859  1.00  0.00     0.049 A 
ATOM     52  H   UNL     1       2.145   7.642  12.055  1.00  0.00     0.167 HD
ATOM     53  C   UNL     1       5.778   6.825  14.410  1.00  0.00     0.031 A 
ATOM     54  C   UNL     1      -0.405   8.688  11.627  1.00  0.00     0.031 A 
ATOM     55  C   UNL     1       4.913   7.569  15.286  1.00  0.00     0.049 A 
ATOM     56  C   UNL     1      -0.040   9.007  13.053  1.00  0.00     0.074 A 
ATOM     57  C   UNL     1       5.147   7.977  16.588  1.00  0.00     0.029 A 
ATOM     58  N   UNL     1       3.642   8.014  14.951  1.00  0.00    -0.354 N 
ATOM     59  N   UNL     1       1.069   8.739  13.702  1.00  0.00    -0.248 NA
ATOM     60  C   UNL     1      -1.042   9.734  13.843  1.00  0.00     0.031 C 
ATOM     61  C   UNL     1       3.995   8.616  17.058  1.00  0.00     0.029 A 
ATOM     62  C   UNL     1       3.070   8.670  16.027  1.00  0.00     0.049 A 
ATOM     63  H   UNL     1       3.211   7.882  14.075  1.00  0.00     0.167 HD
ATOM     64  C   UNL     1       0.909   9.291  14.970  1.00  0.00     0.074 A 
ATOM     65  C   UNL     1      -0.395   9.924  14.984  1.00  0.00     0.031 C 
ATOM     66  C   UNL     1       1.763   9.281  16.025  1.00  0.00     0.031 A 
BRANCH  53  67
ATOM     67  C   UNL     1       7.115   6.363  14.931  1.00  0.00    -0.014 A 
ATOM     68  C   UNL     1       8.320   6.899  14.440  1.00  0.00     0.010 A 
ATOM     69  C   UNL     1       7.166   5.389  15.945  1.00  0.00     0.010 A 
ATOM     70  C   UNL     1       9.549   6.441  14.923  1.00  0.00     0.020 A 
ATOM     71  C   UNL     1       8.392   4.949  16.453  1.00  0.00     0.020 A 
ATOM     72  C   UNL     1       9.577   5.466  15.926  1.00  0.00     0.054 A 
BRANCH  72  73
ATOM     73  S   UNL     1      11.185   4.901  16.547  1.00  0.00     0.124 S 
ATOM     74  O   UNL     1      11.683   4.114  15.421  1.00  0.00    -0.237 OA
ATOM     75  O   UNL     1      11.890   6.156  16.797  1.00  0.00    -0.237 OA
ATOM     76  O   UNL     1      10.845   4.132  17.741  1.00  0.00    -0.744 OA
ENDBRANCH  72  73
ENDBRANCH  53  67
BRANCH  54  77
ATOM     77  C   UNL     1      -1.723   9.086  11.062  1.00  0.00    -0.014 A 
ATOM     78  C   UNL     1      -2.038  10.439  10.848  1.00  0.00     0.010 A 
ATOM     79  C   UNL     1      -2.672   8.103  10.725  1.00  0.00     0.010 A 
ATOM     80  C   UNL     1      -3.282  10.803  10.324  1.00  0.00     0.020 A 
ATOM     81  C   UNL     1      -3.905   8.460  10.173  1.00  0.00     0.020 A 
ATOM     82  C   UNL     1      -4.206   9.810   9.985  1.00  0.00     0.054 A 
BRANCH  82  83
ATOM     83  S   UNL     1      -5.792  10.303   9.254  1.00  0.00     0.124 S 
ATOM     84  O   UNL     1      -6.486  10.884  10.398  1.00  0.00    -0.237 OA
ATOM     85  O   UNL     1      -5.379  11.245   8.217  1.00  0.00    -0.237 OA
ATOM     86  O   UNL     1      -6.344   9.045   8.758  1.00  0.00    -0.744 OA
ENDBRANCH  82  83
ENDBRANCH  54  77
BRANCH  66  87
ATOM     87  C   UNL     1       1.324  10.011  17.268  1.00  0.00    -0.014 A 
ATOM     88  C   UNL     1       0.270   9.533  18.067  1.00  0.00     0.010 A 
ATOM     89  C   UNL     1       1.992  11.190  17.649  1.00  0.00     0.010 A 
ATOM     90  C   UNL     1      -0.149  10.255  19.189  1.00  0.00     0.020 A 
ATOM     91  C   UNL     1       1.599  11.895  18.789  1.00  0.00     0.020 A 
ATOM     92  C   UNL     1       0.514  11.435  19.537  1.00  0.00     0.054 A 
BRANCH  92  93
ATOM     93  S   UNL     1      -0.049  12.356  20.994  1.00  0.00     0.124 S 
ATOM     94  O   UNL     1      -1.290  12.956  20.512  1.00  0.00    -0.237 OA
ATOM     95  O   UNL     1      -0.206  11.306  21.997  1.00  0.00    -0.237 OA
ATOM     96  O   UNL     1       1.040  13.296  21.252  1.00  0.00    -0.744 OA
ENDBRANCH  92  93
ENDBRANCH  66  87
ENDBRANCH  40  41
ENDBRANCH  33  35
ENDBRANCH  32  33
ENDBRANCH  31  32
ENDBRANCH  30  31
ENDBRANCH  29  30
ENDBRANCH  28  29
ENDBRANCH  27  28
ENDBRANCH  26  27
ENDBRANCH   1  26
TORSDOF 29
