REMARK SMILES NC(=O)C[C@H](NC(=O)[C@@H]1CCC[NH2+]1)C(=O)OCCOCCOCCOCCOC(=O)c1ccc(-c2c3nc(c(-c4ccc(S(=O)(=O)[O-])cc4)c4ccc([nH]4)c(-c4ccc(S(=O)(=O)[O-])cc4)c4nc(c(-c5ccc(S(=O)(=O)[O-])cc5)c5ccc2[nH]5)C=C4)C=C3)cc1
REMARK SMILES IDX 23 1 22 2 21 3 20 4 19 5 18 6 17 7 16 8 14 9 15 10 5 11 4 12
REMARK SMILES IDX 2 13 1 14 3 17 6 18 7 19 8 21 9 22 10 23 13 24 11 25 12 26
REMARK SMILES IDX 24 29 25 30 26 31 27 32 28 33 29 34 30 35 31 36 32 37 90 38
REMARK SMILES IDX 33 39 89 40 34 41 35 42 36 43 83 44 37 45 88 46 82 47 84 48
REMARK SMILES IDX 38 49 87 50 81 51 80 52 39 54 69 55 50 56 68 57 51 58 54 59
REMARK SMILES IDX 67 60 85 61 52 62 53 63 66 65 86 66 55 67 40 68 41 69 49 70
REMARK SMILES IDX 42 71 48 72 43 73 44 74 45 75 46 76 47 77 70 78 71 79 79 80
REMARK SMILES IDX 72 81 78 82 73 83 74 84 75 85 76 86 77 87 56 88 57 89 65 90
REMARK SMILES IDX 58 91 64 92 59 93 60 94 61 95 62 96 63 97
REMARK H PARENT 1 15 1 16 6 20 13 27 13 28 84 53 54 64
REMARK Flexibility Score: inf
ROOT
ATOM      1  C   UNL     1       1.829   6.576   0.866  1.00  0.00     0.188 C 
ENDROOT
BRANCH   1   2
ATOM      2  O   UNL     1       2.016   5.231   1.308  1.00  0.00    -0.377 OA
BRANCH   2   3
ATOM      3  C   UNL     1       1.049   4.736   2.215  1.00  0.00     0.188 C 
BRANCH   3   4
ATOM      4  C   UNL     1       1.486   4.756   3.691  1.00  0.00     0.188 C 
BRANCH   4   5
ATOM      5  O   UNL     1       2.546   5.589   4.139  1.00  0.00    -0.376 OA
BRANCH   5   6
ATOM      6  C   UNL     1       3.787   5.646   3.449  1.00  0.00     0.202 C 
BRANCH   6   7
ATOM      7  C   UNL     1       4.502   4.379   2.967  1.00  0.00     0.261 C 
BRANCH   7   8
ATOM      8  O   UNL     1       3.683   3.434   2.266  1.00  0.00    -0.462 OA
BRANCH   8   9
ATOM      9  C   UNL     1       3.457   2.254   2.898  1.00  0.00     0.329 C 
ATOM     10  O   UNL     1       3.816   1.985   4.038  1.00  0.00    -0.250 OA
BRANCH   9  11
ATOM     11  C   UNL     1       2.811   1.214   1.966  1.00  0.00     0.201 C 
BRANCH  11  12
ATOM     12  C   UNL     1       3.882   0.354   1.298  1.00  0.00     0.136 C 
BRANCH  12  13
ATOM     13  C   UNL     1       5.240   1.007   1.225  1.00  0.00     0.220 C 
ATOM     14  N   UNL     1       5.388   1.972   0.279  1.00  0.00    -0.370 N 
ATOM     15  H   UNL     1       6.250   2.436   0.180  1.00  0.00     0.159 HD
ATOM     16  H   UNL     1       4.633   2.206  -0.308  1.00  0.00     0.159 HD
ATOM     17  O   UNL     1       6.154   0.711   1.985  1.00  0.00    -0.275 OA
ENDBRANCH  12  13
ENDBRANCH  11  12
BRANCH  11  18
ATOM     18  N   UNL     1       1.899   1.769   0.952  1.00  0.00    -0.337 N 
ATOM     19  C   UNL     1       0.654   1.368   0.554  1.00  0.00     0.278 C 
ATOM     20  H   UNL     1       2.244   2.563   0.482  1.00  0.00     0.164 HD
ATOM     21  O   UNL     1       0.055   2.103  -0.238  1.00  0.00    -0.268 OA
BRANCH  19  22
ATOM     22  C   UNL     1      -0.030   0.083   1.068  1.00  0.00     0.272 C 
ATOM     23  C   UNL     1      -0.421   0.077   2.539  1.00  0.00     0.081 C 
ATOM     24  N   UNL     1       0.759  -1.139   0.821  1.00  0.00    -0.336 N 
ATOM     25  C   UNL     1      -0.185  -1.358   2.980  1.00  0.00     0.068 C 
ATOM     26  C   UNL     1       0.927  -1.855   2.078  1.00  0.00     0.261 C 
ATOM     27  H   UNL     1       1.673  -0.886   0.446  1.00  0.00     0.346 HD
ATOM     28  H   UNL     1       0.274  -1.733   0.148  1.00  0.00     0.346 HD
ENDBRANCH  19  22
ENDBRANCH  11  18
ENDBRANCH   9  11
ENDBRANCH   8   9
ENDBRANCH   7   8
ENDBRANCH   6   7
ENDBRANCH   5   6
ENDBRANCH   4   5
ENDBRANCH   3   4
ENDBRANCH   2   3
ENDBRANCH   1   2
BRANCH   1  29
ATOM     29  C   UNL     1       1.327   7.613   1.897  1.00  0.00     0.188 C 
BRANCH  29  30
ATOM     30  O   UNL     1       0.136   7.224   2.570  1.00  0.00    -0.376 OA
BRANCH  30  31
ATOM     31  C   UNL     1      -1.103   7.731   2.098  1.00  0.00     0.202 C 
BRANCH  31  32
ATOM     32  C   UNL     1      -1.548   7.331   0.681  1.00  0.00     0.261 C 
BRANCH  32  33
ATOM     33  O   UNL     1      -0.675   7.700  -0.398  1.00  0.00    -0.460 OA
BRANCH  33  34
ATOM     34  C   UNL     1      -0.337   8.998  -0.538  1.00  0.00     0.338 C 
ATOM     35  O   UNL     1      -0.736   9.938   0.127  1.00  0.00    -0.246 OA
BRANCH  34  36
ATOM     36  C   UNL     1       0.773   9.063  -1.513  1.00  0.00     0.060 A 
ATOM     37  C   UNL     1       1.996   9.627  -1.124  1.00  0.00     0.016 A 
ATOM     38  C   UNL     1       0.603   8.566  -2.806  1.00  0.00     0.016 A 
ATOM     39  C   UNL     1       3.041   9.732  -2.043  1.00  0.00     0.010 A 
ATOM     40  C   UNL     1       1.641   8.692  -3.731  1.00  0.00     0.010 A 
ATOM     41  C   UNL     1       2.851   9.310  -3.365  1.00  0.00    -0.014 A 
BRANCH  41  42
ATOM     42  C   UNL     1       3.813   9.701  -4.423  1.00  0.00     0.031 A 
ATOM     43  C   UNL     1       3.483  10.903  -5.267  1.00  0.00     0.074 A 
ATOM     44  C   UNL     1       4.945   9.009  -4.643  1.00  0.00     0.049 A 
ATOM     45  N   UNL     1       4.104  11.379  -6.314  1.00  0.00    -0.248 NA
ATOM     46  C   UNL     1       2.285  11.667  -4.877  1.00  0.00     0.031 C 
ATOM     47  C   UNL     1       5.407   7.865  -3.859  1.00  0.00     0.029 A 
ATOM     48  N   UNL     1       5.907   9.166  -5.610  1.00  0.00    -0.354 N 
ATOM     49  C   UNL     1       3.366  12.485  -6.718  1.00  0.00     0.074 A 
ATOM     50  C   UNL     1       2.237  12.595  -5.821  1.00  0.00     0.031 C 
ATOM     51  C   UNL     1       6.559   7.413  -4.387  1.00  0.00     0.029 A 
ATOM     52  C   UNL     1       6.891   8.207  -5.570  1.00  0.00     0.049 A 
ATOM     53  H   UNL     1       5.894   9.897  -6.269  1.00  0.00     0.167 HD
ATOM     54  C   UNL     1       3.606  13.336  -7.743  1.00  0.00     0.031 A 
ATOM     55  C   UNL     1       7.920   7.978  -6.411  1.00  0.00     0.031 A 
ATOM     56  C   UNL     1       4.719  13.211  -8.645  1.00  0.00     0.049 A 
ATOM     57  C   UNL     1       8.115   8.880  -7.604  1.00  0.00     0.074 A 
ATOM     58  C   UNL     1       5.055  14.025  -9.712  1.00  0.00     0.029 A 
ATOM     59  N   UNL     1       5.672  12.205  -8.591  1.00  0.00    -0.354 N 
ATOM     60  N   UNL     1       7.419   9.932  -7.967  1.00  0.00    -0.248 NA
ATOM     61  C   UNL     1       9.238   8.567  -8.500  1.00  0.00     0.031 C 
ATOM     62  C   UNL     1       6.174  13.473 -10.344  1.00  0.00     0.029 A 
ATOM     63  C   UNL     1       6.580  12.360  -9.624  1.00  0.00     0.049 A 
ATOM     64  H   UNL     1       5.699  11.487  -7.918  1.00  0.00     0.167 HD
ATOM     65  C   UNL     1       8.042  10.425  -9.110  1.00  0.00     0.074 A 
ATOM     66  C   UNL     1       9.175   9.563  -9.374  1.00  0.00     0.031 C 
ATOM     67  C   UNL     1       7.710  11.499  -9.869  1.00  0.00     0.031 A 
BRANCH  54  68
ATOM     68  C   UNL     1       2.621  14.452  -7.967  1.00  0.00    -0.014 A 
ATOM     69  C   UNL     1       2.516  15.527  -7.066  1.00  0.00     0.010 A 
ATOM     70  C   UNL     1       1.809  14.442  -9.117  1.00  0.00     0.010 A 
ATOM     71  C   UNL     1       1.592  16.551  -7.291  1.00  0.00     0.020 A 
ATOM     72  C   UNL     1       0.906  15.479  -9.362  1.00  0.00     0.020 A 
ATOM     73  C   UNL     1       0.792  16.520  -8.438  1.00  0.00     0.054 A 
BRANCH  73  74
ATOM     74  S   UNL     1      -0.380  17.875  -8.716  1.00  0.00     0.124 S 
ATOM     75  O   UNL     1      -1.383  17.622  -7.684  1.00  0.00    -0.237 OA
ATOM     76  O   UNL     1       0.448  19.060  -8.509  1.00  0.00    -0.237 OA
ATOM     77  O   UNL     1      -0.834  17.667 -10.088  1.00  0.00    -0.744 OA
ENDBRANCH  73  74
ENDBRANCH  54  68
BRANCH  55  78
ATOM     78  C   UNL     1       8.838   6.828  -6.173  1.00  0.00    -0.014 A 
ATOM     79  C   UNL     1      10.182   7.044  -5.821  1.00  0.00     0.010 A 
ATOM     80  C   UNL     1       8.374   5.507  -6.312  1.00  0.00     0.010 A 
ATOM     81  C   UNL     1      11.048   5.962  -5.629  1.00  0.00     0.020 A 
ATOM     82  C   UNL     1       9.227   4.423  -6.090  1.00  0.00     0.020 A 
ATOM     83  C   UNL     1      10.563   4.658  -5.760  1.00  0.00     0.054 A 
BRANCH  83  84
ATOM     84  S   UNL     1      11.691   3.271  -5.454  1.00  0.00     0.124 S 
ATOM     85  O   UNL     1      12.566   3.327  -6.620  1.00  0.00    -0.237 OA
ATOM     86  O   UNL     1      12.304   3.643  -4.181  1.00  0.00    -0.237 OA
ATOM     87  O   UNL     1      10.800   2.114  -5.393  1.00  0.00    -0.744 OA
ENDBRANCH  83  84
ENDBRANCH  55  78
BRANCH  67  88
ATOM     88  C   UNL     1       8.605  11.845 -11.031  1.00  0.00    -0.014 A 
ATOM     89  C   UNL     1       8.637  11.060 -12.196  1.00  0.00     0.010 A 
ATOM     90  C   UNL     1       9.367  13.029 -10.984  1.00  0.00     0.010 A 
ATOM     91  C   UNL     1       9.430  11.440 -13.283  1.00  0.00     0.020 A 
ATOM     92  C   UNL     1      10.136  13.428 -12.079  1.00  0.00     0.020 A 
ATOM     93  C   UNL     1      10.171  12.624 -13.219  1.00  0.00     0.054 A 
BRANCH  93  94
ATOM     94  S   UNL     1      11.141  13.127 -14.668  1.00  0.00     0.124 S 
ATOM     95  O   UNL     1      12.229  12.153 -14.658  1.00  0.00    -0.237 OA
ATOM     96  O   UNL     1      10.181  12.985 -15.760  1.00  0.00    -0.237 OA
ATOM     97  O   UNL     1      11.532  14.502 -14.365  1.00  0.00    -0.744 OA
ENDBRANCH  93  94
ENDBRANCH  67  88
ENDBRANCH  41  42
ENDBRANCH  34  36
ENDBRANCH  33  34
ENDBRANCH  32  33
ENDBRANCH  31  32
ENDBRANCH  30  31
ENDBRANCH  29  30
ENDBRANCH   1  29
TORSDOF 27
