REMARK SMILES CC(=O)Nc1cnc(N2CC=C(c3ccccc3C)CC2)c(C(=O)OCCOCCOCCOCCOC(=O)c2ccc(-c3c4nc(c(-c5ccc(S(=O)(=O)[O-])cc5)c5ccc([nH]5)c(-c5ccc(S(=O)(=O)[O-])cc5)c5nc(c(-c6ccc(S(=O)(=O)[O-])cc6)c6ccc3[nH]6)C=C5)C=C4)cc2)c1
REMARK SMILES IDX 32 1 31 2 30 3 29 4 28 5 27 6 26 7 25 8 23 9 24 10 22 11
REMARK SMILES IDX 5 12 6 13 100 14 7 15 8 16 4 17 1 18 2 19 3 20 9 22 10 23
REMARK SMILES IDX 21 24 11 25 20 26 12 27 13 28 14 29 18 30 15 31 17 32 19 33
REMARK SMILES IDX 16 34 33 35 34 36 35 37 36 38 37 39 38 40 39 41 40 42 41 43
REMARK SMILES IDX 99 44 42 45 98 46 43 47 44 48 45 49 92 50 46 51 97 52 91 53
REMARK SMILES IDX 93 54 47 55 96 56 90 57 89 58 48 60 78 61 59 62 77 63 60 64
REMARK SMILES IDX 63 65 76 66 94 67 61 68 62 69 75 71 95 72 64 73 49 74 50 75
REMARK SMILES IDX 58 76 51 77 57 78 52 79 53 80 54 81 55 82 56 83 79 84 80 85
REMARK SMILES IDX 88 86 81 87 87 88 82 89 83 90 84 91 85 92 86 93 65 94 66 95
REMARK SMILES IDX 74 96 67 97 73 98 68 99 69 100 70 101 71 102 72 103
REMARK H PARENT 4 21 93 59 63 70
REMARK Flexibility Score: inf
ROOT
ATOM      1  C   UNL     1       6.776   1.061  -1.931  1.00  0.00     0.188 C 
ENDROOT
BRANCH   1   2
ATOM      2  O   UNL     1       5.524   1.565  -1.467  1.00  0.00    -0.377 OA
BRANCH   2   3
ATOM      3  C   UNL     1       5.220   2.892  -1.787  1.00  0.00     0.188 C 
BRANCH   3   4
ATOM      4  C   UNL     1       5.520   4.005  -0.783  1.00  0.00     0.188 C 
BRANCH   4   5
ATOM      5  O   UNL     1       6.516   4.079   0.221  1.00  0.00    -0.376 OA
BRANCH   5   6
ATOM      6  C   UNL     1       6.406   3.162   1.290  1.00  0.00     0.202 C 
BRANCH   6   7
ATOM      7  C   UNL     1       5.317   3.278   2.340  1.00  0.00     0.261 C 
BRANCH   7   8
ATOM      8  O   UNL     1       4.061   3.187   1.719  1.00  0.00    -0.460 OA
BRANCH   8   9
ATOM      9  C   UNL     1       3.152   4.000   2.261  1.00  0.00     0.342 C 
ATOM     10  O   UNL     1       3.126   4.508   3.369  1.00  0.00    -0.246 OA
BRANCH   9  11
ATOM     11  C   UNL     1       2.304   4.345   1.150  1.00  0.00     0.104 A 
ATOM     12  C   UNL     1       1.075   3.460  -0.723  1.00  0.00     0.060 A 
ATOM     13  C   UNL     1       1.046   4.786  -1.152  1.00  0.00     0.139 A 
ATOM     14  C   UNL     1       1.735   3.251   0.460  1.00  0.00     0.047 A 
ATOM     15  N   UNL     1       1.638   5.854  -0.523  1.00  0.00    -0.236 NA
ATOM     16  C   UNL     1       2.301   5.651   0.641  1.00  0.00     0.143 A 
BRANCH  12  17
ATOM     17  N   UNL     1       0.526   2.439  -1.523  1.00  0.00    -0.325 N 
ATOM     18  C   UNL     1       0.309   0.526   0.095  1.00  0.00     0.114 C 
ATOM     19  C   UNL     1       0.240   1.121  -1.286  1.00  0.00     0.221 C 
ATOM     20  O   UNL     1      -0.147   0.433  -2.237  1.00  0.00    -0.275 OA
ATOM     21  H   UNL     1       0.303   2.732  -2.436  1.00  0.00     0.169 HD
ENDBRANCH  12  17
BRANCH  16  22
ATOM     22  N   UNL     1       3.167   6.678   1.063  1.00  0.00    -0.352 N 
ATOM     23  C   UNL     1       3.001   7.297   2.383  1.00  0.00     0.146 C 
ATOM     24  C   UNL     1       4.550   6.431   0.663  1.00  0.00     0.123 C 
ATOM     25  C   UNL     1       4.083   8.314   2.650  1.00  0.00    -0.002 C 
ATOM     26  C   UNL     1       5.506   7.594   0.757  1.00  0.00     0.057 C 
ATOM     27  C   UNL     1       5.196   8.477   1.913  1.00  0.00    -0.041 C 
BRANCH  27  28
ATOM     28  C   UNL     1       6.117   9.595   2.156  1.00  0.00    -0.020 A 
ATOM     29  C   UNL     1       6.833   9.647   3.361  1.00  0.00     0.008 A 
ATOM     30  C   UNL     1       6.250  10.640   1.215  1.00  0.00    -0.044 A 
ATOM     31  C   UNL     1       7.654  10.737   3.647  1.00  0.00     0.001 A 
ATOM     32  C   UNL     1       7.093  11.720   1.514  1.00  0.00     0.004 A 
ATOM     33  C   UNL     1       5.542  10.633  -0.113  1.00  0.00     0.045 C 
ATOM     34  C   UNL     1       7.776  11.775   2.728  1.00  0.00     0.000 A 
ENDBRANCH  27  28
ENDBRANCH  16  22
ENDBRANCH   9  11
ENDBRANCH   8   9
ENDBRANCH   7   8
ENDBRANCH   6   7
ENDBRANCH   5   6
ENDBRANCH   4   5
ENDBRANCH   3   4
ENDBRANCH   2   3
ENDBRANCH   1   2
BRANCH   1  35
ATOM     35  C   UNL     1       7.653   1.917  -2.834  1.00  0.00     0.188 C 
BRANCH  35  36
ATOM     36  O   UNL     1       8.020   3.082  -2.096  1.00  0.00    -0.376 OA
BRANCH  36  37
ATOM     37  C   UNL     1       8.616   4.134  -2.832  1.00  0.00     0.202 C 
BRANCH  37  38
ATOM     38  C   UNL     1       9.853   3.707  -3.628  1.00  0.00     0.261 C 
BRANCH  38  39
ATOM     39  O   UNL     1      10.988   3.495  -2.754  1.00  0.00    -0.460 OA
BRANCH  39  40
ATOM     40  C   UNL     1      11.371   2.201  -2.518  1.00  0.00     0.338 C 
ATOM     41  O   UNL     1      12.173   1.606  -3.217  1.00  0.00    -0.246 OA
BRANCH  40  42
ATOM     42  C   UNL     1      10.810   1.683  -1.234  1.00  0.00     0.060 A 
ATOM     43  C   UNL     1      10.746   0.319  -0.910  1.00  0.00     0.016 A 
ATOM     44  C   UNL     1      10.230   2.577  -0.365  1.00  0.00     0.016 A 
ATOM     45  C   UNL     1       9.923  -0.159   0.149  1.00  0.00     0.010 A 
ATOM     46  C   UNL     1       9.402   2.098   0.632  1.00  0.00     0.010 A 
ATOM     47  C   UNL     1       9.160   0.732   0.893  1.00  0.00    -0.014 A 
BRANCH  47  48
ATOM     48  C   UNL     1       8.040   0.432   1.866  1.00  0.00     0.031 A 
ATOM     49  C   UNL     1       8.072   1.232   3.174  1.00  0.00     0.074 A 
ATOM     50  C   UNL     1       6.891  -0.148   1.379  1.00  0.00     0.049 A 
ATOM     51  N   UNL     1       7.123   1.353   4.041  1.00  0.00    -0.248 NA
ATOM     52  C   UNL     1       9.233   2.052   3.575  1.00  0.00     0.031 C 
ATOM     53  C   UNL     1       5.469   0.198   1.607  1.00  0.00     0.029 A 
ATOM     54  N   UNL     1       6.732  -1.140   0.422  1.00  0.00    -0.354 N 
ATOM     55  C   UNL     1       7.380   2.472   4.853  1.00  0.00     0.074 A 
ATOM     56  C   UNL     1       8.735   2.838   4.539  1.00  0.00     0.031 C 
ATOM     57  C   UNL     1       4.626  -0.589   0.929  1.00  0.00     0.029 A 
ATOM     58  C   UNL     1       5.419  -1.656   0.434  1.00  0.00     0.049 A 
ATOM     59  H   UNL     1       7.443  -1.445  -0.186  1.00  0.00     0.167 HD
ATOM     60  C   UNL     1       6.366   3.046   5.585  1.00  0.00     0.031 A 
ATOM     61  C   UNL     1       5.190  -2.934   0.843  1.00  0.00     0.031 A 
ATOM     62  C   UNL     1       5.155   2.197   5.542  1.00  0.00     0.049 A 
ATOM     63  C   UNL     1       4.689  -2.940   2.304  1.00  0.00     0.074 A 
ATOM     64  C   UNL     1       3.814   2.416   5.286  1.00  0.00     0.029 A 
ATOM     65  N   UNL     1       5.282   0.808   5.612  1.00  0.00    -0.354 N 
ATOM     66  N   UNL     1       4.966  -2.005   3.198  1.00  0.00    -0.248 NA
ATOM     67  C   UNL     1       3.638  -3.841   2.789  1.00  0.00     0.031 C 
ATOM     68  C   UNL     1       3.222   1.177   4.920  1.00  0.00     0.029 A 
ATOM     69  C   UNL     1       4.156   0.175   5.137  1.00  0.00     0.049 A 
ATOM     70  H   UNL     1       6.077   0.341   5.958  1.00  0.00     0.167 HD
ATOM     71  C   UNL     1       4.130  -2.127   4.284  1.00  0.00     0.074 A 
ATOM     72  C   UNL     1       3.339  -3.310   3.990  1.00  0.00     0.031 C 
ATOM     73  C   UNL     1       3.991  -1.253   5.331  1.00  0.00     0.031 A 
BRANCH  60  74
ATOM     74  C   UNL     1       6.330   4.488   6.181  1.00  0.00    -0.014 A 
ATOM     75  C   UNL     1       5.130   4.960   6.776  1.00  0.00     0.010 A 
ATOM     76  C   UNL     1       7.360   5.455   6.141  1.00  0.00     0.010 A 
ATOM     77  C   UNL     1       4.938   6.277   7.241  1.00  0.00     0.020 A 
ATOM     78  C   UNL     1       7.201   6.779   6.649  1.00  0.00     0.020 A 
ATOM     79  C   UNL     1       5.982   7.186   7.186  1.00  0.00     0.054 A 
BRANCH  79  80
ATOM     80  S   UNL     1       5.723   8.851   7.875  1.00  0.00     0.124 S 
ATOM     81  O   UNL     1       4.719   9.416   6.977  1.00  0.00    -0.237 OA
ATOM     82  O   UNL     1       5.260   8.569   9.231  1.00  0.00    -0.237 OA
ATOM     83  O   UNL     1       7.045   9.471   7.793  1.00  0.00    -0.744 OA
ENDBRANCH  79  80
ENDBRANCH  60  74
BRANCH  61  84
ATOM     84  C   UNL     1       6.046  -3.814  -0.038  1.00  0.00    -0.014 A 
ATOM     85  C   UNL     1       5.632  -3.761  -1.408  1.00  0.00     0.010 A 
ATOM     86  C   UNL     1       7.434  -3.874   0.211  1.00  0.00     0.010 A 
ATOM     87  C   UNL     1       6.542  -3.429  -2.428  1.00  0.00     0.020 A 
ATOM     88  C   UNL     1       8.350  -3.566  -0.824  1.00  0.00     0.020 A 
ATOM     89  C   UNL     1       7.890  -3.273  -2.116  1.00  0.00     0.054 A 
BRANCH  89  90
ATOM     90  S   UNL     1       8.973  -2.458  -3.343  1.00  0.00     0.124 S 
ATOM     91  O   UNL     1       9.050  -3.452  -4.407  1.00  0.00    -0.237 OA
ATOM     92  O   UNL     1       8.229  -1.242  -3.669  1.00  0.00    -0.237 OA
ATOM     93  O   UNL     1      10.209  -2.236  -2.602  1.00  0.00    -0.744 OA
ENDBRANCH  89  90
ENDBRANCH  61  84
BRANCH  73  94
ATOM     94  C   UNL     1       3.603  -1.668   6.740  1.00  0.00    -0.014 A 
ATOM     95  C   UNL     1       3.614  -3.001   7.160  1.00  0.00     0.010 A 
ATOM     96  C   UNL     1       3.439  -0.678   7.751  1.00  0.00     0.010 A 
ATOM     97  C   UNL     1       3.416  -3.336   8.502  1.00  0.00     0.020 A 
ATOM     98  C   UNL     1       3.293  -0.998   9.100  1.00  0.00     0.020 A 
ATOM     99  C   UNL     1       3.257  -2.334   9.462  1.00  0.00     0.054 A 
BRANCH  99 100
ATOM    100  S   UNL     1       3.055  -2.811  11.190  1.00  0.00     0.124 S 
ATOM    101  O   UNL     1       1.673  -3.284  11.205  1.00  0.00    -0.237 OA
ATOM    102  O   UNL     1       4.074  -3.845  11.356  1.00  0.00    -0.237 OA
ATOM    103  O   UNL     1       3.303  -1.576  11.928  1.00  0.00    -0.744 OA
ENDBRANCH  99 100
ENDBRANCH  73  94
ENDBRANCH  47  48
ENDBRANCH  40  42
ENDBRANCH  39  40
ENDBRANCH  38  39
ENDBRANCH  37  38
ENDBRANCH  36  37
ENDBRANCH  35  36
ENDBRANCH   1  35
TORSDOF 26
