REMARK SMILES NC(=O)CC[N@@H+]1[C@@H](C(=O)OCCOCCOCCOCCOC(=O)c2ccc(-c3c4nc(c(-c5ccc(S(=O)(=O)[O-])cc5)c5ccc([nH]5)c(-c5ccc(S(=O)(=O)[O-])cc5)c5nc(c(-c6ccc(S(=O)(=O)[O-])cc6)c6ccc3[nH]6)C=C5)C=C4)cc2)CC[C@@H]2CCCC[C@H]21
REMARK SMILES IDX 16 1 15 2 14 3 13 4 12 5 11 6 10 7 8 8 9 9 7 10 6 11 92 12
REMARK SMILES IDX 85 14 87 15 91 16 86 17 88 18 90 19 89 20 5 21 4 22 2 23
REMARK SMILES IDX 1 24 3 27 17 28 18 29 19 30 20 31 21 32 22 33 23 34 24 35
REMARK SMILES IDX 25 36 26 37 84 38 27 39 83 40 28 41 29 42 30 43 77 44 31 45
REMARK SMILES IDX 82 46 76 47 78 48 32 49 81 50 75 51 74 52 33 54 63 55 44 56
REMARK SMILES IDX 62 57 45 58 48 59 61 60 79 61 46 62 47 63 60 65 80 66 49 67
REMARK SMILES IDX 34 68 35 69 43 70 36 71 42 72 37 73 38 74 39 75 40 76 41 77
REMARK SMILES IDX 64 78 65 79 73 80 66 81 72 82 67 83 68 84 69 85 70 86 71 87
REMARK SMILES IDX 50 88 51 89 59 90 52 91 58 92 53 93 54 94 55 95 56 96 57 97
REMARK H PARENT 6 13 1 25 1 26 78 53 48 64
REMARK Flexibility Score: inf
ROOT
ATOM      1  O   UNL     1       3.840  -2.843  -0.577  1.00  0.00    -0.377 OA
ENDROOT
BRANCH   1   2
ATOM      2  C   UNL     1       2.433  -2.681  -0.510  1.00  0.00     0.188 C 
BRANCH   2   3
ATOM      3  C   UNL     1       1.644  -2.576  -1.827  1.00  0.00     0.188 C 
BRANCH   3   4
ATOM      4  O   UNL     1       2.250  -3.257  -2.906  1.00  0.00    -0.376 OA
BRANCH   4   5
ATOM      5  C   UNL     1       2.773  -2.492  -3.982  1.00  0.00     0.202 C 
BRANCH   5   6
ATOM      6  C   UNL     1       3.859  -1.426  -3.721  1.00  0.00     0.261 C 
BRANCH   6   7
ATOM      7  O   UNL     1       3.800  -0.782  -2.439  1.00  0.00    -0.459 OA
BRANCH   7   8
ATOM      8  C   UNL     1       3.097   0.376  -2.386  1.00  0.00     0.364 C 
ATOM      9  O   UNL     1       2.539   0.839  -3.377  1.00  0.00    -0.245 OA
BRANCH   8  10
ATOM     10  C   UNL     1       2.885   0.885  -0.922  1.00  0.00     0.295 C 
ATOM     11  N   UNL     1       2.553   2.326  -0.923  1.00  0.00    -0.320 N 
ATOM     12  C   UNL     1       2.733   3.084   0.327  1.00  0.00     0.187 C 
ATOM     13  H   UNL     1       3.334   2.634  -1.503  1.00  0.00     0.349 HD
ATOM     14  C   UNL     1       4.040   0.515   0.031  1.00  0.00     0.078 C 
ATOM     15  C   UNL     1       3.836   2.582   1.287  1.00  0.00     0.048 C 
ATOM     16  C   UNL     1       3.108   4.551   0.006  1.00  0.00     0.065 C 
ATOM     17  C   UNL     1       3.787   1.075   1.431  1.00  0.00     0.016 C 
ATOM     18  C   UNL     1       3.732   3.337   2.618  1.00  0.00     0.010 C 
ATOM     19  C   UNL     1       3.126   5.408   1.273  1.00  0.00     0.006 C 
ATOM     20  C   UNL     1       4.003   4.824   2.380  1.00  0.00     0.001 C 
BRANCH  11  21
ATOM     21  C   UNL     1       1.321   2.728  -1.654  1.00  0.00     0.273 C 
BRANCH  21  22
ATOM     22  C   UNL     1       0.118   1.802  -1.923  1.00  0.00     0.161 C 
BRANCH  22  23
ATOM     23  C   UNL     1      -0.721   1.432  -0.724  1.00  0.00     0.223 C 
ATOM     24  N   UNL     1      -0.505   0.188  -0.209  1.00  0.00    -0.369 N 
ATOM     25  H   UNL     1      -1.018  -0.117   0.574  1.00  0.00     0.159 HD
ATOM     26  H   UNL     1       0.165  -0.405  -0.620  1.00  0.00     0.159 HD
ATOM     27  O   UNL     1      -1.592   2.155  -0.253  1.00  0.00    -0.275 OA
ENDBRANCH  22  23
ENDBRANCH  21  22
ENDBRANCH  11  21
ENDBRANCH   8  10
ENDBRANCH   7   8
ENDBRANCH   6   7
ENDBRANCH   5   6
ENDBRANCH   4   5
ENDBRANCH   3   4
ENDBRANCH   2   3
ENDBRANCH   1   2
BRANCH   1  28
ATOM     28  C   UNL     1       4.397  -3.929  -1.315  1.00  0.00     0.188 C 
BRANCH  28  29
ATOM     29  C   UNL     1       3.595  -5.234  -1.504  1.00  0.00     0.188 C 
BRANCH  29  30
ATOM     30  O   UNL     1       2.502  -5.388  -0.615  1.00  0.00    -0.376 OA
BRANCH  30  31
ATOM     31  C   UNL     1       2.722  -6.175   0.545  1.00  0.00     0.202 C 
BRANCH  31  32
ATOM     32  C   UNL     1       3.825  -5.722   1.517  1.00  0.00     0.261 C 
BRANCH  32  33
ATOM     33  O   UNL     1       5.162  -5.645   0.994  1.00  0.00    -0.460 OA
BRANCH  33  34
ATOM     34  C   UNL     1       5.691  -6.752   0.420  1.00  0.00     0.338 C 
ATOM     35  O   UNL     1       5.186  -7.849   0.345  1.00  0.00    -0.246 OA
BRANCH  34  36
ATOM     36  C   UNL     1       6.915  -6.332  -0.304  1.00  0.00     0.060 A 
ATOM     37  C   UNL     1       6.989  -6.529  -1.691  1.00  0.00     0.016 A 
ATOM     38  C   UNL     1       7.975  -5.736   0.382  1.00  0.00     0.016 A 
ATOM     39  C   UNL     1       8.143  -6.169  -2.389  1.00  0.00     0.010 A 
ATOM     40  C   UNL     1       9.140  -5.402  -0.314  1.00  0.00     0.010 A 
ATOM     41  C   UNL     1       9.243  -5.655  -1.694  1.00  0.00    -0.014 A 
BRANCH  41  42
ATOM     42  C   UNL     1      10.571  -5.607  -2.353  1.00  0.00     0.031 A 
ATOM     43  C   UNL     1      11.518  -6.754  -2.114  1.00  0.00     0.074 A 
ATOM     44  C   UNL     1      10.929  -4.592  -3.159  1.00  0.00     0.049 A 
ATOM     45  N   UNL     1      12.739  -6.929  -2.544  1.00  0.00    -0.248 NA
ATOM     46  C   UNL     1      11.012  -7.850  -1.269  1.00  0.00     0.031 C 
ATOM     47  C   UNL     1      10.081  -3.459  -3.525  1.00  0.00     0.029 A 
ATOM     48  N   UNL     1      12.110  -4.357  -3.818  1.00  0.00    -0.354 N 
ATOM     49  C   UNL     1      13.155  -8.143  -2.008  1.00  0.00     0.074 A 
ATOM     50  C   UNL     1      12.067  -8.646  -1.199  1.00  0.00     0.031 C 
ATOM     51  C   UNL     1      10.771  -2.649  -4.348  1.00  0.00     0.029 A 
ATOM     52  C   UNL     1      12.119  -3.184  -4.534  1.00  0.00     0.049 A 
ATOM     53  H   UNL     1      12.878  -4.972  -3.782  1.00  0.00     0.167 HD
ATOM     54  C   UNL     1      14.337  -8.784  -2.173  1.00  0.00     0.031 A 
ATOM     55  C   UNL     1      13.109  -2.603  -5.242  1.00  0.00     0.031 A 
ATOM     56  C   UNL     1      15.425  -8.268  -2.960  1.00  0.00     0.049 A 
ATOM     57  C   UNL     1      14.452  -3.285  -5.330  1.00  0.00     0.074 A 
ATOM     58  C   UNL     1      16.658  -8.845  -3.205  1.00  0.00     0.029 A 
ATOM     59  N   UNL     1      15.418  -7.045  -3.615  1.00  0.00    -0.354 N 
ATOM     60  N   UNL     1      14.825  -4.444  -4.840  1.00  0.00    -0.248 NA
ATOM     61  C   UNL     1      15.505  -2.579  -6.074  1.00  0.00     0.031 C 
ATOM     62  C   UNL     1      17.423  -7.938  -3.946  1.00  0.00     0.029 A 
ATOM     63  C   UNL     1      16.639  -6.831  -4.231  1.00  0.00     0.049 A 
ATOM     64  H   UNL     1      14.656  -6.422  -3.638  1.00  0.00     0.167 HD
ATOM     65  C   UNL     1      16.144  -4.623  -5.248  1.00  0.00     0.074 A 
ATOM     66  C   UNL     1      16.500  -3.456  -6.030  1.00  0.00     0.031 C 
ATOM     67  C   UNL     1      16.982  -5.662  -5.004  1.00  0.00     0.031 A 
BRANCH  54  68
ATOM     68  C   UNL     1      14.528 -10.083  -1.431  1.00  0.00    -0.014 A 
ATOM     69  C   UNL     1      13.791 -11.236  -1.759  1.00  0.00     0.010 A 
ATOM     70  C   UNL     1      15.461 -10.146  -0.381  1.00  0.00     0.010 A 
ATOM     71  C   UNL     1      13.939 -12.407  -1.010  1.00  0.00     0.020 A 
ATOM     72  C   UNL     1      15.639 -11.325   0.348  1.00  0.00     0.020 A 
ATOM     73  C   UNL     1      14.857 -12.441   0.044  1.00  0.00     0.054 A 
BRANCH  73  74
ATOM     74  S   UNL     1      15.020 -13.969   1.008  1.00  0.00     0.124 S 
ATOM     75  O   UNL     1      13.767 -13.985   1.758  1.00  0.00    -0.237 OA
ATOM     76  O   UNL     1      15.144 -14.990  -0.029  1.00  0.00    -0.237 OA
ATOM     77  O   UNL     1      16.221 -13.748   1.809  1.00  0.00    -0.744 OA
ENDBRANCH  73  74
ENDBRANCH  54  68
BRANCH  55  78
ATOM     78  C   UNL     1      12.869  -1.306  -5.934  1.00  0.00    -0.014 A 
ATOM     79  C   UNL     1      12.840  -1.244  -7.338  1.00  0.00     0.010 A 
ATOM     80  C   UNL     1      12.662  -0.126  -5.194  1.00  0.00     0.010 A 
ATOM     81  C   UNL     1      12.613  -0.028  -7.990  1.00  0.00     0.020 A 
ATOM     82  C   UNL     1      12.406   1.086  -5.843  1.00  0.00     0.020 A 
ATOM     83  C   UNL     1      12.389   1.128  -7.238  1.00  0.00     0.054 A 
BRANCH  83  84
ATOM     84  S   UNL     1      12.025   2.677  -8.109  1.00  0.00     0.124 S 
ATOM     85  O   UNL     1      13.312   2.992  -8.721  1.00  0.00    -0.237 OA
ATOM     86  O   UNL     1      10.966   2.275  -9.032  1.00  0.00    -0.237 OA
ATOM     87  O   UNL     1      11.602   3.580  -7.041  1.00  0.00    -0.744 OA
ENDBRANCH  83  84
ENDBRANCH  55  78
BRANCH  67  88
ATOM     88  C   UNL     1      18.357  -5.613  -5.623  1.00  0.00    -0.014 A 
ATOM     89  C   UNL     1      19.336  -4.709  -5.174  1.00  0.00     0.010 A 
ATOM     90  C   UNL     1      18.691  -6.534  -6.634  1.00  0.00     0.010 A 
ATOM     91  C   UNL     1      20.611  -4.706  -5.747  1.00  0.00     0.020 A 
ATOM     92  C   UNL     1      19.974  -6.557  -7.185  1.00  0.00     0.020 A 
ATOM     93  C   UNL     1      20.923  -5.632  -6.747  1.00  0.00     0.054 A 
BRANCH  93  94
ATOM     94  S   UNL     1      22.599  -5.636  -7.441  1.00  0.00     0.124 S 
ATOM     95  O   UNL     1      22.606  -4.407  -8.230  1.00  0.00    -0.237 OA
ATOM     96  O   UNL     1      23.439  -5.621  -6.246  1.00  0.00    -0.237 OA
ATOM     97  O   UNL     1      22.651  -6.874  -8.216  1.00  0.00    -0.744 OA
ENDBRANCH  93  94
ENDBRANCH  67  88
ENDBRANCH  41  42
ENDBRANCH  34  36
ENDBRANCH  33  34
ENDBRANCH  32  33
ENDBRANCH  31  32
ENDBRANCH  30  31
ENDBRANCH  29  30
ENDBRANCH  28  29
ENDBRANCH   1  28
TORSDOF 26
