REMARK SMILES C[C@]12CCC[C@](C)(C(=O)OCCOCCOCCOCCOC(=O)c3ccc(-c4c5nc(c(-c6ccc(S(=O)(=O)[O-])cc6)c6ccc([nH]6)c(-c6ccc(S(=O)(=O)[O-])cc6)c6nc(c(-c7ccc(S(=O)(=O)[O-])cc7)c7ccc4[nH]7)C=C6)C=C5)cc3)[C@@H]1CC[C@]13C=C(CO)[C@H](CC[C@H]12)C3
REMARK SMILES IDX 17 1 16 2 15 3 14 4 13 5 12 6 11 7 10 8 8 9 9 10 6 11 1 12
REMARK SMILES IDX 2 13 3 14 85 15 96 16 4 17 86 18 88 19 95 20 5 21 7 22 87 23
REMARK SMILES IDX 89 24 97 25 94 26 90 27 93 28 91 29 92 30 18 32 19 33 20 34
REMARK SMILES IDX 21 35 22 36 23 37 24 38 25 39 26 40 84 41 27 42 83 43 28 44
REMARK SMILES IDX 29 45 30 46 77 47 31 48 82 49 76 50 78 51 32 52 81 53 75 54
REMARK SMILES IDX 74 55 33 57 63 58 44 59 62 60 45 61 48 62 61 63 79 64 46 65
REMARK SMILES IDX 47 66 60 68 80 69 49 70 34 71 35 72 43 73 36 74 42 75 37 76
REMARK SMILES IDX 38 77 39 78 40 79 41 80 64 81 65 82 73 83 66 84 72 85 67 86
REMARK SMILES IDX 68 87 69 88 70 89 71 90 50 91 51 92 59 93 52 94 58 95 53 96
REMARK SMILES IDX 54 97 55 98 56 99 57 100
REMARK H PARENT 92 31 78 56 48 67
REMARK Flexibility Score: inf
ROOT
ATOM      1  C   UNL     1       3.633  -0.275  -4.785  1.00  0.00     0.188 C 
ENDROOT
BRANCH   1   2
ATOM      2  O   UNL     1       2.466  -0.201  -4.001  1.00  0.00    -0.377 OA
BRANCH   2   3
ATOM      3  C   UNL     1       2.441   0.777  -2.986  1.00  0.00     0.188 C 
BRANCH   3   4
ATOM      4  C   UNL     1       3.643   0.944  -2.053  1.00  0.00     0.188 C 
BRANCH   4   5
ATOM      5  O   UNL     1       4.780   0.157  -2.367  1.00  0.00    -0.376 OA
BRANCH   5   6
ATOM      6  C   UNL     1       4.975  -0.981  -1.530  1.00  0.00     0.202 C 
BRANCH   6   7
ATOM      7  C   UNL     1       3.911  -2.105  -1.566  1.00  0.00     0.261 C 
BRANCH   7   8
ATOM      8  O   UNL     1       2.552  -1.608  -1.675  1.00  0.00    -0.463 OA
BRANCH   8   9
ATOM      9  C   UNL     1       1.563  -2.448  -1.273  1.00  0.00     0.312 C 
ATOM     10  O   UNL     1       1.768  -3.646  -1.105  1.00  0.00    -0.252 OA
BRANCH   9  11
ATOM     11  C   UNL     1       0.170  -1.732  -0.967  1.00  0.00     0.069 C 
ATOM     12  C   UNL     1       2.219  -1.258   1.097  1.00  0.00     0.012 C 
ATOM     13  C   UNL     1       0.754  -0.845   1.431  1.00  0.00    -0.025 C 
ATOM     14  C   UNL     1      -0.006  -2.029   2.058  1.00  0.00     0.007 C 
ATOM     15  C   UNL     1       0.038  -0.472   0.100  1.00  0.00     0.012 C 
ATOM     16  C   UNL     1       0.926   0.295   2.465  1.00  0.00     0.005 C 
ATOM     17  C   UNL     1      -0.241  -3.221   1.135  1.00  0.00     0.002 C 
ATOM     18  C   UNL     1       0.260   1.019  -0.307  1.00  0.00     0.006 C 
ATOM     19  C   UNL     1       1.260   1.743   1.948  1.00  0.00    -0.008 C 
ATOM     20  C   UNL     1       0.340   0.374   3.865  1.00  0.00     0.006 C 
ATOM     21  C   UNL     1      -0.692  -2.858  -0.284  1.00  0.00     0.019 C 
ATOM     22  C   UNL     1      -0.478  -1.498  -2.345  1.00  0.00     0.024 C 
ATOM     23  C   UNL     1       0.291   2.094   0.825  1.00  0.00     0.012 C 
ATOM     24  C   UNL     1       2.725   1.750   1.632  1.00  0.00    -0.018 C 
ATOM     25  C   UNL     1       1.422   2.739   3.136  1.00  0.00     0.019 C 
ATOM     26  C   UNL     1       1.573   0.864   4.731  1.00  0.00     0.008 C 
ATOM     27  C   UNL     1       3.403   1.598   2.788  1.00  0.00    -0.045 C 
ATOM     28  C   UNL     1       2.463   1.946   3.978  1.00  0.00     0.018 C 
BRANCH  27  29
ATOM     29  C   UNL     1       4.819   1.120   2.781  1.00  0.00     0.187 C 
BRANCH  29  30
ATOM     30  O   UNL     1       4.869  -0.261   3.104  1.00  0.00    -0.392 OA
ATOM     31  H   UNL     1       4.495  -0.400   3.988  1.00  0.00     0.211 HD
ENDBRANCH  29  30
ENDBRANCH  27  29
ENDBRANCH   9  11
ENDBRANCH   8   9
ENDBRANCH   7   8
ENDBRANCH   6   7
ENDBRANCH   5   6
ENDBRANCH   4   5
ENDBRANCH   3   4
ENDBRANCH   2   3
ENDBRANCH   1   2
BRANCH   1  32
ATOM     32  C   UNL     1       4.233   1.066  -5.231  1.00  0.00     0.188 C 
BRANCH  32  33
ATOM     33  O   UNL     1       3.378   2.133  -5.633  1.00  0.00    -0.376 OA
BRANCH  33  34
ATOM     34  C   UNL     1       2.085   1.855  -6.145  1.00  0.00     0.202 C 
BRANCH  34  35
ATOM     35  C   UNL     1       1.970   1.159  -7.503  1.00  0.00     0.261 C 
BRANCH  35  36
ATOM     36  O   UNL     1       2.619  -0.117  -7.592  1.00  0.00    -0.460 OA
BRANCH  36  37
ATOM     37  C   UNL     1       3.861  -0.121  -8.136  1.00  0.00     0.338 C 
ATOM     38  O   UNL     1       4.467   0.838  -8.595  1.00  0.00    -0.246 OA
BRANCH  37  39
ATOM     39  C   UNL     1       4.472  -1.453  -7.932  1.00  0.00     0.060 A 
ATOM     40  C   UNL     1       5.695  -1.554  -7.248  1.00  0.00     0.016 A 
ATOM     41  C   UNL     1       3.836  -2.598  -8.411  1.00  0.00     0.016 A 
ATOM     42  C   UNL     1       6.296  -2.799  -7.060  1.00  0.00     0.010 A 
ATOM     43  C   UNL     1       4.456  -3.838  -8.256  1.00  0.00     0.010 A 
ATOM     44  C   UNL     1       5.700  -3.939  -7.606  1.00  0.00    -0.014 A 
BRANCH  44  45
ATOM     45  C   UNL     1       6.449  -5.213  -7.686  1.00  0.00     0.031 A 
ATOM     46  C   UNL     1       7.155  -5.536  -8.972  1.00  0.00     0.074 A 
ATOM     47  C   UNL     1       6.452  -6.086  -6.665  1.00  0.00     0.049 A 
ATOM     48  N   UNL     1       7.734  -6.645  -9.345  1.00  0.00    -0.248 NA
ATOM     49  C   UNL     1       7.197  -4.462  -9.979  1.00  0.00     0.031 C 
ATOM     50  C   UNL     1       5.840  -5.860  -5.358  1.00  0.00     0.029 A 
ATOM     51  N   UNL     1       6.962  -7.358  -6.589  1.00  0.00    -0.354 N 
ATOM     52  C   UNL     1       8.180  -6.417 -10.642  1.00  0.00     0.074 A 
ATOM     53  C   UNL     1       7.795  -5.067 -10.993  1.00  0.00     0.031 C 
ATOM     54  C   UNL     1       5.973  -6.976  -4.620  1.00  0.00     0.029 A 
ATOM     55  C   UNL     1       6.637  -8.005  -5.421  1.00  0.00     0.049 A 
ATOM     56  H   UNL     1       7.507  -7.766  -7.300  1.00  0.00     0.167 HD
ATOM     57  C   UNL     1       8.840  -7.262 -11.468  1.00  0.00     0.031 A 
ATOM     58  C   UNL     1       6.807  -9.293  -5.061  1.00  0.00     0.031 A 
ATOM     59  C   UNL     1       9.191  -8.611 -11.113  1.00  0.00     0.049 A 
ATOM     60  C   UNL     1       7.475 -10.243  -6.021  1.00  0.00     0.074 A 
ATOM     61  C   UNL     1       9.897  -9.539 -11.856  1.00  0.00     0.029 A 
ATOM     62  N   UNL     1       8.838  -9.233  -9.924  1.00  0.00    -0.354 N 
ATOM     63  N   UNL     1       7.948 -10.004  -7.223  1.00  0.00    -0.248 NA
ATOM     64  C   UNL     1       7.631 -11.636  -5.581  1.00  0.00     0.031 C 
ATOM     65  C   UNL     1       9.902 -10.746 -11.150  1.00  0.00     0.029 A 
ATOM     66  C   UNL     1       9.264 -10.550  -9.934  1.00  0.00     0.049 A 
ATOM     67  H   UNL     1       8.356  -8.801  -9.182  1.00  0.00     0.167 HD
ATOM     68  C   UNL     1       8.463 -11.213  -7.679  1.00  0.00     0.074 A 
ATOM     69  C   UNL     1       8.265 -12.177  -6.614  1.00  0.00     0.031 C 
ATOM     70  C   UNL     1       9.043 -11.501  -8.871  1.00  0.00     0.031 A 
BRANCH  57  71
ATOM     71  C   UNL     1       9.153  -6.769 -12.857  1.00  0.00    -0.014 A 
ATOM     72  C   UNL     1      10.087  -5.742 -13.084  1.00  0.00     0.010 A 
ATOM     73  C   UNL     1       8.495  -7.349 -13.957  1.00  0.00     0.010 A 
ATOM     74  C   UNL     1      10.313  -5.266 -14.379  1.00  0.00     0.020 A 
ATOM     75  C   UNL     1       8.742  -6.899 -15.256  1.00  0.00     0.020 A 
ATOM     76  C   UNL     1       9.633  -5.843 -15.456  1.00  0.00     0.054 A 
BRANCH  76  77
ATOM     77  S   UNL     1       9.939  -5.200 -17.124  1.00  0.00     0.124 S 
ATOM     78  O   UNL     1       9.280  -3.898 -17.070  1.00  0.00    -0.237 OA
ATOM     79  O   UNL     1      11.398  -5.162 -17.189  1.00  0.00    -0.237 OA
ATOM     80  O   UNL     1       9.305  -6.183 -17.998  1.00  0.00    -0.744 OA
ENDBRANCH  76  77
ENDBRANCH  57  71
BRANCH  58  81
ATOM     81  C   UNL     1       6.284  -9.759  -3.748  1.00  0.00    -0.014 A 
ATOM     82  C   UNL     1       7.159 -10.092  -2.701  1.00  0.00     0.010 A 
ATOM     83  C   UNL     1       4.895  -9.820  -3.522  1.00  0.00     0.010 A 
ATOM     84  C   UNL     1       6.657 -10.467  -1.451  1.00  0.00     0.020 A 
ATOM     85  C   UNL     1       4.389 -10.166  -2.266  1.00  0.00     0.020 A 
ATOM     86  C   UNL     1       5.275 -10.490  -1.237  1.00  0.00     0.054 A 
BRANCH  86  87
ATOM     87  S   UNL     1       4.654 -10.888   0.421  1.00  0.00     0.124 S 
ATOM     88  O   UNL     1       4.959 -12.311   0.527  1.00  0.00    -0.237 OA
ATOM     89  O   UNL     1       5.449 -10.006   1.273  1.00  0.00    -0.237 OA
ATOM     90  O   UNL     1       3.233 -10.556   0.347  1.00  0.00    -0.744 OA
ENDBRANCH  86  87
ENDBRANCH  58  81
BRANCH  70  91
ATOM     91  C   UNL     1       9.509 -12.916  -9.101  1.00  0.00    -0.014 A 
ATOM     92  C   UNL     1       8.588 -13.954  -9.325  1.00  0.00     0.010 A 
ATOM     93  C   UNL     1      10.887 -13.192  -9.190  1.00  0.00     0.010 A 
ATOM     94  C   UNL     1       9.036 -15.245  -9.623  1.00  0.00     0.020 A 
ATOM     95  C   UNL     1      11.338 -14.473  -9.516  1.00  0.00     0.020 A 
ATOM     96  C   UNL     1      10.409 -15.494  -9.724  1.00  0.00     0.054 A 
BRANCH  96  97
ATOM     97  S   UNL     1      10.959 -17.160 -10.187  1.00  0.00     0.124 S 
ATOM     98  O   UNL     1      10.637 -17.931  -8.990  1.00  0.00    -0.237 OA
ATOM     99  O   UNL     1      10.140 -17.451 -11.361  1.00  0.00    -0.237 OA
ATOM    100  O   UNL     1      12.385 -16.993 -10.455  1.00  0.00    -0.744 OA
ENDBRANCH  96  97
ENDBRANCH  70  91
ENDBRANCH  44  45
ENDBRANCH  37  39
ENDBRANCH  36  37
ENDBRANCH  35  36
ENDBRANCH  34  35
ENDBRANCH  33  34
ENDBRANCH  32  33
ENDBRANCH   1  32
TORSDOF 25
