REMARK SMILES CC(C)[C@H](C)CNC(=O)N[C@H]1C=C[C@@H](C(=O)OCCOCCOCCOCCOC(=O)c2ccc(-c3c4nc(c(-c5ccc(S(=O)(=O)[O-])cc5)c5ccc([nH]5)c(-c5ccc(S(=O)(=O)[O-])cc5)c5nc(c(-c6ccc(S(=O)(=O)[O-])cc6)c6ccc3[nH]6)C=C5)C=C4)cc2)C1
REMARK SMILES IDX 22 1 21 2 20 3 19 4 18 5 17 6 15 7 16 8 14 9 11 10 12 11
REMARK SMILES IDX 92 12 13 13 10 14 7 15 8 16 9 18 6 20 4 21 5 22 2 23 1 24
REMARK SMILES IDX 3 25 23 26 24 27 25 28 26 29 27 30 28 31 29 32 30 33 31 34
REMARK SMILES IDX 32 35 33 36 91 37 34 38 90 39 35 40 36 41 37 42 84 43 38 44
REMARK SMILES IDX 89 45 83 46 85 47 39 48 88 49 82 50 81 51 40 53 70 54 51 55
REMARK SMILES IDX 69 56 52 57 55 58 68 59 86 60 53 61 54 62 67 64 87 65 56 66
REMARK SMILES IDX 41 67 42 68 50 69 43 70 49 71 44 72 45 73 46 74 47 75 48 76
REMARK SMILES IDX 71 77 72 78 80 79 73 80 79 81 74 82 75 83 76 84 77 85 78 86
REMARK SMILES IDX 57 87 58 88 66 89 59 90 65 91 60 92 61 93 62 94 63 95 64 96
REMARK H PARENT 7 17 10 19 85 52 55 63
REMARK Flexibility Score: inf
ROOT
ATOM      1  C   UNL     1      -4.164   2.334  -6.670  1.00  0.00     0.188 C 
ENDROOT
BRANCH   1   2
ATOM      2  C   UNL     1      -4.151   3.826  -6.297  1.00  0.00     0.188 C 
BRANCH   2   3
ATOM      3  O   UNL     1      -3.006   4.633  -6.530  1.00  0.00    -0.376 OA
BRANCH   3   4
ATOM      4  C   UNL     1      -1.698   4.136  -6.277  1.00  0.00     0.202 C 
BRANCH   4   5
ATOM      5  C   UNL     1      -1.366   3.432  -4.952  1.00  0.00     0.261 C 
BRANCH   5   6
ATOM      6  O   UNL     1      -2.275   2.386  -4.561  1.00  0.00    -0.463 OA
BRANCH   6   7
ATOM      7  C   UNL     1      -3.083   2.606  -3.495  1.00  0.00     0.312 C 
ATOM      8  O   UNL     1      -3.070   3.631  -2.820  1.00  0.00    -0.252 OA
BRANCH   7   9
ATOM      9  C   UNL     1      -4.100   1.474  -3.255  1.00  0.00     0.124 C 
ATOM     10  C   UNL     1      -4.002  -0.971  -3.048  1.00  0.00     0.107 C 
ATOM     11  C   UNL     1      -3.880  -0.319  -1.724  1.00  0.00    -0.006 C 
ATOM     12  C   UNL     1      -3.953   0.164  -4.062  1.00  0.00     0.048 C 
ATOM     13  C   UNL     1      -4.011   1.010  -1.829  1.00  0.00    -0.014 C 
BRANCH  10  14
ATOM     14  N   UNL     1      -3.106  -2.076  -3.282  1.00  0.00    -0.332 N 
ATOM     15  N   UNL     1      -0.826  -1.423  -3.396  1.00  0.00    -0.338 N 
ATOM     16  C   UNL     1      -1.818  -2.299  -3.534  1.00  0.00     0.315 C 
ATOM     17  H   UNL     1       0.030  -1.766  -3.740  1.00  0.00     0.165 HD
ATOM     18  O   UNL     1      -1.531  -3.431  -3.936  1.00  0.00    -0.249 OA
ATOM     19  H   UNL     1      -3.599  -2.928  -3.245  1.00  0.00     0.165 HD
BRANCH  15  20
ATOM     20  C   UNL     1      -0.711  -0.084  -2.859  1.00  0.00     0.121 C 
BRANCH  20  21
ATOM     21  C   UNL     1      -0.218  -0.054  -1.398  1.00  0.00     0.008 C 
ATOM     22  C   UNL     1       1.293  -0.294  -1.355  1.00  0.00     0.010 C 
BRANCH  21  23
ATOM     23  C   UNL     1      -0.638   1.254  -0.662  1.00  0.00    -0.013 C 
ATOM     24  C   UNL     1      -0.115   1.337   0.772  1.00  0.00     0.008 C 
ATOM     25  C   UNL     1      -0.278   2.544  -1.400  1.00  0.00     0.008 C 
ENDBRANCH  21  23
ENDBRANCH  20  21
ENDBRANCH  15  20
ENDBRANCH  10  14
ENDBRANCH   7   9
ENDBRANCH   6   7
ENDBRANCH   5   6
ENDBRANCH   4   5
ENDBRANCH   3   4
ENDBRANCH   2   3
ENDBRANCH   1   2
BRANCH   1  26
ATOM     26  O   UNL     1      -2.926   1.794  -7.079  1.00  0.00    -0.377 OA
BRANCH  26  27
ATOM     27  C   UNL     1      -2.677   1.731  -8.477  1.00  0.00     0.188 C 
BRANCH  27  28
ATOM     28  C   UNL     1      -3.287   2.831  -9.366  1.00  0.00     0.188 C 
BRANCH  28  29
ATOM     29  O   UNL     1      -4.673   3.064  -9.148  1.00  0.00    -0.376 OA
BRANCH  29  30
ATOM     30  C   UNL     1      -5.634   2.364  -9.926  1.00  0.00     0.202 C 
BRANCH  30  31
ATOM     31  C   UNL     1      -5.687   0.827  -9.844  1.00  0.00     0.261 C 
BRANCH  31  32
ATOM     32  O   UNL     1      -4.501   0.112 -10.220  1.00  0.00    -0.460 OA
BRANCH  32  33
ATOM     33  C   UNL     1      -3.964   0.359 -11.432  1.00  0.00     0.338 C 
ATOM     34  O   UNL     1      -4.424   1.080 -12.303  1.00  0.00    -0.246 OA
BRANCH  33  35
ATOM     35  C   UNL     1      -2.606  -0.223 -11.453  1.00  0.00     0.060 A 
ATOM     36  C   UNL     1      -1.513   0.621 -11.689  1.00  0.00     0.016 A 
ATOM     37  C   UNL     1      -2.409  -1.589 -11.236  1.00  0.00     0.016 A 
ATOM     38  C   UNL     1      -0.223   0.095 -11.749  1.00  0.00     0.010 A 
ATOM     39  C   UNL     1      -1.119  -2.119 -11.323  1.00  0.00     0.010 A 
ATOM     40  C   UNL     1      -0.025  -1.285 -11.615  1.00  0.00    -0.014 A 
BRANCH  40  41
ATOM     41  C   UNL     1       1.285  -1.876 -11.980  1.00  0.00     0.031 A 
ATOM     42  C   UNL     1       1.440  -2.468 -13.356  1.00  0.00     0.074 A 
ATOM     43  C   UNL     1       2.323  -1.870 -11.124  1.00  0.00     0.049 A 
ATOM     44  N   UNL     1       2.466  -3.082 -13.884  1.00  0.00    -0.248 NA
ATOM     45  C   UNL     1       0.281  -2.348 -14.257  1.00  0.00     0.031 C 
ATOM     46  C   UNL     1       2.314  -1.280  -9.786  1.00  0.00     0.029 A 
ATOM     47  N   UNL     1       3.588  -2.387 -11.256  1.00  0.00    -0.354 N 
ATOM     48  C   UNL     1       2.073  -3.435 -15.170  1.00  0.00     0.074 A 
ATOM     49  C   UNL     1       0.708  -2.987 -15.336  1.00  0.00     0.031 C 
ATOM     50  C   UNL     1       3.515  -1.482  -9.214  1.00  0.00     0.029 A 
ATOM     51  C   UNL     1       4.362  -2.247 -10.129  1.00  0.00     0.049 A 
ATOM     52  H   UNL     1       3.910  -2.817 -12.081  1.00  0.00     0.167 HD
ATOM     53  C   UNL     1       2.786  -4.073 -16.128  1.00  0.00     0.031 A 
ATOM     54  C   UNL     1       5.599  -2.710  -9.856  1.00  0.00     0.031 A 
ATOM     55  C   UNL     1       4.139  -4.529 -15.953  1.00  0.00     0.049 A 
ATOM     56  C   UNL     1       6.341  -3.494 -10.910  1.00  0.00     0.074 A 
ATOM     57  C   UNL     1       4.952  -5.172 -16.869  1.00  0.00     0.029 A 
ATOM     58  N   UNL     1       4.874  -4.402 -14.785  1.00  0.00    -0.354 N 
ATOM     59  N   UNL     1       5.968  -3.795 -12.132  1.00  0.00    -0.248 NA
ATOM     60  C   UNL     1       7.675  -3.996 -10.550  1.00  0.00     0.031 C 
ATOM     61  C   UNL     1       6.154  -5.495 -16.233  1.00  0.00     0.029 A 
ATOM     62  C   UNL     1       6.119  -4.985 -14.945  1.00  0.00     0.049 A 
ATOM     63  H   UNL     1       4.557  -3.962 -13.963  1.00  0.00     0.167 HD
ATOM     64  C   UNL     1       7.034  -4.493 -12.694  1.00  0.00     0.074 A 
ATOM     65  C   UNL     1       8.071  -4.554 -11.686  1.00  0.00     0.031 C 
ATOM     66  C   UNL     1       7.145  -5.035 -13.933  1.00  0.00     0.031 A 
BRANCH  53  67
ATOM     67  C   UNL     1       2.102  -4.353 -17.440  1.00  0.00    -0.014 A 
ATOM     68  C   UNL     1       1.800  -3.319 -18.345  1.00  0.00     0.010 A 
ATOM     69  C   UNL     1       1.807  -5.682 -17.797  1.00  0.00     0.010 A 
ATOM     70  C   UNL     1       1.191  -3.608 -19.570  1.00  0.00     0.020 A 
ATOM     71  C   UNL     1       1.226  -5.977 -19.033  1.00  0.00     0.020 A 
ATOM     72  C   UNL     1       0.911  -4.936 -19.907  1.00  0.00     0.054 A 
BRANCH  72  73
ATOM     73  S   UNL     1       0.161  -5.282 -21.521  1.00  0.00     0.124 S 
ATOM     74  O   UNL     1      -1.188  -4.748 -21.348  1.00  0.00    -0.237 OA
ATOM     75  O   UNL     1       1.018  -4.535 -22.438  1.00  0.00    -0.237 OA
ATOM     76  O   UNL     1       0.244  -6.736 -21.640  1.00  0.00    -0.744 OA
ENDBRANCH  72  73
ENDBRANCH  53  67
BRANCH  54  77
ATOM     77  C   UNL     1       6.209  -2.477  -8.516  1.00  0.00    -0.014 A 
ATOM     78  C   UNL     1       7.348  -1.664  -8.372  1.00  0.00     0.010 A 
ATOM     79  C   UNL     1       5.663  -3.091  -7.373  1.00  0.00     0.010 A 
ATOM     80  C   UNL     1       7.941  -1.490  -7.118  1.00  0.00     0.020 A 
ATOM     81  C   UNL     1       6.233  -2.892  -6.113  1.00  0.00     0.020 A 
ATOM     82  C   UNL     1       7.378  -2.103  -5.995  1.00  0.00     0.054 A 
BRANCH  82  83
ATOM     83  S   UNL     1       8.140  -1.826  -4.372  1.00  0.00     0.124 S 
ATOM     84  O   UNL     1       9.375  -2.596  -4.481  1.00  0.00    -0.237 OA
ATOM     85  O   UNL     1       8.300  -0.374  -4.345  1.00  0.00    -0.237 OA
ATOM     86  O   UNL     1       7.152  -2.353  -3.435  1.00  0.00    -0.744 OA
ENDBRANCH  82  83
ENDBRANCH  54  77
BRANCH  66  87
ATOM     87  C   UNL     1       8.448  -5.704 -14.292  1.00  0.00    -0.014 A 
ATOM     88  C   UNL     1       8.828  -6.929 -13.715  1.00  0.00     0.010 A 
ATOM     89  C   UNL     1       9.276  -5.125 -15.272  1.00  0.00     0.010 A 
ATOM     90  C   UNL     1      10.027  -7.544 -14.087  1.00  0.00     0.020 A 
ATOM     91  C   UNL     1      10.458  -5.753 -15.671  1.00  0.00     0.020 A 
ATOM     92  C   UNL     1      10.833  -6.953 -15.065  1.00  0.00     0.054 A 
BRANCH  92  93
ATOM     93  S   UNL     1      12.361  -7.795 -15.562  1.00  0.00     0.124 S 
ATOM     94  O   UNL     1      13.209  -7.604 -14.388  1.00  0.00    -0.237 OA
ATOM     95  O   UNL     1      11.910  -9.165 -15.795  1.00  0.00    -0.237 OA
ATOM     96  O   UNL     1      12.783  -7.072 -16.759  1.00  0.00    -0.744 OA
ENDBRANCH  92  93
ENDBRANCH  66  87
ENDBRANCH  40  41
ENDBRANCH  33  35
ENDBRANCH  32  33
ENDBRANCH  31  32
ENDBRANCH  30  31
ENDBRANCH  29  30
ENDBRANCH  28  29
ENDBRANCH  27  28
ENDBRANCH  26  27
ENDBRANCH   1  26
TORSDOF 27
