REMARK SMILES CC[NH2+][C@@]1(C(=O)OCCOCCOCCOCCOC(=O)c2ccc(-c3c4nc(c(-c5ccc(S(=O)(=O)[O-])cc5)c5ccc([nH]5)c(-c5ccc(S(=O)(=O)[O-])cc5)c5nc(c(-c6ccc(S(=O)(=O)[O-])cc6)c6ccc3[nH]6)C=C5)C=C4)cc2)CC[C@H]([NH+]2CCC(C(C)(C)C)CC2)C1
REMARK SMILES IDX 14 1 13 2 12 3 11 4 10 5 9 6 8 7 7 8 5 9 6 10 4 11 82 12
REMARK SMILES IDX 95 13 83 14 84 15 3 16 2 19 1 20 85 21 86 22 94 23 87 25
REMARK SMILES IDX 93 26 88 27 89 28 90 29 91 30 92 31 15 32 16 33 17 34 18 35
REMARK SMILES IDX 19 36 20 37 21 38 22 39 23 40 81 41 24 42 80 43 25 44 26 45
REMARK SMILES IDX 27 46 74 47 28 48 79 49 73 50 75 51 29 52 78 53 72 54 71 55
REMARK SMILES IDX 30 57 60 58 41 59 59 60 42 61 45 62 58 63 76 64 43 65 44 66
REMARK SMILES IDX 57 68 77 69 46 70 31 71 32 72 40 73 33 74 39 75 34 76 35 77
REMARK SMILES IDX 36 78 37 79 38 80 61 81 62 82 70 83 63 84 69 85 64 86 65 87
REMARK SMILES IDX 66 88 67 89 68 90 47 91 48 92 56 93 49 94 55 95 50 96 51 97
REMARK SMILES IDX 52 98 53 99 54 100
REMARK H PARENT 3 17 3 18 85 24 75 56 45 67
REMARK Flexibility Score: inf
ROOT
ATOM      1  C   UNL     1      -1.853  -0.562  -6.468  1.00  0.00     0.188 C 
ENDROOT
BRANCH   1   2
ATOM      2  O   UNL     1      -0.662  -0.922  -5.804  1.00  0.00    -0.377 OA
BRANCH   2   3
ATOM      3  C   UNL     1      -0.635  -1.195  -4.415  1.00  0.00     0.188 C 
BRANCH   3   4
ATOM      4  C   UNL     1      -1.862  -1.506  -3.545  1.00  0.00     0.188 C 
BRANCH   4   5
ATOM      5  O   UNL     1      -3.120  -1.172  -4.076  1.00  0.00    -0.376 OA
BRANCH   5   6
ATOM      6  C   UNL     1      -3.755   0.057  -3.778  1.00  0.00     0.202 C 
BRANCH   6   7
ATOM      7  C   UNL     1      -2.996   1.288  -3.263  1.00  0.00     0.261 C 
BRANCH   7   8
ATOM      8  O   UNL     1      -1.589   1.318  -3.542  1.00  0.00    -0.459 OA
BRANCH   8   9
ATOM      9  C   UNL     1      -0.863   2.113  -2.700  1.00  0.00     0.368 C 
ATOM     10  O   UNL     1      -1.382   2.783  -1.808  1.00  0.00    -0.245 OA
BRANCH   9  11
ATOM     11  C   UNL     1       0.691   1.983  -2.867  1.00  0.00     0.200 C 
ATOM     12  C   UNL     1       1.390   3.288  -2.443  1.00  0.00     0.087 C 
ATOM     13  C   UNL     1       1.231   1.843  -4.313  1.00  0.00     0.146 C 
ATOM     14  C   UNL     1       1.351   4.176  -3.683  1.00  0.00     0.072 C 
ATOM     15  C   UNL     1       1.394   3.261  -4.906  1.00  0.00     0.191 C 
BRANCH  11  16
ATOM     16  N   UNL     1       1.144   0.817  -2.041  1.00  0.00    -0.332 N 
ATOM     17  H   UNL     1       0.702  -0.026  -2.407  1.00  0.00     0.347 HD
ATOM     18  H   UNL     1       2.162   0.786  -2.106  1.00  0.00     0.347 HD
BRANCH  16  19
ATOM     19  C   UNL     1       0.813   0.931  -0.617  1.00  0.00     0.257 C 
ATOM     20  C   UNL     1       1.351  -0.277   0.135  1.00  0.00     0.071 C 
ENDBRANCH  16  19
ENDBRANCH  11  16
BRANCH  15  21
ATOM     21  N   UNL     1       0.574   3.589  -6.085  1.00  0.00    -0.332 N 
ATOM     22  C   UNL     1       0.661   4.959  -6.599  1.00  0.00     0.262 C 
ATOM     23  C   UNL     1      -0.817   3.168  -6.129  1.00  0.00     0.262 C 
ATOM     24  H   UNL     1       1.081   2.961  -6.708  1.00  0.00     0.348 HD
ATOM     25  C   UNL     1      -0.206   5.998  -5.867  1.00  0.00     0.066 C 
ATOM     26  C   UNL     1      -1.721   4.010  -5.248  1.00  0.00     0.066 C 
ATOM     27  C   UNL     1      -1.623   5.528  -5.444  1.00  0.00     0.005 C 
BRANCH  27  28
ATOM     28  C   UNL     1      -2.232   6.316  -4.201  1.00  0.00    -0.035 C 
ATOM     29  C   UNL     1      -2.441   7.789  -4.588  1.00  0.00     0.011 C 
ATOM     30  C   UNL     1      -3.599   5.720  -3.787  1.00  0.00     0.011 C 
ATOM     31  C   UNL     1      -1.358   6.299  -2.925  1.00  0.00     0.011 C 
ENDBRANCH  27  28
ENDBRANCH  15  21
ENDBRANCH   9  11
ENDBRANCH   8   9
ENDBRANCH   7   8
ENDBRANCH   6   7
ENDBRANCH   5   6
ENDBRANCH   4   5
ENDBRANCH   3   4
ENDBRANCH   2   3
ENDBRANCH   1   2
BRANCH   1  32
ATOM     32  C   UNL     1      -2.770  -1.731  -6.869  1.00  0.00     0.188 C 
BRANCH  32  33
ATOM     33  O   UNL     1      -2.281  -3.060  -7.007  1.00  0.00    -0.376 OA
BRANCH  33  34
ATOM     34  C   UNL     1      -0.900  -3.303  -7.190  1.00  0.00     0.202 C 
BRANCH  34  35
ATOM     35  C   UNL     1      -0.181  -2.745  -8.427  1.00  0.00     0.261 C 
BRANCH  35  36
ATOM     36  O   UNL     1      -0.749  -1.583  -9.040  1.00  0.00    -0.460 OA
BRANCH  36  37
ATOM     37  C   UNL     1      -1.714  -1.815  -9.954  1.00  0.00     0.338 C 
ATOM     38  O   UNL     1      -2.172  -2.899 -10.297  1.00  0.00    -0.246 OA
BRANCH  37  39
ATOM     39  C   UNL     1      -2.215  -0.519 -10.442  1.00  0.00     0.060 A 
ATOM     40  C   UNL     1      -3.538  -0.147 -10.173  1.00  0.00     0.016 A 
ATOM     41  C   UNL     1      -1.386   0.310 -11.202  1.00  0.00     0.016 A 
ATOM     42  C   UNL     1      -4.037   1.060 -10.659  1.00  0.00     0.010 A 
ATOM     43  C   UNL     1      -1.898   1.504 -11.716  1.00  0.00     0.010 A 
ATOM     44  C   UNL     1      -3.229   1.877 -11.459  1.00  0.00    -0.014 A 
BRANCH  44  45
ATOM     45  C   UNL     1      -3.805   3.061 -12.135  1.00  0.00     0.031 A 
ATOM     46  C   UNL     1      -4.232   2.939 -13.571  1.00  0.00     0.074 A 
ATOM     47  C   UNL     1      -3.934   4.228 -11.477  1.00  0.00     0.049 A 
ATOM     48  N   UNL     1      -4.658   3.867 -14.387  1.00  0.00    -0.248 NA
ATOM     49  C   UNL     1      -4.172   1.593 -14.167  1.00  0.00     0.031 C 
ATOM     50  C   UNL     1      -3.613   4.444 -10.066  1.00  0.00     0.029 A 
ATOM     51  N   UNL     1      -4.356   5.457 -11.918  1.00  0.00    -0.354 N 
ATOM     52  C   UNL     1      -4.892   3.225 -15.598  1.00  0.00     0.074 A 
ATOM     53  C   UNL     1      -4.559   1.830 -15.412  1.00  0.00     0.031 C 
ATOM     54  C   UNL     1      -3.834   5.735  -9.761  1.00  0.00     0.029 A 
ATOM     55  C   UNL     1      -4.261   6.445 -10.966  1.00  0.00     0.049 A 
ATOM     56  H   UNL     1      -4.696   5.616 -12.828  1.00  0.00     0.167 HD
ATOM     57  C   UNL     1      -5.336   3.758 -16.760  1.00  0.00     0.031 A 
ATOM     58  C   UNL     1      -4.455   7.775 -11.070  1.00  0.00     0.031 A 
ATOM     59  C   UNL     1      -5.659   5.150 -16.933  1.00  0.00     0.049 A 
ATOM     60  C   UNL     1      -4.852   8.354 -12.406  1.00  0.00     0.074 A 
ATOM     61  C   UNL     1      -6.151   5.782 -18.062  1.00  0.00     0.029 A 
ATOM     62  N   UNL     1      -5.507   6.125 -15.961  1.00  0.00    -0.354 N 
ATOM     63  N   UNL     1      -5.113   7.732 -13.531  1.00  0.00    -0.248 NA
ATOM     64  C   UNL     1      -4.971   9.818 -12.488  1.00  0.00     0.031 C 
ATOM     65  C   UNL     1      -6.223   7.152 -17.796  1.00  0.00     0.029 A 
ATOM     66  C   UNL     1      -5.845   7.364 -16.479  1.00  0.00     0.049 A 
ATOM     67  H   UNL     1      -5.204   5.962 -15.039  1.00  0.00     0.167 HD
ATOM     68  C   UNL     1      -5.448   8.726 -14.446  1.00  0.00     0.074 A 
ATOM     69  C   UNL     1      -5.381   9.986 -13.737  1.00  0.00     0.031 C 
ATOM     70  C   UNL     1      -5.776   8.608 -15.757  1.00  0.00     0.031 A 
BRANCH  57  71
ATOM     71  C   UNL     1      -5.457   2.854 -17.958  1.00  0.00    -0.014 A 
ATOM     72  C   UNL     1      -6.485   1.901 -18.059  1.00  0.00     0.010 A 
ATOM     73  C   UNL     1      -4.576   3.029 -19.042  1.00  0.00     0.010 A 
ATOM     74  C   UNL     1      -6.623   1.133 -19.219  1.00  0.00     0.020 A 
ATOM     75  C   UNL     1      -4.726   2.281 -20.212  1.00  0.00     0.020 A 
ATOM     76  C   UNL     1      -5.747   1.333 -20.291  1.00  0.00     0.054 A 
BRANCH  76  77
ATOM     77  S   UNL     1      -5.996   0.372 -21.810  1.00  0.00     0.124 S 
ATOM     78  O   UNL     1      -5.612  -0.972 -21.384  1.00  0.00    -0.237 OA
ATOM     79  O   UNL     1      -7.419   0.563 -22.077  1.00  0.00    -0.237 OA
ATOM     80  O   UNL     1      -5.094   1.000 -22.772  1.00  0.00    -0.744 OA
ENDBRANCH  76  77
ENDBRANCH  57  71
BRANCH  58  81
ATOM     81  C   UNL     1      -4.221   8.666  -9.899  1.00  0.00    -0.014 A 
ATOM     82  C   UNL     1      -5.278   9.396  -9.329  1.00  0.00     0.010 A 
ATOM     83  C   UNL     1      -2.925   8.820  -9.370  1.00  0.00     0.010 A 
ATOM     84  C   UNL     1      -5.040  10.286  -8.277  1.00  0.00     0.020 A 
ATOM     85  C   UNL     1      -2.688   9.682  -8.296  1.00  0.00     0.020 A 
ATOM     86  C   UNL     1      -3.746  10.423  -7.767  1.00  0.00     0.054 A 
BRANCH  86  87
ATOM     87  S   UNL     1      -3.464  11.567  -6.388  1.00  0.00     0.124 S 
ATOM     88  O   UNL     1      -3.603  12.866  -7.039  1.00  0.00    -0.237 OA
ATOM     89  O   UNL     1      -4.531  11.206  -5.458  1.00  0.00    -0.237 OA
ATOM     90  O   UNL     1      -2.115  11.232  -5.938  1.00  0.00    -0.744 OA
ENDBRANCH  86  87
ENDBRANCH  58  81
BRANCH  70  91
ATOM     91  C   UNL     1      -6.106   9.870 -16.511  1.00  0.00    -0.014 A 
ATOM     92  C   UNL     1      -5.101  10.792 -16.855  1.00  0.00     0.010 A 
ATOM     93  C   UNL     1      -7.423  10.096 -16.950  1.00  0.00     0.010 A 
ATOM     94  C   UNL     1      -5.413  11.928 -17.607  1.00  0.00     0.020 A 
ATOM     95  C   UNL     1      -7.733  11.213 -17.729  1.00  0.00     0.020 A 
ATOM     96  C   UNL     1      -6.726  12.128 -18.045  1.00  0.00     0.054 A 
BRANCH  96  97
ATOM     97  S   UNL     1      -7.087  13.576 -19.076  1.00  0.00     0.124 S 
ATOM     98  O   UNL     1      -6.965  14.671 -18.117  1.00  0.00    -0.237 OA
ATOM     99  O   UNL     1      -6.041  13.512 -20.093  1.00  0.00    -0.237 OA
ATOM    100  O   UNL     1      -8.441  13.325 -19.565  1.00  0.00    -0.744 OA
ENDBRANCH  96  97
ENDBRANCH  70  91
ENDBRANCH  44  45
ENDBRANCH  37  39
ENDBRANCH  36  37
ENDBRANCH  35  36
ENDBRANCH  34  35
ENDBRANCH  33  34
ENDBRANCH  32  33
ENDBRANCH   1  32
TORSDOF 27
