REMARK SMILES O=C(C[NH+]1CCC(C(=O)OCCOCCOCCOCCOC(=O)c2ccc(-c3c4nc(c(-c5ccc(S(=O)(=O)[O-])cc5)c5ccc([nH]5)c(-c5ccc(S(=O)(=O)[O-])cc5)c5nc(c(-c6ccc(S(=O)(=O)[O-])cc6)c6ccc3[nH]6)C=C5)C=C4)cc2)CC1)Nc1ccccc1Oc1ccccc1
REMARK SMILES IDX 15 1 14 2 13 3 12 4 11 5 10 6 8 7 9 8 7 9 4 10 5 11 86 12
REMARK SMILES IDX 6 14 85 15 3 16 2 17 1 18 87 19 88 21 89 22 93 23 90 24
REMARK SMILES IDX 92 25 91 26 94 27 95 28 96 29 100 30 97 31 99 32 98 33 16 34
REMARK SMILES IDX 17 35 18 36 19 37 20 38 21 39 22 40 23 41 24 42 25 43 26 44
REMARK SMILES IDX 84 45 27 46 83 47 28 48 29 49 30 50 77 51 31 52 82 53 76 54
REMARK SMILES IDX 78 55 32 56 81 57 75 58 74 59 33 61 63 62 44 63 62 64 45 65
REMARK SMILES IDX 48 66 61 67 79 68 46 69 47 70 60 72 80 73 49 74 34 75 35 76
REMARK SMILES IDX 43 77 36 78 42 79 37 80 38 81 39 82 40 83 41 84 64 85 65 86
REMARK SMILES IDX 73 87 66 88 72 89 67 90 68 91 69 92 70 93 71 94 50 95 51 96
REMARK SMILES IDX 59 97 52 98 58 99 53 100 54 101 55 102 56 103 57 104
REMARK H PARENT 4 13 87 20 78 60 48 71
REMARK Flexibility Score: inf
ROOT
ATOM      1  C   UNL     1       5.604  -4.770   3.580  1.00  0.00     0.188 C 
ENDROOT
BRANCH   1   2
ATOM      2  C   UNL     1       7.114  -4.567   3.382  1.00  0.00     0.188 C 
BRANCH   2   3
ATOM      3  O   UNL     1       8.022  -4.825   4.452  1.00  0.00    -0.376 OA
BRANCH   3   4
ATOM      4  C   UNL     1       7.837  -4.215   5.729  1.00  0.00     0.202 C 
BRANCH   4   5
ATOM      5  C   UNL     1       7.753  -2.689   5.881  1.00  0.00     0.261 C 
BRANCH   5   6
ATOM      6  O   UNL     1       6.891  -2.054   4.936  1.00  0.00    -0.463 OA
BRANCH   6   7
ATOM      7  C   UNL     1       7.458  -1.211   4.037  1.00  0.00     0.309 C 
ATOM      8  O   UNL     1       8.642  -0.896   4.005  1.00  0.00    -0.252 OA
BRANCH   7   9
ATOM      9  C   UNL     1       6.461  -0.746   2.989  1.00  0.00     0.110 C 
ATOM     10  N   UNL     1       3.861   0.277   2.145  1.00  0.00    -0.327 N 
ATOM     11  C   UNL     1       4.147  -1.133   2.000  1.00  0.00     0.263 C 
ATOM     12  C   UNL     1       5.075   1.108   2.062  1.00  0.00     0.263 C 
ATOM     13  H   UNL     1       3.478   0.348   3.088  1.00  0.00     0.348 HD
ATOM     14  C   UNL     1       5.183  -1.563   3.002  1.00  0.00     0.077 C 
ATOM     15  C   UNL     1       6.124   0.725   3.109  1.00  0.00     0.077 C 
BRANCH  10  16
ATOM     16  C   UNL     1       2.815   0.797   1.246  1.00  0.00     0.363 C 
BRANCH  16  17
ATOM     17  C   UNL     1       1.962  -0.219   0.473  1.00  0.00     0.279 C 
ATOM     18  O   UNL     1       0.800  -0.479   0.774  1.00  0.00    -0.268 OA
ATOM     19  N   UNL     1       2.626  -0.760  -0.622  1.00  0.00    -0.318 N 
ATOM     20  H   UNL     1       3.606  -0.668  -0.662  1.00  0.00     0.170 HD
BRANCH  19  21
ATOM     21  C   UNL     1       1.982  -1.427  -1.673  1.00  0.00     0.084 A 
ATOM     22  C   UNL     1       2.424  -2.729  -1.951  1.00  0.00     0.030 A 
ATOM     23  C   UNL     1       0.967  -0.851  -2.455  1.00  0.00     0.150 A 
ATOM     24  C   UNL     1       1.786  -3.502  -2.923  1.00  0.00     0.002 A 
ATOM     25  C   UNL     1       0.336  -1.641  -3.428  1.00  0.00     0.049 A 
ATOM     26  C   UNL     1       0.732  -2.962  -3.652  1.00  0.00     0.004 A 
BRANCH  23  27
ATOM     27  O   UNL     1       0.482   0.442  -2.406  1.00  0.00    -0.455 OA
BRANCH  27  28
ATOM     28  C   UNL     1       1.264   1.485  -1.972  1.00  0.00     0.127 A 
ATOM     29  C   UNL     1       0.674   2.332  -1.029  1.00  0.00     0.047 A 
ATOM     30  C   UNL     1       2.563   1.740  -2.421  1.00  0.00     0.047 A 
ATOM     31  C   UNL     1       1.405   3.380  -0.468  1.00  0.00     0.004 A 
ATOM     32  C   UNL     1       3.296   2.791  -1.855  1.00  0.00     0.004 A 
ATOM     33  C   UNL     1       2.721   3.603  -0.873  1.00  0.00     0.000 A 
ENDBRANCH  27  28
ENDBRANCH  23  27
ENDBRANCH  19  21
ENDBRANCH  16  17
ENDBRANCH  10  16
ENDBRANCH   7   9
ENDBRANCH   6   7
ENDBRANCH   5   6
ENDBRANCH   4   5
ENDBRANCH   3   4
ENDBRANCH   2   3
ENDBRANCH   1   2
BRANCH   1  34
ATOM     34  O   UNL     1       5.174  -4.421   4.874  1.00  0.00    -0.377 OA
BRANCH  34  35
ATOM     35  C   UNL     1       4.655  -5.490   5.660  1.00  0.00     0.188 C 
BRANCH  35  36
ATOM     36  C   UNL     1       5.369  -6.866   5.581  1.00  0.00     0.188 C 
BRANCH  36  37
ATOM     37  O   UNL     1       5.622  -7.385   4.282  1.00  0.00    -0.376 OA
BRANCH  37  38
ATOM     38  C   UNL     1       4.639  -8.173   3.619  1.00  0.00     0.202 C 
BRANCH  38  39
ATOM     39  C   UNL     1       3.223  -7.607   3.380  1.00  0.00     0.261 C 
BRANCH  39  40
ATOM     40  O   UNL     1       2.487  -7.193   4.539  1.00  0.00    -0.460 OA
BRANCH  40  41
ATOM     41  C   UNL     1       2.323  -8.091   5.531  1.00  0.00     0.338 C 
ATOM     42  O   UNL     1       2.654  -9.267   5.513  1.00  0.00    -0.246 OA
BRANCH  41  43
ATOM     43  C   UNL     1       1.887  -7.363   6.739  1.00  0.00     0.060 A 
ATOM     44  C   UNL     1       2.689  -7.433   7.886  1.00  0.00     0.016 A 
ATOM     45  C   UNL     1       0.704  -6.620   6.748  1.00  0.00     0.016 A 
ATOM     46  C   UNL     1       2.290  -6.801   9.060  1.00  0.00     0.010 A 
ATOM     47  C   UNL     1       0.285  -6.016   7.938  1.00  0.00     0.010 A 
ATOM     48  C   UNL     1       1.057  -6.141   9.107  1.00  0.00    -0.014 A 
BRANCH  48  49
ATOM     49  C   UNL     1       0.482  -5.805  10.431  1.00  0.00     0.031 A 
ATOM     50  C   UNL     1      -0.491  -6.777  11.046  1.00  0.00     0.074 A 
ATOM     51  C   UNL     1       0.860  -4.704  11.103  1.00  0.00     0.049 A 
ATOM     52  N   UNL     1      -1.124  -6.708  12.187  1.00  0.00    -0.248 NA
ATOM     53  C   UNL     1      -0.784  -7.994  10.267  1.00  0.00     0.031 C 
ATOM     54  C   UNL     1       1.843  -3.725  10.642  1.00  0.00     0.029 A 
ATOM     55  N   UNL     1       0.459  -4.231  12.327  1.00  0.00    -0.354 N 
ATOM     56  C   UNL     1      -1.895  -7.863  12.259  1.00  0.00     0.074 A 
ATOM     57  C   UNL     1      -1.675  -8.600  11.035  1.00  0.00     0.031 C 
ATOM     58  C   UNL     1       1.963  -2.760  11.572  1.00  0.00     0.029 A 
ATOM     59  C   UNL     1       1.043  -3.036  12.674  1.00  0.00     0.049 A 
ATOM     60  H   UNL     1      -0.186  -4.702  12.902  1.00  0.00     0.167 HD
ATOM     61  C   UNL     1      -2.711  -8.276  13.257  1.00  0.00     0.031 A 
ATOM     62  C   UNL     1       0.839  -2.246  13.748  1.00  0.00     0.031 A 
ATOM     63  C   UNL     1      -2.940  -7.529  14.465  1.00  0.00     0.049 A 
ATOM     64  C   UNL     1      -0.144  -2.683  14.805  1.00  0.00     0.074 A 
ATOM     65  C   UNL     1      -3.745  -7.861  15.540  1.00  0.00     0.029 A 
ATOM     66  N   UNL     1      -2.373  -6.297  14.754  1.00  0.00    -0.354 N 
ATOM     67  N   UNL     1      -0.856  -3.784  14.868  1.00  0.00    -0.248 NA
ATOM     68  C   UNL     1      -0.343  -1.772  15.942  1.00  0.00     0.031 C 
ATOM     69  C   UNL     1      -3.717  -6.798  16.448  1.00  0.00     0.029 A 
ATOM     70  C   UNL     1      -2.834  -5.840  15.976  1.00  0.00     0.049 A 
ATOM     71  H   UNL     1      -1.736  -5.819  14.175  1.00  0.00     0.167 HD
ATOM     72  C   UNL     1      -1.562  -3.712  16.067  1.00  0.00     0.074 A 
ATOM     73  C   UNL     1      -1.177  -2.468  16.702  1.00  0.00     0.031 C 
ATOM     74  C   UNL     1      -2.444  -4.597  16.596  1.00  0.00     0.031 A 
BRANCH  61  75
ATOM     75  C   UNL     1      -3.449  -9.575  13.061  1.00  0.00    -0.014 A 
ATOM     76  C   UNL     1      -2.776 -10.810  13.064  1.00  0.00     0.010 A 
ATOM     77  C   UNL     1      -4.847  -9.559  12.901  1.00  0.00     0.010 A 
ATOM     78  C   UNL     1      -3.482 -12.001  12.874  1.00  0.00     0.020 A 
ATOM     79  C   UNL     1      -5.561 -10.750  12.743  1.00  0.00     0.020 A 
ATOM     80  C   UNL     1      -4.871 -11.963  12.716  1.00  0.00     0.054 A 
BRANCH  80  81
ATOM     81  S   UNL     1      -5.764 -13.527  12.499  1.00  0.00     0.124 S 
ATOM     82  O   UNL     1      -5.346 -13.929  11.158  1.00  0.00    -0.237 OA
ATOM     83  O   UNL     1      -5.243 -14.345  13.590  1.00  0.00    -0.237 OA
ATOM     84  O   UNL     1      -7.168 -13.146  12.624  1.00  0.00    -0.744 OA
ENDBRANCH  80  81
ENDBRANCH  61  75
BRANCH  62  85
ATOM     85  C   UNL     1       1.564  -0.950  13.870  1.00  0.00    -0.014 A 
ATOM     86  C   UNL     1       2.520  -0.750  14.881  1.00  0.00     0.010 A 
ATOM     87  C   UNL     1       1.292   0.100  12.973  1.00  0.00     0.010 A 
ATOM     88  C   UNL     1       3.176   0.479  15.004  1.00  0.00     0.020 A 
ATOM     89  C   UNL     1       1.969   1.318  13.072  1.00  0.00     0.020 A 
ATOM     90  C   UNL     1       2.900   1.504  14.095  1.00  0.00     0.054 A 
BRANCH  90  91
ATOM     91  S   UNL     1       3.802   3.071  14.243  1.00  0.00     0.124 S 
ATOM     92  O   UNL     1       3.227   3.640  15.457  1.00  0.00    -0.237 OA
ATOM     93  O   UNL     1       5.189   2.625  14.348  1.00  0.00    -0.237 OA
ATOM     94  O   UNL     1       3.474   3.775  13.005  1.00  0.00    -0.744 OA
ENDBRANCH  90  91
ENDBRANCH  62  85
BRANCH  74  95
ATOM     95  C   UNL     1      -3.025  -4.278  17.950  1.00  0.00    -0.014 A 
ATOM     96  C   UNL     1      -3.943  -3.228  18.129  1.00  0.00     0.010 A 
ATOM     97  C   UNL     1      -2.683  -5.081  19.055  1.00  0.00     0.010 A 
ATOM     98  C   UNL     1      -4.474  -2.961  19.394  1.00  0.00     0.020 A 
ATOM     99  C   UNL     1      -3.238  -4.840  20.314  1.00  0.00     0.020 A 
ATOM    100  C   UNL     1      -4.118  -3.769  20.479  1.00  0.00     0.054 A 
BRANCH 100 101
ATOM    101  S   UNL     1      -4.848  -3.422  22.103  1.00  0.00     0.124 S 
ATOM    102  O   UNL     1      -4.169  -2.186  22.483  1.00  0.00    -0.237 OA
ATOM    103  O   UNL     1      -6.269  -3.289  21.793  1.00  0.00    -0.237 OA
ATOM    104  O   UNL     1      -4.497  -4.596  22.899  1.00  0.00    -0.744 OA
ENDBRANCH 100 101
ENDBRANCH  74  95
ENDBRANCH  48  49
ENDBRANCH  41  43
ENDBRANCH  40  41
ENDBRANCH  39  40
ENDBRANCH  38  39
ENDBRANCH  37  38
ENDBRANCH  36  37
ENDBRANCH  35  36
ENDBRANCH  34  35
ENDBRANCH   1  34
TORSDOF 28
