REMARK SMILES Cc1nc(-c2ccc(S(=O)(=O)N3CC[NH2+][C@H](C(=O)OCCOCCOCCOCCOC(=O)c4ccc(-c5c6nc(c(-c7ccc(S(=O)(=O)[O-])cc7)c7ccc([nH]7)c(-c7ccc(S(=O)(=O)[O-])cc7)c7nc(c(-c8ccc(S(=O)(=O)[O-])cc8)c8ccc5[nH]8)C=C7)C=C6)cc4)C3)s2)cs1
REMARK SMILES IDX 25 1 24 2 23 3 22 4 21 5 20 6 19 7 17 8 18 9 16 10 12 11
REMARK SMILES IDX 13 12 94 13 14 14 15 15 9 18 10 19 11 20 8 21 5 22 6 23
REMARK SMILES IDX 95 24 7 25 4 26 1 27 2 28 3 29 97 30 96 31 26 32 27 33 28 34
REMARK SMILES IDX 29 35 30 36 31 37 32 38 33 39 34 40 35 41 93 42 36 43 92 44
REMARK SMILES IDX 37 45 38 46 39 47 86 48 40 49 91 50 85 51 87 52 41 53 90 54
REMARK SMILES IDX 84 55 83 56 42 58 72 59 53 60 71 61 54 62 57 63 70 64 88 65
REMARK SMILES IDX 55 66 56 67 69 69 89 70 58 71 43 72 44 73 52 74 45 75 51 76
REMARK SMILES IDX 46 77 47 78 48 79 49 80 50 81 73 82 74 83 82 84 75 85 81 86
REMARK SMILES IDX 76 87 77 88 78 89 79 90 80 91 59 92 60 93 68 94 61 95 67 96
REMARK SMILES IDX 62 97 63 98 64 99 65 100 66 101
REMARK H PARENT 15 16 15 17 87 57 57 68
REMARK Flexibility Score: inf
ROOT
ATOM      1  O   UNL     1       6.420  -6.537  -5.635  1.00  0.00    -0.377 OA
ENDROOT
BRANCH   1   2
ATOM      2  C   UNL     1       5.209  -6.625  -4.913  1.00  0.00     0.188 C 
BRANCH   2   3
ATOM      3  C   UNL     1       4.112  -5.647  -5.396  1.00  0.00     0.188 C 
BRANCH   3   4
ATOM      4  O   UNL     1       4.424  -4.374  -5.956  1.00  0.00    -0.376 OA
BRANCH   4   5
ATOM      5  C   UNL     1       5.753  -3.887  -5.950  1.00  0.00     0.202 C 
BRANCH   5   6
ATOM      6  C   UNL     1       6.316  -3.422  -4.598  1.00  0.00     0.261 C 
BRANCH   6   7
ATOM      7  O   UNL     1       5.989  -4.247  -3.464  1.00  0.00    -0.459 OA
BRANCH   7   8
ATOM      8  C   UNL     1       4.834  -3.917  -2.829  1.00  0.00     0.366 C 
ATOM      9  O   UNL     1       4.096  -2.996  -3.166  1.00  0.00    -0.245 OA
BRANCH   8  10
ATOM     10  C   UNL     1       4.502  -4.837  -1.650  1.00  0.00     0.308 C 
ATOM     11  N   UNL     1       5.167  -5.869   0.462  1.00  0.00    -0.185 NA
ATOM     12  C   UNL     1       4.407  -7.112   0.204  1.00  0.00     0.164 C 
ATOM     13  C   UNL     1       5.694  -5.280  -0.806  1.00  0.00     0.180 C 
ATOM     14  C   UNL     1       3.383  -6.976  -0.940  1.00  0.00     0.278 C 
ATOM     15  N   UNL     1       3.555  -5.947  -1.982  1.00  0.00    -0.332 N 
ATOM     16  H   UNL     1       2.641  -5.534  -2.168  1.00  0.00     0.347 HD
ATOM     17  H   UNL     1       3.962  -6.428  -2.784  1.00  0.00     0.347 HD
BRANCH  11  18
ATOM     18  S   UNL     1       4.651  -4.810   1.695  1.00  0.00     0.253 S 
ATOM     19  O   UNL     1       5.726  -3.850   1.883  1.00  0.00    -0.206 OA
ATOM     20  O   UNL     1       4.154  -5.609   2.788  1.00  0.00    -0.206 OA
BRANCH  18  21
ATOM     21  C   UNL     1       3.221  -3.840   1.191  1.00  0.00     0.135 A 
ATOM     22  C   UNL     1       1.746  -1.901   0.730  1.00  0.00     0.055 A 
ATOM     23  C   UNL     1       1.221  -3.080   0.255  1.00  0.00     0.023 A 
ATOM     24  S   UNL     1       3.276  -2.133   1.443  1.00  0.00    -0.121 S 
ATOM     25  C   UNL     1       2.022  -4.196   0.600  1.00  0.00     0.034 A 
BRANCH  22  26
ATOM     26  C   UNL     1       0.963  -0.629   0.631  1.00  0.00     0.091 A 
ATOM     27  C   UNL     1      -2.364   0.723   0.008  1.00  0.00     0.079 C 
ATOM     28  C   UNL     1      -0.924   0.486   0.295  1.00  0.00     0.090 A 
ATOM     29  N   UNL     1      -0.363  -0.697   0.227  1.00  0.00    -0.241 NA
ATOM     30  S   UNL     1       0.120   1.764   0.766  1.00  0.00    -0.127 S 
ATOM     31  C   UNL     1       1.407   0.635   0.951  1.00  0.00     0.096 A 
ENDBRANCH  22  26
ENDBRANCH  18  21
ENDBRANCH  11  18
ENDBRANCH   8  10
ENDBRANCH   7   8
ENDBRANCH   6   7
ENDBRANCH   5   6
ENDBRANCH   4   5
ENDBRANCH   3   4
ENDBRANCH   2   3
ENDBRANCH   1   2
BRANCH   1  32
ATOM     32  C   UNL     1       6.588  -7.491  -6.667  1.00  0.00     0.188 C 
BRANCH  32  33
ATOM     33  C   UNL     1       5.430  -7.604  -7.665  1.00  0.00     0.188 C 
BRANCH  33  34
ATOM     34  O   UNL     1       4.238  -8.122  -7.064  1.00  0.00    -0.376 OA
BRANCH  34  35
ATOM     35  C   UNL     1       3.923  -9.483  -7.337  1.00  0.00     0.202 C 
BRANCH  35  36
ATOM     36  C   UNL     1       4.568 -10.468  -6.350  1.00  0.00     0.261 C 
BRANCH  36  37
ATOM     37  O   UNL     1       6.002 -10.523  -6.394  1.00  0.00    -0.460 OA
BRANCH  37  38
ATOM     38  C   UNL     1       6.561 -10.827  -7.588  1.00  0.00     0.338 C 
ATOM     39  O   UNL     1       5.977 -11.173  -8.598  1.00  0.00    -0.246 OA
BRANCH  38  40
ATOM     40  C   UNL     1       7.989 -10.450  -7.543  1.00  0.00     0.060 A 
ATOM     41  C   UNL     1       8.485  -9.639  -8.572  1.00  0.00     0.016 A 
ATOM     42  C   UNL     1       8.824 -10.870  -6.503  1.00  0.00     0.016 A 
ATOM     43  C   UNL     1       9.835  -9.297  -8.597  1.00  0.00     0.010 A 
ATOM     44  C   UNL     1      10.184 -10.549  -6.543  1.00  0.00     0.010 A 
ATOM     45  C   UNL     1      10.699  -9.804  -7.617  1.00  0.00    -0.014 A 
BRANCH  45  46
ATOM     46  C   UNL     1      12.155  -9.795  -7.891  1.00  0.00     0.031 A 
ATOM     47  C   UNL     1      12.726 -10.971  -8.639  1.00  0.00     0.074 A 
ATOM     48  C   UNL     1      12.939  -8.760  -7.545  1.00  0.00     0.049 A 
ATOM     49  N   UNL     1      13.944 -11.168  -9.070  1.00  0.00    -0.248 NA
ATOM     50  C   UNL     1      11.791 -12.067  -8.950  1.00  0.00     0.031 C 
ATOM     51  C   UNL     1      12.498  -7.553  -6.848  1.00  0.00     0.029 A 
ATOM     52  N   UNL     1      14.282  -8.562  -7.748  1.00  0.00    -0.354 N 
ATOM     53  C   UNL     1      13.918 -12.401  -9.712  1.00  0.00     0.074 A 
ATOM     54  C   UNL     1      12.576 -12.924  -9.583  1.00  0.00     0.031 C 
ATOM     55  C   UNL     1      13.557  -6.738  -6.679  1.00  0.00     0.029 A 
ATOM     56  C   UNL     1      14.747  -7.371  -7.245  1.00  0.00     0.049 A 
ATOM     57  H   UNL     1      14.858  -9.213  -8.211  1.00  0.00     0.167 HD
ATOM     58  C   UNL     1      14.917 -13.042 -10.361  1.00  0.00     0.031 A 
ATOM     59  C   UNL     1      15.993  -6.857  -7.244  1.00  0.00     0.031 A 
ATOM     60  C   UNL     1      16.259 -12.542 -10.460  1.00  0.00     0.049 A 
ATOM     61  C   UNL     1      17.108  -7.620  -7.912  1.00  0.00     0.074 A 
ATOM     62  C   UNL     1      17.348 -13.117 -11.090  1.00  0.00     0.029 A 
ATOM     63  N   UNL     1      16.698 -11.352  -9.901  1.00  0.00    -0.354 N 
ATOM     64  N   UNL     1      17.059  -8.768  -8.548  1.00  0.00    -0.248 NA
ATOM     65  C   UNL     1      18.445  -7.010  -7.876  1.00  0.00     0.031 C 
ATOM     66  C   UNL     1      18.459 -12.294 -10.872  1.00  0.00     0.029 A 
ATOM     67  C   UNL     1      18.047 -11.183 -10.152  1.00  0.00     0.049 A 
ATOM     68  H   UNL     1      16.133 -10.721  -9.399  1.00  0.00     0.167 HD
ATOM     69  C   UNL     1      18.351  -9.001  -9.011  1.00  0.00     0.074 A 
ATOM     70  C   UNL     1      19.155  -7.871  -8.592  1.00  0.00     0.031 C 
ATOM     71  C   UNL     1      18.829 -10.052  -9.723  1.00  0.00     0.031 A 
BRANCH  58  72
ATOM     72  C   UNL     1      14.587 -14.371 -10.981  1.00  0.00    -0.014 A 
ATOM     73  C   UNL     1      13.797 -14.451 -12.143  1.00  0.00     0.010 A 
ATOM     74  C   UNL     1      15.070 -15.553 -10.395  1.00  0.00     0.010 A 
ATOM     75  C   UNL     1      13.463 -15.695 -12.684  1.00  0.00     0.020 A 
ATOM     76  C   UNL     1      14.758 -16.798 -10.947  1.00  0.00     0.020 A 
ATOM     77  C   UNL     1      13.940 -16.861 -12.079  1.00  0.00     0.054 A 
BRANCH  77  78
ATOM     78  S   UNL     1      13.498 -18.463 -12.804  1.00  0.00     0.124 S 
ATOM     79  O   UNL     1      12.104 -18.604 -12.392  1.00  0.00    -0.237 OA
ATOM     80  O   UNL     1      13.711 -18.240 -14.231  1.00  0.00    -0.237 OA
ATOM     81  O   UNL     1      14.431 -19.396 -12.176  1.00  0.00    -0.744 OA
ENDBRANCH  77  78
ENDBRANCH  58  72
BRANCH  59  82
ATOM     82  C   UNL     1      16.259  -5.547  -6.587  1.00  0.00    -0.014 A 
ATOM     83  C   UNL     1      16.561  -4.407  -7.351  1.00  0.00     0.010 A 
ATOM     84  C   UNL     1      16.222  -5.440  -5.185  1.00  0.00     0.010 A 
ATOM     85  C   UNL     1      16.837  -3.187  -6.725  1.00  0.00     0.020 A 
ATOM     86  C   UNL     1      16.474  -4.218  -4.556  1.00  0.00     0.020 A 
ATOM     87  C   UNL     1      16.792  -3.101  -5.331  1.00  0.00     0.054 A 
BRANCH  87  88
ATOM     88  S   UNL     1      17.105  -1.497  -4.540  1.00  0.00     0.124 S 
ATOM     89  O   UNL     1      18.554  -1.379  -4.657  1.00  0.00    -0.237 OA
ATOM     90  O   UNL     1      16.325  -0.580  -5.367  1.00  0.00    -0.237 OA
ATOM     91  O   UNL     1      16.597  -1.684  -3.182  1.00  0.00    -0.744 OA
ENDBRANCH  87  88
ENDBRANCH  59  82
BRANCH  71  92
ATOM     92  C   UNL     1      20.279 -10.015 -10.125  1.00  0.00    -0.014 A 
ATOM     93  C   UNL     1      21.302 -10.234  -9.186  1.00  0.00     0.010 A 
ATOM     94  C   UNL     1      20.618  -9.812 -11.475  1.00  0.00     0.010 A 
ATOM     95  C   UNL     1      22.641 -10.213  -9.584  1.00  0.00     0.020 A 
ATOM     96  C   UNL     1      21.954  -9.816 -11.882  1.00  0.00     0.020 A 
ATOM     97  C   UNL     1      22.959 -10.000 -10.930  1.00  0.00     0.054 A 
BRANCH  97  98
ATOM     98  S   UNL     1      24.702 -10.010 -11.431  1.00  0.00     0.124 S 
ATOM     99  O   UNL     1      25.154  -8.698 -10.979  1.00  0.00    -0.237 OA
ATOM    100  O   UNL     1      25.243 -11.150 -10.696  1.00  0.00    -0.237 OA
ATOM    101  O   UNL     1      24.643 -10.184 -12.881  1.00  0.00    -0.744 OA
ENDBRANCH  97  98
ENDBRANCH  71  92
ENDBRANCH  45  46
ENDBRANCH  38  40
ENDBRANCH  37  38
ENDBRANCH  36  37
ENDBRANCH  35  36
ENDBRANCH  34  35
ENDBRANCH  33  34
ENDBRANCH  32  33
ENDBRANCH   1  32
TORSDOF 26
