REMARK SMILES COc1cc([C@@H]2CC(=O)Nc3c(C(=O)OCCOCCOCCOCCOC(=O)c4ccc(-c5c6nc(c(-c7ccc(S(=O)(=O)[O-])cc7)c7ccc([nH]7)c(-c7ccc(S(=O)(=O)[O-])cc7)c7nc(c(-c8ccc(S(=O)(=O)[O-])cc8)c8ccc5[nH]8)C=C7)C=C6)cc4)cn(-c4ccc(F)cc4)c32)c(OC)c2c1OCO2
REMARK SMILES IDX 22 1 21 2 20 3 19 4 18 5 17 6 16 7 15 8 13 9 14 10 12 11
REMARK SMILES IDX 6 12 7 13 99 14 8 15 11 16 91 17 9 18 10 19 90 20 5 22 3 23
REMARK SMILES IDX 4 24 104 25 103 26 105 27 100 28 107 29 106 30 2 31 1 32
REMARK SMILES IDX 101 33 102 34 92 35 93 36 98 37 94 38 97 39 95 40 96 41
REMARK SMILES IDX 23 42 24 43 25 44 26 45 27 46 28 47 29 48 30 49 31 50 89 51
REMARK SMILES IDX 32 52 88 53 33 54 34 55 35 56 82 57 36 58 87 59 81 60 83 61
REMARK SMILES IDX 37 62 86 63 80 64 79 65 38 67 68 68 49 69 67 70 50 71 53 72
REMARK SMILES IDX 66 73 84 74 51 75 52 76 65 78 85 79 54 80 39 81 40 82 48 83
REMARK SMILES IDX 41 84 47 85 42 86 43 87 44 88 45 89 46 90 69 91 70 92 78 93
REMARK SMILES IDX 71 94 77 95 72 96 73 97 74 98 75 99 76 100 55 101 56 102
REMARK SMILES IDX 64 103 57 104 63 105 58 106 59 107 60 108 61 109 62 110
REMARK H PARENT 10 21 83 66 53 77
REMARK Flexibility Score: inf
ROOT
ATOM      1  C   UNL     1      -3.109  11.438  -5.453  1.00  0.00     0.188 C 
ENDROOT
BRANCH   1   2
ATOM      2  O   UNL     1      -2.217  10.615  -4.701  1.00  0.00    -0.377 OA
BRANCH   2   3
ATOM      3  C   UNL     1      -2.833   9.804  -3.714  1.00  0.00     0.188 C 
BRANCH   3   4
ATOM      4  C   UNL     1      -2.757  10.356  -2.269  1.00  0.00     0.188 C 
BRANCH   4   5
ATOM      5  O   UNL     1      -2.055  11.547  -1.921  1.00  0.00    -0.376 OA
BRANCH   5   6
ATOM      6  C   UNL     1      -1.023  12.079  -2.733  1.00  0.00     0.202 C 
BRANCH   6   7
ATOM      7  C   UNL     1       0.263  11.271  -2.956  1.00  0.00     0.261 C 
BRANCH   7   8
ATOM      8  O   UNL     1       0.097   9.856  -3.066  1.00  0.00    -0.460 OA
BRANCH   8   9
ATOM      9  C   UNL     1       0.073   9.188  -1.881  1.00  0.00     0.341 C 
ATOM     10  O   UNL     1       0.316   9.686  -0.786  1.00  0.00    -0.246 OA
BRANCH   9  11
ATOM     11  C   UNL     1      -0.385   7.817  -2.040  1.00  0.00     0.102 A 
ATOM     12  C   UNL     1      -0.553   4.455  -3.573  1.00  0.00     0.082 C 
ATOM     13  C   UNL     1      -0.360   4.828  -5.054  1.00  0.00     0.115 C 
ATOM     14  C   UNL     1      -0.718   5.700  -2.756  1.00  0.00     0.055 A 
ATOM     15  C   UNL     1       0.377   6.137  -5.322  1.00  0.00     0.225 C 
ATOM     16  C   UNL     1      -0.262   6.939  -3.140  1.00  0.00     0.078 A 
ATOM     17  N   UNL     1      -1.332   5.838  -1.532  1.00  0.00    -0.317 N 
ATOM     18  O   UNL     1       0.959   6.337  -6.389  1.00  0.00    -0.275 OA
ATOM     19  N   UNL     1       0.286   7.136  -4.384  1.00  0.00    -0.324 N 
ATOM     20  C   UNL     1      -1.120   7.122  -1.089  1.00  0.00     0.109 A 
ATOM     21  H   UNL     1       0.629   8.030  -4.613  1.00  0.00     0.170 HD
BRANCH  12  22
ATOM     22  C   UNL     1       0.558   3.541  -3.034  1.00  0.00     0.012 A 
ATOM     23  C   UNL     1       1.080   1.400  -1.948  1.00  0.00     0.165 A 
ATOM     24  C   UNL     1       0.185   2.236  -2.616  1.00  0.00     0.059 A 
ATOM     25  C   UNL     1       2.381   1.837  -1.800  1.00  0.00     0.211 A 
ATOM     26  C   UNL     1       2.783   3.078  -2.255  1.00  0.00     0.211 A 
ATOM     27  O   UNL     1       3.404   1.145  -1.220  1.00  0.00    -0.449 OA
ATOM     28  C   UNL     1       1.900   3.958  -2.865  1.00  0.00     0.168 A 
ATOM     29  O   UNL     1       4.106   3.296  -1.997  1.00  0.00    -0.449 OA
ATOM     30  C   UNL     1       4.505   2.038  -1.437  1.00  0.00     0.468 C 
BRANCH  23  31
ATOM     31  O   UNL     1       0.584   0.209  -1.505  1.00  0.00    -0.493 OA
ATOM     32  C   UNL     1       0.955  -0.099  -0.162  1.00  0.00     0.278 C 
ENDBRANCH  23  31
BRANCH  28  33
ATOM     33  O   UNL     1       2.202   5.208  -3.310  1.00  0.00    -0.492 OA
ATOM     34  C   UNL     1       3.528   5.698  -3.203  1.00  0.00     0.278 C 
ENDBRANCH  28  33
ENDBRANCH  12  22
BRANCH  17  35
ATOM     35  C   UNL     1      -2.042   4.859  -0.814  1.00  0.00     0.046 A 
ATOM     36  C   UNL     1      -1.341   3.797  -0.241  1.00  0.00     0.029 A 
ATOM     37  C   UNL     1      -3.433   4.956  -0.699  1.00  0.00     0.029 A 
ATOM     38  C   UNL     1      -2.044   2.775   0.391  1.00  0.00     0.041 A 
ATOM     39  C   UNL     1      -4.130   3.928  -0.060  1.00  0.00     0.041 A 
ATOM     40  C   UNL     1      -3.431   2.843   0.466  1.00  0.00     0.123 A 
ATOM     41  F   UNL     1      -4.104   1.848   1.058  1.00  0.00    -0.207 F 
ENDBRANCH  17  35
ENDBRANCH   9  11
ENDBRANCH   8   9
ENDBRANCH   7   8
ENDBRANCH   6   7
ENDBRANCH   5   6
ENDBRANCH   4   5
ENDBRANCH   3   4
ENDBRANCH   2   3
ENDBRANCH   1   2
BRANCH   1  42
ATOM     42  C   UNL     1      -4.058  12.353  -4.646  1.00  0.00     0.188 C 
BRANCH  42  43
ATOM     43  O   UNL     1      -4.752  11.678  -3.601  1.00  0.00    -0.376 OA
BRANCH  43  44
ATOM     44  C   UNL     1      -6.152  11.482  -3.715  1.00  0.00     0.202 C 
BRANCH  44  45
ATOM     45  C   UNL     1      -6.557  10.314  -4.606  1.00  0.00     0.261 C 
BRANCH  45  46
ATOM     46  O   UNL     1      -5.942  10.319  -5.884  1.00  0.00    -0.460 OA
BRANCH  46  47
ATOM     47  C   UNL     1      -6.282  11.343  -6.691  1.00  0.00     0.338 C 
ATOM     48  O   UNL     1      -6.854  12.371  -6.375  1.00  0.00    -0.246 OA
BRANCH  47  49
ATOM     49  C   UNL     1      -5.963  10.957  -8.068  1.00  0.00     0.060 A 
ATOM     50  C   UNL     1      -6.226  11.905  -9.055  1.00  0.00     0.016 A 
ATOM     51  C   UNL     1      -5.702   9.610  -8.372  1.00  0.00     0.016 A 
ATOM     52  C   UNL     1      -6.455  11.452 -10.332  1.00  0.00     0.010 A 
ATOM     53  C   UNL     1      -5.943   9.158  -9.646  1.00  0.00     0.010 A 
ATOM     54  C   UNL     1      -6.406  10.074 -10.582  1.00  0.00    -0.014 A 
BRANCH  54  55
ATOM     55  C   UNL     1      -6.865   9.626 -11.873  1.00  0.00     0.031 A 
ATOM     56  C   UNL     1      -5.947   9.938 -12.979  1.00  0.00     0.074 A 
ATOM     57  C   UNL     1      -8.024   8.972 -12.054  1.00  0.00     0.049 A 
ATOM     58  N   UNL     1      -6.098  10.846 -13.881  1.00  0.00    -0.248 NA
ATOM     59  C   UNL     1      -4.641   9.268 -12.988  1.00  0.00     0.031 C 
ATOM     60  C   UNL     1      -8.898   8.359 -11.051  1.00  0.00     0.029 A 
ATOM     61  N   UNL     1      -8.615   8.643 -13.230  1.00  0.00    -0.354 N 
ATOM     62  C   UNL     1      -4.986  10.741 -14.701  1.00  0.00     0.074 A 
ATOM     63  C   UNL     1      -4.054   9.875 -14.020  1.00  0.00     0.031 C 
ATOM     64  C   UNL     1      -9.779   7.545 -11.678  1.00  0.00     0.029 A 
ATOM     65  C   UNL     1      -9.621   7.700 -13.116  1.00  0.00     0.049 A 
ATOM     66  H   UNL     1      -8.350   9.041 -14.091  1.00  0.00     0.167 HD
ATOM     67  C   UNL     1      -4.998  11.195 -15.982  1.00  0.00     0.031 A 
ATOM     68  C   UNL     1     -10.216   7.047 -14.143  1.00  0.00     0.031 A 
ATOM     69  C   UNL     1      -6.122  12.052 -16.249  1.00  0.00     0.049 A 
ATOM     70  C   UNL     1     -10.008   7.860 -15.369  1.00  0.00     0.074 A 
ATOM     71  C   UNL     1      -6.556  13.266 -15.756  1.00  0.00     0.029 A 
ATOM     72  N   UNL     1      -7.202  11.488 -16.888  1.00  0.00    -0.354 N 
ATOM     73  N   UNL     1     -10.558   9.027 -15.559  1.00  0.00    -0.248 NA
ATOM     74  C   UNL     1      -8.856   7.577 -16.212  1.00  0.00     0.031 C 
ATOM     75  C   UNL     1      -7.978  13.175 -15.737  1.00  0.00     0.029 A 
ATOM     76  C   UNL     1      -8.338  11.928 -16.254  1.00  0.00     0.049 A 
ATOM     77  H   UNL     1      -7.168  10.879 -17.660  1.00  0.00     0.167 HD
ATOM     78  C   UNL     1      -9.595   9.777 -16.220  1.00  0.00     0.074 A 
ATOM     79  C   UNL     1      -8.619   8.801 -16.695  1.00  0.00     0.031 C 
ATOM     80  C   UNL     1      -9.540  11.136 -16.084  1.00  0.00     0.031 A 
BRANCH  67  81
ATOM     81  C   UNL     1      -4.193  10.556 -17.076  1.00  0.00    -0.014 A 
ATOM     82  C   UNL     1      -4.111  11.189 -18.329  1.00  0.00     0.010 A 
ATOM     83  C   UNL     1      -3.733   9.224 -16.989  1.00  0.00     0.010 A 
ATOM     84  C   UNL     1      -3.633  10.502 -19.451  1.00  0.00     0.020 A 
ATOM     85  C   UNL     1      -3.212   8.547 -18.090  1.00  0.00     0.020 A 
ATOM     86  C   UNL     1      -3.198   9.181 -19.324  1.00  0.00     0.054 A 
BRANCH  86  87
ATOM     87  S   UNL     1      -2.686   8.268 -20.798  1.00  0.00     0.124 S 
ATOM     88  O   UNL     1      -3.945   8.145 -21.525  1.00  0.00    -0.237 OA
ATOM     89  O   UNL     1      -1.696   9.164 -21.389  1.00  0.00    -0.237 OA
ATOM     90  O   UNL     1      -2.148   7.021 -20.259  1.00  0.00    -0.744 OA
ENDBRANCH  86  87
ENDBRANCH  67  81
BRANCH  68  91
ATOM     91  C   UNL     1     -10.651   5.632 -14.175  1.00  0.00    -0.014 A 
ATOM     92  C   UNL     1     -11.446   5.146 -15.227  1.00  0.00     0.010 A 
ATOM     93  C   UNL     1     -10.048   4.690 -13.315  1.00  0.00     0.010 A 
ATOM     94  C   UNL     1     -11.576   3.766 -15.454  1.00  0.00     0.020 A 
ATOM     95  C   UNL     1     -10.181   3.314 -13.528  1.00  0.00     0.020 A 
ATOM     96  C   UNL     1     -10.923   2.859 -14.614  1.00  0.00     0.054 A 
BRANCH  96  97
ATOM     97  S   UNL     1     -10.936   1.091 -15.027  1.00  0.00     0.124 S 
ATOM     98  O   UNL     1     -12.316   0.715 -14.737  1.00  0.00    -0.237 OA
ATOM     99  O   UNL     1     -10.564   1.093 -16.439  1.00  0.00    -0.237 OA
ATOM    100  O   UNL     1      -9.934   0.520 -14.128  1.00  0.00    -0.744 OA
ENDBRANCH  96  97
ENDBRANCH  68  91
BRANCH  80 101
ATOM    101  C   UNL     1     -10.731  11.841 -15.471  1.00  0.00    -0.014 A 
ATOM    102  C   UNL     1     -11.200  11.587 -14.167  1.00  0.00     0.010 A 
ATOM    103  C   UNL     1     -11.308  12.900 -16.195  1.00  0.00     0.010 A 
ATOM    104  C   UNL     1     -12.240  12.352 -13.617  1.00  0.00     0.020 A 
ATOM    105  C   UNL     1     -12.331  13.678 -15.646  1.00  0.00     0.020 A 
ATOM    106  C   UNL     1     -12.799  13.394 -14.362  1.00  0.00     0.054 A 
BRANCH 106 107
ATOM    107  S   UNL     1     -14.110  14.412 -13.627  1.00  0.00     0.124 S 
ATOM    108  O   UNL     1     -15.239  13.488 -13.577  1.00  0.00    -0.237 OA
ATOM    109  O   UNL     1     -13.544  14.784 -12.331  1.00  0.00    -0.237 OA
ATOM    110  O   UNL     1     -14.259  15.521 -14.568  1.00  0.00    -0.744 OA
ENDBRANCH 106 107
ENDBRANCH  80 101
ENDBRANCH  54  55
ENDBRANCH  47  49
ENDBRANCH  46  47
ENDBRANCH  45  46
ENDBRANCH  44  45
ENDBRANCH  43  44
ENDBRANCH  42  43
ENDBRANCH   1  42
TORSDOF 27
