REMARK SMILES CC[C@H](NC(=O)Cc1c(C)c2cc(Cl)c(OC)cc2oc1=O)C(=O)OCCOCCOCCOCCOC(=O)c1ccc(-c2c3nc(c(-c4ccc(S(=O)(=O)[O-])cc4)c4ccc([nH]4)c(-c4ccc(S(=O)(=O)[O-])cc4)c4nc(c(-c5ccc(S(=O)(=O)[O-])cc5)c5ccc2[nH]5)C=C4)C=C3)cc1
REMARK SMILES IDX 30 1 29 2 28 3 27 4 26 5 25 6 23 7 24 8 3 9 2 10 1 11 4 12
REMARK SMILES IDX 5 13 6 15 7 16 8 17 9 18 21 19 10 20 11 21 20 22 22 23 12 24
REMARK SMILES IDX 19 25 13 26 18 27 14 28 15 29 16 30 17 31 31 32 32 33 33 34
REMARK SMILES IDX 34 35 35 36 36 37 37 38 38 39 39 40 40 41 41 42 99 43 42 44
REMARK SMILES IDX 98 45 43 46 44 47 45 48 92 49 46 50 97 51 91 52 93 53 47 54
REMARK SMILES IDX 96 55 90 56 89 57 48 59 78 60 59 61 77 62 60 63 63 64 76 65
REMARK SMILES IDX 94 66 61 67 62 68 75 70 95 71 64 72 49 73 50 74 58 75 51 76
REMARK SMILES IDX 57 77 52 78 53 79 54 80 55 81 56 82 79 83 80 84 88 85 81 86
REMARK SMILES IDX 87 87 82 88 83 89 84 90 85 91 86 92 65 93 66 94 74 95 67 96
REMARK SMILES IDX 73 97 68 98 69 99 70 100 71 101 72 102
REMARK H PARENT 4 14 93 58 63 69
REMARK Flexibility Score: inf
ROOT
ATOM      1  C   UNL     1       1.520   3.624  -2.701  1.00  0.00     0.188 C 
ENDROOT
BRANCH   1   2
ATOM      2  C   UNL     1       1.523   3.351  -4.485  1.00  0.00     0.188 C 
BRANCH   2   3
ATOM      3  O   UNL     1      -0.044   3.310  -5.748  1.00  0.00    -0.376 OA
BRANCH   3   4
ATOM      4  C   UNL     1      -1.716   3.021  -5.721  1.00  0.00     0.202 C 
BRANCH   4   5
ATOM      5  C   UNL     1      -2.539   1.572  -5.500  1.00  0.00     0.261 C 
BRANCH   5   6
ATOM      6  O   UNL     1      -2.282   0.775  -4.262  1.00  0.00    -0.462 OA
BRANCH   6   7
ATOM      7  C   UNL     1      -2.078  -0.565  -4.044  1.00  0.00     0.328 C 
ATOM      8  O   UNL     1      -2.430  -1.441  -4.822  1.00  0.00    -0.250 OA
BRANCH   7   9
ATOM      9  C   UNL     1      -0.950  -0.771  -2.928  1.00  0.00     0.192 C 
BRANCH   9  10
ATOM     10  C   UNL     1      -0.694  -2.224  -2.499  1.00  0.00     0.033 C 
ATOM     11  C   UNL     1      -1.947  -2.911  -1.994  1.00  0.00     0.007 C 
ENDBRANCH   9  10
BRANCH   9  12
ATOM     12  N   UNL     1      -1.010   0.046  -1.724  1.00  0.00    -0.342 N 
ATOM     13  C   UNL     1      -0.839   1.377  -1.636  1.00  0.00     0.225 C 
ATOM     14  H   UNL     1      -1.197  -0.428  -0.882  1.00  0.00     0.164 HD
ATOM     15  O   UNL     1      -0.554   1.860  -0.538  1.00  0.00    -0.275 OA
BRANCH  13  16
ATOM     16  C   UNL     1      -1.126   2.245  -2.834  1.00  0.00     0.143 C 
BRANCH  16  17
ATOM     17  C   UNL     1      -0.228   2.387  -4.068  1.00  0.00     0.051 A 
ATOM     18  C   UNL     1       0.442   1.496  -5.282  1.00  0.00    -0.029 A 
ATOM     19  C   UNL     1      -0.250   4.394  -4.283  1.00  0.00     0.340 A 
ATOM     20  C   UNL     1       0.133   0.172  -5.948  1.00  0.00     0.046 C 
ATOM     21  C   UNL     1       1.428   2.312  -6.666  1.00  0.00     0.023 A 
ATOM     22  O   UNL     1       0.773   4.949  -5.617  1.00  0.00    -0.422 OA
ATOM     23  O   UNL     1      -1.096   5.164  -3.876  1.00  0.00    -0.246 OA
ATOM     24  C   UNL     1       1.922   1.647  -7.784  1.00  0.00     0.036 A 
ATOM     25  C   UNL     1       1.619   3.931  -6.779  1.00  0.00     0.142 A 
ATOM     26  C   UNL     1       2.609   2.398  -8.787  1.00  0.00     0.083 A 
ATOM     27  C   UNL     1       2.366   4.621  -7.701  1.00  0.00     0.095 A 
ATOM     28  Cl  UNL     1       3.044   1.539 -10.241  1.00  0.00    -0.080 Cl
ATOM     29  C   UNL     1       2.917   3.805  -8.691  1.00  0.00     0.141 A 
BRANCH  29  30
ATOM     30  O   UNL     1       3.752   4.348  -9.650  1.00  0.00    -0.495 OA
ATOM     31  C   UNL     1       4.786   5.158  -9.083  1.00  0.00     0.278 C 
ENDBRANCH  29  30
ENDBRANCH  16  17
ENDBRANCH  13  16
ENDBRANCH   9  12
ENDBRANCH   7   9
ENDBRANCH   6   7
ENDBRANCH   5   6
ENDBRANCH   4   5
ENDBRANCH   3   4
ENDBRANCH   2   3
ENDBRANCH   1   2
BRANCH   1  32
ATOM     32  O   UNL     1       1.112   4.858  -2.076  1.00  0.00    -0.377 OA
BRANCH  32  33
ATOM     33  C   UNL     1      -0.157   5.265  -1.508  1.00  0.00     0.188 C 
BRANCH  33  34
ATOM     34  C   UNL     1      -0.409   6.754  -1.910  1.00  0.00     0.188 C 
BRANCH  34  35
ATOM     35  O   UNL     1       0.472   7.723  -1.367  1.00  0.00    -0.376 OA
BRANCH  35  36
ATOM     36  C   UNL     1       0.855   7.466  -0.035  1.00  0.00     0.202 C 
BRANCH  36  37
ATOM     37  C   UNL     1      -0.255   7.664   1.012  1.00  0.00     0.261 C 
BRANCH  37  38
ATOM     38  O   UNL     1      -1.549   7.092   0.700  1.00  0.00    -0.460 OA
BRANCH  38  39
ATOM     39  C   UNL     1      -2.461   7.917   0.101  1.00  0.00     0.338 C 
ATOM     40  O   UNL     1      -2.298   9.093  -0.177  1.00  0.00    -0.246 OA
BRANCH  39  41
ATOM     41  C   UNL     1      -3.638   7.119  -0.365  1.00  0.00     0.060 A 
ATOM     42  C   UNL     1      -4.254   6.197   0.481  1.00  0.00     0.016 A 
ATOM     43  C   UNL     1      -4.161   7.327  -1.656  1.00  0.00     0.016 A 
ATOM     44  C   UNL     1      -5.436   5.559   0.078  1.00  0.00     0.010 A 
ATOM     45  C   UNL     1      -5.333   6.672  -2.068  1.00  0.00     0.010 A 
ATOM     46  C   UNL     1      -6.015   5.830  -1.178  1.00  0.00    -0.014 A 
BRANCH  46  47
ATOM     47  C   UNL     1      -7.460   5.527  -1.385  1.00  0.00     0.031 A 
ATOM     48  C   UNL     1      -7.967   4.293  -2.068  1.00  0.00     0.074 A 
ATOM     49  C   UNL     1      -8.336   6.419  -0.874  1.00  0.00     0.049 A 
ATOM     50  N   UNL     1      -9.199   3.855  -2.140  1.00  0.00    -0.248 NA
ATOM     51  C   UNL     1      -6.987   3.446  -2.761  1.00  0.00     0.031 C 
ATOM     52  C   UNL     1      -7.955   7.662  -0.197  1.00  0.00     0.029 A 
ATOM     53  N   UNL     1      -9.707   6.414  -0.809  1.00  0.00    -0.354 N 
ATOM     54  C   UNL     1      -9.148   2.667  -2.859  1.00  0.00     0.074 A 
ATOM     55  C   UNL     1      -7.762   2.475  -3.240  1.00  0.00     0.031 C 
ATOM     56  C   UNL     1      -9.057   8.273   0.257  1.00  0.00     0.029 A 
ATOM     57  C   UNL     1     -10.225   7.483  -0.114  1.00  0.00     0.049 A 
ATOM     58  H   UNL     1     -10.265   5.715  -1.220  1.00  0.00     0.167 HD
ATOM     59  C   UNL     1     -10.163   1.818  -3.151  1.00  0.00     0.031 A 
ATOM     60  C   UNL     1     -11.494   7.790   0.220  1.00  0.00     0.031 A 
ATOM     61  C   UNL     1     -11.542   2.033  -2.774  1.00  0.00     0.049 A 
ATOM     62  C   UNL     1     -12.600   6.848  -0.155  1.00  0.00     0.074 A 
ATOM     63  C   UNL     1     -12.624   1.191  -2.977  1.00  0.00     0.029 A 
ATOM     64  N   UNL     1     -12.036   3.160  -2.133  1.00  0.00    -0.354 N 
ATOM     65  N   UNL     1     -12.515   5.683  -0.749  1.00  0.00    -0.248 NA
ATOM     66  C   UNL     1     -13.968   7.252   0.196  1.00  0.00     0.031 C 
ATOM     67  C   UNL     1     -13.778   1.838  -2.532  1.00  0.00     0.029 A 
ATOM     68  C   UNL     1     -13.409   3.051  -1.975  1.00  0.00     0.049 A 
ATOM     69  H   UNL     1     -11.492   3.924  -1.835  1.00  0.00     0.167 HD
ATOM     70  C   UNL     1     -13.817   5.201  -0.819  1.00  0.00     0.074 A 
ATOM     71  C   UNL     1     -14.667   6.193  -0.194  1.00  0.00     0.031 C 
ATOM     72  C   UNL     1     -14.259   4.039  -1.355  1.00  0.00     0.031 A 
BRANCH  59  73
ATOM     73  C   UNL     1      -9.861   0.535  -3.889  1.00  0.00    -0.014 A 
ATOM     74  C   UNL     1     -10.397   0.320  -5.174  1.00  0.00     0.010 A 
ATOM     75  C   UNL     1      -9.236  -0.534  -3.224  1.00  0.00     0.010 A 
ATOM     76  C   UNL     1     -10.359  -0.951  -5.757  1.00  0.00     0.020 A 
ATOM     77  C   UNL     1      -9.175  -1.801  -3.815  1.00  0.00     0.020 A 
ATOM     78  C   UNL     1      -9.763  -2.008  -5.065  1.00  0.00     0.054 A 
BRANCH  78  79
ATOM     79  S   UNL     1      -9.795  -3.667  -5.801  1.00  0.00     0.124 S 
ATOM     80  O   UNL     1     -11.195  -4.048  -5.647  1.00  0.00    -0.237 OA
ATOM     81  O   UNL     1      -9.355  -3.414  -7.172  1.00  0.00    -0.237 OA
ATOM     82  O   UNL     1      -8.848  -4.423  -4.983  1.00  0.00    -0.744 OA
ENDBRANCH  78  79
ENDBRANCH  59  73
BRANCH  60  83
ATOM     83  C   UNL     1     -11.758   9.018   1.020  1.00  0.00    -0.014 A 
ATOM     84  C   UNL     1     -11.533  10.294   0.470  1.00  0.00     0.010 A 
ATOM     85  C   UNL     1     -12.167   8.914   2.360  1.00  0.00     0.010 A 
ATOM     86  C   UNL     1     -11.668  11.439   1.257  1.00  0.00     0.020 A 
ATOM     87  C   UNL     1     -12.336  10.060   3.143  1.00  0.00     0.020 A 
ATOM     88  C   UNL     1     -12.061  11.314   2.592  1.00  0.00     0.054 A 
BRANCH  88  89
ATOM     89  S   UNL     1     -12.211  12.813   3.602  1.00  0.00     0.124 S 
ATOM     90  O   UNL     1     -10.813  13.127   3.882  1.00  0.00    -0.237 OA
ATOM     91  O   UNL     1     -12.896  13.736   2.701  1.00  0.00    -0.237 OA
ATOM     92  O   UNL     1     -12.996  12.372   4.752  1.00  0.00    -0.744 OA
ENDBRANCH  88  89
ENDBRANCH  60  83
BRANCH  72  93
ATOM     93  C   UNL     1     -15.738   3.749  -1.306  1.00  0.00    -0.014 A 
ATOM     94  C   UNL     1     -16.215   2.672  -0.534  1.00  0.00     0.010 A 
ATOM     95  C   UNL     1     -16.639   4.455  -2.123  1.00  0.00     0.010 A 
ATOM     96  C   UNL     1     -17.554   2.280  -0.612  1.00  0.00     0.020 A 
ATOM     97  C   UNL     1     -17.986   4.086  -2.178  1.00  0.00     0.020 A 
ATOM     98  C   UNL     1     -18.428   2.982  -1.444  1.00  0.00     0.054 A 
BRANCH  98  99
ATOM     99  S   UNL     1     -20.152   2.430  -1.568  1.00  0.00     0.124 S 
ATOM    100  O   UNL     1     -20.034   1.242  -2.408  1.00  0.00    -0.237 OA
ATOM    101  O   UNL     1     -20.512   2.183  -0.174  1.00  0.00    -0.237 OA
ATOM    102  O   UNL     1     -20.833   3.566  -2.186  1.00  0.00    -0.744 OA
ENDBRANCH  98  99
ENDBRANCH  72  93
ENDBRANCH  46  47
ENDBRANCH  39  41
ENDBRANCH  38  39
ENDBRANCH  37  38
ENDBRANCH  36  37
ENDBRANCH  35  36
ENDBRANCH  34  35
ENDBRANCH  33  34
ENDBRANCH  32  33
ENDBRANCH   1  32
TORSDOF 28
