REMARK SMILES CCc1cc(OC(F)(F)F)cc2c1O[C@@H](C(F)(F)F)C(C(=O)OCCOCCOCCOCCOC(=O)c1ccc(-c3c4nc(c(-c5ccc(S(=O)(=O)[O-])cc5)c5ccc([nH]5)c(-c5ccc(S(=O)(=O)[O-])cc5)c5nc(c(-c6ccc(S(=O)(=O)[O-])cc6)c6ccc3[nH]6)C=C5)C=C4)cc1)=C2
REMARK SMILES IDX 30 1 29 2 28 3 27 4 26 5 25 6 24 7 23 8 21 9 22 10 20 11
REMARK SMILES IDX 3 12 4 13 13 14 5 15 12 16 14 17 11 18 98 19 15 20 2 21 1 22
REMARK SMILES IDX 6 23 7 24 8 25 9 26 10 27 16 28 17 29 18 30 19 31 31 32
REMARK SMILES IDX 32 33 33 34 34 35 35 36 36 37 37 38 38 39 39 40 97 41 40 42
REMARK SMILES IDX 96 43 41 44 42 45 43 46 90 47 44 48 95 49 89 50 91 51 45 52
REMARK SMILES IDX 94 53 88 54 87 55 46 57 76 58 57 59 75 60 58 61 61 62 74 63
REMARK SMILES IDX 92 64 59 65 60 66 73 68 93 69 62 70 47 71 48 72 56 73 49 74
REMARK SMILES IDX 55 75 50 76 51 77 52 78 53 79 54 80 77 81 78 82 86 83 79 84
REMARK SMILES IDX 85 85 80 86 81 87 82 88 83 89 84 90 63 91 64 92 72 93 65 94
REMARK SMILES IDX 71 95 66 96 67 97 68 98 69 99 70 100
REMARK H PARENT 91 56 61 67
REMARK Flexibility Score: inf
ROOT
ATOM      1  C   UNL     1       2.265   8.345   3.491  1.00  0.00     0.188 C 
ENDROOT
BRANCH   1   2
ATOM      2  O   UNL     1       2.062   6.937   3.437  1.00  0.00    -0.377 OA
BRANCH   2   3
ATOM      3  C   UNL     1       1.686   6.333   2.215  1.00  0.00     0.188 C 
BRANCH   3   4
ATOM      4  C   UNL     1       0.511   6.939   1.429  1.00  0.00     0.188 C 
BRANCH   4   5
ATOM      5  O   UNL     1      -0.099   8.069   2.043  1.00  0.00    -0.376 OA
BRANCH   5   6
ATOM      6  C   UNL     1      -1.414   7.871   2.547  1.00  0.00     0.202 C 
BRANCH   6   7
ATOM      7  C   UNL     1      -1.452   7.110   3.875  1.00  0.00     0.261 C 
BRANCH   7   8
ATOM      8  O   UNL     1      -0.926   5.775   3.789  1.00  0.00    -0.460 OA
BRANCH   8   9
ATOM      9  C   UNL     1      -1.618   4.892   3.039  1.00  0.00     0.338 C 
ATOM     10  O   UNL     1      -2.669   5.099   2.457  1.00  0.00    -0.246 OA
BRANCH   9  11
ATOM     11  C   UNL     1      -0.832   3.656   2.890  1.00  0.00     0.087 C 
ATOM     12  C   UNL     1       0.799  -0.151   2.402  1.00  0.00    -0.002 A 
ATOM     13  C   UNL     1       1.603  -0.689   3.420  1.00  0.00     0.054 A 
ATOM     14  C   UNL     1       0.246   1.121   2.588  1.00  0.00     0.131 A 
ATOM     15  C   UNL     1       1.833   0.022   4.604  1.00  0.00     0.130 A 
ATOM     16  C   UNL     1       0.468   1.845   3.768  1.00  0.00     0.021 A 
ATOM     17  O   UNL     1      -0.585   1.600   1.607  1.00  0.00    -0.475 OA
ATOM     18  C   UNL     1       1.279   1.298   4.764  1.00  0.00     0.058 A 
ATOM     19  C   UNL     1      -0.247   3.105   3.968  1.00  0.00     0.027 C 
ATOM     20  C   UNL     1      -0.628   3.048   1.523  1.00  0.00     0.316 C 
BRANCH  12  21
ATOM     21  C   UNL     1       0.513  -0.954   1.154  1.00  0.00     0.036 C 
ATOM     22  C   UNL     1       1.178  -0.386  -0.093  1.00  0.00     0.009 C 
ENDBRANCH  12  21
BRANCH  15  23
ATOM     23  O   UNL     1       2.569  -0.417   5.669  1.00  0.00    -0.406 OA
BRANCH  23  24
ATOM     24  C   UNL     1       2.792  -1.814   5.769  1.00  0.00     0.573 C 
ATOM     25  F   UNL     1       1.639  -2.510   5.658  1.00  0.00    -0.132 F 
ATOM     26  F   UNL     1       3.659  -2.233   4.821  1.00  0.00    -0.132 F 
ATOM     27  F   UNL     1       3.331  -2.087   6.977  1.00  0.00    -0.132 F 
ENDBRANCH  23  24
ENDBRANCH  15  23
BRANCH  20  28
ATOM     28  C   UNL     1      -1.577   3.421   0.373  1.00  0.00     0.430 C 
ATOM     29  F   UNL     1      -1.515   4.737   0.070  1.00  0.00    -0.167 F 
ATOM     30  F   UNL     1      -1.199   2.770  -0.762  1.00  0.00    -0.167 F 
ATOM     31  F   UNL     1      -2.861   3.088   0.607  1.00  0.00    -0.167 F 
ENDBRANCH  20  28
ENDBRANCH   9  11
ENDBRANCH   8   9
ENDBRANCH   7   8
ENDBRANCH   6   7
ENDBRANCH   5   6
ENDBRANCH   4   5
ENDBRANCH   3   4
ENDBRANCH   2   3
ENDBRANCH   1   2
BRANCH   1  32
ATOM     32  C   UNL     1       2.584   9.163   2.221  1.00  0.00     0.188 C 
BRANCH  32  33
ATOM     33  O   UNL     1       3.096   8.406   1.129  1.00  0.00    -0.376 OA
BRANCH  33  34
ATOM     34  C   UNL     1       4.469   8.607   0.822  1.00  0.00     0.202 C 
BRANCH  34  35
ATOM     35  C   UNL     1       5.416   7.874   1.778  1.00  0.00     0.261 C 
BRANCH  35  36
ATOM     36  O   UNL     1       5.372   8.337   3.136  1.00  0.00    -0.460 OA
BRANCH  36  37
ATOM     37  C   UNL     1       5.702   9.631   3.347  1.00  0.00     0.338 C 
ATOM     38  O   UNL     1       6.084  10.439   2.520  1.00  0.00    -0.246 OA
BRANCH  37  39
ATOM     39  C   UNL     1       5.340   9.966   4.736  1.00  0.00     0.060 A 
ATOM     40  C   UNL     1       4.473  11.042   4.965  1.00  0.00     0.016 A 
ATOM     41  C   UNL     1       5.848   9.218   5.801  1.00  0.00     0.016 A 
ATOM     42  C   UNL     1       4.145  11.399   6.271  1.00  0.00     0.010 A 
ATOM     43  C   UNL     1       5.533   9.589   7.108  1.00  0.00     0.010 A 
ATOM     44  C   UNL     1       4.712  10.703   7.348  1.00  0.00    -0.014 A 
BRANCH  44  45
ATOM     45  C   UNL     1       4.626  11.275   8.711  1.00  0.00     0.031 A 
ATOM     46  C   UNL     1       5.751  12.158   9.177  1.00  0.00     0.074 A 
ATOM     47  C   UNL     1       3.573  11.034   9.510  1.00  0.00     0.049 A 
ATOM     48  N   UNL     1       5.900  12.777  10.318  1.00  0.00    -0.248 NA
ATOM     49  C   UNL     1       6.856  12.371   8.226  1.00  0.00     0.031 C 
ATOM     50  C   UNL     1       2.410  10.218   9.161  1.00  0.00     0.029 A 
ATOM     51  N   UNL     1       3.317  11.457  10.790  1.00  0.00    -0.354 N 
ATOM     52  C   UNL     1       7.111  13.453  10.223  1.00  0.00     0.074 A 
ATOM     53  C   UNL     1       7.672  13.143   8.926  1.00  0.00     0.031 C 
ATOM     54  C   UNL     1       1.566  10.196  10.208  1.00  0.00     0.029 A 
ATOM     55  C   UNL     1       2.139  10.975  11.306  1.00  0.00     0.049 A 
ATOM     56  H   UNL     1       3.922  12.050  11.292  1.00  0.00     0.167 HD
ATOM     57  C   UNL     1       7.702  14.265  11.129  1.00  0.00     0.031 A 
ATOM     58  C   UNL     1       1.594  11.135  12.528  1.00  0.00     0.031 A 
ATOM     59  C   UNL     1       7.157  14.552  12.428  1.00  0.00     0.049 A 
ATOM     60  C   UNL     1       2.305  11.988  13.549  1.00  0.00     0.074 A 
ATOM     61  C   UNL     1       7.673  15.373  13.414  1.00  0.00     0.029 A 
ATOM     62  N   UNL     1       5.979  14.017  12.925  1.00  0.00    -0.354 N 
ATOM     63  N   UNL     1       3.429  12.655  13.428  1.00  0.00    -0.248 NA
ATOM     64  C   UNL     1       1.667  12.116  14.867  1.00  0.00     0.031 C 
ATOM     65  C   UNL     1       6.833  15.292  14.530  1.00  0.00     0.029 A 
ATOM     66  C   UNL     1       5.765  14.467  14.216  1.00  0.00     0.049 A 
ATOM     67  H   UNL     1       5.383  13.407  12.433  1.00  0.00     0.167 HD
ATOM     68  C   UNL     1       3.619  13.301  14.646  1.00  0.00     0.074 A 
ATOM     69  C   UNL     1       2.488  12.956  15.483  1.00  0.00     0.031 C 
ATOM     70  C   UNL     1       4.636  14.109  15.037  1.00  0.00     0.031 A 
BRANCH  57  71
ATOM     71  C   UNL     1       9.025  14.871  10.751  1.00  0.00    -0.014 A 
ATOM     72  C   UNL     1       9.106  15.895   9.790  1.00  0.00     0.010 A 
ATOM     73  C   UNL     1      10.201  14.422  11.377  1.00  0.00     0.010 A 
ATOM     74  C   UNL     1      10.345  16.433   9.435  1.00  0.00     0.020 A 
ATOM     75  C   UNL     1      11.440  14.975  11.043  1.00  0.00     0.020 A 
ATOM     76  C   UNL     1      11.505  15.966  10.061  1.00  0.00     0.054 A 
BRANCH  76  77
ATOM     77  S   UNL     1      13.100  16.693   9.594  1.00  0.00     0.124 S 
ATOM     78  O   UNL     1      13.326  16.100   8.278  1.00  0.00    -0.237 OA
ATOM     79  O   UNL     1      12.813  18.125   9.596  1.00  0.00    -0.237 OA
ATOM     80  O   UNL     1      14.008  16.241  10.645  1.00  0.00    -0.744 OA
ENDBRANCH  76  77
ENDBRANCH  57  71
BRANCH  58  81
ATOM     81  C   UNL     1       0.309  10.463  12.865  1.00  0.00    -0.014 A 
ATOM     82  C   UNL     1      -0.869  11.209  13.041  1.00  0.00     0.010 A 
ATOM     83  C   UNL     1       0.262   9.065  13.021  1.00  0.00     0.010 A 
ATOM     84  C   UNL     1      -2.067  10.573  13.381  1.00  0.00     0.020 A 
ATOM     85  C   UNL     1      -0.938   8.423  13.336  1.00  0.00     0.020 A 
ATOM     86  C   UNL     1      -2.094   9.183  13.525  1.00  0.00     0.054 A 
BRANCH  86  87
ATOM     87  S   UNL     1      -3.670   8.371  13.914  1.00  0.00     0.124 S 
ATOM     88  O   UNL     1      -3.838   8.696  15.326  1.00  0.00    -0.237 OA
ATOM     89  O   UNL     1      -4.598   9.029  12.997  1.00  0.00    -0.237 OA
ATOM     90  O   UNL     1      -3.410   6.964  13.619  1.00  0.00    -0.744 OA
ENDBRANCH  86  87
ENDBRANCH  58  81
BRANCH  70  91
ATOM     91  C   UNL     1       4.563  14.701  16.419  1.00  0.00    -0.014 A 
ATOM     92  C   UNL     1       4.790  13.914  17.562  1.00  0.00     0.010 A 
ATOM     93  C   UNL     1       4.323  16.080  16.572  1.00  0.00     0.010 A 
ATOM     94  C   UNL     1       4.746  14.489  18.835  1.00  0.00     0.020 A 
ATOM     95  C   UNL     1       4.305  16.663  17.841  1.00  0.00     0.020 A 
ATOM     96  C   UNL     1       4.502  15.860  18.967  1.00  0.00     0.054 A 
BRANCH  96  97
ATOM     97  S   UNL     1       4.490  16.592  20.627  1.00  0.00     0.124 S 
ATOM     98  O   UNL     1       3.203  16.141  21.148  1.00  0.00    -0.237 OA
ATOM     99  O   UNL     1       5.666  15.991  21.252  1.00  0.00    -0.237 OA
ATOM    100  O   UNL     1       4.593  18.027  20.373  1.00  0.00    -0.744 OA
ENDBRANCH  96  97
ENDBRANCH  70  91
ENDBRANCH  44  45
ENDBRANCH  37  39
ENDBRANCH  36  37
ENDBRANCH  35  36
ENDBRANCH  34  35
ENDBRANCH  33  34
ENDBRANCH  32  33
ENDBRANCH   1  32
TORSDOF 27
