REMARK SMILES COc1cc(OC(F)(F)F)cc2c1O[C@@H](C(F)(F)F)C(C(=O)OCCOCCOCCOCCOC(=O)c1ccc(-c3c4nc(c(-c5ccc(S(=O)(=O)[O-])cc5)c5ccc([nH]5)c(-c5ccc(S(=O)(=O)[O-])cc5)c5nc(c(-c6ccc(S(=O)(=O)[O-])cc6)c6ccc3[nH]6)C=C5)C=C4)cc1)=C2
REMARK SMILES IDX 30 1 29 2 28 3 27 4 26 5 25 6 24 7 23 8 21 9 22 10 20 11
REMARK SMILES IDX 3 12 4 13 13 14 5 15 12 16 14 17 11 18 98 19 15 20 2 21 1 22
REMARK SMILES IDX 6 23 7 24 8 25 9 26 10 27 16 28 17 29 18 30 19 31 31 32
REMARK SMILES IDX 32 33 33 34 34 35 35 36 36 37 37 38 38 39 39 40 97 41 40 42
REMARK SMILES IDX 96 43 41 44 42 45 43 46 90 47 44 48 95 49 89 50 91 51 45 52
REMARK SMILES IDX 94 53 88 54 87 55 46 57 76 58 57 59 75 60 58 61 61 62 74 63
REMARK SMILES IDX 92 64 59 65 60 66 73 68 93 69 62 70 47 71 48 72 56 73 49 74
REMARK SMILES IDX 55 75 50 76 51 77 52 78 53 79 54 80 77 81 78 82 86 83 79 84
REMARK SMILES IDX 85 85 80 86 81 87 82 88 83 89 84 90 63 91 64 92 72 93 65 94
REMARK SMILES IDX 71 95 66 96 67 97 68 98 69 99 70 100
REMARK H PARENT 91 56 61 67
REMARK Flexibility Score: inf
ROOT
ATOM      1  C   UNL     1       7.524   5.070  -3.802  1.00  0.00     0.188 C 
ENDROOT
BRANCH   1   2
ATOM      2  O   UNL     1       6.315   4.342  -3.618  1.00  0.00    -0.377 OA
BRANCH   2   3
ATOM      3  C   UNL     1       6.123   3.597  -2.429  1.00  0.00     0.188 C 
BRANCH   3   4
ATOM      4  C   UNL     1       7.272   2.716  -1.902  1.00  0.00     0.188 C 
BRANCH   4   5
ATOM      5  O   UNL     1       8.491   2.836  -2.618  1.00  0.00    -0.376 OA
BRANCH   5   6
ATOM      6  C   UNL     1       8.914   1.718  -3.381  1.00  0.00     0.202 C 
BRANCH   6   7
ATOM      7  C   UNL     1       8.062   1.382  -4.612  1.00  0.00     0.261 C 
BRANCH   7   8
ATOM      8  O   UNL     1       6.657   1.233  -4.348  1.00  0.00    -0.460 OA
BRANCH   8   9
ATOM      9  C   UNL     1       6.274   0.143  -3.648  1.00  0.00     0.338 C 
ATOM     10  O   UNL     1       7.001  -0.743  -3.238  1.00  0.00    -0.246 OA
BRANCH   9  11
ATOM     11  C   UNL     1       4.850   0.274  -3.283  1.00  0.00     0.087 C 
ATOM     12  C   UNL     1       0.812  -0.004  -2.263  1.00  0.00     0.165 A 
ATOM     13  C   UNL     1      -0.166   0.472  -3.139  1.00  0.00     0.097 A 
ATOM     14  C   UNL     1       2.163   0.097  -2.602  1.00  0.00     0.170 A 
ATOM     15  C   UNL     1       0.202   1.092  -4.335  1.00  0.00     0.134 A 
ATOM     16  C   UNL     1       2.545   0.708  -3.804  1.00  0.00     0.025 A 
ATOM     17  O   UNL     1       3.084  -0.512  -1.790  1.00  0.00    -0.471 OA
ATOM     18  C   UNL     1       1.561   1.232  -4.650  1.00  0.00     0.059 A 
ATOM     19  C   UNL     1       3.952   0.661  -4.207  1.00  0.00     0.027 C 
ATOM     20  C   UNL     1       4.416   0.059  -1.852  1.00  0.00     0.316 C 
BRANCH  12  21
ATOM     21  O   UNL     1       0.360  -0.653  -1.142  1.00  0.00    -0.493 OA
ATOM     22  C   UNL     1       0.802  -0.034   0.064  1.00  0.00     0.278 C 
ENDBRANCH  12  21
BRANCH  15  23
ATOM     23  O   UNL     1      -0.659   1.584  -5.276  1.00  0.00    -0.406 OA
BRANCH  23  24
ATOM     24  C   UNL     1      -2.010   1.154  -5.209  1.00  0.00     0.573 C 
ATOM     25  F   UNL     1      -2.099  -0.194  -5.177  1.00  0.00    -0.132 F 
ATOM     26  F   UNL     1      -2.626   1.669  -4.122  1.00  0.00    -0.132 F 
ATOM     27  F   UNL     1      -2.666   1.592  -6.305  1.00  0.00    -0.132 F 
ENDBRANCH  23  24
ENDBRANCH  15  23
BRANCH  20  28
ATOM     28  C   UNL     1       5.309  -0.745  -0.892  1.00  0.00     0.430 C 
ATOM     29  F   UNL     1       6.498  -0.139  -0.674  1.00  0.00    -0.167 F 
ATOM     30  F   UNL     1       4.713  -0.817   0.332  1.00  0.00    -0.167 F 
ATOM     31  F   UNL     1       5.532  -2.010  -1.296  1.00  0.00    -0.167 F 
ENDBRANCH  20  28
ENDBRANCH   9  11
ENDBRANCH   8   9
ENDBRANCH   7   8
ENDBRANCH   6   7
ENDBRANCH   5   6
ENDBRANCH   4   5
ENDBRANCH   3   4
ENDBRANCH   2   3
ENDBRANCH   1   2
BRANCH   1  32
ATOM     32  C   UNL     1       8.326   5.610  -2.592  1.00  0.00     0.188 C 
BRANCH  32  33
ATOM     33  O   UNL     1       7.666   5.496  -1.339  1.00  0.00    -0.376 OA
BRANCH  33  34
ATOM     34  C   UNL     1       7.211   6.700  -0.745  1.00  0.00     0.202 C 
BRANCH  34  35
ATOM     35  C   UNL     1       6.038   7.385  -1.457  1.00  0.00     0.261 C 
BRANCH  35  36
ATOM     36  O   UNL     1       6.258   7.729  -2.833  1.00  0.00    -0.460 OA
BRANCH  36  37
ATOM     37  C   UNL     1       7.239   8.617  -3.107  1.00  0.00     0.338 C 
ATOM     38  O   UNL     1       7.971   9.177  -2.310  1.00  0.00    -0.246 OA
BRANCH  37  39
ATOM     39  C   UNL     1       7.400   8.644  -4.575  1.00  0.00     0.060 A 
ATOM     40  C   UNL     1       8.627   8.277  -5.145  1.00  0.00     0.016 A 
ATOM     41  C   UNL     1       6.314   8.987  -5.383  1.00  0.00     0.016 A 
ATOM     42  C   UNL     1       8.775   8.269  -6.534  1.00  0.00     0.010 A 
ATOM     43  C   UNL     1       6.471   9.003  -6.768  1.00  0.00     0.010 A 
ATOM     44  C   UNL     1       7.709   8.671  -7.348  1.00  0.00    -0.014 A 
BRANCH  44  45
ATOM     45  C   UNL     1       7.923   8.950  -8.787  1.00  0.00     0.031 A 
ATOM     46  C   UNL     1       8.167  10.375  -9.197  1.00  0.00     0.074 A 
ATOM     47  C   UNL     1       7.863   7.976  -9.712  1.00  0.00     0.049 A 
ATOM     48  N   UNL     1       8.262  10.890 -10.394  1.00  0.00    -0.248 NA
ATOM     49  C   UNL     1       8.310  11.352  -8.104  1.00  0.00     0.031 C 
ATOM     50  C   UNL     1       7.669   6.554  -9.435  1.00  0.00     0.029 A 
ATOM     51  N   UNL     1       7.937   8.049 -11.081  1.00  0.00    -0.354 N 
ATOM     52  C   UNL     1       8.461  12.252 -10.200  1.00  0.00     0.074 A 
ATOM     53  C   UNL     1       8.445  12.486  -8.773  1.00  0.00     0.031 C 
ATOM     54  C   UNL     1       7.611   5.889 -10.604  1.00  0.00     0.029 A 
ATOM     55  C   UNL     1       7.724   6.844 -11.707  1.00  0.00     0.049 A 
ATOM     56  H   UNL     1       8.124   8.884 -11.567  1.00  0.00     0.167 HD
ATOM     57  C   UNL     1       8.640  13.222 -11.127  1.00  0.00     0.031 A 
ATOM     58  C   UNL     1       7.598   6.552 -13.017  1.00  0.00     0.031 A 
ATOM     59  C   UNL     1       8.623  12.987 -12.546  1.00  0.00     0.049 A 
ATOM     60  C   UNL     1       7.726   7.656 -14.036  1.00  0.00     0.074 A 
ATOM     61  C   UNL     1       8.805  13.898 -13.570  1.00  0.00     0.029 A 
ATOM     62  N   UNL     1       8.397  11.754 -13.140  1.00  0.00    -0.354 N 
ATOM     63  N   UNL     1       7.944   8.936 -13.842  1.00  0.00    -0.248 NA
ATOM     64  C   UNL     1       7.600   7.276 -15.450  1.00  0.00     0.031 C 
ATOM     65  C   UNL     1       8.626  13.228 -14.784  1.00  0.00     0.029 A 
ATOM     66  C   UNL     1       8.407  11.885 -14.518  1.00  0.00     0.049 A 
ATOM     67  H   UNL     1       8.252  10.911 -12.653  1.00  0.00     0.167 HD
ATOM     68  C   UNL     1       8.010   9.508 -15.110  1.00  0.00     0.074 A 
ATOM     69  C   UNL     1       7.819   8.433 -16.062  1.00  0.00     0.031 C 
ATOM     70  C   UNL     1       8.216  10.804 -15.454  1.00  0.00     0.031 A 
BRANCH  57  71
ATOM     71  C   UNL     1       8.817  14.630 -10.625  1.00  0.00    -0.014 A 
ATOM     72  C   UNL     1       9.974  15.019  -9.925  1.00  0.00     0.010 A 
ATOM     73  C   UNL     1       7.807  15.582 -10.858  1.00  0.00     0.010 A 
ATOM     74  C   UNL     1      10.095  16.317  -9.423  1.00  0.00     0.020 A 
ATOM     75  C   UNL     1       7.939  16.890 -10.385  1.00  0.00     0.020 A 
ATOM     76  C   UNL     1       9.073  17.243  -9.651  1.00  0.00     0.054 A 
BRANCH  76  77
ATOM     77  S   UNL     1       9.254  18.920  -8.986  1.00  0.00     0.124 S 
ATOM     78  O   UNL     1       9.065  18.697  -7.554  1.00  0.00    -0.237 OA
ATOM     79  O   UNL     1      10.611  19.280  -9.391  1.00  0.00    -0.237 OA
ATOM     80  O   UNL     1       8.190  19.672  -9.645  1.00  0.00    -0.744 OA
ENDBRANCH  76  77
ENDBRANCH  57  71
BRANCH  58  81
ATOM     81  C   UNL     1       7.303   5.154 -13.438  1.00  0.00    -0.014 A 
ATOM     82  C   UNL     1       8.267   4.383 -14.111  1.00  0.00     0.010 A 
ATOM     83  C   UNL     1       6.051   4.579 -13.147  1.00  0.00     0.010 A 
ATOM     84  C   UNL     1       7.983   3.066 -14.489  1.00  0.00     0.020 A 
ATOM     85  C   UNL     1       5.774   3.254 -13.497  1.00  0.00     0.020 A 
ATOM     86  C   UNL     1       6.741   2.508 -14.172  1.00  0.00     0.054 A 
BRANCH  86  87
ATOM     87  S   UNL     1       6.425   0.774 -14.605  1.00  0.00     0.124 S 
ATOM     88  O   UNL     1       6.284   0.842 -16.055  1.00  0.00    -0.237 OA
ATOM     89  O   UNL     1       7.627   0.105 -14.115  1.00  0.00    -0.237 OA
ATOM     90  O   UNL     1       5.202   0.456 -13.870  1.00  0.00    -0.744 OA
ENDBRANCH  86  87
ENDBRANCH  58  81
BRANCH  70  91
ATOM     91  C   UNL     1       8.293  11.138 -16.922  1.00  0.00    -0.014 A 
ATOM     92  C   UNL     1       7.150  11.126 -17.741  1.00  0.00     0.010 A 
ATOM     93  C   UNL     1       9.524  11.545 -17.471  1.00  0.00     0.010 A 
ATOM     94  C   UNL     1       7.242  11.491 -19.088  1.00  0.00     0.020 A 
ATOM     95  C   UNL     1       9.614  11.939 -18.808  1.00  0.00     0.020 A 
ATOM     96  C   UNL     1       8.474  11.899 -19.612  1.00  0.00     0.054 A 
BRANCH  96  97
ATOM     97  S   UNL     1       8.555  12.420 -21.348  1.00  0.00     0.124 S 
ATOM     98  O   UNL     1       8.412  11.150 -22.054  1.00  0.00    -0.237 OA
ATOM     99  O   UNL     1       7.421  13.334 -21.460  1.00  0.00    -0.237 OA
ATOM    100  O   UNL     1       9.869  13.050 -21.460  1.00  0.00    -0.744 OA
ENDBRANCH  96  97
ENDBRANCH  70  91
ENDBRANCH  44  45
ENDBRANCH  37  39
ENDBRANCH  36  37
ENDBRANCH  35  36
ENDBRANCH  34  35
ENDBRANCH  33  34
ENDBRANCH  32  33
ENDBRANCH   1  32
TORSDOF 27
