REMARK SMILES O=C(OCCOCCOCCOCCOC(=O)[C@H]1CC=CC[C@@H]1C(=O)N[C@@H]1CCCN(c2ccccc2F)C1=O)c1ccc(-c2c3nc(c(-c4ccc(S(=O)(=O)[O-])cc4)c4ccc([nH]4)c(-c4ccc(S(=O)(=O)[O-])cc4)c4nc(c(-c5ccc(S(=O)(=O)[O-])cc5)c5ccc2[nH]5)C=C4)C=C3)cc1
REMARK SMILES IDX 9 1 8 2 7 3 6 4 5 5 4 6 3 7 2 8 1 9 41 10 42 11 100 12 43 13
REMARK SMILES IDX 99 14 44 15 45 16 46 17 93 18 47 19 98 20 92 21 94 22 48 23
REMARK SMILES IDX 97 24 91 25 90 26 49 28 79 29 60 30 78 31 61 32 64 33 77 34
REMARK SMILES IDX 95 35 62 36 63 37 76 39 96 40 65 41 50 42 51 43 59 44 52 45
REMARK SMILES IDX 58 46 53 47 54 48 55 49 56 50 57 51 80 52 81 53 89 54 82 55
REMARK SMILES IDX 88 56 83 57 84 58 85 59 86 60 87 61 66 62 67 63 75 64 68 65
REMARK SMILES IDX 74 66 69 67 70 68 71 69 72 70 73 71 10 72 11 73 12 74 13 75
REMARK SMILES IDX 14 76 15 77 16 78 17 79 18 80 19 81 23 82 20 83 22 84 21 85
REMARK SMILES IDX 24 86 25 87 26 88 27 90 28 91 39 92 29 93 31 94 40 95 30 96
REMARK SMILES IDX 32 97 33 98 37 99 34 100 36 101 38 102 35 103
REMARK H PARENT 94 27 64 38 26 89
REMARK Flexibility Score: inf
ROOT
ATOM      1  O   UNL     1      11.609  -9.859   2.195  1.00  0.00    -0.377 OA
ENDROOT
BRANCH   1   2
ATOM      2  C   UNL     1      12.734 -10.658   1.818  1.00  0.00     0.188 C 
BRANCH   2   3
ATOM      3  C   UNL     1      13.649 -10.059   0.739  1.00  0.00     0.188 C 
BRANCH   3   4
ATOM      4  O   UNL     1      14.196  -8.810   1.140  1.00  0.00    -0.376 OA
BRANCH   4   5
ATOM      5  C   UNL     1      14.177  -7.681   0.271  1.00  0.00     0.202 C 
BRANCH   5   6
ATOM      6  C   UNL     1      14.948  -7.817  -1.022  1.00  0.00     0.261 C 
BRANCH   6   7
ATOM      7  O   UNL     1      15.506  -9.111  -1.274  1.00  0.00    -0.460 OA
BRANCH   7   8
ATOM      8  C   UNL     1      16.462  -9.811  -0.628  1.00  0.00     0.338 C 
ATOM      9  O   UNL     1      16.646 -10.979  -0.971  1.00  0.00    -0.246 OA
BRANCH   8  10
ATOM     10  C   UNL     1      17.352  -9.266   0.434  1.00  0.00     0.060 A 
ATOM     11  C   UNL     1      16.976  -8.418   1.474  1.00  0.00     0.016 A 
ATOM     12  C   UNL     1      18.657  -9.780   0.459  1.00  0.00     0.016 A 
ATOM     13  C   UNL     1      17.848  -8.030   2.468  1.00  0.00     0.010 A 
ATOM     14  C   UNL     1      19.544  -9.429   1.477  1.00  0.00     0.010 A 
ATOM     15  C   UNL     1      19.133  -8.536   2.470  1.00  0.00    -0.014 A 
BRANCH  15  16
ATOM     16  C   UNL     1      20.059  -7.946   3.434  1.00  0.00     0.031 A 
ATOM     17  C   UNL     1      21.010  -6.926   2.906  1.00  0.00     0.074 A 
ATOM     18  C   UNL     1      19.913  -8.207   4.744  1.00  0.00     0.049 A 
ATOM     19  N   UNL     1      22.011  -6.353   3.504  1.00  0.00    -0.248 NA
ATOM     20  C   UNL     1      20.797  -6.481   1.513  1.00  0.00     0.031 C 
ATOM     21  C   UNL     1      18.853  -9.035   5.333  1.00  0.00     0.029 A 
ATOM     22  N   UNL     1      20.641  -7.786   5.819  1.00  0.00    -0.354 N 
ATOM     23  C   UNL     1      22.591  -5.538   2.542  1.00  0.00     0.074 A 
ATOM     24  C   UNL     1      21.814  -5.655   1.333  1.00  0.00     0.031 C 
ATOM     25  C   UNL     1      19.014  -9.070   6.666  1.00  0.00     0.029 A 
ATOM     26  C   UNL     1      20.235  -8.352   7.004  1.00  0.00     0.049 A 
ATOM     27  H   UNL     1      21.383  -7.142   5.753  1.00  0.00     0.167 HD
ATOM     28  C   UNL     1      23.708  -4.793   2.674  1.00  0.00     0.031 A 
ATOM     29  C   UNL     1      20.846  -8.346   8.203  1.00  0.00     0.031 A 
ATOM     30  C   UNL     1      24.438  -4.727   3.906  1.00  0.00     0.049 A 
ATOM     31  C   UNL     1      22.158  -7.611   8.290  1.00  0.00     0.074 A 
ATOM     32  C   UNL     1      25.613  -4.059   4.180  1.00  0.00     0.029 A 
ATOM     33  N   UNL     1      24.049  -5.372   5.075  1.00  0.00    -0.354 N 
ATOM     34  N   UNL     1      22.756  -6.889   7.368  1.00  0.00    -0.248 NA
ATOM     35  C   UNL     1      22.893  -7.708   9.554  1.00  0.00     0.031 C 
ATOM     36  C   UNL     1      25.972  -4.360   5.497  1.00  0.00     0.029 A 
ATOM     37  C   UNL     1      24.983  -5.154   6.065  1.00  0.00     0.049 A 
ATOM     38  H   UNL     1      23.228  -5.905   5.180  1.00  0.00     0.167 HD
ATOM     39  C   UNL     1      23.934  -6.436   7.944  1.00  0.00     0.074 A 
ATOM     40  C   UNL     1      23.948  -6.944   9.303  1.00  0.00     0.031 C 
ATOM     41  C   UNL     1      24.925  -5.682   7.407  1.00  0.00     0.031 A 
BRANCH  28  42
ATOM     42  C   UNL     1      24.247  -4.128   1.442  1.00  0.00    -0.014 A 
ATOM     43  C   UNL     1      23.628  -3.007   0.864  1.00  0.00     0.010 A 
ATOM     44  C   UNL     1      25.408  -4.656   0.847  1.00  0.00     0.010 A 
ATOM     45  C   UNL     1      24.155  -2.434  -0.298  1.00  0.00     0.020 A 
ATOM     46  C   UNL     1      25.951  -4.072  -0.298  1.00  0.00     0.020 A 
ATOM     47  C   UNL     1      25.317  -2.968  -0.868  1.00  0.00     0.054 A 
BRANCH  47  48
ATOM     48  S   UNL     1      26.007  -2.167  -2.341  1.00  0.00     0.124 S 
ATOM     49  O   UNL     1      25.031  -2.521  -3.365  1.00  0.00    -0.237 OA
ATOM     50  O   UNL     1      26.038  -0.763  -1.955  1.00  0.00    -0.237 OA
ATOM     51  O   UNL     1      27.323  -2.798  -2.492  1.00  0.00    -0.744 OA
ENDBRANCH  47  48
ENDBRANCH  28  42
BRANCH  29  52
ATOM     52  C   UNL     1      20.310  -9.147   9.339  1.00  0.00    -0.014 A 
ATOM     53  C   UNL     1      19.919  -8.536  10.542  1.00  0.00     0.010 A 
ATOM     54  C   UNL     1      20.213 -10.550   9.231  1.00  0.00     0.010 A 
ATOM     55  C   UNL     1      19.476  -9.310  11.621  1.00  0.00     0.020 A 
ATOM     56  C   UNL     1      19.738 -11.324  10.292  1.00  0.00     0.020 A 
ATOM     57  C   UNL     1      19.392 -10.700  11.490  1.00  0.00     0.054 A 
BRANCH  57  58
ATOM     58  S   UNL     1      18.813 -11.682  12.902  1.00  0.00     0.124 S 
ATOM     59  O   UNL     1      19.941 -11.583  13.822  1.00  0.00    -0.237 OA
ATOM     60  O   UNL     1      17.602 -10.970  13.304  1.00  0.00    -0.237 OA
ATOM     61  O   UNL     1      18.585 -13.007  12.328  1.00  0.00    -0.744 OA
ENDBRANCH  57  58
ENDBRANCH  29  52
BRANCH  41  62
ATOM     62  C   UNL     1      26.078  -5.342   8.302  1.00  0.00    -0.014 A 
ATOM     63  C   UNL     1      27.049  -6.305   8.621  1.00  0.00     0.010 A 
ATOM     64  C   UNL     1      26.244  -4.013   8.729  1.00  0.00     0.010 A 
ATOM     65  C   UNL     1      28.171  -5.942   9.364  1.00  0.00     0.020 A 
ATOM     66  C   UNL     1      27.381  -3.641   9.443  1.00  0.00     0.020 A 
ATOM     67  C   UNL     1      28.334  -4.610   9.761  1.00  0.00     0.054 A 
BRANCH  67  68
ATOM     68  S   UNL     1      29.847  -4.149  10.643  1.00  0.00     0.124 S 
ATOM     69  O   UNL     1      29.630  -4.756  11.953  1.00  0.00    -0.237 OA
ATOM     70  O   UNL     1      30.891  -4.764   9.828  1.00  0.00    -0.237 OA
ATOM     71  O   UNL     1      29.827  -2.688  10.622  1.00  0.00    -0.744 OA
ENDBRANCH  67  68
ENDBRANCH  41  62
ENDBRANCH  15  16
ENDBRANCH   8  10
ENDBRANCH   7   8
ENDBRANCH   6   7
ENDBRANCH   5   6
ENDBRANCH   4   5
ENDBRANCH   3   4
ENDBRANCH   2   3
ENDBRANCH   1   2
BRANCH   1  72
ATOM     72  C   UNL     1      11.899  -8.483   2.399  1.00  0.00     0.188 C 
BRANCH  72  73
ATOM     73  C   UNL     1      12.884  -8.075   3.532  1.00  0.00     0.188 C 
BRANCH  73  74
ATOM     74  O   UNL     1      13.864  -9.055   3.882  1.00  0.00    -0.376 OA
BRANCH  74  75
ATOM     75  C   UNL     1      13.816  -9.557   5.221  1.00  0.00     0.202 C 
BRANCH  75  76
ATOM     76  C   UNL     1      12.760 -10.655   5.454  1.00  0.00     0.261 C 
BRANCH  76  77
ATOM     77  O   UNL     1      11.466 -10.313   4.942  1.00  0.00    -0.463 OA
BRANCH  77  78
ATOM     78  C   UNL     1      10.887  -9.259   5.553  1.00  0.00     0.310 C 
ATOM     79  O   UNL     1      11.346  -8.730   6.563  1.00  0.00    -0.252 OA
BRANCH  78  80
ATOM     80  C   UNL     1       9.692  -8.700   4.774  1.00  0.00     0.115 C 
ATOM     81  C   UNL     1       8.783  -9.784   4.194  1.00  0.00     0.043 C 
ATOM     82  C   UNL     1       8.991  -7.746   5.721  1.00  0.00     0.097 C 
ATOM     83  C   UNL     1       8.156 -10.564   5.300  1.00  0.00    -0.030 C 
ATOM     84  C   UNL     1       8.290  -8.563   6.782  1.00  0.00     0.041 C 
ATOM     85  C   UNL     1       7.982 -10.005   6.500  1.00  0.00    -0.030 C 
BRANCH  82  86
ATOM     86  C   UNL     1       8.139  -6.664   5.071  1.00  0.00     0.224 C 
ATOM     87  O   UNL     1       7.844  -6.695   3.875  1.00  0.00    -0.275 OA
ATOM     88  N   UNL     1       7.734  -5.579   5.801  1.00  0.00    -0.344 N 
ATOM     89  H   UNL     1       7.203  -4.936   5.278  1.00  0.00     0.164 HD
BRANCH  88  90
ATOM     90  C   UNL     1       7.927  -5.168   7.209  1.00  0.00     0.172 C 
ATOM     91  C   UNL     1       9.377  -4.941   7.623  1.00  0.00     0.037 C 
ATOM     92  C   UNL     1       6.990  -5.916   8.199  1.00  0.00     0.249 C 
ATOM     93  C   UNL     1       9.584  -5.162   9.105  1.00  0.00     0.025 C 
ATOM     94  N   UNL     1       7.589  -6.718   9.176  1.00  0.00    -0.308 N 
ATOM     95  O   UNL     1       5.770  -5.802   8.057  1.00  0.00    -0.272 OA
ATOM     96  C   UNL     1       8.981  -6.474   9.587  1.00  0.00     0.126 C 
BRANCH  94  97
ATOM     97  C   UNL     1       6.937  -7.936   9.671  1.00  0.00     0.080 A 
ATOM     98  C   UNL     1       7.416  -8.577  10.827  1.00  0.00     0.029 A 
ATOM     99  C   UNL     1       5.939  -8.637   8.950  1.00  0.00     0.146 A 
ATOM    100  C   UNL     1       6.991  -9.865  11.192  1.00  0.00     0.002 A 
ATOM    101  C   UNL     1       5.561  -9.944   9.279  1.00  0.00     0.041 A 
ATOM    102  F   UNL     1       5.420  -8.175   7.803  1.00  0.00    -0.205 F 
ATOM    103  C   UNL     1       6.094 -10.566  10.396  1.00  0.00     0.003 A 
ENDBRANCH  94  97
ENDBRANCH  88  90
ENDBRANCH  82  86
ENDBRANCH  78  80
ENDBRANCH  77  78
ENDBRANCH  76  77
ENDBRANCH  75  76
ENDBRANCH  74  75
ENDBRANCH  73  74
ENDBRANCH  72  73
ENDBRANCH   1  72
TORSDOF 26
