REMARK SMILES COc1ccc(/C=C2/SC(=S)N([C@H](C)C(=O)OCCOCCOCCOCCOC(=O)c3ccc(-c4c5nc(c(-c6ccc(S(=O)(=O)[O-])cc6)c6ccc([nH]6)c(-c6ccc(S(=O)(=O)[O-])cc6)c6nc(c(-c7ccc(S(=O)(=O)[O-])cc7)c7ccc4[nH]7)C=C6)C=C5)cc3)C2=O)cc1OC
REMARK SMILES IDX 23 1 22 2 21 3 20 4 19 5 18 6 17 7 15 8 16 9 13 10 14 11
REMARK SMILES IDX 12 12 7 13 8 14 9 15 92 16 10 17 93 18 11 19 6 20 3 21 4 22
REMARK SMILES IDX 95 23 5 24 94 25 2 26 1 27 96 28 97 29 24 30 25 31 26 32
REMARK SMILES IDX 27 33 28 34 29 35 30 36 31 37 32 38 33 39 91 40 34 41 90 42
REMARK SMILES IDX 35 43 36 44 37 45 84 46 38 47 89 48 83 49 85 50 39 51 88 52
REMARK SMILES IDX 82 53 81 54 40 56 70 57 51 58 69 59 52 60 55 61 68 62 86 63
REMARK SMILES IDX 53 64 54 65 67 67 87 68 56 69 41 70 42 71 50 72 43 73 49 74
REMARK SMILES IDX 44 75 45 76 46 77 47 78 48 79 71 80 72 81 80 82 73 83 79 84
REMARK SMILES IDX 74 85 75 86 76 87 77 88 78 89 57 90 58 91 66 92 59 93 65 94
REMARK SMILES IDX 60 95 61 96 62 97 63 98 64 99
REMARK H PARENT 85 55 55 66
REMARK Flexibility Score: inf
ROOT
ATOM      1  O   UNL     1       2.063  -3.098   7.547  1.00  0.00    -0.377 OA
ENDROOT
BRANCH   1   2
ATOM      2  C   UNL     1       3.036  -3.819   8.272  1.00  0.00     0.188 C 
BRANCH   2   3
ATOM      3  C   UNL     1       3.669  -3.059   9.452  1.00  0.00     0.188 C 
BRANCH   3   4
ATOM      4  O   UNL     1       3.177  -1.803   9.899  1.00  0.00    -0.376 OA
BRANCH   4   5
ATOM      5  C   UNL     1       2.663  -0.829   9.003  1.00  0.00     0.202 C 
BRANCH   5   6
ATOM      6  C   UNL     1       3.480  -0.338   7.806  1.00  0.00     0.261 C 
BRANCH   6   7
ATOM      7  O   UNL     1       4.051  -1.350   6.971  1.00  0.00    -0.462 OA
BRANCH   7   8
ATOM      8  C   UNL     1       5.370  -1.618   7.147  1.00  0.00     0.329 C 
ATOM      9  O   UNL     1       6.070  -1.158   8.043  1.00  0.00    -0.250 OA
BRANCH   8  10
ATOM     10  C   UNL     1       5.925  -2.487   6.018  1.00  0.00     0.199 C 
ATOM     11  C   UNL     1       4.921  -3.465   5.367  1.00  0.00     0.044 C 
BRANCH  10  12
ATOM     12  N   UNL     1       6.757  -1.803   5.005  1.00  0.00    -0.279 N 
ATOM     13  C   UNL     1       8.066  -2.514   1.747  1.00  0.00     0.029 C 
ATOM     14  C   UNL     1       7.878  -1.951   2.948  1.00  0.00     0.081 C 
ATOM     15  S   UNL     1       7.799  -0.261   3.209  1.00  0.00    -0.054 SA
ATOM     16  C   UNL     1       7.503  -2.651   4.199  1.00  0.00     0.266 C 
ATOM     17  C   UNL     1       6.798  -0.466   4.655  1.00  0.00     0.149 C 
ATOM     18  O   UNL     1       7.795  -3.809   4.463  1.00  0.00    -0.268 OA
ATOM     19  S   UNL     1       6.120   0.875   5.370  1.00  0.00    -0.052 S 
BRANCH  13  20
ATOM     20  C   UNL     1       7.866  -3.942   1.491  1.00  0.00    -0.020 A 
ATOM     21  C   UNL     1       7.456  -6.690   1.139  1.00  0.00     0.160 A 
ATOM     22  C   UNL     1       8.754  -6.158   1.145  1.00  0.00     0.051 A 
ATOM     23  C   UNL     1       6.350  -5.853   1.319  1.00  0.00     0.161 A 
ATOM     24  C   UNL     1       8.960  -4.787   1.315  1.00  0.00     0.012 A 
ATOM     25  C   UNL     1       6.570  -4.479   1.481  1.00  0.00     0.058 A 
BRANCH  21  26
ATOM     26  O   UNL     1       7.327  -8.052   1.077  1.00  0.00    -0.493 OA
ATOM     27  C   UNL     1       7.510  -8.535  -0.254  1.00  0.00     0.278 C 
ENDBRANCH  21  26
BRANCH  23  28
ATOM     28  O   UNL     1       5.028  -6.193   1.411  1.00  0.00    -0.493 OA
ATOM     29  C   UNL     1       4.616  -7.446   0.892  1.00  0.00     0.278 C 
ENDBRANCH  23  28
ENDBRANCH  13  20
ENDBRANCH  10  12
ENDBRANCH   8  10
ENDBRANCH   7   8
ENDBRANCH   6   7
ENDBRANCH   5   6
ENDBRANCH   4   5
ENDBRANCH   3   4
ENDBRANCH   2   3
ENDBRANCH   1   2
BRANCH   1  30
ATOM     30  C   UNL     1       0.703  -3.357   7.883  1.00  0.00     0.188 C 
BRANCH  30  31
ATOM     31  C   UNL     1       0.365  -3.538   9.377  1.00  0.00     0.188 C 
BRANCH  31  32
ATOM     32  O   UNL     1       1.154  -4.531  10.023  1.00  0.00    -0.376 OA
BRANCH  32  33
ATOM     33  C   UNL     1       0.608  -5.831  10.184  1.00  0.00     0.202 C 
BRANCH  33  34
ATOM     34  C   UNL     1       0.349  -6.656   8.912  1.00  0.00     0.261 C 
BRANCH  34  35
ATOM     35  O   UNL     1      -0.560  -6.096   7.953  1.00  0.00    -0.460 OA
BRANCH  35  36
ATOM     36  C   UNL     1      -1.808  -5.777   8.367  1.00  0.00     0.338 C 
ATOM     37  O   UNL     1      -2.288  -5.975   9.462  1.00  0.00    -0.246 OA
BRANCH  36  38
ATOM     38  C   UNL     1      -2.422  -4.942   7.308  1.00  0.00     0.060 A 
ATOM     39  C   UNL     1      -2.841  -3.643   7.625  1.00  0.00     0.016 A 
ATOM     40  C   UNL     1      -2.568  -5.434   6.009  1.00  0.00     0.016 A 
ATOM     41  C   UNL     1      -3.434  -2.841   6.650  1.00  0.00     0.010 A 
ATOM     42  C   UNL     1      -3.187  -4.639   5.040  1.00  0.00     0.010 A 
ATOM     43  C   UNL     1      -3.650  -3.351   5.364  1.00  0.00    -0.014 A 
BRANCH  43  44
ATOM     44  C   UNL     1      -4.524  -2.623   4.413  1.00  0.00     0.031 A 
ATOM     45  C   UNL     1      -5.965  -3.045   4.306  1.00  0.00     0.074 A 
ATOM     46  C   UNL     1      -4.056  -1.613   3.659  1.00  0.00     0.049 A 
ATOM     47  N   UNL     1      -6.896  -2.617   3.496  1.00  0.00    -0.248 NA
ATOM     48  C   UNL     1      -6.411  -4.094   5.239  1.00  0.00     0.031 C 
ATOM     49  C   UNL     1      -2.696  -1.079   3.709  1.00  0.00     0.029 A 
ATOM     50  N   UNL     1      -4.678  -0.866   2.689  1.00  0.00    -0.354 N 
ATOM     51  C   UNL     1      -8.033  -3.356   3.806  1.00  0.00     0.074 A 
ATOM     52  C   UNL     1      -7.668  -4.272   4.864  1.00  0.00     0.031 C 
ATOM     53  C   UNL     1      -2.581  -0.100   2.793  1.00  0.00     0.029 A 
ATOM     54  C   UNL     1      -3.843   0.031   2.066  1.00  0.00     0.049 A 
ATOM     55  H   UNL     1      -5.630  -0.965   2.461  1.00  0.00     0.167 HD
ATOM     56  C   UNL     1      -9.268  -3.279   3.257  1.00  0.00     0.031 A 
ATOM     57  C   UNL     1      -4.063   0.840   1.009  1.00  0.00     0.031 A 
ATOM     58  C   UNL     1      -9.618  -2.378   2.192  1.00  0.00     0.049 A 
ATOM     59  C   UNL     1      -5.422   0.849   0.356  1.00  0.00     0.074 A 
ATOM     60  C   UNL     1     -10.848  -2.207   1.583  1.00  0.00     0.029 A 
ATOM     61  N   UNL     1      -8.736  -1.510   1.567  1.00  0.00    -0.354 N 
ATOM     62  N   UNL     1      -6.498   0.171   0.681  1.00  0.00    -0.248 NA
ATOM     63  C   UNL     1      -5.598   1.733  -0.805  1.00  0.00     0.031 C 
ATOM     64  C   UNL     1     -10.693  -1.289   0.540  1.00  0.00     0.029 A 
ATOM     65  C   UNL     1      -9.385  -0.830   0.549  1.00  0.00     0.049 A 
ATOM     66  H   UNL     1      -7.790  -1.393   1.810  1.00  0.00     0.167 HD
ATOM     67  C   UNL     1      -7.484   0.565  -0.219  1.00  0.00     0.074 A 
ATOM     68  C   UNL     1      -6.881   1.552  -1.091  1.00  0.00     0.031 C 
ATOM     69  C   UNL     1      -8.771   0.148  -0.315  1.00  0.00     0.031 A 
BRANCH  56  70
ATOM     70  C   UNL     1     -10.317  -4.233   3.765  1.00  0.00    -0.014 A 
ATOM     71  C   UNL     1     -10.860  -4.112   5.057  1.00  0.00     0.010 A 
ATOM     72  C   UNL     1     -10.791  -5.252   2.918  1.00  0.00     0.010 A 
ATOM     73  C   UNL     1     -11.827  -5.015   5.505  1.00  0.00     0.020 A 
ATOM     74  C   UNL     1     -11.780  -6.138   3.351  1.00  0.00     0.020 A 
ATOM     75  C   UNL     1     -12.280  -6.024   4.649  1.00  0.00     0.054 A 
BRANCH  75  76
ATOM     76  S   UNL     1     -13.551  -7.169   5.251  1.00  0.00     0.124 S 
ATOM     77  O   UNL     1     -12.806  -7.959   6.228  1.00  0.00    -0.237 OA
ATOM     78  O   UNL     1     -14.556  -6.266   5.808  1.00  0.00    -0.237 OA
ATOM     79  O   UNL     1     -13.964  -7.893   4.051  1.00  0.00    -0.744 OA
ENDBRANCH  75  76
ENDBRANCH  56  70
BRANCH  57  80
ATOM     80  C   UNL     1      -2.955   1.682   0.476  1.00  0.00    -0.014 A 
ATOM     81  C   UNL     1      -2.997   3.083   0.584  1.00  0.00     0.010 A 
ATOM     82  C   UNL     1      -1.843   1.079  -0.141  1.00  0.00     0.010 A 
ATOM     83  C   UNL     1      -1.953   3.864   0.076  1.00  0.00     0.020 A 
ATOM     84  C   UNL     1      -0.784   1.853  -0.622  1.00  0.00     0.020 A 
ATOM     85  C   UNL     1      -0.850   3.243  -0.517  1.00  0.00     0.054 A 
BRANCH  85  86
ATOM     86  S   UNL     1       0.521   4.274  -1.111  1.00  0.00     0.124 S 
ATOM     87  O   UNL     1      -0.066   4.916  -2.283  1.00  0.00    -0.237 OA
ATOM     88  O   UNL     1       0.771   5.149   0.032  1.00  0.00    -0.237 OA
ATOM     89  O   UNL     1       1.580   3.307  -1.391  1.00  0.00    -0.744 OA
ENDBRANCH  85  86
ENDBRANCH  57  80
BRANCH  69  90
ATOM     90  C   UNL     1      -9.634   0.773  -1.381  1.00  0.00    -0.014 A 
ATOM     91  C   UNL     1      -9.447   0.473  -2.742  1.00  0.00     0.010 A 
ATOM     92  C   UNL     1     -10.702   1.611  -1.006  1.00  0.00     0.010 A 
ATOM     93  C   UNL     1     -10.297   1.018  -3.709  1.00  0.00     0.020 A 
ATOM     94  C   UNL     1     -11.572   2.132  -1.967  1.00  0.00     0.020 A 
ATOM     95  C   UNL     1     -11.358   1.840  -3.315  1.00  0.00     0.054 A 
BRANCH  95  96
ATOM     96  S   UNL     1     -12.481   2.483  -4.586  1.00  0.00     0.124 S 
ATOM     97  O   UNL     1     -11.640   3.462  -5.269  1.00  0.00    -0.237 OA
ATOM     98  O   UNL     1     -12.808   1.286  -5.357  1.00  0.00    -0.237 OA
ATOM     99  O   UNL     1     -13.591   3.044  -3.817  1.00  0.00    -0.744 OA
ENDBRANCH  95  96
ENDBRANCH  69  90
ENDBRANCH  43  44
ENDBRANCH  36  38
ENDBRANCH  35  36
ENDBRANCH  34  35
ENDBRANCH  33  34
ENDBRANCH  32  33
ENDBRANCH  31  32
ENDBRANCH  30  31
ENDBRANCH   1  30
TORSDOF 27
