REMARK SMILES CN(CC(=O)N[C@H]1C=C[C@H](C(=O)OCCOCCOCCOCCOC(=O)c2ccc(-c3c4nc(c(-c5ccc(S(=O)(=O)[O-])cc5)c5ccc([nH]5)c(-c5ccc(S(=O)(=O)[O-])cc5)c5nc(c(-c6ccc(S(=O)(=O)[O-])cc6)c6ccc3[nH]6)C=C5)C=C4)cc2)C1)C(=O)c1cccs1
REMARK SMILES IDX 18 1 17 2 16 3 15 4 14 5 13 6 11 7 12 8 10 9 7 10 8 11 88 12
REMARK SMILES IDX 9 13 6 14 4 15 5 16 3 18 2 19 1 20 89 21 90 22 91 23 92 24
REMARK SMILES IDX 95 25 93 26 94 27 19 28 20 29 21 30 22 31 23 32 24 33 25 34
REMARK SMILES IDX 26 35 27 36 28 37 29 38 87 39 30 40 86 41 31 42 32 43 33 44
REMARK SMILES IDX 80 45 34 46 85 47 79 48 81 49 35 50 84 51 78 52 77 53 36 55
REMARK SMILES IDX 66 56 47 57 65 58 48 59 51 60 64 61 82 62 49 63 50 64 63 66
REMARK SMILES IDX 83 67 52 68 37 69 38 70 46 71 39 72 45 73 40 74 41 75 42 76
REMARK SMILES IDX 43 77 44 78 67 79 68 80 76 81 69 82 75 83 70 84 71 85 72 86
REMARK SMILES IDX 73 87 74 88 53 89 54 90 62 91 55 92 61 93 56 94 57 95 58 96
REMARK SMILES IDX 59 97 60 98
REMARK H PARENT 6 17 81 54 51 65
REMARK Flexibility Score: inf
ROOT
ATOM      1  C   UNL     1      -3.966   4.842   1.754  1.00  0.00     0.188 C 
ENDROOT
BRANCH   1   2
ATOM      2  C   UNL     1      -3.903   3.789   2.880  1.00  0.00     0.188 C 
BRANCH   2   3
ATOM      3  O   UNL     1      -3.082   3.973   4.027  1.00  0.00    -0.376 OA
BRANCH   3   4
ATOM      4  C   UNL     1      -1.722   4.387   3.969  1.00  0.00     0.202 C 
BRANCH   4   5
ATOM      5  C   UNL     1      -0.725   3.980   2.868  1.00  0.00     0.261 C 
BRANCH   5   6
ATOM      6  O   UNL     1      -1.309   3.606   1.626  1.00  0.00    -0.463 OA
BRANCH   6   7
ATOM      7  C   UNL     1      -1.498   2.280   1.447  1.00  0.00     0.312 C 
ATOM      8  O   UNL     1      -1.030   1.398   2.156  1.00  0.00    -0.252 OA
BRANCH   7   9
ATOM      9  C   UNL     1      -2.484   2.048   0.301  1.00  0.00     0.124 C 
ATOM     10  C   UNL     1      -2.015  -0.144  -0.354  1.00  0.00     0.106 C 
ATOM     11  C   UNL     1      -1.649   0.798  -1.455  1.00  0.00    -0.006 C 
ATOM     12  C   UNL     1      -3.076   0.642   0.388  1.00  0.00     0.048 C 
ATOM     13  C   UNL     1      -1.847   2.055  -1.047  1.00  0.00    -0.014 C 
BRANCH  10  14
ATOM     14  N   UNL     1      -2.432  -1.416  -0.826  1.00  0.00    -0.348 N 
ATOM     15  C   UNL     1      -1.663  -2.546  -0.772  1.00  0.00     0.240 C 
ATOM     16  O   UNL     1      -2.235  -3.634  -0.881  1.00  0.00    -0.273 OA
ATOM     17  H   UNL     1      -3.333  -1.490  -1.218  1.00  0.00     0.164 HD
BRANCH  15  18
ATOM     18  C   UNL     1      -0.150  -2.463  -0.423  1.00  0.00     0.219 C 
BRANCH  18  19
ATOM     19  N   UNL     1       0.627  -1.330  -0.961  1.00  0.00    -0.332 N 
ATOM     20  C   UNL     1       1.288  -0.419  -0.029  1.00  0.00     0.147 C 
BRANCH  19  21
ATOM     21  C   UNL     1       0.982  -1.197  -2.312  1.00  0.00     0.264 C 
ATOM     22  O   UNL     1       1.698  -0.272  -2.689  1.00  0.00    -0.268 OA
BRANCH  21  23
ATOM     23  C   UNL     1       0.472  -2.187  -3.238  1.00  0.00     0.092 A 
ATOM     24  C   UNL     1      -0.808  -2.368  -3.723  1.00  0.00     0.025 A 
ATOM     25  S   UNL     1       1.571  -3.308  -3.918  1.00  0.00    -0.139 S 
ATOM     26  C   UNL     1      -0.907  -3.516  -4.559  1.00  0.00     0.012 A 
ATOM     27  C   UNL     1       0.317  -4.112  -4.758  1.00  0.00     0.065 A 
ENDBRANCH  21  23
ENDBRANCH  19  21
ENDBRANCH  18  19
ENDBRANCH  15  18
ENDBRANCH  10  14
ENDBRANCH   7   9
ENDBRANCH   6   7
ENDBRANCH   5   6
ENDBRANCH   4   5
ENDBRANCH   3   4
ENDBRANCH   2   3
ENDBRANCH   1   2
BRANCH   1  28
ATOM     28  O   UNL     1      -2.875   5.732   1.777  1.00  0.00    -0.377 OA
BRANCH  28  29
ATOM     29  C   UNL     1      -3.136   7.000   2.356  1.00  0.00     0.188 C 
BRANCH  29  30
ATOM     30  C   UNL     1      -4.024   7.060   3.623  1.00  0.00     0.188 C 
BRANCH  30  31
ATOM     31  O   UNL     1      -5.215   6.283   3.564  1.00  0.00    -0.376 OA
BRANCH  31  32
ATOM     32  C   UNL     1      -6.449   6.920   3.276  1.00  0.00     0.202 C 
BRANCH  32  33
ATOM     33  C   UNL     1      -6.649   7.525   1.875  1.00  0.00     0.261 C 
BRANCH  33  34
ATOM     34  O   UNL     1      -5.643   8.441   1.428  1.00  0.00    -0.460 OA
BRANCH  34  35
ATOM     35  C   UNL     1      -5.463   9.570   2.147  1.00  0.00     0.338 C 
ATOM     36  O   UNL     1      -6.088   9.915   3.136  1.00  0.00    -0.246 OA
BRANCH  35  37
ATOM     37  C   UNL     1      -4.231  10.216   1.650  1.00  0.00     0.060 A 
ATOM     38  C   UNL     1      -3.156  10.412   2.530  1.00  0.00     0.016 A 
ATOM     39  C   UNL     1      -4.124  10.584   0.308  1.00  0.00     0.016 A 
ATOM     40  C   UNL     1      -1.979  11.006   2.076  1.00  0.00     0.010 A 
ATOM     41  C   UNL     1      -2.958  11.207  -0.138  1.00  0.00     0.010 A 
ATOM     42  C   UNL     1      -1.896  11.451   0.751  1.00  0.00    -0.014 A 
BRANCH  42  43
ATOM     43  C   UNL     1      -0.821  12.382   0.340  1.00  0.00     0.031 A 
ATOM     44  C   UNL     1      -1.138  13.852   0.344  1.00  0.00     0.074 A 
ATOM     45  C   UNL     1       0.384  11.945  -0.065  1.00  0.00     0.049 A 
ATOM     46  N   UNL     1      -0.435  14.854  -0.113  1.00  0.00    -0.248 NA
ATOM     47  C   UNL     1      -2.433  14.238   0.931  1.00  0.00     0.031 C 
ATOM     48  C   UNL     1       0.827  10.553  -0.058  1.00  0.00     0.029 A 
ATOM     49  N   UNL     1       1.447  12.638  -0.588  1.00  0.00    -0.354 N 
ATOM     50  C   UNL     1      -1.215  15.984   0.103  1.00  0.00     0.074 A 
ATOM     51  C   UNL     1      -2.447  15.544   0.717  1.00  0.00     0.031 C 
ATOM     52  C   UNL     1       2.065  10.490  -0.581  1.00  0.00     0.029 A 
ATOM     53  C   UNL     1       2.478  11.829  -1.003  1.00  0.00     0.049 A 
ATOM     54  H   UNL     1       1.469  13.620  -0.658  1.00  0.00     0.167 HD
ATOM     55  C   UNL     1      -0.931  17.274  -0.191  1.00  0.00     0.031 A 
ATOM     56  C   UNL     1       3.604  12.130  -1.682  1.00  0.00     0.031 A 
ATOM     57  C   UNL     1       0.290  17.698  -0.821  1.00  0.00     0.049 A 
ATOM     58  C   UNL     1       3.869  13.563  -2.073  1.00  0.00     0.074 A 
ATOM     59  C   UNL     1       0.687  18.982  -1.145  1.00  0.00     0.029 A 
ATOM     60  N   UNL     1       1.303  16.846  -1.236  1.00  0.00    -0.354 N 
ATOM     61  N   UNL     1       3.138  14.629  -1.845  1.00  0.00    -0.248 NA
ATOM     62  C   UNL     1       5.112  13.837  -2.810  1.00  0.00     0.031 C 
ATOM     63  C   UNL     1       1.907  18.900  -1.821  1.00  0.00     0.029 A 
ATOM     64  C   UNL     1       2.310  17.574  -1.842  1.00  0.00     0.049 A 
ATOM     65  H   UNL     1       1.304  15.869  -1.116  1.00  0.00     0.167 HD
ATOM     66  C   UNL     1       3.849  15.701  -2.375  1.00  0.00     0.074 A 
ATOM     67  C   UNL     1       5.068  15.157  -2.938  1.00  0.00     0.031 C 
ATOM     68  C   UNL     1       3.526  17.018  -2.385  1.00  0.00     0.031 A 
BRANCH  55  69
ATOM     69  C   UNL     1      -1.987  18.304   0.108  1.00  0.00    -0.014 A 
ATOM     70  C   UNL     1      -2.338  18.639   1.429  1.00  0.00     0.010 A 
ATOM     71  C   UNL     1      -2.630  18.961  -0.957  1.00  0.00     0.010 A 
ATOM     72  C   UNL     1      -3.346  19.574   1.676  1.00  0.00     0.020 A 
ATOM     73  C   UNL     1      -3.614  19.922  -0.714  1.00  0.00     0.020 A 
ATOM     74  C   UNL     1      -3.980  20.207   0.602  1.00  0.00     0.054 A 
BRANCH  74  75
ATOM     75  S   UNL     1      -5.279  21.422   0.954  1.00  0.00     0.124 S 
ATOM     76  O   UNL     1      -6.363  20.570   1.438  1.00  0.00    -0.237 OA
ATOM     77  O   UNL     1      -4.655  22.275   1.960  1.00  0.00    -0.237 OA
ATOM     78  O   UNL     1      -5.519  22.058  -0.339  1.00  0.00    -0.744 OA
ENDBRANCH  74  75
ENDBRANCH  55  69
BRANCH  56  79
ATOM     79  C   UNL     1       4.550  11.044  -2.061  1.00  0.00    -0.014 A 
ATOM     80  C   UNL     1       5.817  10.954  -1.459  1.00  0.00     0.010 A 
ATOM     81  C   UNL     1       4.176  10.076  -3.012  1.00  0.00     0.010 A 
ATOM     82  C   UNL     1       6.692   9.918  -1.802  1.00  0.00     0.020 A 
ATOM     83  C   UNL     1       5.036   9.023  -3.335  1.00  0.00     0.020 A 
ATOM     84  C   UNL     1       6.292   8.954  -2.731  1.00  0.00     0.054 A 
BRANCH  84  85
ATOM     85  S   UNL     1       7.418   7.580  -3.101  1.00  0.00     0.124 S 
ATOM     86  O   UNL     1       8.483   8.249  -3.840  1.00  0.00    -0.237 OA
ATOM     87  O   UNL     1       7.776   7.104  -1.767  1.00  0.00    -0.237 OA
ATOM     88  O   UNL     1       6.593   6.662  -3.883  1.00  0.00    -0.744 OA
ENDBRANCH  84  85
ENDBRANCH  56  79
BRANCH  68  89
ATOM     89  C   UNL     1       4.519  17.993  -2.963  1.00  0.00    -0.014 A 
ATOM     90  C   UNL     1       4.723  18.104  -4.348  1.00  0.00     0.010 A 
ATOM     91  C   UNL     1       5.163  18.902  -2.100  1.00  0.00     0.010 A 
ATOM     92  C   UNL     1       5.553  19.107  -4.860  1.00  0.00     0.020 A 
ATOM     93  C   UNL     1       5.970  19.922  -2.609  1.00  0.00     0.020 A 
ATOM     94  C   UNL     1       6.162  20.016  -3.988  1.00  0.00     0.054 A 
BRANCH  94  95
ATOM     95  S   UNL     1       7.152  21.367  -4.685  1.00  0.00     0.124 S 
ATOM     96  O   UNL     1       8.331  20.659  -5.177  1.00  0.00    -0.237 OA
ATOM     97  O   UNL     1       6.270  21.911  -5.715  1.00  0.00    -0.237 OA
ATOM     98  O   UNL     1       7.388  22.250  -3.545  1.00  0.00    -0.744 OA
ENDBRANCH  94  95
ENDBRANCH  68  89
ENDBRANCH  42  43
ENDBRANCH  35  37
ENDBRANCH  34  35
ENDBRANCH  33  34
ENDBRANCH  32  33
ENDBRANCH  31  32
ENDBRANCH  30  31
ENDBRANCH  29  30
ENDBRANCH  28  29
ENDBRANCH   1  28
TORSDOF 28
