REMARK SMILES CCOc1ccc(-c2nn(-c3ccccc3)cc2/C=C2/SC(=S)N(CC(=O)OCCOCCOCCOCCOC(=O)c3ccc(-c4c5nc(c(-c6ccc(S(=O)(=O)[O-])cc6)c6ccc([nH]6)c(-c6ccc(S(=O)(=O)[O-])cc6)c6nc(c(-c7ccc(S(=O)(=O)[O-])cc7)c7ccc4[nH]7)C=C6)C=C5)cc3)C2=O)cc1F
REMARK SMILES IDX 33 1 32 2 31 3 30 4 29 5 28 6 26 7 27 8 25 9 24 10 19 11
REMARK SMILES IDX 20 12 21 13 103 14 22 15 104 16 23 17 18 18 8 19 9 20 10 21
REMARK SMILES IDX 17 22 7 23 4 24 5 25 106 26 6 27 105 28 107 29 3 30 2 31
REMARK SMILES IDX 1 32 11 33 12 34 16 35 13 36 15 37 14 38 34 39 35 40 36 41
REMARK SMILES IDX 37 42 38 43 39 44 40 45 41 46 42 47 43 48 44 49 102 50 45 51
REMARK SMILES IDX 101 52 46 53 47 54 48 55 95 56 49 57 100 58 94 59 96 60
REMARK SMILES IDX 50 61 99 62 93 63 92 64 51 66 81 67 62 68 80 69 63 70 66 71
REMARK SMILES IDX 79 72 97 73 64 74 65 75 78 77 98 78 67 79 52 80 53 81 61 82
REMARK SMILES IDX 54 83 60 84 55 85 56 86 57 87 58 88 59 89 82 90 83 91 91 92
REMARK SMILES IDX 84 93 90 94 85 95 86 96 87 97 88 98 89 99 68 100 69 101
REMARK SMILES IDX 77 102 70 103 76 104 71 105 72 106 73 107 74 108 75 109
REMARK H PARENT 96 65 66 76
REMARK Flexibility Score: inf
ROOT
ATOM      1  C   UNL     1      10.243   5.772  -3.247  1.00  0.00     0.188 C 
ENDROOT
BRANCH   1   2
ATOM      2  C   UNL     1      10.262   5.585  -4.779  1.00  0.00     0.188 C 
BRANCH   2   3
ATOM      3  O   UNL     1      11.379   5.975  -5.566  1.00  0.00    -0.376 OA
BRANCH   3   4
ATOM      4  C   UNL     1      12.214   7.014  -5.105  1.00  0.00     0.202 C 
BRANCH   4   5
ATOM      5  C   UNL     1      11.585   8.396  -4.860  1.00  0.00     0.261 C 
BRANCH   5   6
ATOM      6  O   UNL     1      10.247   8.344  -4.315  1.00  0.00    -0.462 OA
BRANCH   6   7
ATOM      7  C   UNL     1       9.253   8.883  -5.058  1.00  0.00     0.326 C 
ATOM      8  O   UNL     1       9.442   9.551  -6.070  1.00  0.00    -0.250 OA
BRANCH   7   9
ATOM      9  C   UNL     1       7.838   8.645  -4.506  1.00  0.00     0.250 C 
BRANCH   9  10
ATOM     10  N   UNL     1       7.546   7.719  -3.395  1.00  0.00    -0.282 N 
ATOM     11  C   UNL     1       6.467   4.415  -2.167  1.00  0.00     0.033 C 
ATOM     12  C   UNL     1       6.724   5.713  -2.404  1.00  0.00     0.081 C 
ATOM     13  S   UNL     1       6.853   6.834  -1.081  1.00  0.00    -0.054 SA
ATOM     14  C   UNL     1       7.043   6.445  -3.669  1.00  0.00     0.266 C 
ATOM     15  C   UNL     1       7.593   8.085  -2.066  1.00  0.00     0.148 C 
ATOM     16  O   UNL     1       6.885   5.977  -4.786  1.00  0.00    -0.268 OA
ATOM     17  S   UNL     1       8.216   9.484  -1.409  1.00  0.00    -0.052 S 
BRANCH  11  18
ATOM     18  C   UNL     1       6.519   3.229  -2.973  1.00  0.00     0.022 A 
ATOM     19  C   UNL     1       5.760   2.031  -2.790  1.00  0.00     0.100 A 
ATOM     20  N   UNL     1       6.403   0.984  -3.325  1.00  0.00    -0.167 NA
ATOM     21  N   UNL     1       7.396   1.516  -4.057  1.00  0.00    -0.240 N 
ATOM     22  C   UNL     1       7.420   2.898  -3.960  1.00  0.00     0.123 A 
BRANCH  19  23
ATOM     23  C   UNL     1       4.431   1.848  -2.204  1.00  0.00     0.006 A 
ATOM     24  C   UNL     1       1.743   1.413  -1.558  1.00  0.00     0.154 A 
ATOM     25  C   UNL     1       2.167   2.692  -1.899  1.00  0.00     0.050 A 
ATOM     26  C   UNL     1       2.652   0.357  -1.537  1.00  0.00     0.165 A 
ATOM     27  C   UNL     1       3.507   2.908  -2.221  1.00  0.00     0.014 A 
ATOM     28  C   UNL     1       3.994   0.570  -1.831  1.00  0.00     0.053 A 
ATOM     29  F   UNL     1       2.236  -0.893  -1.288  1.00  0.00    -0.203 F 
BRANCH  24  30
ATOM     30  O   UNL     1       0.405   1.197  -1.379  1.00  0.00    -0.491 OA
BRANCH  30  31
ATOM     31  C   UNL     1       0.045   1.262   0.006  1.00  0.00     0.226 C 
ATOM     32  C   UNL     1       0.150  -0.103   0.663  1.00  0.00     0.049 C 
ENDBRANCH  30  31
ENDBRANCH  24  30
ENDBRANCH  19  23
BRANCH  21  33
ATOM     33  C   UNL     1       8.370   0.690  -4.672  1.00  0.00     0.065 A 
ATOM     34  C   UNL     1       8.948   1.063  -5.888  1.00  0.00     0.028 A 
ATOM     35  C   UNL     1       8.853  -0.430  -3.974  1.00  0.00     0.028 A 
ATOM     36  C   UNL     1      10.040   0.343  -6.382  1.00  0.00     0.002 A 
ATOM     37  C   UNL     1       9.989  -1.098  -4.442  1.00  0.00     0.002 A 
ATOM     38  C   UNL     1      10.581  -0.710  -5.643  1.00  0.00     0.000 A 
ENDBRANCH  21  33
ENDBRANCH  11  18
ENDBRANCH   9  10
ENDBRANCH   7   9
ENDBRANCH   6   7
ENDBRANCH   5   6
ENDBRANCH   4   5
ENDBRANCH   3   4
ENDBRANCH   2   3
ENDBRANCH   1   2
BRANCH   1  39
ATOM     39  O   UNL     1      10.891   4.837  -2.429  1.00  0.00    -0.377 OA
BRANCH  39  40
ATOM     40  C   UNL     1      12.264   5.056  -2.169  1.00  0.00     0.188 C 
BRANCH  40  41
ATOM     41  C   UNL     1      13.133   4.011  -2.873  1.00  0.00     0.188 C 
BRANCH  41  42
ATOM     42  O   UNL     1      12.501   3.447  -4.009  1.00  0.00    -0.376 OA
BRANCH  42  43
ATOM     43  C   UNL     1      11.588   2.358  -3.855  1.00  0.00     0.202 C 
BRANCH  43  44
ATOM     44  C   UNL     1      10.700   2.144  -2.631  1.00  0.00     0.261 C 
BRANCH  44  45
ATOM     45  O   UNL     1      11.245   2.540  -1.399  1.00  0.00    -0.460 OA
BRANCH  45  46
ATOM     46  C   UNL     1      12.171   1.733  -0.875  1.00  0.00     0.338 C 
ATOM     47  O   UNL     1      12.876   0.935  -1.454  1.00  0.00    -0.246 OA
BRANCH  46  48
ATOM     48  C   UNL     1      11.961   1.851   0.569  1.00  0.00     0.060 A 
ATOM     49  C   UNL     1      12.610   0.886   1.323  1.00  0.00     0.016 A 
ATOM     50  C   UNL     1      10.880   2.618   1.066  1.00  0.00     0.016 A 
ATOM     51  C   UNL     1      12.021   0.519   2.501  1.00  0.00     0.010 A 
ATOM     52  C   UNL     1      10.275   2.228   2.230  1.00  0.00     0.010 A 
ATOM     53  C   UNL     1      10.824   1.142   2.891  1.00  0.00    -0.014 A 
BRANCH  53  54
ATOM     54  C   UNL     1      10.297   0.729   4.158  1.00  0.00     0.031 A 
ATOM     55  C   UNL     1      11.072   1.291   5.273  1.00  0.00     0.074 A 
ATOM     56  C   UNL     1       9.244  -0.074   4.322  1.00  0.00     0.049 A 
ATOM     57  N   UNL     1      12.017   0.711   5.931  1.00  0.00    -0.248 NA
ATOM     58  C   UNL     1      10.950   2.736   5.497  1.00  0.00     0.031 C 
ATOM     59  C   UNL     1       8.187  -0.437   3.384  1.00  0.00     0.029 A 
ATOM     60  N   UNL     1       8.885  -0.679   5.475  1.00  0.00    -0.354 N 
ATOM     61  C   UNL     1      12.501   1.680   6.793  1.00  0.00     0.074 A 
ATOM     62  C   UNL     1      11.969   2.938   6.329  1.00  0.00     0.031 C 
ATOM     63  C   UNL     1       7.188  -1.031   4.080  1.00  0.00     0.029 A 
ATOM     64  C   UNL     1       7.613  -1.206   5.463  1.00  0.00     0.049 A 
ATOM     65  H   UNL     1       9.480  -0.738   6.256  1.00  0.00     0.167 HD
ATOM     66  C   UNL     1      13.104   1.355   7.965  1.00  0.00     0.031 A 
ATOM     67  C   UNL     1       6.954  -1.638   6.562  1.00  0.00     0.031 A 
ATOM     68  C   UNL     1      13.473  -0.038   8.012  1.00  0.00     0.049 A 
ATOM     69  C   UNL     1       7.972  -1.927   7.613  1.00  0.00     0.074 A 
ATOM     70  C   UNL     1      14.344  -0.834   7.295  1.00  0.00     0.029 A 
ATOM     71  N   UNL     1      12.598  -0.896   8.642  1.00  0.00    -0.354 N 
ATOM     72  N   UNL     1       8.862  -2.877   7.512  1.00  0.00    -0.248 NA
ATOM     73  C   UNL     1       8.292  -0.898   8.595  1.00  0.00     0.031 C 
ATOM     74  C   UNL     1      13.701  -2.103   7.193  1.00  0.00     0.029 A 
ATOM     75  C   UNL     1      12.479  -2.026   7.869  1.00  0.00     0.049 A 
ATOM     76  H   UNL     1      12.139  -0.728   9.496  1.00  0.00     0.167 HD
ATOM     77  C   UNL     1      10.014  -2.377   8.108  1.00  0.00     0.074 A 
ATOM     78  C   UNL     1       9.566  -1.209   8.859  1.00  0.00     0.031 C 
ATOM     79  C   UNL     1      11.257  -2.798   7.721  1.00  0.00     0.031 A 
BRANCH  66  80
ATOM     80  C   UNL     1      12.979   2.213   9.196  1.00  0.00    -0.014 A 
ATOM     81  C   UNL     1      13.652   1.826  10.369  1.00  0.00     0.010 A 
ATOM     82  C   UNL     1      12.018   3.240   9.319  1.00  0.00     0.010 A 
ATOM     83  C   UNL     1      13.313   2.382  11.610  1.00  0.00     0.020 A 
ATOM     84  C   UNL     1      11.709   3.835  10.538  1.00  0.00     0.020 A 
ATOM     85  C   UNL     1      12.326   3.367  11.685  1.00  0.00     0.054 A 
BRANCH  85  86
ATOM     86  S   UNL     1      11.772   3.962  13.297  1.00  0.00     0.124 S 
ATOM     87  O   UNL     1      11.105   2.781  13.835  1.00  0.00    -0.237 OA
ATOM     88  O   UNL     1      13.029   4.333  13.940  1.00  0.00    -0.237 OA
ATOM     89  O   UNL     1      10.893   5.082  12.965  1.00  0.00    -0.744 OA
ENDBRANCH  85  86
ENDBRANCH  66  80
BRANCH  67  90
ATOM     90  C   UNL     1       5.515  -1.434   6.834  1.00  0.00    -0.014 A 
ATOM     91  C   UNL     1       4.871  -2.117   7.877  1.00  0.00     0.010 A 
ATOM     92  C   UNL     1       4.822  -0.372   6.212  1.00  0.00     0.010 A 
ATOM     93  C   UNL     1       3.596  -1.722   8.312  1.00  0.00     0.020 A 
ATOM     94  C   UNL     1       3.549   0.018   6.628  1.00  0.00     0.020 A 
ATOM     95  C   UNL     1       2.949  -0.646   7.693  1.00  0.00     0.054 A 
BRANCH  95  96
ATOM     96  S   UNL     1       1.373  -0.044   8.360  1.00  0.00     0.124 S 
ATOM     97  O   UNL     1       0.454  -1.119   8.002  1.00  0.00    -0.237 OA
ATOM     98  O   UNL     1       1.665   0.093   9.784  1.00  0.00    -0.237 OA
ATOM     99  O   UNL     1       1.159   1.217   7.651  1.00  0.00    -0.744 OA
ENDBRANCH  95  96
ENDBRANCH  67  90
BRANCH  79 100
ATOM    100  C   UNL     1      11.341  -4.023   6.835  1.00  0.00    -0.014 A 
ATOM    101  C   UNL     1      10.788  -4.069   5.539  1.00  0.00     0.010 A 
ATOM    102  C   UNL     1      12.133  -5.105   7.261  1.00  0.00     0.010 A 
ATOM    103  C   UNL     1      10.999  -5.176   4.704  1.00  0.00     0.020 A 
ATOM    104  C   UNL     1      12.361  -6.205   6.426  1.00  0.00     0.020 A 
ATOM    105  C   UNL     1      11.787  -6.238   5.154  1.00  0.00     0.054 A 
BRANCH 105 106
ATOM    106  S   UNL     1      12.112  -7.635   4.040  1.00  0.00     0.124 S 
ATOM    107  O   UNL     1      10.821  -8.317   4.002  1.00  0.00    -0.237 OA
ATOM    108  O   UNL     1      12.513  -6.976   2.799  1.00  0.00    -0.237 OA
ATOM    109  O   UNL     1      13.181  -8.373   4.711  1.00  0.00    -0.744 OA
ENDBRANCH 105 106
ENDBRANCH  79 100
ENDBRANCH  53  54
ENDBRANCH  46  48
ENDBRANCH  45  46
ENDBRANCH  44  45
ENDBRANCH  43  44
ENDBRANCH  42  43
ENDBRANCH  41  42
ENDBRANCH  40  41
ENDBRANCH  39  40
ENDBRANCH   1  39
TORSDOF 29
