REMARK SMILES Cc1c(C(=O)OCCOCCOCCOCCOC(=O)c2ccc(-c3c4nc(c(-c5ccc(S(=O)(=O)[O-])cc5)c5ccc([nH]5)c(-c5ccc(S(=O)(=O)[O-])cc5)c5nc(c(-c6ccc(S(=O)(=O)[O-])cc6)c6ccc3[nH]6)C=C5)C=C4)cc2)cccc1N1[C@@H](C)C=C(/C=C(\C#N)C(=O)NCCc2c[nH]c3ccccc23)[C@@H]1C
REMARK SMILES IDX 10 1 9 2 8 3 7 4 6 5 4 6 5 7 3 8 1 9 2 10 84 11 81 12 83 13
REMARK SMILES IDX 82 14 85 15 86 16 108 17 88 18 87 19 89 20 109 21 90 22
REMARK SMILES IDX 91 23 92 24 93 25 94 26 95 27 96 28 97 30 98 31 99 32 100 33
REMARK SMILES IDX 107 34 101 35 102 36 106 37 103 39 105 40 104 41 11 42 12 43
REMARK SMILES IDX 13 44 14 45 15 46 16 47 17 48 18 49 19 50 20 51 21 52 22 53
REMARK SMILES IDX 80 54 23 55 79 56 24 57 25 58 26 59 73 60 27 61 78 62 72 63
REMARK SMILES IDX 74 64 28 65 77 66 71 67 70 68 29 70 59 71 40 72 58 73 41 74
REMARK SMILES IDX 44 75 57 76 75 77 42 78 43 79 56 81 76 82 45 83 30 84 31 85
REMARK SMILES IDX 39 86 32 87 38 88 33 89 34 90 35 91 36 92 37 93 60 94 61 95
REMARK SMILES IDX 69 96 62 97 68 98 63 99 64 100 65 101 66 102 67 103 46 104
REMARK SMILES IDX 47 105 55 106 48 107 54 108 49 109 50 110 51 111 52 112
REMARK SMILES IDX 53 113
REMARK H PARENT 96 29 101 38 74 69 44 80
REMARK Flexibility Score: inf
ROOT
ATOM      1  C   UNL     1      -1.005  -2.300   2.087  1.00  0.00     0.188 C 
ENDROOT
BRANCH   1   2
ATOM      2  O   UNL     1      -0.830  -3.690   1.879  1.00  0.00    -0.376 OA
BRANCH   2   3
ATOM      3  C   UNL     1       0.043  -4.029   0.810  1.00  0.00     0.202 C 
BRANCH   3   4
ATOM      4  C   UNL     1      -0.398  -3.709  -0.602  1.00  0.00     0.261 C 
BRANCH   4   5
ATOM      5  O   UNL     1      -0.201  -2.325  -0.856  1.00  0.00    -0.460 OA
BRANCH   5   6
ATOM      6  C   UNL     1      -1.279  -1.708  -1.336  1.00  0.00     0.338 C 
ATOM      7  O   UNL     1      -2.221  -2.241  -1.903  1.00  0.00    -0.246 OA
BRANCH   6   8
ATOM      8  C   UNL     1      -1.343  -0.311  -0.839  1.00  0.00     0.065 A 
ATOM      9  C   UNL     1       1.069   0.112  -0.019  1.00  0.00     0.047 C 
ATOM     10  C   UNL     1      -0.292   0.570  -0.482  1.00  0.00    -0.013 A 
ATOM     11  C   UNL     1      -0.600   1.924  -0.238  1.00  0.00     0.041 A 
ATOM     12  C   UNL     1      -2.672   0.065  -0.586  1.00  0.00     0.016 A 
ATOM     13  C   UNL     1      -1.957   2.271  -0.082  1.00  0.00     0.026 A 
ATOM     14  C   UNL     1      -2.978   1.338  -0.165  1.00  0.00     0.003 A 
BRANCH  11  15
ATOM     15  N   UNL     1       0.367   2.871   0.030  1.00  0.00    -0.358 N 
ATOM     16  C   UNL     1       0.244   3.679   1.234  1.00  0.00     0.103 C 
ATOM     17  C   UNL     1       1.550   3.214  -0.787  1.00  0.00     0.110 C 
ATOM     18  C   UNL     1       1.461   4.518   1.159  1.00  0.00     0.003 C 
ATOM     19  C   UNL     1       0.294   2.849   2.514  1.00  0.00     0.035 C 
ATOM     20  C   UNL     1       2.248   4.225   0.117  1.00  0.00    -0.026 C 
ATOM     21  C   UNL     1       1.115   3.822  -2.124  1.00  0.00     0.036 C 
BRANCH  20  22
ATOM     22  C   UNL     1       3.568   4.772  -0.146  1.00  0.00     0.031 C 
ATOM     23  C   UNL     1       4.308   5.577   0.657  1.00  0.00     0.117 C 
BRANCH  23  24
ATOM     24  C   UNL     1       3.889   6.018   1.928  1.00  0.00     0.105 C 
ATOM     25  N   UNL     1       3.536   6.441   2.970  1.00  0.00    -0.192 NA
ENDBRANCH  23  24
BRANCH  23  26
ATOM     26  C   UNL     1       5.474   6.259   0.029  1.00  0.00     0.261 C 
ATOM     27  O   UNL     1       5.702   6.163  -1.178  1.00  0.00    -0.268 OA
ATOM     28  N   UNL     1       6.156   7.208   0.726  1.00  0.00    -0.351 N 
ATOM     29  H   UNL     1       6.317   8.028   0.205  1.00  0.00     0.163 HD
BRANCH  28  30
ATOM     30  C   UNL     1       6.704   7.273   2.093  1.00  0.00     0.121 C 
BRANCH  30  31
ATOM     31  C   UNL     1       8.104   6.611   2.287  1.00  0.00     0.059 C 
BRANCH  31  32
ATOM     32  C   UNL     1       9.254   7.293   1.534  1.00  0.00    -0.021 A 
ATOM     33  C   UNL     1       9.256   8.660   1.249  1.00  0.00     0.087 A 
ATOM     34  C   UNL     1       9.855   6.809   0.327  1.00  0.00     0.003 A 
ATOM     35  N   UNL     1       8.624   8.601  -0.001  1.00  0.00    -0.361 N 
ATOM     36  C   UNL     1       9.149   7.505  -0.657  1.00  0.00     0.046 A 
ATOM     37  C   UNL     1      10.823   5.877  -0.082  1.00  0.00     0.010 A 
ATOM     38  H   UNL     1       7.940   9.220  -0.344  1.00  0.00     0.166 HD
ATOM     39  C   UNL     1       9.106   7.116  -1.991  1.00  0.00     0.026 A 
ATOM     40  C   UNL     1      10.964   5.636  -1.459  1.00  0.00     0.001 A 
ATOM     41  C   UNL     1      10.063   6.178  -2.381  1.00  0.00     0.002 A 
ENDBRANCH  31  32
ENDBRANCH  30  31
ENDBRANCH  28  30
ENDBRANCH  23  26
ENDBRANCH  20  22
ENDBRANCH  11  15
ENDBRANCH   6   8
ENDBRANCH   5   6
ENDBRANCH   4   5
ENDBRANCH   3   4
ENDBRANCH   2   3
ENDBRANCH   1   2
BRANCH   1  42
ATOM     42  C   UNL     1      -0.024  -1.487   2.946  1.00  0.00     0.188 C 
BRANCH  42  43
ATOM     43  O   UNL     1       1.326  -1.375   2.531  1.00  0.00    -0.377 OA
BRANCH  43  44
ATOM     44  C   UNL     1       2.292  -2.251   3.101  1.00  0.00     0.188 C 
BRANCH  44  45
ATOM     45  C   UNL     1       2.015  -2.852   4.442  1.00  0.00     0.188 C 
BRANCH  45  46
ATOM     46  O   UNL     1       0.984  -3.809   4.195  1.00  0.00    -0.376 OA
BRANCH  46  47
ATOM     47  C   UNL     1       0.160  -4.140   5.284  1.00  0.00     0.202 C 
BRANCH  47  48
ATOM     48  C   UNL     1       0.948  -4.380   6.561  1.00  0.00     0.261 C 
BRANCH  48  49
ATOM     49  O   UNL     1       1.603  -5.688   6.594  1.00  0.00    -0.460 OA
BRANCH  49  50
ATOM     50  C   UNL     1       2.866  -5.976   6.136  1.00  0.00     0.338 C 
ATOM     51  O   UNL     1       3.722  -6.432   6.885  1.00  0.00    -0.246 OA
BRANCH  50  52
ATOM     52  C   UNL     1       3.054  -6.057   4.655  1.00  0.00     0.060 A 
ATOM     53  C   UNL     1       4.299  -5.873   4.025  1.00  0.00     0.016 A 
ATOM     54  C   UNL     1       1.976  -6.330   3.847  1.00  0.00     0.016 A 
ATOM     55  C   UNL     1       4.406  -5.665   2.623  1.00  0.00     0.010 A 
ATOM     56  C   UNL     1       2.080  -6.084   2.483  1.00  0.00     0.010 A 
ATOM     57  C   UNL     1       3.263  -5.666   1.837  1.00  0.00    -0.014 A 
BRANCH  57  58
ATOM     58  C   UNL     1       3.132  -5.258   0.397  1.00  0.00     0.031 A 
ATOM     59  C   UNL     1       2.369  -6.210  -0.507  1.00  0.00     0.074 A 
ATOM     60  C   UNL     1       3.309  -3.958   0.000  1.00  0.00     0.049 A 
ATOM     61  N   UNL     1       1.913  -5.942  -1.682  1.00  0.00    -0.248 NA
ATOM     62  C   UNL     1       1.946  -7.548  -0.090  1.00  0.00     0.031 C 
ATOM     63  C   UNL     1       2.669  -3.282  -1.131  1.00  0.00     0.029 A 
ATOM     64  N   UNL     1       4.031  -2.901   0.549  1.00  0.00    -0.354 N 
ATOM     65  C   UNL     1       0.869  -6.808  -1.976  1.00  0.00     0.074 A 
ATOM     66  C   UNL     1       0.972  -7.829  -0.966  1.00  0.00     0.031 C 
ATOM     67  C   UNL     1       3.056  -2.007  -1.258  1.00  0.00     0.029 A 
ATOM     68  C   UNL     1       4.200  -1.884  -0.411  1.00  0.00     0.049 A 
ATOM     69  H   UNL     1       4.372  -2.869   1.472  1.00  0.00     0.167 HD
ATOM     70  C   UNL     1      -0.031  -6.467  -2.957  1.00  0.00     0.031 A 
ATOM     71  C   UNL     1       5.444  -1.604  -0.881  1.00  0.00     0.031 A 
ATOM     72  C   UNL     1       0.394  -5.222  -3.654  1.00  0.00     0.049 A 
ATOM     73  C   UNL     1       5.461  -2.086  -2.353  1.00  0.00     0.074 A 
ATOM     74  C   UNL     1      -0.194  -3.995  -3.916  1.00  0.00     0.029 A 
ATOM     75  N   UNL     1       1.743  -5.059  -4.000  1.00  0.00    -0.354 N 
ATOM     76  N   UNL     1       4.778  -3.124  -2.817  1.00  0.00    -0.248 NA
ATOM     77  C   UNL     1       5.859  -1.181  -3.433  1.00  0.00     0.031 C 
ATOM     78  C   UNL     1       0.838  -3.074  -4.287  1.00  0.00     0.029 A 
ATOM     79  C   UNL     1       2.058  -3.745  -4.306  1.00  0.00     0.049 A 
ATOM     80  H   UNL     1       2.394  -5.797  -4.023  1.00  0.00     0.167 HD
ATOM     81  C   UNL     1       4.430  -2.901  -4.142  1.00  0.00     0.074 A 
ATOM     82  C   UNL     1       5.188  -1.695  -4.481  1.00  0.00     0.031 C 
ATOM     83  C   UNL     1       3.367  -3.405  -4.873  1.00  0.00     0.031 A 
BRANCH  70  84
ATOM     84  C   UNL     1      -1.407  -7.133  -3.208  1.00  0.00    -0.014 A 
ATOM     85  C   UNL     1      -2.331  -6.520  -4.089  1.00  0.00     0.010 A 
ATOM     86  C   UNL     1      -1.872  -8.339  -2.634  1.00  0.00     0.010 A 
ATOM     87  C   UNL     1      -3.606  -7.049  -4.381  1.00  0.00     0.020 A 
ATOM     88  C   UNL     1      -3.147  -8.895  -2.927  1.00  0.00     0.020 A 
ATOM     89  C   UNL     1      -4.006  -8.248  -3.810  1.00  0.00     0.054 A 
BRANCH  89  90
ATOM     90  S   UNL     1      -5.614  -8.955  -4.290  1.00  0.00     0.124 S 
ATOM     91  O   UNL     1      -6.560  -7.934  -3.846  1.00  0.00    -0.237 OA
ATOM     92  O   UNL     1      -5.479  -9.096  -5.737  1.00  0.00    -0.237 OA
ATOM     93  O   UNL     1      -5.677 -10.215  -3.552  1.00  0.00    -0.744 OA
ENDBRANCH  89  90
ENDBRANCH  70  84
BRANCH  71  94
ATOM     94  C   UNL     1       6.381  -1.560   0.314  1.00  0.00    -0.014 A 
ATOM     95  C   UNL     1       6.144  -0.463   1.204  1.00  0.00     0.010 A 
ATOM     96  C   UNL     1       6.845  -2.754   0.905  1.00  0.00     0.010 A 
ATOM     97  C   UNL     1       6.128  -0.625   2.605  1.00  0.00     0.020 A 
ATOM     98  C   UNL     1       6.836  -2.913   2.317  1.00  0.00     0.020 A 
ATOM     99  C   UNL     1       6.426  -1.868   3.155  1.00  0.00     0.054 A 
BRANCH  99 100
ATOM    100  S   UNL     1       6.048  -2.160   4.925  1.00  0.00     0.124 S 
ATOM    101  O   UNL     1       7.217  -1.604   5.595  1.00  0.00    -0.237 OA
ATOM    102  O   UNL     1       4.798  -1.428   5.127  1.00  0.00    -0.237 OA
ATOM    103  O   UNL     1       5.911  -3.608   5.011  1.00  0.00    -0.744 OA
ENDBRANCH  99 100
ENDBRANCH  71  94
BRANCH  83 104
ATOM    104  C   UNL     1       3.519  -3.768  -6.344  1.00  0.00    -0.014 A 
ATOM    105  C   UNL     1       4.570  -3.343  -7.156  1.00  0.00     0.010 A 
ATOM    106  C   UNL     1       2.623  -4.721  -6.911  1.00  0.00     0.010 A 
ATOM    107  C   UNL     1       4.751  -3.873  -8.434  1.00  0.00     0.020 A 
ATOM    108  C   UNL     1       2.818  -5.291  -8.165  1.00  0.00     0.020 A 
ATOM    109  C   UNL     1       3.897  -4.866  -8.915  1.00  0.00     0.054 A 
BRANCH 109 110
ATOM    110  S   UNL     1       4.266  -5.613 -10.510  1.00  0.00     0.124 S 
ATOM    111  O   UNL     1       4.152  -4.469 -11.411  1.00  0.00    -0.237 OA
ATOM    112  O   UNL     1       5.622  -6.117 -10.303  1.00  0.00    -0.237 OA
ATOM    113  O   UNL     1       3.239  -6.638 -10.667  1.00  0.00    -0.744 OA
ENDBRANCH 109 110
ENDBRANCH  83 104
ENDBRANCH  57  58
ENDBRANCH  50  52
ENDBRANCH  49  50
ENDBRANCH  48  49
ENDBRANCH  47  48
ENDBRANCH  46  47
ENDBRANCH  45  46
ENDBRANCH  44  45
ENDBRANCH  43  44
ENDBRANCH  42  43
ENDBRANCH   1  42
TORSDOF 30
