REMARK SMILES CCCCCCNC(=O)Oc1cccc(-c2ccc([C@@H](C)C(=O)OCCOCCOCCOCCOC(=O)c3ccc(-c4c5nc(c(-c6ccc(S(=O)(=O)[O-])cc6)c6ccc([nH]6)c(-c6ccc(S(=O)(=O)[O-])cc6)c6nc(c(-c7ccc(S(=O)(=O)[O-])cc7)c7ccc4[nH]7)C=C6)C=C5)cc3)cc2F)c1
REMARK SMILES IDX 27 1 26 2 25 3 24 4 22 5 23 6 20 7 21 8 19 9 16 10 17 11
REMARK SMILES IDX 100 12 18 13 99 14 101 15 15 16 11 17 12 18 102 19 13 20
REMARK SMILES IDX 14 21 10 22 8 23 7 24 9 26 6 27 5 28 4 29 3 30 2 31 1 32
REMARK SMILES IDX 28 33 29 34 30 35 31 36 32 37 33 38 34 39 35 40 36 41 37 42
REMARK SMILES IDX 38 43 39 44 40 45 98 46 41 47 97 48 42 49 43 50 44 51 91 52
REMARK SMILES IDX 45 53 96 54 90 55 92 56 46 57 95 58 89 59 88 60 47 62 77 63
REMARK SMILES IDX 58 64 76 65 59 66 62 67 75 68 93 69 60 70 61 71 74 73 94 74
REMARK SMILES IDX 63 75 48 76 49 77 57 78 50 79 56 80 51 81 52 82 53 83 54 84
REMARK SMILES IDX 55 85 78 86 79 87 87 88 80 89 86 90 81 91 82 92 83 93 84 94
REMARK SMILES IDX 85 95 64 96 65 97 73 98 66 99 72 100 67 101 68 102 69 103
REMARK SMILES IDX 70 104 71 105
REMARK H PARENT 7 25 92 61 62 72
REMARK Flexibility Score: inf
ROOT
ATOM      1  O   UNL     1      -0.767 -14.697  -3.166  1.00  0.00    -0.376 OA
ENDROOT
BRANCH   1   2
ATOM      2  C   UNL     1      -1.215 -15.138  -4.439  1.00  0.00     0.202 C 
BRANCH   2   3
ATOM      3  C   UNL     1      -2.695 -15.494  -4.680  1.00  0.00     0.261 C 
BRANCH   3   4
ATOM      4  O   UNL     1      -3.678 -14.520  -4.270  1.00  0.00    -0.463 OA
BRANCH   4   5
ATOM      5  C   UNL     1      -4.372 -14.805  -3.145  1.00  0.00     0.313 C 
ATOM      6  O   UNL     1      -4.208 -15.832  -2.488  1.00  0.00    -0.252 OA
BRANCH   5   7
ATOM      7  C   UNL     1      -5.419 -13.774  -2.725  1.00  0.00     0.126 C 
ATOM      8  C   UNL     1      -6.803 -14.358  -2.982  1.00  0.00     0.025 C 
BRANCH   7   9
ATOM      9  C   UNL     1      -5.340 -12.318  -3.185  1.00  0.00    -0.031 A 
ATOM     10  C   UNL     1      -5.207  -9.539  -3.914  1.00  0.00     0.018 A 
ATOM     11  C   UNL     1      -5.296 -10.557  -4.882  1.00  0.00     0.012 A 
ATOM     12  C   UNL     1      -5.170  -9.948  -2.578  1.00  0.00     0.131 A 
ATOM     13  C   UNL     1      -5.364 -11.921  -4.527  1.00  0.00     0.005 A 
ATOM     14  C   UNL     1      -5.248 -11.299  -2.215  1.00  0.00     0.044 A 
ATOM     15  F   UNL     1      -5.080  -9.040  -1.592  1.00  0.00    -0.206 F 
BRANCH  10  16
ATOM     16  C   UNL     1      -5.225  -8.108  -4.289  1.00  0.00    -0.012 A 
ATOM     17  C   UNL     1      -4.325  -5.846  -4.199  1.00  0.00     0.133 A 
ATOM     18  C   UNL     1      -5.390  -5.359  -4.954  1.00  0.00     0.047 A 
ATOM     19  C   UNL     1      -4.240  -7.200  -3.854  1.00  0.00     0.056 A 
ATOM     20  C   UNL     1      -6.370  -6.242  -5.394  1.00  0.00     0.004 A 
ATOM     21  C   UNL     1      -6.286  -7.600  -5.066  1.00  0.00     0.009 A 
BRANCH  17  22
ATOM     22  O   UNL     1      -3.423  -4.888  -3.699  1.00  0.00    -0.410 OA
BRANCH  22  23
ATOM     23  C   UNL     1      -2.080  -5.032  -4.016  1.00  0.00     0.412 C 
ATOM     24  N   UNL     1      -1.297  -4.012  -3.545  1.00  0.00    -0.321 N 
ATOM     25  H   UNL     1      -0.332  -4.085  -3.725  1.00  0.00     0.167 HD
ATOM     26  O   UNL     1      -1.587  -5.954  -4.655  1.00  0.00    -0.224 OA
BRANCH  24  27
ATOM     27  C   UNL     1      -1.726  -2.836  -2.812  1.00  0.00     0.119 C 
BRANCH  27  28
ATOM     28  C   UNL     1      -1.118  -2.777  -1.409  1.00  0.00     0.021 C 
BRANCH  28  29
ATOM     29  C   UNL     1       0.411  -2.656  -1.369  1.00  0.00     0.002 C 
BRANCH  29  30
ATOM     30  C   UNL     1       0.996  -1.402  -2.029  1.00  0.00    -0.000 C 
BRANCH  30  31
ATOM     31  C   UNL     1       0.533  -0.068  -1.438  1.00  0.00    -0.003 C 
ATOM     32  C   UNL     1       0.939   0.123   0.016  1.00  0.00     0.004 C 
ENDBRANCH  30  31
ENDBRANCH  29  30
ENDBRANCH  28  29
ENDBRANCH  27  28
ENDBRANCH  24  27
ENDBRANCH  22  23
ENDBRANCH  17  22
ENDBRANCH  10  16
ENDBRANCH   7   9
ENDBRANCH   5   7
ENDBRANCH   4   5
ENDBRANCH   3   4
ENDBRANCH   2   3
ENDBRANCH   1   2
BRANCH   1  33
ATOM     33  C   UNL     1      -1.397 -13.603  -2.512  1.00  0.00     0.188 C 
BRANCH  33  34
ATOM     34  C   UNL     1      -1.941 -12.403  -3.301  1.00  0.00     0.188 C 
BRANCH  34  35
ATOM     35  O   UNL     1      -1.921 -12.547  -4.704  1.00  0.00    -0.377 OA
BRANCH  35  36
ATOM     36  C   UNL     1      -0.889 -11.865  -5.399  1.00  0.00     0.188 C 
BRANCH  36  37
ATOM     37  C   UNL     1       0.506 -11.860  -4.747  1.00  0.00     0.188 C 
BRANCH  37  38
ATOM     38  O   UNL     1       0.519 -11.374  -3.408  1.00  0.00    -0.376 OA
BRANCH  38  39
ATOM     39  C   UNL     1       0.821 -10.002  -3.188  1.00  0.00     0.202 C 
BRANCH  39  40
ATOM     40  C   UNL     1      -0.163  -8.943  -3.717  1.00  0.00     0.261 C 
BRANCH  40  41
ATOM     41  O   UNL     1      -0.408  -8.942  -5.129  1.00  0.00    -0.460 OA
BRANCH  41  42
ATOM     42  C   UNL     1       0.644  -8.797  -5.963  1.00  0.00     0.338 C 
ATOM     43  O   UNL     1       1.804  -8.630  -5.658  1.00  0.00    -0.246 OA
BRANCH  42  44
ATOM     44  C   UNL     1       0.167  -9.117  -7.330  1.00  0.00     0.060 A 
ATOM     45  C   UNL     1       0.767 -10.178  -8.022  1.00  0.00     0.016 A 
ATOM     46  C   UNL     1      -0.864  -8.384  -7.921  1.00  0.00     0.016 A 
ATOM     47  C   UNL     1       0.368 -10.482  -9.324  1.00  0.00     0.010 A 
ATOM     48  C   UNL     1      -1.245  -8.672  -9.236  1.00  0.00     0.010 A 
ATOM     49  C   UNL     1      -0.605  -9.697  -9.957  1.00  0.00    -0.014 A 
BRANCH  49  50
ATOM     50  C   UNL     1      -0.799  -9.811 -11.425  1.00  0.00     0.031 A 
ATOM     51  C   UNL     1      -0.092  -8.820 -12.313  1.00  0.00     0.074 A 
ATOM     52  C   UNL     1      -1.556 -10.781 -11.967  1.00  0.00     0.049 A 
ATOM     53  N   UNL     1      -0.138  -8.689 -13.613  1.00  0.00    -0.248 NA
ATOM     54  C   UNL     1       0.787  -7.848 -11.640  1.00  0.00     0.031 C 
ATOM     55  C   UNL     1      -2.244 -11.836 -11.225  1.00  0.00     0.029 A 
ATOM     56  N   UNL     1      -1.877 -11.030 -13.280  1.00  0.00    -0.354 N 
ATOM     57  C   UNL     1       0.692  -7.614 -13.913  1.00  0.00     0.074 A 
ATOM     58  C   UNL     1       1.208  -7.113 -12.658  1.00  0.00     0.031 C 
ATOM     59  C   UNL     1      -2.914 -12.614 -12.094  1.00  0.00     0.029 A 
ATOM     60  C   UNL     1      -2.736 -12.090 -13.448  1.00  0.00     0.049 A 
ATOM     61  H   UNL     1      -1.524 -10.499 -14.030  1.00  0.00     0.167 HD
ATOM     62  C   UNL     1       1.001  -7.092 -15.123  1.00  0.00     0.031 A 
ATOM     63  C   UNL     1      -3.329 -12.566 -14.562  1.00  0.00     0.031 A 
ATOM     64  C   UNL     1       0.472  -7.580 -16.369  1.00  0.00     0.049 A 
ATOM     65  C   UNL     1      -3.043 -11.911 -15.890  1.00  0.00     0.074 A 
ATOM     66  C   UNL     1       0.729  -7.123 -17.649  1.00  0.00     0.029 A 
ATOM     67  N   UNL     1      -0.431  -8.626 -16.491  1.00  0.00    -0.354 N 
ATOM     68  N   UNL     1      -2.241 -10.908 -16.161  1.00  0.00    -0.248 NA
ATOM     69  C   UNL     1      -3.736 -12.459 -17.066  1.00  0.00     0.031 C 
ATOM     70  C   UNL     1      -0.069  -7.848 -18.539  1.00  0.00     0.029 A 
ATOM     71  C   UNL     1      -0.765  -8.809 -17.822  1.00  0.00     0.049 A 
ATOM     72  H   UNL     1      -0.781  -9.160 -15.741  1.00  0.00     0.167 HD
ATOM     73  C   UNL     1      -2.309 -10.727 -17.540  1.00  0.00     0.074 A 
ATOM     74  C   UNL     1      -3.220 -11.732 -18.048  1.00  0.00     0.031 C 
ATOM     75  C   UNL     1      -1.672  -9.814 -18.316  1.00  0.00     0.031 A 
BRANCH  62  76
ATOM     76  C   UNL     1       1.923  -5.900 -15.153  1.00  0.00    -0.014 A 
ATOM     77  C   UNL     1       3.287  -6.019 -14.829  1.00  0.00     0.010 A 
ATOM     78  C   UNL     1       1.421  -4.646 -15.545  1.00  0.00     0.010 A 
ATOM     79  C   UNL     1       4.122  -4.899 -14.861  1.00  0.00     0.020 A 
ATOM     80  C   UNL     1       2.259  -3.529 -15.608  1.00  0.00     0.020 A 
ATOM     81  C   UNL     1       3.602  -3.660 -15.250  1.00  0.00     0.054 A 
BRANCH  81  82
ATOM     82  S   UNL     1       4.714  -2.229 -15.305  1.00  0.00     0.124 S 
ATOM     83  O   UNL     1       4.962  -1.984 -13.886  1.00  0.00    -0.237 OA
ATOM     84  O   UNL     1       5.854  -2.740 -16.062  1.00  0.00    -0.237 OA
ATOM     85  O   UNL     1       3.928  -1.202 -15.984  1.00  0.00    -0.744 OA
ENDBRANCH  81  82
ENDBRANCH  62  76
BRANCH  63  86
ATOM     86  C   UNL     1      -4.278 -13.713 -14.471  1.00  0.00    -0.014 A 
ATOM     87  C   UNL     1      -3.964 -14.957 -15.045  1.00  0.00     0.010 A 
ATOM     88  C   UNL     1      -5.514 -13.559 -13.815  1.00  0.00     0.010 A 
ATOM     89  C   UNL     1      -4.872 -16.019 -14.979  1.00  0.00     0.020 A 
ATOM     90  C   UNL     1      -6.411 -14.627 -13.719  1.00  0.00     0.020 A 
ATOM     91  C   UNL     1      -6.088 -15.849 -14.311  1.00  0.00     0.054 A 
BRANCH  91  92
ATOM     92  S   UNL     1      -7.226 -17.257 -14.191  1.00  0.00     0.124 S 
ATOM     93  O   UNL     1      -7.706 -17.379 -15.563  1.00  0.00    -0.237 OA
ATOM     94  O   UNL     1      -6.348 -18.330 -13.729  1.00  0.00    -0.237 OA
ATOM     95  O   UNL     1      -8.219 -16.812 -13.216  1.00  0.00    -0.744 OA
ENDBRANCH  91  92
ENDBRANCH  63  86
BRANCH  75  96
ATOM     96  C   UNL     1      -1.896  -9.881 -19.806  1.00  0.00    -0.014 A 
ATOM     97  C   UNL     1      -3.126  -9.518 -20.383  1.00  0.00     0.010 A 
ATOM     98  C   UNL     1      -0.831 -10.255 -20.648  1.00  0.00     0.010 A 
ATOM     99  C   UNL     1      -3.295  -9.559 -21.771  1.00  0.00     0.020 A 
ATOM    100  C   UNL     1      -0.986 -10.265 -22.037  1.00  0.00     0.020 A 
ATOM    101  C   UNL     1      -2.223  -9.930 -22.589  1.00  0.00     0.054 A 
BRANCH 101 102
ATOM    102  S   UNL     1      -2.457  -9.931 -24.388  1.00  0.00     0.124 S 
ATOM    103  O   UNL     1      -3.328 -11.087 -24.581  1.00  0.00    -0.237 OA
ATOM    104  O   UNL     1      -3.076  -8.630 -24.630  1.00  0.00    -0.237 OA
ATOM    105  O   UNL     1      -1.102 -10.078 -24.915  1.00  0.00    -0.744 OA
ENDBRANCH 101 102
ENDBRANCH  75  96
ENDBRANCH  49  50
ENDBRANCH  42  44
ENDBRANCH  41  42
ENDBRANCH  40  41
ENDBRANCH  39  40
ENDBRANCH  38  39
ENDBRANCH  37  38
ENDBRANCH  36  37
ENDBRANCH  35  36
ENDBRANCH  34  35
ENDBRANCH  33  34
ENDBRANCH   1  33
TORSDOF 32
