REMARK SMILES C[C@H]1CCC[C@@H](n2cnnc2SCC(=O)OCCOCCOCCOCCOC(=O)c2ccc(-c3c4nc(c(-c5ccc(S(=O)(=O)[O-])cc5)c5ccc([nH]5)c(-c5ccc(S(=O)(=O)[O-])cc5)c5nc(c(-c6ccc(S(=O)(=O)[O-])cc6)c6ccc3[nH]6)C=C5)C=C4)cc2)C1
REMARK SMILES IDX 22 1 21 2 20 3 19 4 18 5 17 6 16 7 14 8 15 9 13 10 12 11
REMARK SMILES IDX 11 12 7 13 8 14 9 15 10 16 6 17 1 18 2 19 3 20 91 21 4 22
REMARK SMILES IDX 5 23 23 24 24 25 25 26 26 27 27 28 28 29 29 30 30 31 31 32
REMARK SMILES IDX 32 33 90 34 33 35 89 36 34 37 35 38 36 39 83 40 37 41 88 42
REMARK SMILES IDX 82 43 84 44 38 45 87 46 81 47 80 48 39 50 69 51 50 52 68 53
REMARK SMILES IDX 51 54 54 55 67 56 85 57 52 58 53 59 66 61 86 62 55 63 40 64
REMARK SMILES IDX 41 65 49 66 42 67 48 68 43 69 44 70 45 71 46 72 47 73 70 74
REMARK SMILES IDX 71 75 79 76 72 77 78 78 73 79 74 80 75 81 76 82 77 83 56 84
REMARK SMILES IDX 57 85 65 86 58 87 64 88 59 89 60 90 61 91 62 92 63 93
REMARK H PARENT 84 49 54 60
REMARK Flexibility Score: inf
ROOT
ATOM      1  O   UNL     1       2.190  -3.798  -0.940  1.00  0.00    -0.377 OA
ENDROOT
BRANCH   1   2
ATOM      2  C   UNL     1       1.226  -3.824   0.099  1.00  0.00     0.188 C 
BRANCH   2   3
ATOM      3  C   UNL     1       1.320  -2.874   1.302  1.00  0.00     0.188 C 
BRANCH   3   4
ATOM      4  O   UNL     1       2.445  -2.010   1.358  1.00  0.00    -0.376 OA
BRANCH   4   5
ATOM      5  C   UNL     1       2.929  -1.774   2.675  1.00  0.00     0.202 C 
BRANCH   5   6
ATOM      6  C   UNL     1       2.039  -0.874   3.546  1.00  0.00     0.261 C 
BRANCH   6   7
ATOM      7  O   UNL     1       0.704  -1.405   3.695  1.00  0.00    -0.463 OA
BRANCH   7   8
ATOM      8  C   UNL     1      -0.325  -0.536   3.494  1.00  0.00     0.316 C 
ATOM      9  O   UNL     1      -0.191   0.671   3.321  1.00  0.00    -0.251 OA
BRANCH   8  10
ATOM     10  C   UNL     1      -1.696  -1.187   3.563  1.00  0.00     0.200 C 
BRANCH  10  11
ATOM     11  S   UNL     1      -1.818  -2.722   2.647  1.00  0.00    -0.074 SA
BRANCH  11  12
ATOM     12  C   UNL     1      -2.561  -2.456   1.105  1.00  0.00     0.191 A 
ATOM     13  N   UNL     1      -2.398  -1.453   0.174  1.00  0.00    -0.306 N 
ATOM     14  C   UNL     1      -3.098  -1.878  -0.928  1.00  0.00     0.226 A 
ATOM     15  N   UNL     1      -3.639  -3.047  -0.702  1.00  0.00    -0.138 NA
ATOM     16  N   UNL     1      -3.299  -3.409   0.571  1.00  0.00    -0.124 NA
BRANCH  13  17
ATOM     17  C   UNL     1      -1.739  -0.161   0.257  1.00  0.00     0.091 C 
ATOM     18  C   UNL     1       1.663   1.341  -0.869  1.00  0.00     0.008 C 
ATOM     19  C   UNL     1       0.311   1.252  -0.163  1.00  0.00    -0.012 C 
ATOM     20  C   UNL     1      -0.577   2.455  -0.502  1.00  0.00     0.003 C 
ATOM     21  C   UNL     1      -0.421  -0.045  -0.522  1.00  0.00     0.029 C 
ATOM     22  C   UNL     1      -1.972   2.343   0.120  1.00  0.00     0.002 C 
ATOM     23  C   UNL     1      -2.648   1.003  -0.170  1.00  0.00     0.025 C 
ENDBRANCH  13  17
ENDBRANCH  11  12
ENDBRANCH  10  11
ENDBRANCH   8  10
ENDBRANCH   7   8
ENDBRANCH   6   7
ENDBRANCH   5   6
ENDBRANCH   4   5
ENDBRANCH   3   4
ENDBRANCH   2   3
ENDBRANCH   1   2
BRANCH   1  24
ATOM     24  C   UNL     1       2.652  -2.557  -1.443  1.00  0.00     0.188 C 
BRANCH  24  25
ATOM     25  C   UNL     1       2.197  -2.145  -2.849  1.00  0.00     0.188 C 
BRANCH  25  26
ATOM     26  O   UNL     1       0.902  -1.591  -3.063  1.00  0.00    -0.376 OA
BRANCH  26  27
ATOM     27  C   UNL     1      -0.293  -2.311  -2.796  1.00  0.00     0.202 C 
BRANCH  27  28
ATOM     28  C   UNL     1      -0.634  -3.574  -3.558  1.00  0.00     0.261 C 
BRANCH  28  29
ATOM     29  O   UNL     1       0.190  -4.610  -3.075  1.00  0.00    -0.460 OA
BRANCH  29  30
ATOM     30  C   UNL     1       1.238  -4.873  -3.875  1.00  0.00     0.338 C 
ATOM     31  O   UNL     1       1.481  -4.378  -4.960  1.00  0.00    -0.246 OA
BRANCH  30  32
ATOM     32  C   UNL     1       2.030  -5.937  -3.261  1.00  0.00     0.060 A 
ATOM     33  C   UNL     1       3.119  -6.343  -4.024  1.00  0.00     0.016 A 
ATOM     34  C   UNL     1       1.430  -6.743  -2.280  1.00  0.00     0.016 A 
ATOM     35  C   UNL     1       3.356  -7.686  -4.078  1.00  0.00     0.010 A 
ATOM     36  C   UNL     1       1.668  -8.086  -2.335  1.00  0.00     0.010 A 
ATOM     37  C   UNL     1       2.534  -8.534  -3.323  1.00  0.00    -0.014 A 
BRANCH  37  38
ATOM     38  C   UNL     1       2.649  -9.939  -3.597  1.00  0.00     0.031 A 
ATOM     39  C   UNL     1       3.884 -10.498  -3.048  1.00  0.00     0.074 A 
ATOM     40  C   UNL     1       1.725 -10.629  -4.281  1.00  0.00     0.049 A 
ATOM     41  N   UNL     1       4.963 -10.778  -3.695  1.00  0.00    -0.248 NA
ATOM     42  C   UNL     1       4.009 -10.517  -1.585  1.00  0.00     0.031 C 
ATOM     43  C   UNL     1       0.360 -10.221  -4.623  1.00  0.00     0.029 A 
ATOM     44  N   UNL     1       1.802 -11.906  -4.730  1.00  0.00    -0.354 N 
ATOM     45  C   UNL     1       5.838 -11.238  -2.728  1.00  0.00     0.074 A 
ATOM     46  C   UNL     1       5.295 -10.835  -1.454  1.00  0.00     0.031 C 
ATOM     47  C   UNL     1      -0.330 -11.312  -5.027  1.00  0.00     0.029 A 
ATOM     48  C   UNL     1       0.584 -12.441  -5.105  1.00  0.00     0.049 A 
ATOM     49  H   UNL     1       2.648 -12.407  -4.783  1.00  0.00     0.167 HD
ATOM     50  C   UNL     1       6.760 -12.189  -3.024  1.00  0.00     0.031 A 
ATOM     51  C   UNL     1       0.346 -13.743  -5.388  1.00  0.00     0.031 A 
ATOM     52  C   UNL     1       6.928 -12.352  -4.445  1.00  0.00     0.049 A 
ATOM     53  C   UNL     1       1.643 -14.376  -5.735  1.00  0.00     0.074 A 
ATOM     54  C   UNL     1       7.463 -11.598  -5.466  1.00  0.00     0.029 A 
ATOM     55  N   UNL     1       6.127 -13.310  -5.023  1.00  0.00    -0.354 N 
ATOM     56  N   UNL     1       2.321 -14.073  -6.807  1.00  0.00    -0.248 NA
ATOM     57  C   UNL     1       2.395 -15.101  -4.718  1.00  0.00     0.031 C 
ATOM     58  C   UNL     1       6.754 -11.972  -6.645  1.00  0.00     0.029 A 
ATOM     59  C   UNL     1       5.816 -12.951  -6.311  1.00  0.00     0.049 A 
ATOM     60  H   UNL     1       5.821 -14.133  -4.578  1.00  0.00     0.167 HD
ATOM     61  C   UNL     1       3.650 -14.186  -6.433  1.00  0.00     0.074 A 
ATOM     62  C   UNL     1       3.632 -14.977  -5.211  1.00  0.00     0.031 C 
ATOM     63  C   UNL     1       4.604 -13.383  -6.986  1.00  0.00     0.031 A 
BRANCH  50  64
ATOM     64  C   UNL     1       7.126 -13.274  -2.046  1.00  0.00    -0.014 A 
ATOM     65  C   UNL     1       8.146 -14.178  -2.390  1.00  0.00     0.010 A 
ATOM     66  C   UNL     1       6.318 -13.607  -0.936  1.00  0.00     0.010 A 
ATOM     67  C   UNL     1       8.306 -15.381  -1.692  1.00  0.00     0.020 A 
ATOM     68  C   UNL     1       6.498 -14.777  -0.206  1.00  0.00     0.020 A 
ATOM     69  C   UNL     1       7.469 -15.677  -0.615  1.00  0.00     0.054 A 
BRANCH  69  70
ATOM     70  S   UNL     1       7.595 -17.284   0.201  1.00  0.00     0.124 S 
ATOM     71  O   UNL     1       7.121 -18.186  -0.843  1.00  0.00    -0.237 OA
ATOM     72  O   UNL     1       9.019 -17.361   0.513  1.00  0.00    -0.237 OA
ATOM     73  O   UNL     1       6.715 -17.148   1.360  1.00  0.00    -0.744 OA
ENDBRANCH  69  70
ENDBRANCH  50  64
BRANCH  51  74
ATOM     74  C   UNL     1      -0.886 -14.513  -5.122  1.00  0.00    -0.014 A 
ATOM     75  C   UNL     1      -1.096 -15.762  -5.729  1.00  0.00     0.010 A 
ATOM     76  C   UNL     1      -1.734 -14.140  -4.058  1.00  0.00     0.010 A 
ATOM     77  C   UNL     1      -2.076 -16.640  -5.241  1.00  0.00     0.020 A 
ATOM     78  C   UNL     1      -2.719 -15.005  -3.573  1.00  0.00     0.020 A 
ATOM     79  C   UNL     1      -2.866 -16.264  -4.150  1.00  0.00     0.054 A 
BRANCH  79  80
ATOM     80  S   UNL     1      -3.989 -17.480  -3.406  1.00  0.00     0.124 S 
ATOM     81  O   UNL     1      -5.038 -17.593  -4.415  1.00  0.00    -0.237 OA
ATOM     82  O   UNL     1      -3.130 -18.652  -3.253  1.00  0.00    -0.237 OA
ATOM     83  O   UNL     1      -4.398 -16.850  -2.152  1.00  0.00    -0.744 OA
ENDBRANCH  79  80
ENDBRANCH  51  74
BRANCH  63  84
ATOM     84  C   UNL     1       4.279 -12.737  -8.311  1.00  0.00    -0.014 A 
ATOM     85  C   UNL     1       3.251 -11.791  -8.488  1.00  0.00     0.010 A 
ATOM     86  C   UNL     1       5.105 -13.046  -9.406  1.00  0.00     0.010 A 
ATOM     87  C   UNL     1       3.036 -11.196  -9.740  1.00  0.00     0.020 A 
ATOM     88  C   UNL     1       4.908 -12.442 -10.650  1.00  0.00     0.020 A 
ATOM     89  C   UNL     1       3.866 -11.528 -10.815  1.00  0.00     0.054 A 
BRANCH  89  90
ATOM     90  S   UNL     1       3.608 -10.728 -12.423  1.00  0.00     0.124 S 
ATOM     91  O   UNL     1       2.369 -11.344 -12.889  1.00  0.00    -0.237 OA
ATOM     92  O   UNL     1       3.516  -9.313 -12.073  1.00  0.00    -0.237 OA
ATOM     93  O   UNL     1       4.802 -11.090 -13.187  1.00  0.00    -0.744 OA
ENDBRANCH  89  90
ENDBRANCH  63  84
ENDBRANCH  37  38
ENDBRANCH  30  32
ENDBRANCH  29  30
ENDBRANCH  28  29
ENDBRANCH  27  28
ENDBRANCH  26  27
ENDBRANCH  25  26
ENDBRANCH  24  25
ENDBRANCH   1  24
TORSDOF 26
