REMARK SMILES COc1cc(Cl)c2c(c1)C=C(C(=O)OCCOCCOCCOCCOC(=O)c1ccc(-c3c4nc(c(-c5ccc(S(=O)(=O)[O-])cc5)c5ccc([nH]5)c(-c5ccc(S(=O)(=O)[O-])cc5)c5nc(c(-c6ccc(S(=O)(=O)[O-])cc6)c6ccc3[nH]6)C=C5)C=C4)cc1)[C@@H](C(F)(F)F)O2
REMARK SMILES IDX 21 1 20 2 19 3 18 4 17 5 16 6 15 7 14 8 12 9 13 10 11 11
REMARK SMILES IDX 3 12 4 13 9 14 5 15 8 16 6 17 7 18 10 19 94 20 89 21 2 22
REMARK SMILES IDX 1 23 90 24 91 25 92 26 93 27 22 28 23 29 24 30 25 31 26 32
REMARK SMILES IDX 27 33 28 34 29 35 30 36 88 37 31 38 87 39 32 40 33 41 34 42
REMARK SMILES IDX 81 43 35 44 86 45 80 46 82 47 36 48 85 49 79 50 78 51 37 53
REMARK SMILES IDX 67 54 48 55 66 56 49 57 52 58 65 59 83 60 50 61 51 62 64 64
REMARK SMILES IDX 84 65 53 66 38 67 39 68 47 69 40 70 46 71 41 72 42 73 43 74
REMARK SMILES IDX 44 75 45 76 68 77 69 78 77 79 70 80 76 81 71 82 72 83 73 84
REMARK SMILES IDX 74 85 75 86 54 87 55 88 63 89 56 90 62 91 57 92 58 93 59 94
REMARK SMILES IDX 60 95 61 96
REMARK H PARENT 82 52 52 63
REMARK Flexibility Score: inf
ROOT
ATOM      1  C   UNL     1      -0.983   7.505  -8.188  1.00  0.00     0.188 C 
ENDROOT
BRANCH   1   2
ATOM      2  O   UNL     1      -0.639   7.094  -6.866  1.00  0.00    -0.377 OA
BRANCH   2   3
ATOM      3  C   UNL     1      -1.041   5.799  -6.456  1.00  0.00     0.188 C 
BRANCH   3   4
ATOM      4  C   UNL     1      -2.477   5.768  -5.898  1.00  0.00     0.188 C 
BRANCH   4   5
ATOM      5  O   UNL     1      -3.289   6.860  -6.282  1.00  0.00    -0.376 OA
BRANCH   5   6
ATOM      6  C   UNL     1      -3.262   8.110  -5.611  1.00  0.00     0.202 C 
BRANCH   6   7
ATOM      7  C   UNL     1      -2.099   8.681  -4.774  1.00  0.00     0.261 C 
BRANCH   7   8
ATOM      8  O   UNL     1      -1.101   7.777  -4.309  1.00  0.00    -0.460 OA
BRANCH   8   9
ATOM      9  C   UNL     1      -1.367   7.077  -3.194  1.00  0.00     0.338 C 
ATOM     10  O   UNL     1      -2.377   7.131  -2.515  1.00  0.00    -0.246 OA
BRANCH   9  11
ATOM     11  C   UNL     1      -0.291   6.075  -3.033  1.00  0.00     0.087 C 
ATOM     12  C   UNL     1       0.991   1.614  -1.815  1.00  0.00     0.121 A 
ATOM     13  C   UNL     1       2.337   1.953  -1.921  1.00  0.00     0.070 A 
ATOM     14  C   UNL     1       0.003   2.532  -2.159  1.00  0.00     0.058 A 
ATOM     15  C   UNL     1       2.691   3.230  -2.361  1.00  0.00     0.087 A 
ATOM     16  C   UNL     1       0.358   3.829  -2.545  1.00  0.00     0.022 A 
ATOM     17  Cl  UNL     1       4.372   3.615  -2.466  1.00  0.00    -0.080 Cl
ATOM     18  C   UNL     1       1.706   4.177  -2.675  1.00  0.00     0.146 A 
ATOM     19  C   UNL     1      -0.676   4.828  -2.739  1.00  0.00     0.027 C 
ATOM     20  O   UNL     1       2.113   5.411  -3.100  1.00  0.00    -0.474 OA
ATOM     21  C   UNL     1       1.142   6.479  -3.271  1.00  0.00     0.316 C 
BRANCH  12  22
ATOM     22  O   UNL     1       0.579   0.374  -1.412  1.00  0.00    -0.497 OA
ATOM     23  C   UNL     1       1.000   0.092  -0.076  1.00  0.00     0.278 C 
ENDBRANCH  12  22
BRANCH  21  24
ATOM     24  C   UNL     1       1.558   7.658  -2.382  1.00  0.00     0.430 C 
ATOM     25  F   UNL     1       2.868   7.958  -2.538  1.00  0.00    -0.167 F 
ATOM     26  F   UNL     1       0.857   8.778  -2.666  1.00  0.00    -0.167 F 
ATOM     27  F   UNL     1       1.358   7.378  -1.071  1.00  0.00    -0.167 F 
ENDBRANCH  21  24
ENDBRANCH   9  11
ENDBRANCH   8   9
ENDBRANCH   7   8
ENDBRANCH   6   7
ENDBRANCH   5   6
ENDBRANCH   4   5
ENDBRANCH   3   4
ENDBRANCH   2   3
ENDBRANCH   1   2
BRANCH   1  28
ATOM     28  C   UNL     1      -2.208   6.904  -8.921  1.00  0.00     0.188 C 
BRANCH  28  29
ATOM     29  O   UNL     1      -2.328   5.492  -8.792  1.00  0.00    -0.376 OA
BRANCH  29  30
ATOM     30  C   UNL     1      -1.997   4.691  -9.914  1.00  0.00     0.202 C 
BRANCH  30  31
ATOM     31  C   UNL     1      -0.509   4.631 -10.288  1.00  0.00     0.261 C 
BRANCH  31  32
ATOM     32  O   UNL     1       0.125   5.890 -10.551  1.00  0.00    -0.460 OA
BRANCH  32  33
ATOM     33  C   UNL     1      -0.332   6.614 -11.595  1.00  0.00     0.338 C 
ATOM     34  O   UNL     1      -1.218   6.306 -12.373  1.00  0.00    -0.246 OA
BRANCH  33  35
ATOM     35  C   UNL     1       0.308   7.941 -11.518  1.00  0.00     0.060 A 
ATOM     36  C   UNL     1      -0.480   9.072 -11.259  1.00  0.00     0.016 A 
ATOM     37  C   UNL     1       1.688   8.061 -11.690  1.00  0.00     0.016 A 
ATOM     38  C   UNL     1       0.110  10.333 -11.198  1.00  0.00     0.010 A 
ATOM     39  C   UNL     1       2.272   9.329 -11.672  1.00  0.00     0.010 A 
ATOM     40  C   UNL     1       1.478  10.470 -11.464  1.00  0.00    -0.014 A 
BRANCH  40  41
ATOM     41  C   UNL     1       2.019  11.803 -11.810  1.00  0.00     0.031 A 
ATOM     42  C   UNL     1       1.958  12.220 -13.255  1.00  0.00     0.074 A 
ATOM     43  C   UNL     1       2.538  12.628 -10.885  1.00  0.00     0.049 A 
ATOM     44  N   UNL     1       2.419  13.301 -13.825  1.00  0.00    -0.248 NA
ATOM     45  C   UNL     1       1.281  11.291 -14.178  1.00  0.00     0.031 C 
ATOM     46  C   UNL     1       2.591  12.369  -9.448  1.00  0.00     0.029 A 
ATOM     47  N   UNL     1       3.127  13.860 -11.030  1.00  0.00    -0.354 N 
ATOM     48  C   UNL     1       2.088  13.182 -15.169  1.00  0.00     0.074 A 
ATOM     49  C   UNL     1       1.407  11.918 -15.336  1.00  0.00     0.031 C 
ATOM     50  C   UNL     1       3.189  13.410  -8.842  1.00  0.00     0.029 A 
ATOM     51  C   UNL     1       3.592  14.390  -9.852  1.00  0.00     0.049 A 
ATOM     52  H   UNL     1       3.207  14.319 -11.897  1.00  0.00     0.167 HD
ATOM     53  C   UNL     1       2.329  14.049 -16.178  1.00  0.00     0.031 A 
ATOM     54  C   UNL     1       4.284  15.524  -9.620  1.00  0.00     0.031 A 
ATOM     55  C   UNL     1       3.031  15.290 -16.018  1.00  0.00     0.049 A 
ATOM     56  C   UNL     1       4.639  16.425 -10.774  1.00  0.00     0.074 A 
ATOM     57  C   UNL     1       3.335  16.233 -16.983  1.00  0.00     0.029 A 
ATOM     58  N   UNL     1       3.550  15.755 -14.820  1.00  0.00    -0.354 N 
ATOM     59  N   UNL     1       4.332  16.297 -12.043  1.00  0.00    -0.248 NA
ATOM     60  C   UNL     1       5.439  17.620 -10.466  1.00  0.00     0.031 C 
ATOM     61  C   UNL     1       4.086  17.244 -16.378  1.00  0.00     0.029 A 
ATOM     62  C   UNL     1       4.199  16.958 -15.025  1.00  0.00     0.049 A 
ATOM     63  H   UNL     1       3.468  15.297 -13.953  1.00  0.00     0.167 HD
ATOM     64  C   UNL     1       4.891  17.398 -12.684  1.00  0.00     0.074 A 
ATOM     65  C   UNL     1       5.546  18.188 -11.662  1.00  0.00     0.031 C 
ATOM     66  C   UNL     1       4.861  17.724 -14.000  1.00  0.00     0.031 A 
BRANCH  53  67
ATOM     67  C   UNL     1       1.855  13.663 -17.549  1.00  0.00    -0.014 A 
ATOM     68  C   UNL     1       0.490  13.715 -17.884  1.00  0.00     0.010 A 
ATOM     69  C   UNL     1       2.791  13.280 -18.526  1.00  0.00     0.010 A 
ATOM     70  C   UNL     1       0.068  13.372 -19.170  1.00  0.00     0.020 A 
ATOM     71  C   UNL     1       2.374  12.958 -19.820  1.00  0.00     0.020 A 
ATOM     72  C   UNL     1       1.014  13.002 -20.132  1.00  0.00     0.054 A 
BRANCH  72  73
ATOM     73  S   UNL     1       0.432  12.584 -21.797  1.00  0.00     0.124 S 
ATOM     74  O   UNL     1      -0.464  11.460 -21.536  1.00  0.00    -0.237 OA
ATOM     75  O   UNL     1      -0.218  13.821 -22.221  1.00  0.00    -0.237 OA
ATOM     76  O   UNL     1       1.656  12.243 -22.519  1.00  0.00    -0.744 OA
ENDBRANCH  72  73
ENDBRANCH  53  67
BRANCH  54  77
ATOM     77  C   UNL     1       4.693  15.856  -8.230  1.00  0.00    -0.014 A 
ATOM     78  C   UNL     1       4.027  16.864  -7.513  1.00  0.00     0.010 A 
ATOM     79  C   UNL     1       5.712  15.121  -7.594  1.00  0.00     0.010 A 
ATOM     80  C   UNL     1       4.356  17.116  -6.178  1.00  0.00     0.020 A 
ATOM     81  C   UNL     1       6.030  15.357  -6.253  1.00  0.00     0.020 A 
ATOM     82  C   UNL     1       5.342  16.349  -5.551  1.00  0.00     0.054 A 
BRANCH  82  83
ATOM     83  S   UNL     1       5.681  16.639  -3.792  1.00  0.00     0.124 S 
ATOM     84  O   UNL     1       6.071  18.046  -3.780  1.00  0.00    -0.237 OA
ATOM     85  O   UNL     1       4.391  16.335  -3.179  1.00  0.00    -0.237 OA
ATOM     86  O   UNL     1       6.751  15.693  -3.486  1.00  0.00    -0.744 OA
ENDBRANCH  82  83
ENDBRANCH  54  77
BRANCH  66  87
ATOM     87  C   UNL     1       5.554  18.988 -14.431  1.00  0.00    -0.014 A 
ATOM     88  C   UNL     1       6.955  19.044 -14.530  1.00  0.00     0.010 A 
ATOM     89  C   UNL     1       4.790  20.094 -14.849  1.00  0.00     0.010 A 
ATOM     90  C   UNL     1       7.581  20.189 -15.029  1.00  0.00     0.020 A 
ATOM     91  C   UNL     1       5.412  21.232 -15.370  1.00  0.00     0.020 A 
ATOM     92  C   UNL     1       6.805  21.272 -15.454  1.00  0.00     0.054 A 
BRANCH  92  93
ATOM     93  S   UNL     1       7.647  22.727 -16.136  1.00  0.00     0.124 S 
ATOM     94  O   UNL     1       8.484  23.151 -15.017  1.00  0.00    -0.237 OA
ATOM     95  O   UNL     1       8.363  22.167 -17.279  1.00  0.00    -0.237 OA
ATOM     96  O   UNL     1       6.555  23.637 -16.472  1.00  0.00    -0.744 OA
ENDBRANCH  92  93
ENDBRANCH  66  87
ENDBRANCH  40  41
ENDBRANCH  33  35
ENDBRANCH  32  33
ENDBRANCH  31  32
ENDBRANCH  30  31
ENDBRANCH  29  30
ENDBRANCH  28  29
ENDBRANCH   1  28
TORSDOF 25
