REMARK SMILES CCOc1cccc(-c2ccc([C@@H](C)C(=O)OCCOCCOCCOCCOC(=O)c3ccc(-c4c5nc(c(-c6ccc(S(=O)(=O)[O-])cc6)c6ccc([nH]6)c(-c6ccc(S(=O)(=O)[O-])cc6)c6nc(c(-c7ccc(S(=O)(=O)[O-])cc7)c7ccc4[nH]7)C=C6)C=C5)cc3)cc2F)c1
REMARK SMILES IDX 22 1 21 2 20 3 19 4 18 5 17 6 15 7 16 8 13 9 14 10 12 11
REMARK SMILES IDX 9 12 10 13 93 14 11 15 92 16 94 17 8 18 4 19 5 20 95 21 6 22
REMARK SMILES IDX 7 23 3 24 2 25 1 26 23 27 24 28 25 29 26 30 27 31 28 32
REMARK SMILES IDX 29 33 30 34 31 35 32 36 33 37 91 38 34 39 90 40 35 41 36 42
REMARK SMILES IDX 37 43 84 44 38 45 89 46 83 47 85 48 39 49 88 50 82 51 81 52
REMARK SMILES IDX 40 54 70 55 51 56 69 57 52 58 55 59 68 60 86 61 53 62 54 63
REMARK SMILES IDX 67 65 87 66 56 67 41 68 42 69 50 70 43 71 49 72 44 73 45 74
REMARK SMILES IDX 46 75 47 76 48 77 71 78 72 79 80 80 73 81 79 82 74 83 75 84
REMARK SMILES IDX 76 85 77 86 78 87 57 88 58 89 66 90 59 91 65 92 60 93 61 94
REMARK SMILES IDX 62 95 63 96 64 97
REMARK H PARENT 85 53 55 64
REMARK Flexibility Score: inf
ROOT
ATOM      1  C   UNL     1       5.874   3.611   0.345  1.00  0.00     0.188 C 
ENDROOT
BRANCH   1   2
ATOM      2  C   UNL     1       6.267   5.046   0.722  1.00  0.00     0.188 C 
BRANCH   2   3
ATOM      3  O   UNL     1       6.987   5.869  -0.184  1.00  0.00    -0.376 OA
BRANCH   3   4
ATOM      4  C   UNL     1       8.074   5.349  -0.939  1.00  0.00     0.202 C 
BRANCH   4   5
ATOM      5  C   UNL     1       9.188   4.494  -0.303  1.00  0.00     0.261 C 
BRANCH   5   6
ATOM      6  O   UNL     1       8.782   3.396   0.538  1.00  0.00    -0.463 OA
BRANCH   6   7
ATOM      7  C   UNL     1       8.936   3.577   1.868  1.00  0.00     0.313 C 
ATOM      8  O   UNL     1       9.394   4.607   2.363  1.00  0.00    -0.252 OA
BRANCH   7   9
ATOM      9  C   UNL     1       8.515   2.411   2.759  1.00  0.00     0.126 C 
ATOM     10  C   UNL     1       9.769   1.789   3.362  1.00  0.00     0.025 C 
BRANCH   9  11
ATOM     11  C   UNL     1       7.539   1.337   2.276  1.00  0.00    -0.031 A 
ATOM     12  C   UNL     1       5.621  -0.669   1.499  1.00  0.00     0.018 A 
ATOM     13  C   UNL     1       6.820  -0.468   0.787  1.00  0.00     0.012 A 
ATOM     14  C   UNL     1       5.411   0.163   2.604  1.00  0.00     0.131 A 
ATOM     15  C   UNL     1       7.763   0.514   1.166  1.00  0.00     0.005 A 
ATOM     16  C   UNL     1       6.346   1.129   2.996  1.00  0.00     0.044 A 
ATOM     17  F   UNL     1       4.293   0.047   3.339  1.00  0.00    -0.206 F 
BRANCH  12  18
ATOM     18  C   UNL     1       4.652  -1.726   1.121  1.00  0.00    -0.012 A 
ATOM     19  C   UNL     1       2.365  -2.484   0.684  1.00  0.00     0.119 A 
ATOM     20  C   UNL     1       2.808  -3.789   0.503  1.00  0.00     0.046 A 
ATOM     21  C   UNL     1       3.273  -1.466   1.005  1.00  0.00     0.055 A 
ATOM     22  C   UNL     1       4.166  -4.074   0.618  1.00  0.00     0.004 A 
ATOM     23  C   UNL     1       5.076  -3.053   0.921  1.00  0.00     0.009 A 
BRANCH  19  24
ATOM     24  O   UNL     1       1.013  -2.269   0.706  1.00  0.00    -0.494 OA
BRANCH  24  25
ATOM     25  C   UNL     1       0.521  -1.609  -0.465  1.00  0.00     0.226 C 
ATOM     26  C   UNL     1       0.469  -0.113  -0.236  1.00  0.00     0.049 C 
ENDBRANCH  24  25
ENDBRANCH  19  24
ENDBRANCH  12  18
ENDBRANCH   9  11
ENDBRANCH   7   9
ENDBRANCH   6   7
ENDBRANCH   5   6
ENDBRANCH   4   5
ENDBRANCH   3   4
ENDBRANCH   2   3
ENDBRANCH   1   2
BRANCH   1  27
ATOM     27  O   UNL     1       6.542   3.090  -0.783  1.00  0.00    -0.377 OA
BRANCH  27  28
ATOM     28  C   UNL     1       5.845   3.095  -2.018  1.00  0.00     0.188 C 
BRANCH  28  29
ATOM     29  C   UNL     1       4.904   4.280  -2.316  1.00  0.00     0.188 C 
BRANCH  29  30
ATOM     30  O   UNL     1       3.990   4.580  -1.270  1.00  0.00    -0.376 OA
BRANCH  30  31
ATOM     31  C   UNL     1       2.689   4.019  -1.342  1.00  0.00     0.202 C 
BRANCH  31  32
ATOM     32  C   UNL     1       2.554   2.493  -1.283  1.00  0.00     0.261 C 
BRANCH  32  33
ATOM     33  O   UNL     1       3.238   1.721  -2.283  1.00  0.00    -0.460 OA
BRANCH  33  34
ATOM     34  C   UNL     1       2.920   1.910  -3.579  1.00  0.00     0.338 C 
ATOM     35  O   UNL     1       2.040   2.635  -4.013  1.00  0.00    -0.246 OA
BRANCH  34  36
ATOM     36  C   UNL     1       3.960   1.243  -4.398  1.00  0.00     0.060 A 
ATOM     37  C   UNL     1       4.805   2.029  -5.194  1.00  0.00     0.016 A 
ATOM     38  C   UNL     1       4.128  -0.143  -4.359  1.00  0.00     0.016 A 
ATOM     39  C   UNL     1       5.813   1.433  -5.957  1.00  0.00     0.010 A 
ATOM     40  C   UNL     1       5.117  -0.742  -5.150  1.00  0.00     0.010 A 
ATOM     41  C   UNL     1       5.955   0.040  -5.966  1.00  0.00    -0.014 A 
BRANCH  41  42
ATOM     42  C   UNL     1       6.879  -0.616  -6.928  1.00  0.00     0.031 A 
ATOM     43  C   UNL     1       6.315  -1.168  -8.209  1.00  0.00     0.074 A 
ATOM     44  C   UNL     1       8.195  -0.730  -6.670  1.00  0.00     0.049 A 
ATOM     45  N   UNL     1       6.909  -1.861  -9.146  1.00  0.00    -0.248 NA
ATOM     46  C   UNL     1       4.890  -0.902  -8.466  1.00  0.00     0.031 C 
ATOM     47  C   UNL     1       8.879  -0.187  -5.498  1.00  0.00     0.029 A 
ATOM     48  N   UNL     1       9.191  -1.358  -7.380  1.00  0.00    -0.354 N 
ATOM     49  C   UNL     1       5.929  -2.127 -10.097  1.00  0.00     0.074 A 
ATOM     50  C   UNL     1       4.699  -1.538  -9.613  1.00  0.00     0.031 C 
ATOM     51  C   UNL     1      10.181  -0.523  -5.559  1.00  0.00     0.029 A 
ATOM     52  C   UNL     1      10.413  -1.341  -6.749  1.00  0.00     0.049 A 
ATOM     53  H   UNL     1       9.044  -1.780  -8.257  1.00  0.00     0.167 HD
ATOM     54  C   UNL     1       6.042  -2.803 -11.265  1.00  0.00     0.031 A 
ATOM     55  C   UNL     1      11.576  -1.945  -7.073  1.00  0.00     0.031 A 
ATOM     56  C   UNL     1       7.262  -3.407 -11.733  1.00  0.00     0.049 A 
ATOM     57  C   UNL     1      11.652  -2.783  -8.325  1.00  0.00     0.074 A 
ATOM     58  C   UNL     1       7.480  -4.100 -12.911  1.00  0.00     0.029 A 
ATOM     59  N   UNL     1       8.464  -3.407 -11.042  1.00  0.00    -0.354 N 
ATOM     60  N   UNL     1      10.726  -3.001  -9.229  1.00  0.00    -0.248 NA
ATOM     61  C   UNL     1      12.929  -3.458  -8.600  1.00  0.00     0.031 C 
ATOM     62  C   UNL     1       8.793  -4.581 -12.899  1.00  0.00     0.029 A 
ATOM     63  C   UNL     1       9.415  -4.125 -11.748  1.00  0.00     0.049 A 
ATOM     64  H   UNL     1       8.619  -2.962 -10.177  1.00  0.00     0.167 HD
ATOM     65  C   UNL     1      11.316  -3.819 -10.188  1.00  0.00     0.074 A 
ATOM     66  C   UNL     1      12.684  -4.041  -9.766  1.00  0.00     0.031 C 
ATOM     67  C   UNL     1      10.774  -4.343 -11.316  1.00  0.00     0.031 A 
BRANCH  54  68
ATOM     68  C   UNL     1       4.800  -2.968 -12.101  1.00  0.00    -0.014 A 
ATOM     69  C   UNL     1       4.219  -1.878 -12.774  1.00  0.00     0.010 A 
ATOM     70  C   UNL     1       4.231  -4.246 -12.252  1.00  0.00     0.010 A 
ATOM     71  C   UNL     1       3.073  -2.057 -13.553  1.00  0.00     0.020 A 
ATOM     72  C   UNL     1       3.102  -4.435 -13.055  1.00  0.00     0.020 A 
ATOM     73  C   UNL     1       2.522  -3.335 -13.688  1.00  0.00     0.054 A 
BRANCH  73  74
ATOM     74  S   UNL     1       1.050  -3.540 -14.728  1.00  0.00     0.124 S 
ATOM     75  O   UNL     1       0.023  -2.875 -13.930  1.00  0.00    -0.237 OA
ATOM     76  O   UNL     1       1.431  -2.853 -15.959  1.00  0.00    -0.237 OA
ATOM     77  O   UNL     1       0.905  -4.989 -14.844  1.00  0.00    -0.744 OA
ENDBRANCH  73  74
ENDBRANCH  54  68
BRANCH  55  78
ATOM     78  C   UNL     1      12.759  -1.820  -6.174  1.00  0.00    -0.014 A 
ATOM     79  C   UNL     1      13.912  -1.133  -6.591  1.00  0.00     0.010 A 
ATOM     80  C   UNL     1      12.741  -2.404  -4.893  1.00  0.00     0.010 A 
ATOM     81  C   UNL     1      15.027  -1.041  -5.752  1.00  0.00     0.020 A 
ATOM     82  C   UNL     1      13.841  -2.287  -4.038  1.00  0.00     0.020 A 
ATOM     83  C   UNL     1      14.982  -1.614  -4.477  1.00  0.00     0.054 A 
BRANCH  83  84
ATOM     84  S   UNL     1      16.419  -1.431  -3.384  1.00  0.00     0.124 S 
ATOM     85  O   UNL     1      17.399  -2.304  -4.022  1.00  0.00    -0.237 OA
ATOM     86  O   UNL     1      16.694   0.001  -3.468  1.00  0.00    -0.237 OA
ATOM     87  O   UNL     1      15.922  -1.888  -2.088  1.00  0.00    -0.744 OA
ENDBRANCH  83  84
ENDBRANCH  55  78
BRANCH  67  88
ATOM     88  C   UNL     1      11.657  -5.193 -12.194  1.00  0.00    -0.014 A 
ATOM     89  C   UNL     1      12.053  -6.483 -11.796  1.00  0.00     0.010 A 
ATOM     90  C   UNL     1      12.030  -4.727 -13.469  1.00  0.00     0.010 A 
ATOM     91  C   UNL     1      12.819  -7.282 -12.650  1.00  0.00     0.020 A 
ATOM     92  C   UNL     1      12.769  -5.535 -14.337  1.00  0.00     0.020 A 
ATOM     93  C   UNL     1      13.167  -6.806 -13.918  1.00  0.00     0.054 A 
BRANCH  93  94
ATOM     94  S   UNL     1      14.104  -7.891 -15.029  1.00  0.00     0.124 S 
ATOM     95  O   UNL     1      15.415  -7.925 -14.389  1.00  0.00    -0.237 OA
ATOM     96  O   UNL     1      13.344  -9.138 -14.972  1.00  0.00    -0.237 OA
ATOM     97  O   UNL     1      14.056  -7.197 -16.315  1.00  0.00    -0.744 OA
ENDBRANCH  93  94
ENDBRANCH  67  88
ENDBRANCH  41  42
ENDBRANCH  34  36
ENDBRANCH  33  34
ENDBRANCH  32  33
ENDBRANCH  31  32
ENDBRANCH  30  31
ENDBRANCH  29  30
ENDBRANCH  28  29
ENDBRANCH  27  28
ENDBRANCH   1  27
TORSDOF 27
