REMARK SMILES Cc1cccc(CC(=O)N2CCC3(CCC(=O)N([C@H](C)C(=O)OCCOCCOCCOCCOC(=O)c4ccc(-c5c6nc(c(-c7ccc(S(=O)(=O)[O-])cc7)c7ccc([nH]7)c(-c7ccc(S(=O)(=O)[O-])cc7)c7nc(c(-c8ccc(S(=O)(=O)[O-])cc8)c8ccc5[nH]8)C=C7)C=C6)cc4)C3)CC2)c1
REMARK SMILES IDX 29 1 28 2 27 3 26 4 25 5 24 6 23 7 21 8 22 9 19 10 20 11
REMARK SMILES IDX 18 12 8 13 9 14 10 15 11 16 100 17 12 18 99 19 13 20 14 21
REMARK SMILES IDX 98 22 15 23 16 24 17 25 7 26 6 27 1 28 2 29 3 30 101 31 4 32
REMARK SMILES IDX 5 33 30 34 31 35 32 36 33 37 34 38 35 39 36 40 37 41 38 42
REMARK SMILES IDX 39 43 97 44 40 45 96 46 41 47 42 48 43 49 90 50 44 51 95 52
REMARK SMILES IDX 89 53 91 54 45 55 94 56 88 57 87 58 46 60 76 61 57 62 75 63
REMARK SMILES IDX 58 64 61 65 74 66 92 67 59 68 60 69 73 71 93 72 62 73 47 74
REMARK SMILES IDX 48 75 56 76 49 77 55 78 50 79 51 80 52 81 53 82 54 83 77 84
REMARK SMILES IDX 78 85 86 86 79 87 85 88 80 89 81 90 82 91 83 92 84 93 63 94
REMARK SMILES IDX 64 95 72 96 65 97 71 98 66 99 67 100 68 101 69 102 70 103
REMARK H PARENT 91 59 61 70
REMARK Flexibility Score: inf
ROOT
ATOM      1  O   UNL     1      -1.035   4.295  -5.781  1.00  0.00    -0.377 OA
ENDROOT
BRANCH   1   2
ATOM      2  C   UNL     1      -0.746   4.314  -4.392  1.00  0.00     0.188 C 
BRANCH   2   3
ATOM      3  C   UNL     1      -0.498   5.657  -3.676  1.00  0.00     0.188 C 
BRANCH   3   4
ATOM      4  O   UNL     1      -1.528   6.619  -3.542  1.00  0.00    -0.376 OA
BRANCH   4   5
ATOM      5  C   UNL     1      -1.694   7.513  -4.637  1.00  0.00     0.202 C 
BRANCH   5   6
ATOM      6  C   UNL     1      -0.635   8.588  -4.862  1.00  0.00     0.261 C 
BRANCH   6   7
ATOM      7  O   UNL     1       0.346   8.113  -5.775  1.00  0.00    -0.462 OA
BRANCH   7   8
ATOM      8  C   UNL     1       1.539   7.763  -5.257  1.00  0.00     0.328 C 
ATOM      9  O   UNL     1       1.946   8.007  -4.139  1.00  0.00    -0.250 OA
BRANCH   8  10
ATOM     10  C   UNL     1       2.244   6.833  -6.234  1.00  0.00     0.192 C 
ATOM     11  C   UNL     1       1.419   5.598  -6.538  1.00  0.00     0.044 C 
BRANCH  10  12
ATOM     12  N   UNL     1       2.687   7.590  -7.400  1.00  0.00    -0.329 N 
ATOM     13  C   UNL     1       8.325   5.149  -6.995  1.00  0.00     0.226 C 
ATOM     14  O   UNL     1       8.492   3.976  -6.637  1.00  0.00    -0.275 OA
ATOM     15  N   UNL     1       7.332   5.466  -7.906  1.00  0.00    -0.342 N 
ATOM     16  C   UNL     1       6.083   4.727  -7.831  1.00  0.00     0.120 C 
ATOM     17  C   UNL     1       7.270   6.630  -8.782  1.00  0.00     0.120 C 
ATOM     18  C   UNL     1       5.012   5.677  -7.292  1.00  0.00     0.030 C 
ATOM     19  C   UNL     1       6.299   7.641  -8.218  1.00  0.00     0.030 C 
ATOM     20  C   UNL     1       4.910   7.011  -8.104  1.00  0.00    -0.008 C 
ATOM     21  C   UNL     1       4.317   6.747  -9.527  1.00  0.00     0.019 C 
ATOM     22  C   UNL     1       4.037   8.055  -7.377  1.00  0.00     0.127 C 
ATOM     23  C   UNL     1       2.836   6.392  -9.479  1.00  0.00     0.101 C 
ATOM     24  C   UNL     1       2.182   7.492  -8.684  1.00  0.00     0.223 C 
ATOM     25  O   UNL     1       1.644   8.419  -9.276  1.00  0.00    -0.275 OA
BRANCH  13  26
ATOM     26  C   UNL     1       9.037   6.255  -6.213  1.00  0.00     0.135 C 
BRANCH  26  27
ATOM     27  C   UNL     1       9.571   7.441  -6.969  1.00  0.00    -0.038 A 
ATOM     28  C   UNL     1       8.759  11.157  -7.255  1.00  0.00     0.044 C 
ATOM     29  C   UNL     1       9.372   9.810  -7.509  1.00  0.00    -0.051 A 
ATOM     30  C   UNL     1      10.187   9.605  -8.627  1.00  0.00     0.003 A 
ATOM     31  C   UNL     1       9.095   8.729  -6.667  1.00  0.00     0.007 A 
ATOM     32  C   UNL     1      10.738   8.347  -8.883  1.00  0.00     0.001 A 
ATOM     33  C   UNL     1      10.451   7.270  -8.044  1.00  0.00     0.004 A 
ENDBRANCH  26  27
ENDBRANCH  13  26
ENDBRANCH  10  12
ENDBRANCH   8  10
ENDBRANCH   7   8
ENDBRANCH   6   7
ENDBRANCH   5   6
ENDBRANCH   4   5
ENDBRANCH   3   4
ENDBRANCH   2   3
ENDBRANCH   1   2
BRANCH   1  34
ATOM     34  C   UNL     1      -2.400   4.244  -6.212  1.00  0.00     0.188 C 
BRANCH  34  35
ATOM     35  C   UNL     1      -3.373   3.572  -5.259  1.00  0.00     0.188 C 
BRANCH  35  36
ATOM     36  O   UNL     1      -3.573   4.490  -4.179  1.00  0.00    -0.376 OA
BRANCH  36  37
ATOM     37  C   UNL     1      -3.850   3.948  -2.901  1.00  0.00     0.202 C 
BRANCH  37  38
ATOM     38  C   UNL     1      -5.016   2.966  -2.889  1.00  0.00     0.261 C 
BRANCH  38  39
ATOM     39  O   UNL     1      -6.293   3.650  -2.926  1.00  0.00    -0.460 OA
BRANCH  39  40
ATOM     40  C   UNL     1      -6.945   3.749  -4.124  1.00  0.00     0.338 C 
ATOM     41  O   UNL     1      -7.859   3.006  -4.443  1.00  0.00    -0.246 OA
BRANCH  40  42
ATOM     42  C   UNL     1      -6.571   4.975  -4.889  1.00  0.00     0.060 A 
ATOM     43  C   UNL     1      -6.769   5.081  -6.273  1.00  0.00     0.016 A 
ATOM     44  C   UNL     1      -5.904   5.994  -4.237  1.00  0.00     0.016 A 
ATOM     45  C   UNL     1      -6.128   6.094  -7.025  1.00  0.00     0.010 A 
ATOM     46  C   UNL     1      -5.209   6.927  -4.986  1.00  0.00     0.010 A 
ATOM     47  C   UNL     1      -5.272   6.991  -6.389  1.00  0.00    -0.014 A 
BRANCH  47  48
ATOM     48  C   UNL     1      -4.303   7.925  -7.026  1.00  0.00     0.031 A 
ATOM     49  C   UNL     1      -4.113   9.306  -6.426  1.00  0.00     0.074 A 
ATOM     50  C   UNL     1      -3.345   7.413  -7.844  1.00  0.00     0.049 A 
ATOM     51  N   UNL     1      -3.147  10.125  -6.677  1.00  0.00    -0.248 NA
ATOM     52  C   UNL     1      -5.024   9.872  -5.426  1.00  0.00     0.031 C 
ATOM     53  C   UNL     1      -1.955   7.875  -7.911  1.00  0.00     0.029 A 
ATOM     54  N   UNL     1      -3.316   6.309  -8.683  1.00  0.00    -0.354 N 
ATOM     55  C   UNL     1      -3.121  11.121  -5.710  1.00  0.00     0.074 A 
ATOM     56  C   UNL     1      -4.345  10.937  -4.978  1.00  0.00     0.031 C 
ATOM     57  C   UNL     1      -1.248   7.092  -8.733  1.00  0.00     0.029 A 
ATOM     58  C   UNL     1      -2.186   6.343  -9.507  1.00  0.00     0.049 A 
ATOM     59  H   UNL     1      -3.997   5.598  -8.696  1.00  0.00     0.167 HD
ATOM     60  C   UNL     1      -2.007  11.909  -5.571  1.00  0.00     0.031 A 
ATOM     61  C   UNL     1      -2.249   6.552 -10.859  1.00  0.00     0.031 A 
ATOM     62  C   UNL     1      -1.047  11.669  -6.662  1.00  0.00     0.049 A 
ATOM     63  C   UNL     1      -1.756   7.957 -11.253  1.00  0.00     0.074 A 
ATOM     64  C   UNL     1       0.290  11.313  -6.712  1.00  0.00     0.029 A 
ATOM     65  N   UNL     1      -1.510  11.620  -7.976  1.00  0.00    -0.354 N 
ATOM     66  N   UNL     1      -1.810   8.993 -10.440  1.00  0.00    -0.248 NA
ATOM     67  C   UNL     1      -1.029   8.285 -12.483  1.00  0.00     0.031 C 
ATOM     68  C   UNL     1       0.593  10.965  -8.053  1.00  0.00     0.029 A 
ATOM     69  C   UNL     1      -0.547  11.132  -8.827  1.00  0.00     0.049 A 
ATOM     70  H   UNL     1      -2.410  11.900  -8.259  1.00  0.00     0.167 HD
ATOM     71  C   UNL     1      -1.062  10.029 -10.941  1.00  0.00     0.074 A 
ATOM     72  C   UNL     1      -0.643   9.556 -12.250  1.00  0.00     0.031 C 
ATOM     73  C   UNL     1      -0.744  11.178 -10.268  1.00  0.00     0.031 A 
BRANCH  60  74
ATOM     74  C   UNL     1      -1.640  12.803  -4.374  1.00  0.00    -0.014 A 
ATOM     75  C   UNL     1      -0.395  13.481  -4.379  1.00  0.00     0.010 A 
ATOM     76  C   UNL     1      -2.402  12.981  -3.202  1.00  0.00     0.010 A 
ATOM     77  C   UNL     1       0.074  14.251  -3.299  1.00  0.00     0.020 A 
ATOM     78  C   UNL     1      -1.961  13.782  -2.119  1.00  0.00     0.020 A 
ATOM     79  C   UNL     1      -0.718  14.407  -2.171  1.00  0.00     0.054 A 
BRANCH  79  80
ATOM     80  S   UNL     1      -0.114  15.461  -0.820  1.00  0.00     0.124 S 
ATOM     81  O   UNL     1       1.052  14.725  -0.338  1.00  0.00    -0.237 OA
ATOM     82  O   UNL     1       0.179  16.719  -1.502  1.00  0.00    -0.237 OA
ATOM     83  O   UNL     1      -1.240  15.513   0.111  1.00  0.00    -0.744 OA
ENDBRANCH  79  80
ENDBRANCH  60  74
BRANCH  61  84
ATOM     84  C   UNL     1      -3.151   5.546 -11.513  1.00  0.00    -0.014 A 
ATOM     85  C   UNL     1      -2.619   4.230 -11.476  1.00  0.00     0.010 A 
ATOM     86  C   UNL     1      -4.538   5.699 -11.312  1.00  0.00     0.010 A 
ATOM     87  C   UNL     1      -3.344   3.192 -10.872  1.00  0.00     0.020 A 
ATOM     88  C   UNL     1      -5.273   4.652 -10.720  1.00  0.00     0.020 A 
ATOM     89  C   UNL     1      -4.641   3.438 -10.423  1.00  0.00     0.054 A 
BRANCH  89  90
ATOM     90  S   UNL     1      -5.351   2.300  -9.184  1.00  0.00     0.124 S 
ATOM     91  O   UNL     1      -5.707   1.138  -9.989  1.00  0.00    -0.237 OA
ATOM     92  O   UNL     1      -4.239   2.112  -8.251  1.00  0.00    -0.237 OA
ATOM     93  O   UNL     1      -6.470   3.060  -8.642  1.00  0.00    -0.744 OA
ENDBRANCH  89  90
ENDBRANCH  61  84
BRANCH  73  94
ATOM     94  C   UNL     1      -0.546  12.535 -10.918  1.00  0.00    -0.014 A 
ATOM     95  C   UNL     1      -0.853  12.797 -12.258  1.00  0.00     0.010 A 
ATOM     96  C   UNL     1      -0.260  13.662 -10.097  1.00  0.00     0.010 A 
ATOM     97  C   UNL     1      -0.850  14.104 -12.758  1.00  0.00     0.020 A 
ATOM     98  C   UNL     1      -0.303  14.973 -10.572  1.00  0.00     0.020 A 
ATOM     99  C   UNL     1      -0.585  15.183 -11.912  1.00  0.00     0.054 A 
BRANCH  99 100
ATOM    100  S   UNL     1      -0.678  16.859 -12.579  1.00  0.00     0.124 S 
ATOM    101  O   UNL     1       0.548  16.934 -13.369  1.00  0.00    -0.237 OA
ATOM    102  O   UNL     1      -1.919  16.826 -13.350  1.00  0.00    -0.237 OA
ATOM    103  O   UNL     1      -0.711  17.710 -11.393  1.00  0.00    -0.744 OA
ENDBRANCH  99 100
ENDBRANCH  73  94
ENDBRANCH  47  48
ENDBRANCH  40  42
ENDBRANCH  39  40
ENDBRANCH  38  39
ENDBRANCH  37  38
ENDBRANCH  36  37
ENDBRANCH  35  36
ENDBRANCH  34  35
ENDBRANCH   1  34
TORSDOF 26
