REMARK SMILES C=CCN(CC(=O)OCCOCCOCCOCCOC(=O)c1ccc(-c2c3nc(c(-c4ccc(S(=O)(=O)[O-])cc4)c4ccc([nH]4)c(-c4ccc(S(=O)(=O)[O-])cc4)c4nc(c(-c5ccc(S(=O)(=O)[O-])cc5)c5ccc2[nH]5)C=C4)C=C3)cc1)C(=O)N1CC[N@H+](C)C(C)(C)C1
REMARK SMILES IDX 14 1 13 2 12 3 11 4 10 5 9 6 8 7 6 8 7 9 5 10 4 11 3 12 2 13
REMARK SMILES IDX 1 14 83 15 84 16 85 17 86 18 93 19 87 20 90 21 88 22 91 23
REMARK SMILES IDX 92 24 89 25 15 27 16 28 17 29 18 30 19 31 20 32 21 33 22 34
REMARK SMILES IDX 23 35 24 36 82 37 25 38 81 39 26 40 27 41 28 42 75 43 29 44
REMARK SMILES IDX 80 45 74 46 76 47 30 48 79 49 73 50 72 51 31 53 61 54 42 55
REMARK SMILES IDX 60 56 43 57 46 58 59 59 77 60 44 61 45 62 58 64 78 65 47 66
REMARK SMILES IDX 32 67 33 68 41 69 34 70 40 71 35 72 36 73 37 74 38 75 39 76
REMARK SMILES IDX 62 77 63 78 71 79 64 80 70 81 65 82 66 83 67 84 68 85 69 86
REMARK SMILES IDX 48 87 49 88 57 89 50 90 56 91 51 92 52 93 53 94 54 95 55 96
REMARK H PARENT 88 26 76 52 46 63
REMARK Flexibility Score: inf
ROOT
ATOM      1  O   UNL     1      -4.031   0.114  -3.387  1.00  0.00    -0.377 OA
ENDROOT
BRANCH   1   2
ATOM      2  C   UNL     1      -4.093  -1.010  -2.526  1.00  0.00     0.188 C 
BRANCH   2   3
ATOM      3  C   UNL     1      -5.147  -2.097  -2.779  1.00  0.00     0.188 C 
BRANCH   3   4
ATOM      4  O   UNL     1      -6.400  -1.710  -2.218  1.00  0.00    -0.376 OA
BRANCH   4   5
ATOM      5  C   UNL     1      -6.711  -2.404  -1.007  1.00  0.00     0.202 C 
BRANCH   5   6
ATOM      6  C   UNL     1      -5.806  -2.057   0.191  1.00  0.00     0.261 C 
BRANCH   6   7
ATOM      7  O   UNL     1      -4.381  -2.262  -0.041  1.00  0.00    -0.462 OA
BRANCH   7   8
ATOM      8  C   UNL     1      -3.822  -3.465   0.229  1.00  0.00     0.325 C 
ATOM      9  O   UNL     1      -4.450  -4.411   0.692  1.00  0.00    -0.250 OA
BRANCH   8  10
ATOM     10  C   UNL     1      -2.293  -3.534  -0.053  1.00  0.00     0.244 C 
BRANCH  10  11
ATOM     11  N   UNL     1      -1.565  -2.485  -0.808  1.00  0.00    -0.310 N 
BRANCH  11  12
ATOM     12  C   UNL     1      -1.341  -1.221  -0.098  1.00  0.00     0.149 C 
BRANCH  12  13
ATOM     13  C   UNL     1       0.056  -1.194   0.468  1.00  0.00    -0.013 C 
ATOM     14  C   UNL     1       0.906  -0.170   0.300  1.00  0.00     0.006 C 
ENDBRANCH  12  13
ENDBRANCH  11  12
BRANCH  11  15
ATOM     15  C   UNL     1      -0.881  -2.630  -2.017  1.00  0.00     0.321 C 
ATOM     16  O   UNL     1      -0.078  -1.781  -2.414  1.00  0.00    -0.248 OA
BRANCH  15  17
ATOM     17  N   UNL     1      -1.085  -3.760  -2.789  1.00  0.00    -0.313 N 
ATOM     18  C   UNL     1      -0.075  -4.051  -3.811  1.00  0.00     0.183 C 
ATOM     19  C   UNL     1      -2.417  -4.180  -3.188  1.00  0.00     0.189 C 
ATOM     20  C   UNL     1      -0.150  -5.495  -4.346  1.00  0.00     0.284 C 
ATOM     21  C   UNL     1      -2.502  -5.657  -3.651  1.00  0.00     0.110 C 
ATOM     22  N   UNL     1      -1.501  -5.993  -4.707  1.00  0.00    -0.330 N 
ATOM     23  C   UNL     1      -2.245  -6.577  -2.435  1.00  0.00     0.080 C 
ATOM     24  C   UNL     1      -3.962  -5.909  -4.096  1.00  0.00     0.080 C 
ATOM     25  C   UNL     1      -1.866  -5.552  -6.055  1.00  0.00     0.333 C 
ATOM     26  H   UNL     1      -1.490  -7.013  -4.743  1.00  0.00     0.348 HD
ENDBRANCH  15  17
ENDBRANCH  11  15
ENDBRANCH  10  11
ENDBRANCH   8  10
ENDBRANCH   7   8
ENDBRANCH   6   7
ENDBRANCH   5   6
ENDBRANCH   4   5
ENDBRANCH   3   4
ENDBRANCH   2   3
ENDBRANCH   1   2
BRANCH   1  27
ATOM     27  C   UNL     1      -5.136   0.299  -4.235  1.00  0.00     0.188 C 
BRANCH  27  28
ATOM     28  C   UNL     1      -5.018  -0.407  -5.598  1.00  0.00     0.188 C 
BRANCH  28  29
ATOM     29  O   UNL     1      -3.978  -1.363  -5.815  1.00  0.00    -0.376 OA
BRANCH  29  30
ATOM     30  C   UNL     1      -2.611  -0.990  -5.633  1.00  0.00     0.202 C 
BRANCH  30  31
ATOM     31  C   UNL     1      -2.069   0.260  -6.331  1.00  0.00     0.261 C 
BRANCH  31  32
ATOM     32  O   UNL     1      -2.610   1.465  -5.772  1.00  0.00    -0.460 OA
BRANCH  32  33
ATOM     33  C   UNL     1      -3.332   2.236  -6.616  1.00  0.00     0.338 C 
ATOM     34  O   UNL     1      -3.506   2.061  -7.813  1.00  0.00    -0.246 OA
BRANCH  33  35
ATOM     35  C   UNL     1      -4.107   3.201  -5.815  1.00  0.00     0.060 A 
ATOM     36  C   UNL     1      -5.493   3.250  -6.030  1.00  0.00     0.016 A 
ATOM     37  C   UNL     1      -3.510   3.975  -4.815  1.00  0.00     0.016 A 
ATOM     38  C   UNL     1      -6.288   4.069  -5.237  1.00  0.00     0.010 A 
ATOM     39  C   UNL     1      -4.303   4.838  -4.056  1.00  0.00     0.010 A 
ATOM     40  C   UNL     1      -5.688   4.900  -4.282  1.00  0.00    -0.014 A 
BRANCH  40  41
ATOM     41  C   UNL     1      -6.488   6.010  -3.727  1.00  0.00     0.031 A 
ATOM     42  C   UNL     1      -6.555   7.272  -4.542  1.00  0.00     0.074 A 
ATOM     43  C   UNL     1      -7.165   5.884  -2.573  1.00  0.00     0.049 A 
ATOM     44  N   UNL     1      -7.231   8.366  -4.319  1.00  0.00    -0.248 NA
ATOM     45  C   UNL     1      -5.757   7.298  -5.784  1.00  0.00     0.031 C 
ATOM     46  C   UNL     1      -7.190   4.691  -1.726  1.00  0.00     0.029 A 
ATOM     47  N   UNL     1      -7.968   6.780  -1.915  1.00  0.00    -0.354 N 
ATOM     48  C   UNL     1      -6.947   9.203  -5.392  1.00  0.00     0.074 A 
ATOM     49  C   UNL     1      -6.026   8.505  -6.257  1.00  0.00     0.031 C 
ATOM     50  C   UNL     1      -7.961   4.936  -0.650  1.00  0.00     0.029 A 
ATOM     51  C   UNL     1      -8.468   6.304  -0.726  1.00  0.00     0.049 A 
ATOM     52  H   UNL     1      -8.168   7.679  -2.262  1.00  0.00     0.167 HD
ATOM     53  C   UNL     1      -7.415  10.447  -5.632  1.00  0.00     0.031 A 
ATOM     54  C   UNL     1      -9.236   6.920   0.196  1.00  0.00     0.031 A 
ATOM     55  C   UNL     1      -8.305  11.145  -4.748  1.00  0.00     0.049 A 
ATOM     56  C   UNL     1      -9.689   8.335  -0.068  1.00  0.00     0.074 A 
ATOM     57  C   UNL     1      -8.852  12.405  -4.899  1.00  0.00     0.029 A 
ATOM     58  N   UNL     1      -8.763  10.645  -3.539  1.00  0.00    -0.354 N 
ATOM     59  N   UNL     1      -9.462   9.093  -1.117  1.00  0.00    -0.248 NA
ATOM     60  C   UNL     1     -10.509   8.975   0.970  1.00  0.00     0.031 C 
ATOM     61  C   UNL     1      -9.596  12.691  -3.750  1.00  0.00     0.029 A 
ATOM     62  C   UNL     1      -9.561  11.584  -2.915  1.00  0.00     0.049 A 
ATOM     63  H   UNL     1      -8.551   9.753  -3.179  1.00  0.00     0.167 HD
ATOM     64  C   UNL     1     -10.133  10.287  -0.875  1.00  0.00     0.074 A 
ATOM     65  C   UNL     1     -10.791  10.143   0.408  1.00  0.00     0.031 C 
ATOM     66  C   UNL     1     -10.202  11.406  -1.639  1.00  0.00     0.031 A 
BRANCH  53  67
ATOM     67  C   UNL     1      -6.942  11.144  -6.876  1.00  0.00    -0.014 A 
ATOM     68  C   UNL     1      -7.425  10.775  -8.144  1.00  0.00     0.010 A 
ATOM     69  C   UNL     1      -6.042  12.219  -6.769  1.00  0.00     0.010 A 
ATOM     70  C   UNL     1      -7.011  11.467  -9.285  1.00  0.00     0.020 A 
ATOM     71  C   UNL     1      -5.641  12.926  -7.904  1.00  0.00     0.020 A 
ATOM     72  C   UNL     1      -6.126  12.543  -9.156  1.00  0.00     0.054 A 
BRANCH  72  73
ATOM     73  S   UNL     1      -5.662  13.470 -10.645  1.00  0.00     0.124 S 
ATOM     74  O   UNL     1      -4.779  12.526 -11.326  1.00  0.00    -0.237 OA
ATOM     75  O   UNL     1      -6.951  13.703 -11.291  1.00  0.00    -0.237 OA
ATOM     76  O   UNL     1      -5.008  14.666 -10.119  1.00  0.00    -0.744 OA
ENDBRANCH  72  73
ENDBRANCH  53  67
BRANCH  54  77
ATOM     77  C   UNL     1      -9.600   6.231   1.467  1.00  0.00    -0.014 A 
ATOM     78  C   UNL     1     -10.934   5.893   1.755  1.00  0.00     0.010 A 
ATOM     79  C   UNL     1      -8.607   5.955   2.425  1.00  0.00     0.010 A 
ATOM     80  C   UNL     1     -11.273   5.328   2.990  1.00  0.00     0.020 A 
ATOM     81  C   UNL     1      -8.937   5.364   3.649  1.00  0.00     0.020 A 
ATOM     82  C   UNL     1     -10.272   5.073   3.932  1.00  0.00     0.054 A 
BRANCH  82  83
ATOM     83  S   UNL     1     -10.728   4.330   5.524  1.00  0.00     0.124 S 
ATOM     84  O   UNL     1     -11.330   5.460   6.224  1.00  0.00    -0.237 OA
ATOM     85  O   UNL     1     -11.648   3.267   5.126  1.00  0.00    -0.237 OA
ATOM     86  O   UNL     1      -9.451   3.866   6.061  1.00  0.00    -0.744 OA
ENDBRANCH  82  83
ENDBRANCH  54  77
BRANCH  66  87
ATOM     87  C   UNL     1     -11.040  12.543  -1.122  1.00  0.00    -0.014 A 
ATOM     88  C   UNL     1     -10.612  13.328  -0.037  1.00  0.00     0.010 A 
ATOM     89  C   UNL     1     -12.248  12.862  -1.769  1.00  0.00     0.010 A 
ATOM     90  C   UNL     1     -11.399  14.389   0.417  1.00  0.00     0.020 A 
ATOM     91  C   UNL     1     -13.022  13.940  -1.337  1.00  0.00     0.020 A 
ATOM     92  C   UNL     1     -12.600  14.686  -0.234  1.00  0.00     0.054 A 
BRANCH  92  93
ATOM     93  S   UNL     1     -13.591  16.085   0.355  1.00  0.00     0.124 S 
ATOM     94  O   UNL     1     -14.190  15.541   1.571  1.00  0.00    -0.237 OA
ATOM     95  O   UNL     1     -12.586  17.126   0.561  1.00  0.00    -0.237 OA
ATOM     96  O   UNL     1     -14.523  16.336  -0.741  1.00  0.00    -0.744 OA
ENDBRANCH  92  93
ENDBRANCH  66  87
ENDBRANCH  40  41
ENDBRANCH  33  35
ENDBRANCH  32  33
ENDBRANCH  31  32
ENDBRANCH  30  31
ENDBRANCH  29  30
ENDBRANCH  28  29
ENDBRANCH  27  28
ENDBRANCH   1  27
TORSDOF 28
