REMARK SMILES C[C@H](NC(=O)N1CCN(/C=C/c2ccccc2)CC1)C(=O)OCCOCCOCCOCCOC(=O)c1ccc(-c2c3nc(c(-c4ccc(S(=O)(=O)[O-])cc4)c4ccc([nH]4)c(-c4ccc(S(=O)(=O)[O-])cc4)c4nc(c(-c5ccc(S(=O)(=O)[O-])cc5)c5ccc2[nH]5)C=C4)C=C3)cc1
REMARK SMILES IDX 28 1 27 2 26 3 25 4 24 5 23 6 22 7 20 8 21 9 2 10 1 11 3 12
REMARK SMILES IDX 4 13 5 15 6 16 7 17 19 18 8 19 18 20 9 21 10 22 11 23 12 24
REMARK SMILES IDX 13 25 17 26 14 27 16 28 15 29 29 30 30 31 31 32 32 33 33 34
REMARK SMILES IDX 34 35 35 36 36 37 37 38 38 39 96 40 39 41 95 42 40 43 41 44
REMARK SMILES IDX 42 45 89 46 43 47 94 48 88 49 90 50 44 51 93 52 87 53 86 54
REMARK SMILES IDX 45 56 75 57 56 58 74 59 57 60 60 61 73 62 91 63 58 64 59 65
REMARK SMILES IDX 72 67 92 68 61 69 46 70 47 71 55 72 48 73 54 74 49 75 50 76
REMARK SMILES IDX 51 77 52 78 53 79 76 80 77 81 85 82 78 83 84 84 79 85 80 86
REMARK SMILES IDX 81 87 82 88 83 89 62 90 63 91 71 92 64 93 70 94 65 95 66 96
REMARK SMILES IDX 67 97 68 98 69 99
REMARK H PARENT 3 14 90 55 60 66
REMARK Flexibility Score: inf
ROOT
ATOM      1  O   UNL     1      -2.427   1.041   0.143  1.00  0.00    -0.377 OA
ENDROOT
BRANCH   1   2
ATOM      2  C   UNL     1      -1.606   0.445  -0.837  1.00  0.00     0.188 C 
BRANCH   2   3
ATOM      3  C   UNL     1      -2.162  -0.883  -1.390  1.00  0.00     0.188 C 
BRANCH   3   4
ATOM      4  O   UNL     1      -3.451  -1.351  -1.032  1.00  0.00    -0.376 OA
BRANCH   4   5
ATOM      5  C   UNL     1      -3.887  -1.263   0.316  1.00  0.00     0.202 C 
BRANCH   5   6
ATOM      6  C   UNL     1      -2.949  -1.556   1.506  1.00  0.00     0.261 C 
BRANCH   6   7
ATOM      7  O   UNL     1      -1.539  -1.370   1.284  1.00  0.00    -0.462 OA
BRANCH   7   8
ATOM      8  C   UNL     1      -0.790  -2.493   1.187  1.00  0.00     0.328 C 
ATOM      9  O   UNL     1      -1.223  -3.631   1.337  1.00  0.00    -0.250 OA
BRANCH   8  10
ATOM     10  C   UNL     1       0.708  -2.217   0.950  1.00  0.00     0.190 C 
ATOM     11  C   UNL     1       1.423  -2.454   2.276  1.00  0.00     0.043 C 
BRANCH  10  12
ATOM     12  N   UNL     1       1.173  -0.928   0.418  1.00  0.00    -0.325 N 
ATOM     13  C   UNL     1       2.020  -0.743  -0.638  1.00  0.00     0.318 C 
ATOM     14  H   UNL     1       0.842  -0.117   0.869  1.00  0.00     0.166 HD
ATOM     15  O   UNL     1       2.767   0.228  -0.682  1.00  0.00    -0.249 OA
ATOM     16  N   UNL     1       1.995  -1.695  -1.608  1.00  0.00    -0.321 N 
ATOM     17  C   UNL     1       3.112  -2.579  -1.869  1.00  0.00     0.143 C 
ATOM     18  C   UNL     1       0.932  -1.791  -2.592  1.00  0.00     0.143 C 
ATOM     19  C   UNL     1       2.610  -4.036  -1.874  1.00  0.00     0.137 C 
ATOM     20  C   UNL     1       0.350  -3.209  -2.603  1.00  0.00     0.137 C 
ATOM     21  N   UNL     1       1.427  -4.220  -2.760  1.00  0.00    -0.374 N 
BRANCH  21  22
ATOM     22  C   UNL     1       1.212  -5.351  -3.526  1.00  0.00     0.081 C 
ATOM     23  C   UNL     1       2.016  -6.405  -3.708  1.00  0.00     0.025 C 
BRANCH  23  24
ATOM     24  C   UNL     1       1.732  -7.503  -4.635  1.00  0.00    -0.024 A 
ATOM     25  C   UNL     1       2.173  -8.790  -4.310  1.00  0.00     0.008 A 
ATOM     26  C   UNL     1       1.138  -7.280  -5.884  1.00  0.00     0.008 A 
ATOM     27  C   UNL     1       2.020  -9.838  -5.217  1.00  0.00     0.001 A 
ATOM     28  C   UNL     1       0.984  -8.329  -6.791  1.00  0.00     0.001 A 
ATOM     29  C   UNL     1       1.429  -9.606  -6.458  1.00  0.00     0.000 A 
ENDBRANCH  23  24
ENDBRANCH  21  22
ENDBRANCH  10  12
ENDBRANCH   8  10
ENDBRANCH   7   8
ENDBRANCH   6   7
ENDBRANCH   5   6
ENDBRANCH   4   5
ENDBRANCH   3   4
ENDBRANCH   2   3
ENDBRANCH   1   2
BRANCH   1  30
ATOM     30  C   UNL     1      -3.294   2.060  -0.330  1.00  0.00     0.188 C 
BRANCH  30  31
ATOM     31  C   UNL     1      -3.986   1.835  -1.691  1.00  0.00     0.188 C 
BRANCH  31  32
ATOM     32  O   UNL     1      -3.098   1.498  -2.755  1.00  0.00    -0.376 OA
BRANCH  32  33
ATOM     33  C   UNL     1      -2.687   2.519  -3.654  1.00  0.00     0.202 C 
BRANCH  33  34
ATOM     34  C   UNL     1      -1.731   3.598  -3.114  1.00  0.00     0.261 C 
BRANCH  34  35
ATOM     35  O   UNL     1      -2.192   4.344  -1.978  1.00  0.00    -0.460 OA
BRANCH  35  36
ATOM     36  C   UNL     1      -3.342   5.036  -2.119  1.00  0.00     0.338 C 
ATOM     37  O   UNL     1      -3.998   5.156  -3.141  1.00  0.00    -0.246 OA
BRANCH  36  38
ATOM     38  C   UNL     1      -3.809   5.438  -0.775  1.00  0.00     0.060 A 
ATOM     39  C   UNL     1      -5.088   5.035  -0.371  1.00  0.00     0.016 A 
ATOM     40  C   UNL     1      -3.002   6.188   0.086  1.00  0.00     0.016 A 
ATOM     41  C   UNL     1      -5.583   5.423   0.871  1.00  0.00     0.010 A 
ATOM     42  C   UNL     1      -3.510   6.599   1.324  1.00  0.00     0.010 A 
ATOM     43  C   UNL     1      -4.820   6.254   1.701  1.00  0.00    -0.014 A 
BRANCH  43  44
ATOM     44  C   UNL     1      -5.493   6.914   2.847  1.00  0.00     0.031 A 
ATOM     45  C   UNL     1      -5.993   8.324   2.667  1.00  0.00     0.074 A 
ATOM     46  C   UNL     1      -5.748   6.245   3.986  1.00  0.00     0.049 A 
ATOM     47  N   UNL     1      -6.676   9.073   3.494  1.00  0.00    -0.248 NA
ATOM     48  C   UNL     1      -5.689   8.972   1.380  1.00  0.00     0.031 C 
ATOM     49  C   UNL     1      -5.351   4.865   4.264  1.00  0.00     0.029 A 
ATOM     50  N   UNL     1      -6.416   6.639   5.118  1.00  0.00    -0.354 N 
ATOM     51  C   UNL     1      -6.892  10.272   2.824  1.00  0.00     0.074 A 
ATOM     52  C   UNL     1      -6.227  10.171   1.544  1.00  0.00     0.031 C 
ATOM     53  C   UNL     1      -5.785   4.527   5.492  1.00  0.00     0.029 A 
ATOM     54  C   UNL     1      -6.466   5.672   6.094  1.00  0.00     0.049 A 
ATOM     55  H   UNL     1      -6.821   7.530   5.222  1.00  0.00     0.167 HD
ATOM     56  C   UNL     1      -7.597  11.356   3.228  1.00  0.00     0.031 A 
ATOM     57  C   UNL     1      -6.991   5.711   7.335  1.00  0.00     0.031 A 
ATOM     58  C   UNL     1      -8.238  11.466   4.512  1.00  0.00     0.049 A 
ATOM     59  C   UNL     1      -7.704   6.958   7.794  1.00  0.00     0.074 A 
ATOM     60  C   UNL     1      -8.967  12.527   5.021  1.00  0.00     0.029 A 
ATOM     61  N   UNL     1      -8.223  10.485   5.491  1.00  0.00    -0.354 N 
ATOM     62  N   UNL     1      -7.918   8.076   7.140  1.00  0.00    -0.248 NA
ATOM     63  C   UNL     1      -8.263   6.940   9.152  1.00  0.00     0.031 C 
ATOM     64  C   UNL     1      -9.341  12.210   6.332  1.00  0.00     0.029 A 
ATOM     65  C   UNL     1      -8.909  10.923   6.612  1.00  0.00     0.049 A 
ATOM     66  H   UNL     1      -7.789   9.606   5.404  1.00  0.00     0.167 HD
ATOM     67  C   UNL     1      -8.657   8.884   8.000  1.00  0.00     0.074 A 
ATOM     68  C   UNL     1      -8.878   8.113   9.206  1.00  0.00     0.031 C 
ATOM     69  C   UNL     1      -9.110  10.150   7.812  1.00  0.00     0.031 A 
BRANCH  56  70
ATOM     70  C   UNL     1      -7.690  12.520   2.275  1.00  0.00    -0.014 A 
ATOM     71  C   UNL     1      -8.447  12.432   1.092  1.00  0.00     0.010 A 
ATOM     72  C   UNL     1      -7.048  13.732   2.586  1.00  0.00     0.010 A 
ATOM     73  C   UNL     1      -8.535  13.523   0.224  1.00  0.00     0.020 A 
ATOM     74  C   UNL     1      -7.158  14.836   1.735  1.00  0.00     0.020 A 
ATOM     75  C   UNL     1      -7.891  14.720   0.553  1.00  0.00     0.054 A 
BRANCH  75  76
ATOM     76  S   UNL     1      -8.055  16.131  -0.575  1.00  0.00     0.124 S 
ATOM     77  O   UNL     1      -7.266  15.693  -1.724  1.00  0.00    -0.237 OA
ATOM     78  O   UNL     1      -9.498  16.198  -0.793  1.00  0.00    -0.237 OA
ATOM     79  O   UNL     1      -7.489  17.247   0.179  1.00  0.00    -0.744 OA
ENDBRANCH  75  76
ENDBRANCH  56  70
BRANCH  57  80
ATOM     80  C   UNL     1      -6.837   4.543   8.248  1.00  0.00    -0.014 A 
ATOM     81  C   UNL     1      -7.948   3.791   8.669  1.00  0.00     0.010 A 
ATOM     82  C   UNL     1      -5.558   4.189   8.719  1.00  0.00     0.010 A 
ATOM     83  C   UNL     1      -7.786   2.726   9.563  1.00  0.00     0.020 A 
ATOM     84  C   UNL     1      -5.388   3.105   9.583  1.00  0.00     0.020 A 
ATOM     85  C   UNL     1      -6.506   2.388  10.011  1.00  0.00     0.054 A 
BRANCH  85  86
ATOM     86  S   UNL     1      -6.314   0.978  11.136  1.00  0.00     0.124 S 
ATOM     87  O   UNL     1      -6.874   1.500  12.378  1.00  0.00    -0.237 OA
ATOM     88  O   UNL     1      -7.099  -0.061  10.473  1.00  0.00    -0.237 OA
ATOM     89  O   UNL     1      -4.871   0.744  11.148  1.00  0.00    -0.744 OA
ENDBRANCH  85  86
ENDBRANCH  57  80
BRANCH  69  90
ATOM     90  C   UNL     1      -9.918  10.767   8.927  1.00  0.00    -0.014 A 
ATOM     91  C   UNL     1      -9.330  11.100  10.161  1.00  0.00     0.010 A 
ATOM     92  C   UNL     1     -11.286  11.032   8.729  1.00  0.00     0.010 A 
ATOM     93  C   UNL     1     -10.108  11.627  11.196  1.00  0.00     0.020 A 
ATOM     94  C   UNL     1     -12.059  11.593   9.749  1.00  0.00     0.020 A 
ATOM     95  C   UNL     1     -11.470  11.864  10.985  1.00  0.00     0.054 A 
BRANCH  95  96
ATOM     96  S   UNL     1     -12.458  12.546  12.344  1.00  0.00     0.124 S 
ATOM     97  O   UNL     1     -12.556  11.404  13.250  1.00  0.00    -0.237 OA
ATOM     98  O   UNL     1     -11.632  13.654  12.816  1.00  0.00    -0.237 OA
ATOM     99  O   UNL     1     -13.710  12.939  11.701  1.00  0.00    -0.744 OA
ENDBRANCH  95  96
ENDBRANCH  69  90
ENDBRANCH  43  44
ENDBRANCH  36  38
ENDBRANCH  35  36
ENDBRANCH  34  35
ENDBRANCH  33  34
ENDBRANCH  32  33
ENDBRANCH  31  32
ENDBRANCH  30  31
ENDBRANCH   1  30
TORSDOF 26
