REMARK SMILES O=C(CSc1csc(C(=O)OCCOCCOCCOCCOC(=O)c2ccc(-c3c4nc(c(-c5ccc(S(=O)(=O)[O-])cc5)c5ccc([nH]5)c(-c5ccc(S(=O)(=O)[O-])cc5)c5nc(c(-c6ccc(S(=O)(=O)[O-])cc6)c6ccc3[nH]6)C=C5)C=C4)cc2)c1)NC(=O)c1ccc[nH]1
REMARK SMILES IDX 16 1 15 2 14 3 13 4 12 5 11 6 9 7 10 8 8 9 5 10 6 11 86 12
REMARK SMILES IDX 7 13 4 14 3 15 2 16 1 17 87 18 88 19 89 21 90 22 91 23 94 24
REMARK SMILES IDX 92 25 93 26 17 28 18 29 19 30 20 31 21 32 22 33 23 34 24 35
REMARK SMILES IDX 25 36 26 37 27 38 85 39 28 40 84 41 29 42 30 43 31 44 78 45
REMARK SMILES IDX 32 46 83 47 77 48 79 49 33 50 82 51 76 52 75 53 34 55 64 56
REMARK SMILES IDX 45 57 63 58 46 59 49 60 62 61 80 62 47 63 48 64 61 66 81 67
REMARK SMILES IDX 50 68 35 69 36 70 44 71 37 72 43 73 38 74 39 75 40 76 41 77
REMARK SMILES IDX 42 78 65 79 66 80 74 81 67 82 73 83 68 84 69 85 70 86 71 87
REMARK SMILES IDX 72 88 51 89 52 90 60 91 53 92 59 93 54 94 55 95 56 96 57 97
REMARK SMILES IDX 58 98
REMARK H PARENT 87 20 94 27 79 54 49 65
REMARK Flexibility Score: inf
ROOT
ATOM      1  C   UNL     1       0.949  -6.595  -1.731  1.00  0.00     0.188 C 
ENDROOT
BRANCH   1   2
ATOM      2  C   UNL     1       0.785  -6.996  -3.206  1.00  0.00     0.188 C 
BRANCH   2   3
ATOM      3  O   UNL     1       1.269  -8.307  -3.492  1.00  0.00    -0.376 OA
BRANCH   3   4
ATOM      4  C   UNL     1       2.534  -8.391  -4.138  1.00  0.00     0.202 C 
BRANCH   4   5
ATOM      5  C   UNL     1       3.759  -8.034  -3.280  1.00  0.00     0.261 C 
BRANCH   5   6
ATOM      6  O   UNL     1       3.822  -6.673  -2.815  1.00  0.00    -0.459 OA
BRANCH   6   7
ATOM      7  C   UNL     1       3.827  -5.688  -3.748  1.00  0.00     0.348 C 
ATOM      8  O   UNL     1       3.857  -5.874  -4.959  1.00  0.00    -0.245 OA
BRANCH   7   9
ATOM      9  C   UNL     1       3.674  -4.410  -3.086  1.00  0.00     0.113 A 
ATOM     10  C   UNL     1       3.843  -2.612  -1.607  1.00  0.00     0.019 A 
ATOM     11  C   UNL     1       2.987  -2.104  -2.556  1.00  0.00     0.080 A 
ATOM     12  C   UNL     1       4.197  -3.966  -1.882  1.00  0.00     0.042 A 
ATOM     13  S   UNL     1       2.684  -3.218  -3.817  1.00  0.00    -0.136 S 
BRANCH  10  14
ATOM     14  S   UNL     1       4.569  -1.696  -0.293  1.00  0.00    -0.115 SA
BRANCH  14  15
ATOM     15  C   UNL     1       3.162  -1.233   0.749  1.00  0.00     0.175 C 
BRANCH  15  16
ATOM     16  C   UNL     1       2.178  -0.327   0.035  1.00  0.00     0.237 C 
ATOM     17  O   UNL     1       0.984  -0.606   0.009  1.00  0.00    -0.274 OA
ATOM     18  N   UNL     1       2.749   0.826  -0.490  1.00  0.00    -0.290 N 
ATOM     19  C   UNL     1       2.223   1.679  -1.442  1.00  0.00     0.274 C 
ATOM     20  H   UNL     1       3.639   1.065  -0.141  1.00  0.00     0.173 HD
ATOM     21  O   UNL     1       2.990   2.148  -2.284  1.00  0.00    -0.267 OA
BRANCH  19  22
ATOM     22  C   UNL     1       0.803   1.932  -1.482  1.00  0.00     0.104 A 
ATOM     23  C   UNL     1      -0.142   2.025  -0.473  1.00  0.00     0.033 A 
ATOM     24  N   UNL     1       0.137   2.181  -2.664  1.00  0.00    -0.357 N 
ATOM     25  C   UNL     1      -1.404   2.256  -1.070  1.00  0.00     0.020 A 
ATOM     26  C   UNL     1      -1.204   2.334  -2.429  1.00  0.00     0.083 A 
ATOM     27  H   UNL     1       0.563   2.241  -3.549  1.00  0.00     0.166 HD
ENDBRANCH  19  22
ENDBRANCH  15  16
ENDBRANCH  14  15
ENDBRANCH  10  14
ENDBRANCH   7   9
ENDBRANCH   6   7
ENDBRANCH   5   6
ENDBRANCH   4   5
ENDBRANCH   3   4
ENDBRANCH   2   3
ENDBRANCH   1   2
BRANCH   1  28
ATOM     28  O   UNL     1       1.676  -7.542  -0.967  1.00  0.00    -0.377 OA
BRANCH  28  29
ATOM     29  C   UNL     1       1.002  -8.719  -0.523  1.00  0.00     0.188 C 
BRANCH  29  30
ATOM     30  C   UNL     1      -0.315  -9.200  -1.169  1.00  0.00     0.188 C 
BRANCH  30  31
ATOM     31  O   UNL     1      -1.296  -8.176  -1.332  1.00  0.00    -0.376 OA
BRANCH  31  32
ATOM     32  C   UNL     1      -2.415  -8.232  -0.454  1.00  0.00     0.202 C 
BRANCH  32  33
ATOM     33  C   UNL     1      -2.118  -7.659   0.937  1.00  0.00     0.261 C 
BRANCH  33  34
ATOM     34  O   UNL     1      -1.186  -8.432   1.709  1.00  0.00    -0.460 OA
BRANCH  34  35
ATOM     35  C   UNL     1      -1.547  -9.703   1.995  1.00  0.00     0.338 C 
ATOM     36  O   UNL     1      -2.608 -10.241   1.734  1.00  0.00    -0.246 OA
BRANCH  35  37
ATOM     37  C   UNL     1      -0.364 -10.407   2.522  1.00  0.00     0.060 A 
ATOM     38  C   UNL     1       0.023 -11.607   1.915  1.00  0.00     0.016 A 
ATOM     39  C   UNL     1       0.348  -9.895   3.610  1.00  0.00     0.016 A 
ATOM     40  C   UNL     1       1.101 -12.326   2.430  1.00  0.00     0.010 A 
ATOM     41  C   UNL     1       1.421 -10.622   4.131  1.00  0.00     0.010 A 
ATOM     42  C   UNL     1       1.778 -11.857   3.565  1.00  0.00    -0.014 A 
BRANCH  42  43
ATOM     43  C   UNL     1       2.748 -12.741   4.251  1.00  0.00     0.031 A 
ATOM     44  C   UNL     1       2.269 -13.580   5.404  1.00  0.00     0.074 A 
ATOM     45  C   UNL     1       4.025 -12.821   3.840  1.00  0.00     0.049 A 
ATOM     46  N   UNL     1       2.922 -14.466   6.111  1.00  0.00    -0.248 NA
ATOM     47  C   UNL     1       0.867 -13.395   5.814  1.00  0.00     0.031 C 
ATOM     48  C   UNL     1       4.607 -12.068   2.730  1.00  0.00     0.029 A 
ATOM     49  N   UNL     1       5.064 -13.580   4.315  1.00  0.00    -0.354 N 
ATOM     50  C   UNL     1       2.011 -14.950   7.041  1.00  0.00     0.074 A 
ATOM     51  C   UNL     1       0.771 -14.233   6.835  1.00  0.00     0.031 C 
ATOM     52  C   UNL     1       5.903 -12.405   2.608  1.00  0.00     0.029 A 
ATOM     53  C   UNL     1       6.244 -13.383   3.640  1.00  0.00     0.049 A 
ATOM     54  H   UNL     1       4.973 -14.207   5.068  1.00  0.00     0.167 HD
ATOM     55  C   UNL     1       2.185 -15.912   7.978  1.00  0.00     0.031 A 
ATOM     56  C   UNL     1       7.461 -13.929   3.834  1.00  0.00     0.031 A 
ATOM     57  C   UNL     1       3.424 -16.605   8.204  1.00  0.00     0.049 A 
ATOM     58  C   UNL     1       7.646 -14.957   4.919  1.00  0.00     0.074 A 
ATOM     59  C   UNL     1       3.695 -17.611   9.115  1.00  0.00     0.029 A 
ATOM     60  N   UNL     1       4.606 -16.352   7.524  1.00  0.00    -0.354 N 
ATOM     61  N   UNL     1       6.760 -15.445   5.755  1.00  0.00    -0.248 NA
ATOM     62  C   UNL     1       8.996 -15.518   5.076  1.00  0.00     0.031 C 
ATOM     63  C   UNL     1       5.055 -17.930   9.021  1.00  0.00     0.029 A 
ATOM     64  C   UNL     1       5.617 -17.160   8.015  1.00  0.00     0.049 A 
ATOM     65  H   UNL     1       4.710 -15.694   6.799  1.00  0.00     0.167 HD
ATOM     66  C   UNL     1       7.440 -16.384   6.524  1.00  0.00     0.074 A 
ATOM     67  C   UNL     1       8.806 -16.407   6.042  1.00  0.00     0.031 C 
ATOM     68  C   UNL     1       6.977 -17.158   7.537  1.00  0.00     0.031 A 
BRANCH  55  69
ATOM     69  C   UNL     1       1.003 -16.245   8.847  1.00  0.00    -0.014 A 
ATOM     70  C   UNL     1      -0.100 -16.951   8.333  1.00  0.00     0.010 A 
ATOM     71  C   UNL     1       1.000 -15.855  10.198  1.00  0.00     0.010 A 
ATOM     72  C   UNL     1      -1.204 -17.224   9.145  1.00  0.00     0.020 A 
ATOM     73  C   UNL     1      -0.093 -16.148  11.019  1.00  0.00     0.020 A 
ATOM     74  C   UNL     1      -1.196 -16.814  10.481  1.00  0.00     0.054 A 
BRANCH  74  75
ATOM     75  S   UNL     1      -2.639 -17.185  11.516  1.00  0.00     0.124 S 
ATOM     76  O   UNL     1      -3.615 -16.211  11.031  1.00  0.00    -0.237 OA
ATOM     77  O   UNL     1      -2.925 -18.578  11.183  1.00  0.00    -0.237 OA
ATOM     78  O   UNL     1      -2.158 -16.959  12.876  1.00  0.00    -0.744 OA
ENDBRANCH  74  75
ENDBRANCH  55  69
BRANCH  56  79
ATOM     79  C   UNL     1       8.604 -13.512   2.979  1.00  0.00    -0.014 A 
ATOM     80  C   UNL     1       9.132 -14.383   2.011  1.00  0.00     0.010 A 
ATOM     81  C   UNL     1       9.164 -12.230   3.126  1.00  0.00     0.010 A 
ATOM     82  C   UNL     1      10.207 -13.984   1.212  1.00  0.00     0.020 A 
ATOM     83  C   UNL     1      10.223 -11.818   2.313  1.00  0.00     0.020 A 
ATOM     84  C   UNL     1      10.744 -12.702   1.365  1.00  0.00     0.054 A 
BRANCH  84  85
ATOM     85  S   UNL     1      12.095 -12.179   0.272  1.00  0.00     0.124 S 
ATOM     86  O   UNL     1      13.236 -12.892   0.837  1.00  0.00    -0.237 OA
ATOM     87  O   UNL     1      11.641 -12.643  -1.036  1.00  0.00    -0.237 OA
ATOM     88  O   UNL     1      12.119 -10.726   0.433  1.00  0.00    -0.744 OA
ENDBRANCH  84  85
ENDBRANCH  56  79
BRANCH  68  89
ATOM     89  C   UNL     1       7.954 -18.105   8.183  1.00  0.00    -0.014 A 
ATOM     90  C   UNL     1       8.976 -17.632   9.026  1.00  0.00     0.010 A 
ATOM     91  C   UNL     1       7.830 -19.490   7.967  1.00  0.00     0.010 A 
ATOM     92  C   UNL     1       9.882 -18.523   9.607  1.00  0.00     0.020 A 
ATOM     93  C   UNL     1       8.718 -20.386   8.567  1.00  0.00     0.020 A 
ATOM     94  C   UNL     1       9.751 -19.895   9.368  1.00  0.00     0.054 A 
BRANCH  94  95
ATOM     95  S   UNL     1      10.928 -21.036  10.145  1.00  0.00     0.124 S 
ATOM     96  O   UNL     1      12.113 -20.864   9.309  1.00  0.00    -0.237 OA
ATOM     97  O   UNL     1      11.038 -20.512  11.505  1.00  0.00    -0.237 OA
ATOM     98  O   UNL     1      10.271 -22.336  10.037  1.00  0.00    -0.744 OA
ENDBRANCH  94  95
ENDBRANCH  68  89
ENDBRANCH  42  43
ENDBRANCH  35  37
ENDBRANCH  34  35
ENDBRANCH  33  34
ENDBRANCH  32  33
ENDBRANCH  31  32
ENDBRANCH  30  31
ENDBRANCH  29  30
ENDBRANCH  28  29
ENDBRANCH   1  28
TORSDOF 27
