REMARK SMILES CS(=O)(=O)c1ccc(C2=NN(c3ccc(C(=O)OCCOCCOCCOCCOC(=O)c4ccc(-c5c6nc(c(-c7ccc(S(=O)(=O)[O-])cc7)c7ccc([nH]7)c(-c7ccc(S(=O)(=O)[O-])cc7)c7nc(c(-c8ccc(S(=O)(=O)[O-])cc8)c8ccc5[nH]8)C=C7)C=C6)cc4)cc3)[C@H](c3ccccc3)C2)cc1
REMARK SMILES IDX 24 1 23 2 22 3 21 4 20 5 19 6 18 7 16 8 17 9 15 10 12 11
REMARK SMILES IDX 13 12 94 13 14 14 93 15 11 16 9 17 10 18 102 19 95 20 8 21
REMARK SMILES IDX 5 22 6 23 104 24 7 25 103 26 2 27 1 28 3 29 4 30 96 31 97 32
REMARK SMILES IDX 101 33 98 34 100 35 99 36 25 37 26 38 27 39 28 40 29 41
REMARK SMILES IDX 30 42 31 43 32 44 33 45 34 46 92 47 35 48 91 49 36 50 37 51
REMARK SMILES IDX 38 52 85 53 39 54 90 55 84 56 86 57 40 58 89 59 83 60 82 61
REMARK SMILES IDX 41 63 71 64 52 65 70 66 53 67 56 68 69 69 87 70 54 71 55 72
REMARK SMILES IDX 68 74 88 75 57 76 42 77 43 78 51 79 44 80 50 81 45 82 46 83
REMARK SMILES IDX 47 84 48 85 49 86 72 87 73 88 81 89 74 90 80 91 75 92 76 93
REMARK SMILES IDX 77 94 78 95 79 96 58 97 59 98 67 99 60 100 66 101 61 102
REMARK SMILES IDX 62 103 63 104 64 105 65 106
REMARK H PARENT 86 62 56 73
REMARK Flexibility Score: inf
ROOT
ATOM      1  O   UNL     1       1.377 -13.348  -3.942  1.00  0.00    -0.377 OA
ENDROOT
BRANCH   1   2
ATOM      2  C   UNL     1       2.024 -12.115  -4.202  1.00  0.00     0.188 C 
BRANCH   2   3
ATOM      3  C   UNL     1       3.423 -12.208  -4.843  1.00  0.00     0.188 C 
BRANCH   3   4
ATOM      4  O   UNL     1       3.686 -13.451  -5.466  1.00  0.00    -0.376 OA
BRANCH   4   5
ATOM      5  C   UNL     1       4.400 -14.474  -4.797  1.00  0.00     0.202 C 
BRANCH   5   6
ATOM      6  C   UNL     1       4.204 -14.823  -3.311  1.00  0.00     0.261 C 
BRANCH   6   7
ATOM      7  O   UNL     1       3.786 -13.771  -2.445  1.00  0.00    -0.460 OA
BRANCH   7   8
ATOM      8  C   UNL     1       4.721 -12.898  -2.022  1.00  0.00     0.338 C 
ATOM      9  O   UNL     1       5.912 -12.918  -2.282  1.00  0.00    -0.246 OA
BRANCH   8  10
ATOM     10  C   UNL     1       4.028 -11.779  -1.334  1.00  0.00     0.060 A 
ATOM     11  C   UNL     1       2.854  -9.636   0.044  1.00  0.00     0.060 A 
ATOM     12  C   UNL     1       3.963  -9.420  -0.784  1.00  0.00     0.029 A 
ATOM     13  C   UNL     1       2.255 -10.903   0.052  1.00  0.00     0.029 A 
ATOM     14  C   UNL     1       4.555 -10.488  -1.464  1.00  0.00     0.018 A 
ATOM     15  C   UNL     1       2.846 -11.978  -0.614  1.00  0.00     0.018 A 
BRANCH  11  16
ATOM     16  N   UNL     1       2.452  -8.682   0.990  1.00  0.00    -0.257 N 
ATOM     17  C   UNL     1       2.335  -6.614   1.509  1.00  0.00     0.071 C 
ATOM     18  N   UNL     1       2.047  -7.452   0.563  1.00  0.00    -0.176 NA
ATOM     19  C   UNL     1       3.112  -7.168   2.669  1.00  0.00     0.091 C 
ATOM     20  C   UNL     1       3.210  -8.644   2.262  1.00  0.00     0.144 C 
BRANCH  17  21
ATOM     21  C   UNL     1       1.899  -5.206   1.488  1.00  0.00    -0.002 A 
ATOM     22  C   UNL     1       0.959  -2.586   1.516  1.00  0.00     0.067 A 
ATOM     23  C   UNL     1       0.099  -3.621   1.141  1.00  0.00     0.021 A 
ATOM     24  C   UNL     1       2.283  -2.852   1.885  1.00  0.00     0.021 A 
ATOM     25  C   UNL     1       0.578  -4.932   1.113  1.00  0.00     0.011 A 
ATOM     26  C   UNL     1       2.754  -4.170   1.874  1.00  0.00     0.011 A 
BRANCH  22  27
ATOM     27  S   UNL     1       0.349  -0.916   1.597  1.00  0.00     0.175 S 
ATOM     28  C   UNL     1       0.942  -0.179   0.097  1.00  0.00     0.163 C 
ATOM     29  O   UNL     1       1.016  -0.271   2.712  1.00  0.00    -0.224 OA
ATOM     30  O   UNL     1      -1.098  -0.967   1.527  1.00  0.00    -0.224 OA
ENDBRANCH  22  27
ENDBRANCH  17  21
BRANCH  20  31
ATOM     31  C   UNL     1       2.721  -9.702   3.247  1.00  0.00    -0.023 A 
ATOM     32  C   UNL     1       1.841  -9.447   4.308  1.00  0.00     0.006 A 
ATOM     33  C   UNL     1       3.137 -11.038   3.061  1.00  0.00     0.006 A 
ATOM     34  C   UNL     1       1.375 -10.487   5.122  1.00  0.00     0.000 A 
ATOM     35  C   UNL     1       2.628 -12.082   3.834  1.00  0.00     0.000 A 
ATOM     36  C   UNL     1       1.747 -11.805   4.869  1.00  0.00     0.000 A 
ENDBRANCH  20  31
ENDBRANCH  11  16
ENDBRANCH   8  10
ENDBRANCH   7   8
ENDBRANCH   6   7
ENDBRANCH   5   6
ENDBRANCH   4   5
ENDBRANCH   3   4
ENDBRANCH   2   3
ENDBRANCH   1   2
BRANCH   1  37
ATOM     37  C   UNL     1       0.956 -14.167  -5.032  1.00  0.00     0.188 C 
BRANCH  37  38
ATOM     38  C   UNL     1       1.153 -13.769  -6.518  1.00  0.00     0.188 C 
BRANCH  38  39
ATOM     39  O   UNL     1       1.325 -12.382  -6.757  1.00  0.00    -0.376 OA
BRANCH  39  40
ATOM     40  C   UNL     1       0.254 -11.655  -7.329  1.00  0.00     0.202 C 
BRANCH  40  41
ATOM     41  C   UNL     1      -1.030 -11.533  -6.496  1.00  0.00     0.261 C 
BRANCH  41  42
ATOM     42  O   UNL     1      -1.598 -12.764  -6.032  1.00  0.00    -0.460 OA
BRANCH  42  43
ATOM     43  C   UNL     1      -2.061 -13.617  -6.970  1.00  0.00     0.338 C 
ATOM     44  O   UNL     1      -2.050 -13.454  -8.181  1.00  0.00    -0.246 OA
BRANCH  43  45
ATOM     45  C   UNL     1      -2.421 -14.877  -6.293  1.00  0.00     0.060 A 
ATOM     46  C   UNL     1      -1.783 -16.064  -6.677  1.00  0.00     0.016 A 
ATOM     47  C   UNL     1      -3.388 -14.883  -5.285  1.00  0.00     0.016 A 
ATOM     48  C   UNL     1      -2.153 -17.274  -6.088  1.00  0.00     0.010 A 
ATOM     49  C   UNL     1      -3.769 -16.097  -4.710  1.00  0.00     0.010 A 
ATOM     50  C   UNL     1      -3.186 -17.302  -5.143  1.00  0.00    -0.014 A 
BRANCH  50  51
ATOM     51  C   UNL     1      -3.821 -18.594  -4.788  1.00  0.00     0.031 A 
ATOM     52  C   UNL     1      -5.097 -18.968  -5.496  1.00  0.00     0.074 A 
ATOM     53  C   UNL     1      -3.277 -19.426  -3.883  1.00  0.00     0.049 A 
ATOM     54  N   UNL     1      -5.866 -20.011  -5.327  1.00  0.00    -0.248 NA
ATOM     55  C   UNL     1      -5.570 -18.034  -6.534  1.00  0.00     0.031 C 
ATOM     56  C   UNL     1      -2.020 -19.202  -3.170  1.00  0.00     0.029 A 
ATOM     57  N   UNL     1      -3.724 -20.634  -3.407  1.00  0.00    -0.354 N 
ATOM     58  C   UNL     1      -6.916 -19.853  -6.225  1.00  0.00     0.074 A 
ATOM     59  C   UNL     1      -6.705 -18.599  -6.912  1.00  0.00     0.031 C 
ATOM     60  C   UNL     1      -1.801 -20.238  -2.340  1.00  0.00     0.029 A 
ATOM     61  C   UNL     1      -2.918 -21.177  -2.434  1.00  0.00     0.049 A 
ATOM     62  H   UNL     1      -4.545 -21.070  -3.732  1.00  0.00     0.167 HD
ATOM     63  C   UNL     1      -7.961 -20.681  -6.462  1.00  0.00     0.031 A 
ATOM     64  C   UNL     1      -3.079 -22.291  -1.691  1.00  0.00     0.031 A 
ATOM     65  C   UNL     1      -8.174 -21.921  -5.766  1.00  0.00     0.049 A 
ATOM     66  C   UNL     1      -4.295 -23.156  -1.914  1.00  0.00     0.074 A 
ATOM     67  C   UNL     1      -9.197 -22.837  -5.936  1.00  0.00     0.029 A 
ATOM     68  N   UNL     1      -7.354 -22.417  -4.763  1.00  0.00    -0.354 N 
ATOM     69  N   UNL     1      -5.271 -23.004  -2.778  1.00  0.00    -0.248 NA
ATOM     70  C   UNL     1      -4.425 -24.351  -1.067  1.00  0.00     0.031 C 
ATOM     71  C   UNL     1      -9.031 -23.854  -4.992  1.00  0.00     0.029 A 
ATOM     72  C   UNL     1      -7.862 -23.613  -4.287  1.00  0.00     0.049 A 
ATOM     73  H   UNL     1      -6.533 -21.982  -4.438  1.00  0.00     0.167 HD
ATOM     74  C   UNL     1      -6.108 -24.104  -2.605  1.00  0.00     0.074 A 
ATOM     75  C   UNL     1      -5.517 -24.916  -1.562  1.00  0.00     0.031 C 
ATOM     76  C   UNL     1      -7.258 -24.416  -3.254  1.00  0.00     0.031 A 
BRANCH  63  77
ATOM     77  C   UNL     1      -8.972 -20.251  -7.492  1.00  0.00    -0.014 A 
ATOM     78  C   UNL     1      -8.654 -20.217  -8.861  1.00  0.00     0.010 A 
ATOM     79  C   UNL     1     -10.276 -19.913  -7.084  1.00  0.00     0.010 A 
ATOM     80  C   UNL     1      -9.610 -19.821  -9.800  1.00  0.00     0.020 A 
ATOM     81  C   UNL     1     -11.244 -19.547  -8.023  1.00  0.00     0.020 A 
ATOM     82  C   UNL     1     -10.900 -19.490  -9.375  1.00  0.00     0.054 A 
BRANCH  82  83
ATOM     83  S   UNL     1     -12.130 -19.015 -10.620  1.00  0.00     0.124 S 
ATOM     84  O   UNL     1     -11.638 -17.707 -11.046  1.00  0.00    -0.237 OA
ATOM     85  O   UNL     1     -12.012 -20.083 -11.609  1.00  0.00    -0.237 OA
ATOM     86  O   UNL     1     -13.388 -18.994  -9.877  1.00  0.00    -0.744 OA
ENDBRANCH  82  83
ENDBRANCH  63  77
BRANCH  64  87
ATOM     87  C   UNL     1      -2.075 -22.648  -0.648  1.00  0.00    -0.014 A 
ATOM     88  C   UNL     1      -1.279 -23.800  -0.778  1.00  0.00     0.010 A 
ATOM     89  C   UNL     1      -1.925 -21.844   0.497  1.00  0.00     0.010 A 
ATOM     90  C   UNL     1      -0.372 -24.154   0.226  1.00  0.00     0.020 A 
ATOM     91  C   UNL     1      -0.996 -22.175   1.487  1.00  0.00     0.020 A 
ATOM     92  C   UNL     1      -0.234 -23.337   1.351  1.00  0.00     0.054 A 
BRANCH  92  93
ATOM     93  S   UNL     1       0.979 -23.794   2.621  1.00  0.00     0.124 S 
ATOM     94  O   UNL     1       0.357 -24.965   3.229  1.00  0.00    -0.237 OA
ATOM     95  O   UNL     1       2.179 -24.054   1.829  1.00  0.00    -0.237 OA
ATOM     96  O   UNL     1       1.048 -22.608   3.472  1.00  0.00    -0.744 OA
ENDBRANCH  92  93
ENDBRANCH  64  87
BRANCH  76  97
ATOM     97  C   UNL     1      -7.930 -25.720  -2.903  1.00  0.00    -0.014 A 
ATOM     98  C   UNL     1      -8.571 -25.911  -1.666  1.00  0.00     0.010 A 
ATOM     99  C   UNL     1      -7.973 -26.750  -3.861  1.00  0.00     0.010 A 
ATOM    100  C   UNL     1      -9.210 -27.122  -1.382  1.00  0.00     0.020 A 
ATOM    101  C   UNL     1      -8.639 -27.948  -3.595  1.00  0.00     0.020 A 
ATOM    102  C   UNL     1      -9.242 -28.132  -2.349  1.00  0.00     0.054 A 
BRANCH 102 103
ATOM    103  S   UNL     1     -10.114 -29.677  -1.971  1.00  0.00     0.124 S 
ATOM    104  O   UNL     1      -9.224 -30.297  -0.993  1.00  0.00    -0.237 OA
ATOM    105  O   UNL     1     -11.391 -29.201  -1.445  1.00  0.00    -0.237 OA
ATOM    106  O   UNL     1     -10.192 -30.358  -3.261  1.00  0.00    -0.744 OA
ENDBRANCH 102 103
ENDBRANCH  76  97
ENDBRANCH  50  51
ENDBRANCH  43  45
ENDBRANCH  42  43
ENDBRANCH  41  42
ENDBRANCH  40  41
ENDBRANCH  39  40
ENDBRANCH  38  39
ENDBRANCH  37  38
ENDBRANCH   1  37
TORSDOF 27
