REMARK SMILES C[NH2+][C@]1(C(=O)OCCOCCOCCOCCOC(=O)c2ccc(-c3c4nc(c(-c5ccc(S(=O)(=O)[O-])cc5)c5ccc([nH]5)c(-c5ccc(S(=O)(=O)[O-])cc5)c5nc(c(-c6ccc(S(=O)(=O)[O-])cc6)c6ccc3[nH]6)C=C5)C=C4)cc2)CCC[C@@H](Sc2nccs2)C1
REMARK SMILES IDX 13 1 12 2 11 3 10 4 9 5 8 6 7 7 6 8 4 9 5 10 3 11 81 12
REMARK SMILES IDX 91 13 82 14 84 15 83 16 2 17 1 18 85 21 86 22 87 23 90 24
REMARK SMILES IDX 88 25 89 26 14 27 15 28 16 29 17 30 18 31 19 32 20 33 21 34
REMARK SMILES IDX 22 35 80 36 23 37 79 38 24 39 25 40 26 41 73 42 27 43 78 44
REMARK SMILES IDX 72 45 74 46 28 47 77 48 71 49 70 50 29 52 59 53 40 54 58 55
REMARK SMILES IDX 41 56 44 57 57 58 75 59 42 60 43 61 56 63 76 64 45 65 30 66
REMARK SMILES IDX 31 67 39 68 32 69 38 70 33 71 34 72 35 73 36 74 37 75 60 76
REMARK SMILES IDX 61 77 69 78 62 79 68 80 63 81 64 82 65 83 66 84 67 85 46 86
REMARK SMILES IDX 47 87 55 88 48 89 54 90 49 91 50 92 51 93 52 94 53 95
REMARK H PARENT 2 19 2 20 74 51 44 62
REMARK Flexibility Score: inf
ROOT
ATOM      1  C   UNL     1       2.818  -2.577   1.144  1.00  0.00     0.188 C 
ENDROOT
BRANCH   1   2
ATOM      2  O   UNL     1       1.901  -1.735   0.465  1.00  0.00    -0.377 OA
BRANCH   2   3
ATOM      3  C   UNL     1       1.051  -2.405  -0.437  1.00  0.00     0.188 C 
BRANCH   3   4
ATOM      4  C   UNL     1       1.359  -2.152  -1.922  1.00  0.00     0.188 C 
BRANCH   4   5
ATOM      5  O   UNL     1       2.530  -1.457  -2.331  1.00  0.00    -0.376 OA
BRANCH   5   6
ATOM      6  C   UNL     1       3.058  -0.396  -1.549  1.00  0.00     0.202 C 
BRANCH   6   7
ATOM      7  C   UNL     1       2.176   0.783  -1.091  1.00  0.00     0.261 C 
BRANCH   7   8
ATOM      8  O   UNL     1       0.774   0.530  -0.918  1.00  0.00    -0.459 OA
BRANCH   8   9
ATOM      9  C   UNL     1       0.008   0.740  -2.019  1.00  0.00     0.368 C 
ATOM     10  O   UNL     1       0.460   1.042  -3.123  1.00  0.00    -0.245 OA
BRANCH   9  11
ATOM     11  C   UNL     1      -1.538   0.526  -1.765  1.00  0.00     0.195 C 
ATOM     12  C   UNL     1      -1.808  -0.751  -0.943  1.00  0.00     0.081 C 
ATOM     13  C   UNL     1      -2.014   1.731  -0.927  1.00  0.00     0.096 C 
ATOM     14  C   UNL     1      -3.216  -0.959  -0.399  1.00  0.00     0.008 C 
ATOM     15  C   UNL     1      -3.454   1.570  -0.422  1.00  0.00     0.061 C 
ATOM     16  C   UNL     1      -3.695   0.268   0.356  1.00  0.00     0.015 C 
BRANCH  11  17
ATOM     17  N   UNL     1      -2.162   0.582  -3.124  1.00  0.00    -0.335 N 
ATOM     18  C   UNL     1      -3.128  -0.421  -3.509  1.00  0.00     0.331 C 
ATOM     19  H   UNL     1      -2.627   1.486  -3.199  1.00  0.00     0.347 HD
ATOM     20  H   UNL     1      -1.377   0.410  -3.753  1.00  0.00     0.347 HD
ENDBRANCH  11  17
BRANCH  15  21
ATOM     21  S   UNL     1      -4.006   3.026   0.546  1.00  0.00    -0.092 SA
BRANCH  21  22
ATOM     22  C   UNL     1      -3.186   2.799   2.078  1.00  0.00     0.150 A 
ATOM     23  N   UNL     1      -1.887   2.622   2.154  1.00  0.00    -0.238 NA
ATOM     24  S   UNL     1      -4.033   2.758   3.570  1.00  0.00    -0.116 S 
ATOM     25  C   UNL     1      -1.516   2.474   3.478  1.00  0.00     0.124 A 
ATOM     26  C   UNL     1      -2.548   2.502   4.390  1.00  0.00     0.087 A 
ENDBRANCH  21  22
ENDBRANCH  15  21
ENDBRANCH   9  11
ENDBRANCH   8   9
ENDBRANCH   7   8
ENDBRANCH   6   7
ENDBRANCH   5   6
ENDBRANCH   4   5
ENDBRANCH   3   4
ENDBRANCH   2   3
ENDBRANCH   1   2
BRANCH   1  27
ATOM     27  C   UNL     1       3.608  -3.580   0.272  1.00  0.00     0.188 C 
BRANCH  27  28
ATOM     28  O   UNL     1       2.811  -4.359  -0.616  1.00  0.00    -0.376 OA
BRANCH  28  29
ATOM     29  C   UNL     1       2.414  -5.670  -0.238  1.00  0.00     0.202 C 
BRANCH  29  30
ATOM     30  C   UNL     1       1.431  -5.844   0.938  1.00  0.00     0.261 C 
BRANCH  30  31
ATOM     31  O   UNL     1       1.795  -5.223   2.177  1.00  0.00    -0.460 OA
BRANCH  31  32
ATOM     32  C   UNL     1       2.951  -5.630   2.751  1.00  0.00     0.338 C 
ATOM     33  O   UNL     1       3.687  -6.507   2.357  1.00  0.00    -0.246 OA
BRANCH  32  34
ATOM     34  C   UNL     1       3.284  -4.663   3.825  1.00  0.00     0.060 A 
ATOM     35  C   UNL     1       4.502  -3.975   3.746  1.00  0.00     0.016 A 
ATOM     36  C   UNL     1       2.398  -4.415   4.876  1.00  0.00     0.016 A 
ATOM     37  C   UNL     1       4.855  -3.062   4.739  1.00  0.00     0.010 A 
ATOM     38  C   UNL     1       2.769  -3.526   5.890  1.00  0.00     0.010 A 
ATOM     39  C   UNL     1       4.016  -2.876   5.843  1.00  0.00    -0.014 A 
BRANCH  39  40
ATOM     40  C   UNL     1       4.546  -2.193   7.046  1.00  0.00     0.031 A 
ATOM     41  C   UNL     1       5.105  -3.050   8.151  1.00  0.00     0.074 A 
ATOM     42  C   UNL     1       4.574  -0.852   7.146  1.00  0.00     0.049 A 
ATOM     43  N   UNL     1       5.592  -2.695   9.311  1.00  0.00    -0.248 NA
ATOM     44  C   UNL     1       5.112  -4.503   7.912  1.00  0.00     0.031 C 
ATOM     45  C   UNL     1       4.122   0.085   6.119  1.00  0.00     0.029 A 
ATOM     46  N   UNL     1       5.004  -0.048   8.171  1.00  0.00    -0.354 N 
ATOM     47  C   UNL     1       5.956  -3.879   9.942  1.00  0.00     0.074 A 
ATOM     48  C   UNL     1       5.604  -4.963   9.052  1.00  0.00     0.031 C 
ATOM     49  C   UNL     1       4.287   1.340   6.573  1.00  0.00     0.029 A 
ATOM     50  C   UNL     1       4.822   1.293   7.934  1.00  0.00     0.049 A 
ATOM     51  H   UNL     1       5.406  -0.399   8.999  1.00  0.00     0.167 HD
ATOM     52  C   UNL     1       6.537  -4.050  11.152  1.00  0.00     0.031 A 
ATOM     53  C   UNL     1       5.037   2.357   8.734  1.00  0.00     0.031 A 
ATOM     54  C   UNL     1       6.867  -2.970  12.043  1.00  0.00     0.049 A 
ATOM     55  C   UNL     1       5.599   2.138  10.117  1.00  0.00     0.074 A 
ATOM     56  C   UNL     1       7.459  -3.036  13.291  1.00  0.00     0.029 A 
ATOM     57  N   UNL     1       6.624  -1.629  11.784  1.00  0.00    -0.354 N 
ATOM     58  N   UNL     1       5.952   1.014  10.697  1.00  0.00    -0.248 NA
ATOM     59  C   UNL     1       5.799   3.332  10.951  1.00  0.00     0.031 C 
ATOM     60  C   UNL     1       7.513  -1.742  13.816  1.00  0.00     0.029 A 
ATOM     61  C   UNL     1       7.026  -0.861  12.863  1.00  0.00     0.049 A 
ATOM     62  H   UNL     1       6.225  -1.277  10.956  1.00  0.00     0.167 HD
ATOM     63  C   UNL     1       6.447   1.371  11.948  1.00  0.00     0.074 A 
ATOM     64  C   UNL     1       6.359   2.814  12.035  1.00  0.00     0.031 C 
ATOM     65  C   UNL     1       6.933   0.577  12.935  1.00  0.00     0.031 A 
BRANCH  52  66
ATOM     66  C   UNL     1       6.812  -5.462  11.599  1.00  0.00    -0.014 A 
ATOM     67  C   UNL     1       7.801  -6.247  10.979  1.00  0.00     0.010 A 
ATOM     68  C   UNL     1       6.086  -6.002  12.676  1.00  0.00     0.010 A 
ATOM     69  C   UNL     1       8.033  -7.558  11.405  1.00  0.00     0.020 A 
ATOM     70  C   UNL     1       6.337  -7.301  13.126  1.00  0.00     0.020 A 
ATOM     71  C   UNL     1       7.299  -8.076  12.476  1.00  0.00     0.054 A 
BRANCH  71  72
ATOM     72  S   UNL     1       7.639  -9.772  13.022  1.00  0.00     0.124 S 
ATOM     73  O   UNL     1       7.101 -10.559  11.915  1.00  0.00    -0.237 OA
ATOM     74  O   UNL     1       9.094  -9.780  13.149  1.00  0.00    -0.237 OA
ATOM     75  O   UNL     1       6.905  -9.886  14.280  1.00  0.00    -0.744 OA
ENDBRANCH  71  72
ENDBRANCH  52  66
BRANCH  53  76
ATOM     76  C   UNL     1       4.691   3.728   8.262  1.00  0.00    -0.014 A 
ATOM     77  C   UNL     1       5.692   4.687   8.030  1.00  0.00     0.010 A 
ATOM     78  C   UNL     1       3.345   4.082   8.051  1.00  0.00     0.010 A 
ATOM     79  C   UNL     1       5.353   5.979   7.613  1.00  0.00     0.020 A 
ATOM     80  C   UNL     1       3.004   5.361   7.604  1.00  0.00     0.020 A 
ATOM     81  C   UNL     1       4.011   6.306   7.399  1.00  0.00     0.054 A 
BRANCH  81  82
ATOM     82  S   UNL     1       3.599   7.972   6.811  1.00  0.00     0.124 S 
ATOM     83  O   UNL     1       3.878   8.787   7.989  1.00  0.00    -0.237 OA
ATOM     84  O   UNL     1       4.517   8.143   5.689  1.00  0.00    -0.237 OA
ATOM     85  O   UNL     1       2.188   7.865   6.444  1.00  0.00    -0.744 OA
ENDBRANCH  81  82
ENDBRANCH  53  76
BRANCH  65  86
ATOM     86  C   UNL     1       7.452   1.246  14.182  1.00  0.00    -0.014 A 
ATOM     87  C   UNL     1       6.585   1.866  15.100  1.00  0.00     0.010 A 
ATOM     88  C   UNL     1       8.829   1.197  14.470  1.00  0.00     0.010 A 
ATOM     89  C   UNL     1       7.090   2.452  16.265  1.00  0.00     0.020 A 
ATOM     90  C   UNL     1       9.334   1.751  15.649  1.00  0.00     0.020 A 
ATOM     91  C   UNL     1       8.462   2.389  16.532  1.00  0.00     0.054 A 
BRANCH  91  92
ATOM     92  S   UNL     1       9.085   3.118  18.072  1.00  0.00     0.124 S 
ATOM     93  O   UNL     1       8.945   4.547  17.810  1.00  0.00    -0.237 OA
ATOM     94  O   UNL     1       8.174   2.570  19.075  1.00  0.00    -0.237 OA
ATOM     95  O   UNL     1      10.460   2.631  18.156  1.00  0.00    -0.744 OA
ENDBRANCH  91  92
ENDBRANCH  65  86
ENDBRANCH  39  40
ENDBRANCH  32  34
ENDBRANCH  31  32
ENDBRANCH  30  31
ENDBRANCH  29  30
ENDBRANCH  28  29
ENDBRANCH  27  28
ENDBRANCH   1  27
TORSDOF 26
