REMARK SMILES CCc1cc(OC(F)(F)F)cc2c1O[C@@H](C(F)(F)F)C(C(=O)OCCOCCOCCOCCOC(=O)c1ccc(-c3c4nc(c(-c5ccc(S(=O)(=O)[O-])cc5)c5ccc([nH]5)c(-c5ccc(S(=O)(=O)[O-])cc5)c5nc(c(-c6ccc(S(=O)(=O)[O-])cc6)c6ccc3[nH]6)C=C5)C=C4)cc1)=C2
REMARK SMILES IDX 30 1 29 2 28 3 27 4 26 5 25 6 24 7 23 8 21 9 22 10 20 11
REMARK SMILES IDX 3 12 4 13 13 14 5 15 12 16 14 17 11 18 98 19 15 20 2 21 1 22
REMARK SMILES IDX 6 23 7 24 8 25 9 26 10 27 16 28 17 29 18 30 19 31 31 32
REMARK SMILES IDX 32 33 33 34 34 35 35 36 36 37 37 38 38 39 39 40 97 41 40 42
REMARK SMILES IDX 96 43 41 44 42 45 43 46 90 47 44 48 95 49 89 50 91 51 45 52
REMARK SMILES IDX 94 53 88 54 87 55 46 57 76 58 57 59 75 60 58 61 61 62 74 63
REMARK SMILES IDX 92 64 59 65 60 66 73 68 93 69 62 70 47 71 48 72 56 73 49 74
REMARK SMILES IDX 55 75 50 76 51 77 52 78 53 79 54 80 77 81 78 82 86 83 79 84
REMARK SMILES IDX 85 85 80 86 81 87 82 88 83 89 84 90 63 91 64 92 72 93 65 94
REMARK SMILES IDX 71 95 66 96 67 97 68 98 69 99 70 100
REMARK H PARENT 91 56 61 67
REMARK Flexibility Score: inf
ROOT
ATOM      1  C   UNL     1       2.263   1.621 -10.556  1.00  0.00     0.188 C 
ENDROOT
BRANCH   1   2
ATOM      2  O   UNL     1       1.962   1.187  -9.237  1.00  0.00    -0.377 OA
BRANCH   2   3
ATOM      3  C   UNL     1       1.890   2.130  -8.184  1.00  0.00     0.188 C 
BRANCH   3   4
ATOM      4  C   UNL     1       2.885   3.302  -8.132  1.00  0.00     0.188 C 
BRANCH   4   5
ATOM      5  O   UNL     1       3.974   3.214  -9.043  1.00  0.00    -0.376 OA
BRANCH   5   6
ATOM      6  C   UNL     1       5.254   2.995  -8.460  1.00  0.00     0.202 C 
BRANCH   6   7
ATOM      7  C   UNL     1       5.507   1.521  -8.137  1.00  0.00     0.261 C 
BRANCH   7   8
ATOM      8  O   UNL     1       4.615   1.002  -7.140  1.00  0.00    -0.460 OA
BRANCH   8   9
ATOM      9  C   UNL     1       4.756   1.487  -5.886  1.00  0.00     0.338 C 
ATOM     10  O   UNL     1       5.573   2.312  -5.515  1.00  0.00    -0.246 OA
BRANCH   9  11
ATOM     11  C   UNL     1       3.666   0.974  -5.043  1.00  0.00     0.087 C 
ATOM     12  C   UNL     1       0.884  -0.429  -2.264  1.00  0.00    -0.002 A 
ATOM     13  C   UNL     1       0.409  -1.747  -2.382  1.00  0.00     0.054 A 
ATOM     14  C   UNL     1       1.833   0.029  -3.186  1.00  0.00     0.131 A 
ATOM     15  C   UNL     1       0.882  -2.593  -3.389  1.00  0.00     0.130 A 
ATOM     16  C   UNL     1       2.314  -0.811  -4.199  1.00  0.00     0.021 A 
ATOM     17  O   UNL     1       2.327   1.299  -3.018  1.00  0.00    -0.475 OA
ATOM     18  C   UNL     1       1.821  -2.114  -4.307  1.00  0.00     0.058 A 
ATOM     19  C   UNL     1       3.390  -0.340  -5.064  1.00  0.00     0.027 C 
ATOM     20  C   UNL     1       2.825   1.927  -4.230  1.00  0.00     0.316 C 
BRANCH  12  21
ATOM     21  C   UNL     1       0.397   0.439  -1.128  1.00  0.00     0.036 C 
ATOM     22  C   UNL     1       1.043   0.049   0.193  1.00  0.00     0.009 C 
ENDBRANCH  12  21
BRANCH  15  23
ATOM     23  O   UNL     1       0.510  -3.894  -3.579  1.00  0.00    -0.406 OA
BRANCH  23  24
ATOM     24  C   UNL     1      -0.054  -4.571  -2.467  1.00  0.00     0.573 C 
ATOM     25  F   UNL     1       0.714  -4.439  -1.364  1.00  0.00    -0.132 F 
ATOM     26  F   UNL     1      -1.297  -4.110  -2.202  1.00  0.00    -0.132 F 
ATOM     27  F   UNL     1      -0.151  -5.887  -2.757  1.00  0.00    -0.132 F 
ENDBRANCH  23  24
ENDBRANCH  15  23
BRANCH  20  28
ATOM     28  C   UNL     1       3.423   3.289  -3.843  1.00  0.00     0.430 C 
ATOM     29  F   UNL     1       3.664   4.059  -4.930  1.00  0.00    -0.167 F 
ATOM     30  F   UNL     1       2.528   3.992  -3.095  1.00  0.00    -0.167 F 
ATOM     31  F   UNL     1       4.553   3.193  -3.117  1.00  0.00    -0.167 F 
ENDBRANCH  20  28
ENDBRANCH   9  11
ENDBRANCH   8   9
ENDBRANCH   7   8
ENDBRANCH   6   7
ENDBRANCH   5   6
ENDBRANCH   4   5
ENDBRANCH   3   4
ENDBRANCH   2   3
ENDBRANCH   1   2
BRANCH   1  32
ATOM     32  C   UNL     1       1.773   2.998 -11.042  1.00  0.00     0.188 C 
BRANCH  32  33
ATOM     33  O   UNL     1       0.707   3.549 -10.273  1.00  0.00    -0.376 OA
BRANCH  33  34
ATOM     34  C   UNL     1      -0.562   3.571 -10.914  1.00  0.00     0.202 C 
BRANCH  34  35
ATOM     35  C   UNL     1      -1.271   2.214 -10.893  1.00  0.00     0.261 C 
BRANCH  35  36
ATOM     36  O   UNL     1      -0.631   1.189 -11.669  1.00  0.00    -0.460 OA
BRANCH  36  37
ATOM     37  C   UNL     1      -0.492   1.405 -12.997  1.00  0.00     0.338 C 
ATOM     38  O   UNL     1      -0.878   2.366 -13.636  1.00  0.00    -0.246 OA
BRANCH  37  39
ATOM     39  C   UNL     1       0.385   0.340 -13.516  1.00  0.00     0.060 A 
ATOM     40  C   UNL     1       1.590   0.691 -14.138  1.00  0.00     0.016 A 
ATOM     41  C   UNL     1       0.040  -1.000 -13.331  1.00  0.00     0.016 A 
ATOM     42  C   UNL     1       2.459  -0.310 -14.577  1.00  0.00     0.010 A 
ATOM     43  C   UNL     1       0.898  -1.997 -13.790  1.00  0.00     0.010 A 
ATOM     44  C   UNL     1       2.105  -1.658 -14.424  1.00  0.00    -0.014 A 
BRANCH  44  45
ATOM     45  C   UNL     1       2.919  -2.730 -15.039  1.00  0.00     0.031 A 
ATOM     46  C   UNL     1       2.557  -3.205 -16.416  1.00  0.00     0.074 A 
ATOM     47  C   UNL     1       3.930  -3.304 -14.363  1.00  0.00     0.049 A 
ATOM     48  N   UNL     1       3.064  -4.191 -17.109  1.00  0.00    -0.248 NA
ATOM     49  C   UNL     1       1.479  -2.473 -17.101  1.00  0.00     0.031 C 
ATOM     50  C   UNL     1       4.395  -2.910 -13.034  1.00  0.00     0.029 A 
ATOM     51  N   UNL     1       4.736  -4.362 -14.703  1.00  0.00    -0.354 N 
ATOM     52  C   UNL     1       2.368  -4.199 -18.311  1.00  0.00     0.074 A 
ATOM     53  C   UNL     1       1.390  -3.134 -18.245  1.00  0.00     0.031 C 
ATOM     54  C   UNL     1       5.393  -3.732 -12.662  1.00  0.00     0.029 A 
ATOM     55  C   UNL     1       5.612  -4.728 -13.709  1.00  0.00     0.049 A 
ATOM     56  H   UNL     1       4.691  -4.816 -15.576  1.00  0.00     0.167 HD
ATOM     57  C   UNL     1       2.527  -5.021 -19.374  1.00  0.00     0.031 A 
ATOM     58  C   UNL     1       6.467  -5.767 -13.641  1.00  0.00     0.031 A 
ATOM     59  C   UNL     1       3.472  -6.103 -19.424  1.00  0.00     0.049 A 
ATOM     60  C   UNL     1       6.554  -6.732 -14.796  1.00  0.00     0.074 A 
ATOM     61  C   UNL     1       3.719  -6.981 -20.464  1.00  0.00     0.029 A 
ATOM     62  N   UNL     1       4.310  -6.468 -18.382  1.00  0.00    -0.354 N 
ATOM     63  N   UNL     1       5.917  -6.705 -15.943  1.00  0.00    -0.248 NA
ATOM     64  C   UNL     1       7.469  -7.872 -14.642  1.00  0.00     0.031 C 
ATOM     65  C   UNL     1       4.669  -7.913 -20.030  1.00  0.00     0.029 A 
ATOM     66  C   UNL     1       5.049  -7.582 -18.739  1.00  0.00     0.049 A 
ATOM     67  H   UNL     1       4.370  -6.003 -17.517  1.00  0.00     0.167 HD
ATOM     68  C   UNL     1       6.365  -7.815 -16.651  1.00  0.00     0.074 A 
ATOM     69  C   UNL     1       7.338  -8.484 -15.812  1.00  0.00     0.031 C 
ATOM     70  C   UNL     1       6.003  -8.243 -17.886  1.00  0.00     0.031 A 
BRANCH  57  71
ATOM     71  C   UNL     1       1.628  -4.796 -20.556  1.00  0.00    -0.014 A 
ATOM     72  C   UNL     1       1.824  -3.701 -21.416  1.00  0.00     0.010 A 
ATOM     73  C   UNL     1       0.587  -5.704 -20.823  1.00  0.00     0.010 A 
ATOM     74  C   UNL     1       0.972  -3.498 -22.505  1.00  0.00     0.020 A 
ATOM     75  C   UNL     1      -0.253  -5.516 -21.923  1.00  0.00     0.020 A 
ATOM     76  C   UNL     1      -0.065  -4.404 -22.748  1.00  0.00     0.054 A 
BRANCH  76  77
ATOM     77  S   UNL     1      -1.146  -4.127 -24.177  1.00  0.00     0.124 S 
ATOM     78  O   UNL     1      -1.971  -3.012 -23.717  1.00  0.00    -0.237 OA
ATOM     79  O   UNL     1      -0.197  -3.808 -25.241  1.00  0.00    -0.237 OA
ATOM     80  O   UNL     1      -1.848  -5.398 -24.333  1.00  0.00    -0.744 OA
ENDBRANCH  76  77
ENDBRANCH  57  71
BRANCH  58  81
ATOM     81  C   UNL     1       7.286  -5.979 -12.417  1.00  0.00    -0.014 A 
ATOM     82  C   UNL     1       8.674  -5.763 -12.438  1.00  0.00     0.010 A 
ATOM     83  C   UNL     1       6.677  -6.407 -11.223  1.00  0.00     0.010 A 
ATOM     84  C   UNL     1       9.442  -5.981 -11.290  1.00  0.00     0.020 A 
ATOM     85  C   UNL     1       7.437  -6.603 -10.067  1.00  0.00     0.020 A 
ATOM     86  C   UNL     1       8.817  -6.398 -10.110  1.00  0.00     0.054 A 
BRANCH  86  87
ATOM     87  S   UNL     1       9.821  -6.617  -8.614  1.00  0.00     0.124 S 
ATOM     88  O   UNL     1      10.485  -7.889  -8.878  1.00  0.00    -0.237 OA
ATOM     89  O   UNL     1      10.682  -5.436  -8.635  1.00  0.00    -0.237 OA
ATOM     90  O   UNL     1       8.831  -6.636  -7.540  1.00  0.00    -0.744 OA
ENDBRANCH  86  87
ENDBRANCH  58  81
BRANCH  70  91
ATOM     91  C   UNL     1       6.664  -9.489 -18.412  1.00  0.00    -0.014 A 
ATOM     92  C   UNL     1       6.301 -10.758 -17.928  1.00  0.00     0.010 A 
ATOM     93  C   UNL     1       7.610  -9.394 -19.448  1.00  0.00     0.010 A 
ATOM     94  C   UNL     1       6.888 -11.910 -18.459  1.00  0.00     0.020 A 
ATOM     95  C   UNL     1       8.182 -10.544 -19.997  1.00  0.00     0.020 A 
ATOM     96  C   UNL     1       7.825 -11.796 -19.491  1.00  0.00     0.054 A 
BRANCH  96  97
ATOM     97  S   UNL     1       8.533 -13.308 -20.201  1.00  0.00     0.124 S 
ATOM     98  O   UNL     1       9.483 -13.713 -19.169  1.00  0.00    -0.237 OA
ATOM     99  O   UNL     1       7.364 -14.171 -20.352  1.00  0.00    -0.237 OA
ATOM    100  O   UNL     1       9.129 -12.854 -21.456  1.00  0.00    -0.744 OA
ENDBRANCH  96  97
ENDBRANCH  70  91
ENDBRANCH  44  45
ENDBRANCH  37  39
ENDBRANCH  36  37
ENDBRANCH  35  36
ENDBRANCH  34  35
ENDBRANCH  33  34
ENDBRANCH  32  33
ENDBRANCH   1  32
TORSDOF 27
