REMARK SMILES NS(=O)(=O)c1ccc(-n2nc(C(F)(F)F)cc2-c2ccc(CC(=O)OCCOCCOCCOCCOC(=O)c3ccc(-c4c5nc(c(-c6ccc(S(=O)(=O)[O-])cc6)c6ccc([nH]6)c(-c6ccc(S(=O)(=O)[O-])cc6)c6nc(c(-c7ccc(S(=O)(=O)[O-])cc7)c7ccc4[nH]7)C=C6)C=C5)cc3)cc2)cc1
REMARK SMILES IDX 30 1 29 2 28 3 27 4 26 5 25 6 23 7 24 8 22 9 21 10 18 11
REMARK SMILES IDX 19 12 101 13 20 14 100 15 17 16 9 17 10 18 11 19 16 20 8 21
REMARK SMILES IDX 5 22 6 23 103 24 7 25 102 26 2 27 3 28 4 29 1 30 12 33 13 34
REMARK SMILES IDX 14 35 15 36 31 37 32 38 33 39 34 40 35 41 36 42 37 43 38 44
REMARK SMILES IDX 39 45 40 46 41 47 99 48 42 49 98 50 43 51 44 52 45 53 92 54
REMARK SMILES IDX 46 55 97 56 91 57 93 58 47 59 96 60 90 61 89 62 48 64 78 65
REMARK SMILES IDX 59 66 77 67 60 68 63 69 76 70 94 71 61 72 62 73 75 75 95 76
REMARK SMILES IDX 64 77 49 78 50 79 58 80 51 81 57 82 52 83 53 84 54 85 55 86
REMARK SMILES IDX 56 87 79 88 80 89 88 90 81 91 87 92 82 93 83 94 84 95 85 96
REMARK SMILES IDX 86 97 65 98 66 99 74 100 67 101 73 102 68 103 69 104 70 105
REMARK SMILES IDX 71 106 72 107
REMARK H PARENT 1 31 1 32 93 63 63 74
REMARK Flexibility Score: inf
ROOT
ATOM      1  C   UNL     1      -1.091  -2.574  -6.484  1.00  0.00     0.188 C 
ENDROOT
BRANCH   1   2
ATOM      2  C   UNL     1      -2.403  -2.838  -7.267  1.00  0.00     0.188 C 
BRANCH   2   3
ATOM      3  O   UNL     1      -2.609  -4.024  -8.040  1.00  0.00    -0.376 OA
BRANCH   3   4
ATOM      4  C   UNL     1      -1.646  -5.062  -7.986  1.00  0.00     0.202 C 
BRANCH   4   5
ATOM      5  C   UNL     1      -0.338  -4.767  -8.745  1.00  0.00     0.261 C 
BRANCH   5   6
ATOM      6  O   UNL     1      -0.156  -3.381  -9.106  1.00  0.00    -0.463 OA
BRANCH   6   7
ATOM      7  C   UNL     1      -0.829  -2.976 -10.206  1.00  0.00     0.310 C 
ATOM      8  O   UNL     1      -1.411  -3.743 -10.972  1.00  0.00    -0.252 OA
BRANCH   7   9
ATOM      9  C   UNL     1      -0.818  -1.484 -10.459  1.00  0.00     0.158 C 
BRANCH   9  10
ATOM     10  C   UNL     1      -0.179  -0.489  -9.499  1.00  0.00    -0.037 A 
ATOM     11  C   UNL     1       0.958   1.736  -8.099  1.00  0.00     0.000 A 
ATOM     12  C   UNL     1      -0.416   1.482  -8.048  1.00  0.00     0.010 A 
ATOM     13  C   UNL     1       1.759   0.825  -8.810  1.00  0.00     0.010 A 
ATOM     14  C   UNL     1      -0.975   0.386  -8.736  1.00  0.00     0.005 A 
ATOM     15  C   UNL     1       1.203  -0.276  -9.492  1.00  0.00     0.005 A 
BRANCH  11  16
ATOM     16  C   UNL     1       1.533   3.013  -7.619  1.00  0.00     0.075 A 
ATOM     17  N   UNL     1       1.327   3.701  -6.411  1.00  0.00    -0.233 N 
ATOM     18  N   UNL     1       1.827   4.963  -6.471  1.00  0.00    -0.163 NA
ATOM     19  C   UNL     1       2.483   5.057  -7.634  1.00  0.00     0.167 A 
ATOM     20  C   UNL     1       2.309   3.876  -8.385  1.00  0.00     0.064 A 
BRANCH  17  21
ATOM     21  C   UNL     1       0.736   3.295  -5.174  1.00  0.00     0.065 A 
ATOM     22  C   UNL     1      -0.420   2.572  -2.688  1.00  0.00     0.082 A 
ATOM     23  C   UNL     1      -0.009   1.617  -3.618  1.00  0.00     0.024 A 
ATOM     24  C   UNL     1      -0.271   3.916  -3.014  1.00  0.00     0.024 A 
ATOM     25  C   UNL     1       0.575   1.957  -4.846  1.00  0.00     0.030 A 
ATOM     26  C   UNL     1       0.335   4.272  -4.234  1.00  0.00     0.030 A 
BRANCH  22  27
ATOM     27  S   UNL     1      -1.234   2.090  -1.170  1.00  0.00     0.238 S 
ATOM     28  O   UNL     1      -1.183   0.649  -1.061  1.00  0.00    -0.207 OA
ATOM     29  O   UNL     1      -2.488   2.792  -1.104  1.00  0.00    -0.207 OA
BRANCH  27  30
ATOM     30  N   UNL     1      -0.277   2.574   0.111  1.00  0.00    -0.225 NA
ATOM     31  H   UNL     1      -0.723   2.308   0.989  1.00  0.00     0.137 HD
ATOM     32  H   UNL     1      -0.158   3.586   0.083  1.00  0.00     0.137 HD
ENDBRANCH  27  30
ENDBRANCH  22  27
ENDBRANCH  17  21
BRANCH  19  33
ATOM     33  C   UNL     1       3.255   6.286  -8.047  1.00  0.00     0.435 C 
ATOM     34  F   UNL     1       2.854   7.416  -7.415  1.00  0.00    -0.164 F 
ATOM     35  F   UNL     1       4.586   6.137  -7.821  1.00  0.00    -0.164 F 
ATOM     36  F   UNL     1       3.120   6.520  -9.384  1.00  0.00    -0.164 F 
ENDBRANCH  19  33
ENDBRANCH  11  16
ENDBRANCH   9  10
ENDBRANCH   7   9
ENDBRANCH   6   7
ENDBRANCH   5   6
ENDBRANCH   4   5
ENDBRANCH   3   4
ENDBRANCH   2   3
ENDBRANCH   1   2
BRANCH   1  37
ATOM     37  O   UNL     1      -0.453  -3.747  -6.002  1.00  0.00    -0.377 OA
BRANCH  37  38
ATOM     38  C   UNL     1      -0.588  -4.096  -4.633  1.00  0.00     0.188 C 
BRANCH  38  39
ATOM     39  C   UNL     1      -1.992  -4.128  -4.006  1.00  0.00     0.188 C 
BRANCH  39  40
ATOM     40  O   UNL     1      -2.853  -3.110  -4.458  1.00  0.00    -0.376 OA
BRANCH  40  41
ATOM     41  C   UNL     1      -3.027  -1.926  -3.721  1.00  0.00     0.202 C 
BRANCH  41  42
ATOM     42  C   UNL     1      -1.953  -1.374  -2.797  1.00  0.00     0.261 C 
BRANCH  42  43
ATOM     43  O   UNL     1      -0.575  -1.618  -3.094  1.00  0.00    -0.460 OA
BRANCH  43  44
ATOM     44  C   UNL     1       0.116  -2.152  -2.041  1.00  0.00     0.338 C 
ATOM     45  O   UNL     1      -0.268  -3.077  -1.344  1.00  0.00    -0.246 OA
BRANCH  44  46
ATOM     46  C   UNL     1       1.283  -1.295  -1.724  1.00  0.00     0.060 A 
ATOM     47  C   UNL     1       1.476  -0.980  -0.377  1.00  0.00     0.016 A 
ATOM     48  C   UNL     1       2.029  -0.642  -2.712  1.00  0.00     0.016 A 
ATOM     49  C   UNL     1       2.281   0.102  -0.034  1.00  0.00     0.010 A 
ATOM     50  C   UNL     1       2.813   0.464  -2.365  1.00  0.00     0.010 A 
ATOM     51  C   UNL     1       2.891   0.877  -1.031  1.00  0.00    -0.014 A 
BRANCH  51  52
ATOM     52  C   UNL     1       3.780   1.959  -0.596  1.00  0.00     0.031 A 
ATOM     53  C   UNL     1       5.164   1.519  -0.372  1.00  0.00     0.074 A 
ATOM     54  C   UNL     1       3.515   3.266  -0.395  1.00  0.00     0.049 A 
ATOM     55  N   UNL     1       5.712   1.232   0.760  1.00  0.00    -0.248 NA
ATOM     56  C   UNL     1       5.989   1.259  -1.556  1.00  0.00     0.031 C 
ATOM     57  C   UNL     1       2.361   4.012  -0.853  1.00  0.00     0.029 A 
ATOM     58  N   UNL     1       4.269   4.231   0.223  1.00  0.00    -0.354 N 
ATOM     59  C   UNL     1       7.032   0.962   0.449  1.00  0.00     0.074 A 
ATOM     60  C   UNL     1       7.094   0.787  -0.984  1.00  0.00     0.031 C 
ATOM     61  C   UNL     1       2.515   5.327  -0.606  1.00  0.00     0.029 A 
ATOM     62  C   UNL     1       3.781   5.526   0.065  1.00  0.00     0.049 A 
ATOM     63  H   UNL     1       5.085   4.025   0.735  1.00  0.00     0.167 HD
ATOM     64  C   UNL     1       8.040   1.182   1.334  1.00  0.00     0.031 A 
ATOM     65  C   UNL     1       4.387   6.696   0.389  1.00  0.00     0.031 A 
ATOM     66  C   UNL     1       7.580   1.385   2.682  1.00  0.00     0.049 A 
ATOM     67  C   UNL     1       5.411   6.404   1.417  1.00  0.00     0.074 A 
ATOM     68  C   UNL     1       6.772   0.681   3.554  1.00  0.00     0.029 A 
ATOM     69  N   UNL     1       7.693   2.650   3.211  1.00  0.00    -0.354 N 
ATOM     70  N   UNL     1       5.134   6.088   2.651  1.00  0.00    -0.248 NA
ATOM     71  C   UNL     1       6.771   6.114   0.992  1.00  0.00     0.031 C 
ATOM     72  C   UNL     1       6.091   1.667   4.324  1.00  0.00     0.029 A 
ATOM     73  C   UNL     1       6.534   2.920   3.895  1.00  0.00     0.049 A 
ATOM     74  H   UNL     1       8.465   3.253   3.116  1.00  0.00     0.167 HD
ATOM     75  C   UNL     1       6.130   5.200   3.025  1.00  0.00     0.074 A 
ATOM     76  C   UNL     1       7.170   5.354   2.014  1.00  0.00     0.031 C 
ATOM     77  C   UNL     1       5.898   4.223   3.950  1.00  0.00     0.031 A 
BRANCH  64  78
ATOM     78  C   UNL     1       9.407   1.593   0.868  1.00  0.00    -0.014 A 
ATOM     79  C   UNL     1      10.499   1.494   1.744  1.00  0.00     0.010 A 
ATOM     80  C   UNL     1       9.601   2.296  -0.342  1.00  0.00     0.010 A 
ATOM     81  C   UNL     1      11.728   2.084   1.422  1.00  0.00     0.020 A 
ATOM     82  C   UNL     1      10.832   2.835  -0.698  1.00  0.00     0.020 A 
ATOM     83  C   UNL     1      11.883   2.752   0.204  1.00  0.00     0.054 A 
BRANCH  83  84
ATOM     84  S   UNL     1      13.447   3.573  -0.175  1.00  0.00     0.124 S 
ATOM     85  O   UNL     1      13.383   4.743   0.694  1.00  0.00    -0.237 OA
ATOM     86  O   UNL     1      14.431   2.559   0.193  1.00  0.00    -0.237 OA
ATOM     87  O   UNL     1      13.349   3.845  -1.608  1.00  0.00    -0.744 OA
ENDBRANCH  83  84
ENDBRANCH  64  78
BRANCH  65  88
ATOM     88  C   UNL     1       4.284   8.005  -0.314  1.00  0.00    -0.014 A 
ATOM     89  C   UNL     1       4.955   9.141   0.177  1.00  0.00     0.010 A 
ATOM     90  C   UNL     1       3.744   8.089  -1.615  1.00  0.00     0.010 A 
ATOM     91  C   UNL     1       5.160  10.271  -0.636  1.00  0.00     0.020 A 
ATOM     92  C   UNL     1       3.918   9.219  -2.421  1.00  0.00     0.020 A 
ATOM     93  C   UNL     1       4.661  10.290  -1.941  1.00  0.00     0.054 A 
BRANCH  93  94
ATOM     94  S   UNL     1       5.129  11.637  -3.065  1.00  0.00     0.124 S 
ATOM     95  O   UNL     1       4.333  12.752  -2.563  1.00  0.00    -0.237 OA
ATOM     96  O   UNL     1       6.570  11.741  -2.852  1.00  0.00    -0.237 OA
ATOM     97  O   UNL     1       4.738  11.137  -4.382  1.00  0.00    -0.744 OA
ENDBRANCH  93  94
ENDBRANCH  65  88
BRANCH  77  98
ATOM     98  C   UNL     1       4.720   4.365   4.889  1.00  0.00    -0.014 A 
ATOM     99  C   UNL     1       3.389   4.524   4.459  1.00  0.00     0.010 A 
ATOM    100  C   UNL     1       4.958   4.195   6.266  1.00  0.00     0.010 A 
ATOM    101  C   UNL     1       2.332   4.535   5.380  1.00  0.00     0.020 A 
ATOM    102  C   UNL     1       3.907   4.184   7.189  1.00  0.00     0.020 A 
ATOM    103  C   UNL     1       2.598   4.361   6.741  1.00  0.00     0.054 A 
BRANCH 103 104
ATOM    104  S   UNL     1       1.215   4.294   7.915  1.00  0.00     0.124 S 
ATOM    105  O   UNL     1       0.767   5.683   7.956  1.00  0.00    -0.237 OA
ATOM    106  O   UNL     1       0.296   3.353   7.277  1.00  0.00    -0.237 OA
ATOM    107  O   UNL     1       1.830   3.804   9.148  1.00  0.00    -0.744 OA
ENDBRANCH 103 104
ENDBRANCH  77  98
ENDBRANCH  51  52
ENDBRANCH  44  46
ENDBRANCH  43  44
ENDBRANCH  42  43
ENDBRANCH  41  42
ENDBRANCH  40  41
ENDBRANCH  39  40
ENDBRANCH  38  39
ENDBRANCH  37  38
ENDBRANCH   1  37
TORSDOF 29
