REMARK SMILES CC(C)Cc1ccc([C@@H](C)C(=O)OCCOCCOCCOCCOC(=O)c2ccc(-c3c4nc(c(-c5ccc(S(=O)(=O)[O-])cc5)c5ccc([nH]5)c(-c5ccc(S(=O)(=O)[O-])cc5)c5nc(c(-c6ccc(S(=O)(=O)[O-])cc6)c6ccc3[nH]6)C=C5)C=C4)cc2)cc1
REMARK SMILES IDX 19 1 18 2 17 3 16 4 15 5 14 6 13 7 11 8 12 9 9 10 10 11 8 12
REMARK SMILES IDX 5 13 6 14 89 15 7 16 88 17 4 18 2 19 1 20 3 21 20 22 21 23
REMARK SMILES IDX 22 24 23 25 24 26 25 27 26 28 27 29 28 30 29 31 87 32 30 33
REMARK SMILES IDX 86 34 31 35 32 36 33 37 80 38 34 39 85 40 79 41 81 42 35 43
REMARK SMILES IDX 84 44 78 45 77 46 36 48 66 49 47 50 65 51 48 52 51 53 64 54
REMARK SMILES IDX 82 55 49 56 50 57 63 59 83 60 52 61 37 62 38 63 46 64 39 65
REMARK SMILES IDX 45 66 40 67 41 68 42 69 43 70 44 71 67 72 68 73 76 74 69 75
REMARK SMILES IDX 75 76 70 77 71 78 72 79 73 80 74 81 53 82 54 83 62 84 55 85
REMARK SMILES IDX 61 86 56 87 57 88 58 89 59 90 60 91
REMARK H PARENT 81 47 51 58
REMARK Flexibility Score: inf
ROOT
ATOM      1  O   UNL     1      -2.952   4.049  -3.999  1.00  0.00    -0.377 OA
ENDROOT
BRANCH   1   2
ATOM      2  C   UNL     1      -3.995   3.836  -3.073  1.00  0.00     0.188 C 
BRANCH   2   3
ATOM      3  C   UNL     1      -5.016   4.978  -2.966  1.00  0.00     0.188 C 
BRANCH   3   4
ATOM      4  O   UNL     1      -4.990   6.080  -3.865  1.00  0.00    -0.376 OA
BRANCH   4   5
ATOM      5  C   UNL     1      -3.755   6.601  -4.337  1.00  0.00     0.202 C 
BRANCH   5   6
ATOM      6  C   UNL     1      -2.639   7.011  -3.357  1.00  0.00     0.261 C 
BRANCH   6   7
ATOM      7  O   UNL     1      -2.287   6.058  -2.336  1.00  0.00    -0.463 OA
BRANCH   7   8
ATOM      8  C   UNL     1      -2.706   6.329  -1.079  1.00  0.00     0.313 C 
ATOM      9  O   UNL     1      -3.353   7.333  -0.781  1.00  0.00    -0.252 OA
BRANCH   8  10
ATOM     10  C   UNL     1      -2.310   5.311  -0.010  1.00  0.00     0.126 C 
ATOM     11  C   UNL     1      -1.248   5.933   0.889  1.00  0.00     0.025 C 
BRANCH  10  12
ATOM     12  C   UNL     1      -1.925   3.882  -0.387  1.00  0.00    -0.034 A 
ATOM     13  C   UNL     1      -1.297   1.180  -1.037  1.00  0.00    -0.048 A 
ATOM     14  C   UNL     1      -0.620   2.249  -1.641  1.00  0.00     0.004 A 
ATOM     15  C   UNL     1      -2.321   1.475  -0.131  1.00  0.00     0.004 A 
ATOM     16  C   UNL     1      -0.909   3.579  -1.301  1.00  0.00     0.005 A 
ATOM     17  C   UNL     1      -2.623   2.803   0.196  1.00  0.00     0.005 A 
BRANCH  13  18
ATOM     18  C   UNL     1      -0.941  -0.262  -1.341  1.00  0.00     0.038 C 
BRANCH  18  19
ATOM     19  C   UNL     1       0.572  -0.578  -1.293  1.00  0.00    -0.013 C 
ATOM     20  C   UNL     1       1.197  -0.212   0.057  1.00  0.00     0.008 C 
ATOM     21  C   UNL     1       0.823  -2.061  -1.583  1.00  0.00     0.008 C 
ENDBRANCH  18  19
ENDBRANCH  13  18
ENDBRANCH  10  12
ENDBRANCH   8  10
ENDBRANCH   7   8
ENDBRANCH   6   7
ENDBRANCH   5   6
ENDBRANCH   4   5
ENDBRANCH   3   4
ENDBRANCH   2   3
ENDBRANCH   1   2
BRANCH   1  22
ATOM     22  C   UNL     1      -3.048   3.359  -5.234  1.00  0.00     0.188 C 
BRANCH  22  23
ATOM     23  C   UNL     1      -4.444   3.285  -5.880  1.00  0.00     0.188 C 
BRANCH  23  24
ATOM     24  O   UNL     1      -5.450   2.758  -5.023  1.00  0.00    -0.376 OA
BRANCH  24  25
ATOM     25  C   UNL     1      -5.750   1.371  -5.091  1.00  0.00     0.202 C 
BRANCH  25  26
ATOM     26  C   UNL     1      -4.665   0.355  -4.686  1.00  0.00     0.261 C 
BRANCH  26  27
ATOM     27  O   UNL     1      -3.424   0.391  -5.409  1.00  0.00    -0.460 OA
BRANCH  27  28
ATOM     28  C   UNL     1      -3.458   0.272  -6.751  1.00  0.00     0.338 C 
ATOM     29  O   UNL     1      -4.442   0.058  -7.441  1.00  0.00    -0.246 OA
BRANCH  28  30
ATOM     30  C   UNL     1      -2.128   0.652  -7.276  1.00  0.00     0.060 A 
ATOM     31  C   UNL     1      -2.036   1.724  -8.175  1.00  0.00     0.016 A 
ATOM     32  C   UNL     1      -0.978  -0.039  -6.886  1.00  0.00     0.016 A 
ATOM     33  C   UNL     1      -0.801   2.081  -8.718  1.00  0.00     0.010 A 
ATOM     34  C   UNL     1       0.255   0.303  -7.453  1.00  0.00     0.010 A 
ATOM     35  C   UNL     1       0.344   1.340  -8.399  1.00  0.00    -0.014 A 
BRANCH  35  36
ATOM     36  C   UNL     1       1.579   1.513  -9.205  1.00  0.00     0.031 A 
ATOM     37  C   UNL     1       1.843   0.533 -10.319  1.00  0.00     0.074 A 
ATOM     38  C   UNL     1       2.440   2.521  -8.972  1.00  0.00     0.049 A 
ATOM     39  N   UNL     1       2.871   0.449 -11.122  1.00  0.00    -0.248 NA
ATOM     40  C   UNL     1       0.809  -0.490 -10.558  1.00  0.00     0.031 C 
ATOM     41  C   UNL     1       2.275   3.561  -7.956  1.00  0.00     0.029 A 
ATOM     42  N   UNL     1       3.637   2.827  -9.573  1.00  0.00    -0.354 N 
ATOM     43  C   UNL     1       2.622  -0.647 -11.941  1.00  0.00     0.074 A 
ATOM     44  C   UNL     1       1.352  -1.204 -11.533  1.00  0.00     0.031 C 
ATOM     45  C   UNL     1       3.342   4.380  -7.994  1.00  0.00     0.029 A 
ATOM     46  C   UNL     1       4.282   3.903  -9.007  1.00  0.00     0.049 A 
ATOM     47  H   UNL     1       3.999   2.324 -10.338  1.00  0.00     0.167 HD
ATOM     48  C   UNL     1       3.386  -1.147 -12.939  1.00  0.00     0.031 A 
ATOM     49  C   UNL     1       5.502   4.421  -9.258  1.00  0.00     0.031 A 
ATOM     50  C   UNL     1       4.646  -0.587 -13.347  1.00  0.00     0.049 A 
ATOM     51  C   UNL     1       6.359   3.804 -10.338  1.00  0.00     0.074 A 
ATOM     52  C   UNL     1       5.470  -0.997 -14.381  1.00  0.00     0.029 A 
ATOM     53  N   UNL     1       5.271   0.489 -12.738  1.00  0.00    -0.354 N 
ATOM     54  N   UNL     1       6.084   2.802 -11.139  1.00  0.00    -0.248 NA
ATOM     55  C   UNL     1       7.688   4.396 -10.555  1.00  0.00     0.031 C 
ATOM     56  C   UNL     1       6.629  -0.218 -14.348  1.00  0.00     0.029 A 
ATOM     57  C   UNL     1       6.490   0.730 -13.347  1.00  0.00     0.049 A 
ATOM     58  H   UNL     1       4.903   1.005 -11.985  1.00  0.00     0.167 HD
ATOM     59  C   UNL     1       7.190   2.669 -11.975  1.00  0.00     0.074 A 
ATOM     60  C   UNL     1       8.128   3.703 -11.596  1.00  0.00     0.031 C 
ATOM     61  C   UNL     1       7.410   1.772 -12.969  1.00  0.00     0.031 A 
BRANCH  48  62
ATOM     62  C   UNL     1       2.914  -2.393 -13.640  1.00  0.00    -0.014 A 
ATOM     63  C   UNL     1       1.833  -2.370 -14.538  1.00  0.00     0.010 A 
ATOM     64  C   UNL     1       3.636  -3.589 -13.466  1.00  0.00     0.010 A 
ATOM     65  C   UNL     1       1.477  -3.524 -15.242  1.00  0.00     0.020 A 
ATOM     66  C   UNL     1       3.301  -4.737 -14.188  1.00  0.00     0.020 A 
ATOM     67  C   UNL     1       2.220  -4.698 -15.069  1.00  0.00     0.054 A 
BRANCH  67  68
ATOM     68  S   UNL     1       1.784  -6.156 -16.055  1.00  0.00     0.124 S 
ATOM     69  O   UNL     1       0.506  -6.549 -15.465  1.00  0.00    -0.237 OA
ATOM     70  O   UNL     1       1.710  -5.614 -17.409  1.00  0.00    -0.237 OA
ATOM     71  O   UNL     1       2.889  -7.081 -15.816  1.00  0.00    -0.744 OA
ENDBRANCH  67  68
ENDBRANCH  48  62
BRANCH  49  72
ATOM     72  C   UNL     1       6.025   5.557  -8.443  1.00  0.00    -0.014 A 
ATOM     73  C   UNL     1       6.302   6.805  -9.029  1.00  0.00     0.010 A 
ATOM     74  C   UNL     1       6.309   5.371  -7.077  1.00  0.00     0.010 A 
ATOM     75  C   UNL     1       6.891   7.828  -8.278  1.00  0.00     0.020 A 
ATOM     76  C   UNL     1       6.864   6.402  -6.314  1.00  0.00     0.020 A 
ATOM     77  C   UNL     1       7.172   7.618  -6.925  1.00  0.00     0.054 A 
BRANCH  77  78
ATOM     78  S   UNL     1       7.934   8.958  -5.968  1.00  0.00     0.124 S 
ATOM     79  O   UNL     1       9.295   8.971  -6.495  1.00  0.00    -0.237 OA
ATOM     80  O   UNL     1       7.106  10.107  -6.323  1.00  0.00    -0.237 OA
ATOM     81  O   UNL     1       7.803   8.507  -4.585  1.00  0.00    -0.744 OA
ENDBRANCH  77  78
ENDBRANCH  49  72
BRANCH  61  82
ATOM     82  C   UNL     1       8.688   1.896 -13.760  1.00  0.00    -0.014 A 
ATOM     83  C   UNL     1       9.937   1.588 -13.194  1.00  0.00     0.010 A 
ATOM     84  C   UNL     1       8.624   2.268 -15.116  1.00  0.00     0.010 A 
ATOM     85  C   UNL     1      11.103   1.685 -13.961  1.00  0.00     0.020 A 
ATOM     86  C   UNL     1       9.782   2.331 -15.895  1.00  0.00     0.020 A 
ATOM     87  C   UNL     1      11.017   2.053 -15.308  1.00  0.00     0.054 A 
BRANCH  87  88
ATOM     88  S   UNL     1      12.539   2.129 -16.291  1.00  0.00     0.124 S 
ATOM     89  O   UNL     1      13.192   3.318 -15.750  1.00  0.00    -0.237 OA
ATOM     90  O   UNL     1      13.186   0.858 -15.977  1.00  0.00    -0.237 OA
ATOM     91  O   UNL     1      12.059   2.255 -17.666  1.00  0.00    -0.744 OA
ENDBRANCH  87  88
ENDBRANCH  61  82
ENDBRANCH  35  36
ENDBRANCH  28  30
ENDBRANCH  27  28
ENDBRANCH  26  27
ENDBRANCH  25  26
ENDBRANCH  24  25
ENDBRANCH  23  24
ENDBRANCH  22  23
ENDBRANCH   1  22
TORSDOF 26
