REMARK SMILES C[C@@H](C(=O)OCCOCCOCCOCCOC(=O)c1ccc(-c2c3nc(c(-c4ccc(S(=O)(=O)[O-])cc4)c4ccc([nH]4)c(-c4ccc(S(=O)(=O)[O-])cc4)c4nc(c(-c5ccc(S(=O)(=O)[O-])cc5)c5ccc2[nH]5)C=C4)C=C3)cc1)n1ccc(C(=O)N2CC[NH+](Cc3cccc(F)c3)CC2)n1
REMARK SMILES IDX 10 1 9 2 8 3 7 4 6 5 5 6 3 7 4 8 2 9 1 10 80 11 81 12 100 13
REMARK SMILES IDX 82 14 83 15 84 16 85 17 86 18 87 19 99 20 88 21 98 22 89 23
REMARK SMILES IDX 90 25 91 26 92 27 97 28 93 29 95 30 94 31 96 32 11 33 12 34
REMARK SMILES IDX 13 35 14 36 15 37 16 38 17 39 18 40 19 41 20 42 21 43 79 44
REMARK SMILES IDX 22 45 78 46 23 47 24 48 25 49 72 50 26 51 77 52 71 53 73 54
REMARK SMILES IDX 27 55 76 56 70 57 69 58 28 60 58 61 39 62 57 63 40 64 43 65
REMARK SMILES IDX 56 66 74 67 41 68 42 69 55 71 75 72 44 73 29 74 30 75 38 76
REMARK SMILES IDX 31 77 37 78 32 79 33 80 34 81 35 82 36 83 59 84 60 85 68 86
REMARK SMILES IDX 61 87 67 88 62 89 63 90 64 91 65 92 66 93 45 94 46 95 54 96
REMARK SMILES IDX 47 97 53 98 48 99 49 100 50 101 51 102 52 103
REMARK H PARENT 89 24 73 59 43 70
REMARK Flexibility Score: inf
ROOT
ATOM      1  C   UNL     1       0.887  -0.545   2.662  1.00  0.00     0.188 C 
ENDROOT
BRANCH   1   2
ATOM      2  C   UNL     1       0.088  -1.786   3.092  1.00  0.00     0.188 C 
BRANCH   2   3
ATOM      3  O   UNL     1       0.684  -2.772   3.921  1.00  0.00    -0.376 OA
BRANCH   3   4
ATOM      4  C   UNL     1       1.930  -3.369   3.588  1.00  0.00     0.202 C 
BRANCH   4   5
ATOM      5  C   UNL     1       2.415  -3.614   2.145  1.00  0.00     0.261 C 
BRANCH   5   6
ATOM      6  O   UNL     1       1.927  -2.709   1.145  1.00  0.00    -0.462 OA
BRANCH   6   7
ATOM      7  C   UNL     1       1.123  -3.217   0.184  1.00  0.00     0.330 C 
ATOM      8  O   UNL     1       0.836  -4.408   0.093  1.00  0.00    -0.250 OA
BRANCH   7   9
ATOM      9  C   UNL     1       0.542  -2.157  -0.750  1.00  0.00     0.213 C 
ATOM     10  C   UNL     1       1.363  -0.865  -0.903  1.00  0.00     0.046 C 
BRANCH   9  11
ATOM     11  N   UNL     1      -0.885  -1.974  -0.468  1.00  0.00    -0.258 N 
ATOM     12  C   UNL     1      -1.830  -2.965  -0.456  1.00  0.00     0.110 A 
ATOM     13  N   UNL     1      -1.410  -0.761  -0.174  1.00  0.00    -0.167 NA
ATOM     14  C   UNL     1      -3.010  -2.373  -0.091  1.00  0.00     0.056 A 
ATOM     15  C   UNL     1      -2.716  -0.992   0.074  1.00  0.00     0.150 A 
BRANCH  15  16
ATOM     16  C   UNL     1      -3.685   0.013   0.564  1.00  0.00     0.274 C 
ATOM     17  O   UNL     1      -4.707  -0.364   1.145  1.00  0.00    -0.267 OA
ATOM     18  N   UNL     1      -3.438   1.386   0.383  1.00  0.00    -0.326 N 
ATOM     19  C   UNL     1      -4.346   2.286   1.088  1.00  0.00     0.181 C 
ATOM     20  C   UNL     1      -2.803   1.900  -0.832  1.00  0.00     0.181 C 
ATOM     21  C   UNL     1      -3.965   3.777   1.049  1.00  0.00     0.284 C 
ATOM     22  C   UNL     1      -2.439   3.395  -0.776  1.00  0.00     0.284 C 
ATOM     23  N   UNL     1      -3.461   4.293  -0.227  1.00  0.00    -0.328 N 
ATOM     24  H   UNL     1      -2.992   5.173  -0.013  1.00  0.00     0.348 HD
BRANCH  23  25
ATOM     25  C   UNL     1      -4.454   4.811  -1.172  1.00  0.00     0.299 C 
BRANCH  25  26
ATOM     26  C   UNL     1      -5.441   3.827  -1.754  1.00  0.00     0.009 A 
ATOM     27  C   UNL     1      -5.202   3.213  -2.994  1.00  0.00     0.010 A 
ATOM     28  C   UNL     1      -6.593   3.469  -1.041  1.00  0.00     0.048 A 
ATOM     29  C   UNL     1      -6.033   2.186  -3.453  1.00  0.00     0.004 A 
ATOM     30  C   UNL     1      -7.400   2.430  -1.494  1.00  0.00     0.123 A 
ATOM     31  C   UNL     1      -7.119   1.774  -2.684  1.00  0.00     0.039 A 
ATOM     32  F   UNL     1      -8.441   2.035  -0.750  1.00  0.00    -0.207 F 
ENDBRANCH  25  26
ENDBRANCH  23  25
ENDBRANCH  15  16
ENDBRANCH   9  11
ENDBRANCH   7   9
ENDBRANCH   6   7
ENDBRANCH   5   6
ENDBRANCH   4   5
ENDBRANCH   3   4
ENDBRANCH   2   3
ENDBRANCH   1   2
BRANCH   1  33
ATOM     33  O   UNL     1       2.290  -0.684   2.780  1.00  0.00    -0.377 OA
BRANCH  33  34
ATOM     34  C   UNL     1       2.898  -0.188   3.965  1.00  0.00     0.188 C 
BRANCH  34  35
ATOM     35  C   UNL     1       2.106  -0.232   5.288  1.00  0.00     0.188 C 
BRANCH  35  36
ATOM     36  O   UNL     1       0.786   0.288   5.201  1.00  0.00    -0.376 OA
BRANCH  36  37
ATOM     37  C   UNL     1       0.559   1.633   5.597  1.00  0.00     0.202 C 
BRANCH  37  38
ATOM     38  C   UNL     1       1.217   2.743   4.759  1.00  0.00     0.261 C 
BRANCH  38  39
ATOM     39  O   UNL     1       2.651   2.729   4.685  1.00  0.00    -0.460 OA
BRANCH  39  40
ATOM     40  C   UNL     1       3.345   2.774   5.846  1.00  0.00     0.338 C 
ATOM     41  O   UNL     1       2.893   2.898   6.962  1.00  0.00    -0.246 OA
BRANCH  40  42
ATOM     42  C   UNL     1       4.754   2.436   5.537  1.00  0.00     0.060 A 
ATOM     43  C   UNL     1       5.337   1.330   6.168  1.00  0.00     0.016 A 
ATOM     44  C   UNL     1       5.493   3.204   4.634  1.00  0.00     0.016 A 
ATOM     45  C   UNL     1       6.676   1.014   5.933  1.00  0.00     0.010 A 
ATOM     46  C   UNL     1       6.840   2.900   4.416  1.00  0.00     0.010 A 
ATOM     47  C   UNL     1       7.448   1.827   5.093  1.00  0.00    -0.014 A 
BRANCH  47  48
ATOM     48  C   UNL     1       8.925   1.685   5.085  1.00  0.00     0.031 A 
ATOM     49  C   UNL     1       9.736   2.634   5.927  1.00  0.00     0.074 A 
ATOM     50  C   UNL     1       9.538   0.725   4.369  1.00  0.00     0.049 A 
ATOM     51  N   UNL     1      11.034   2.739   6.044  1.00  0.00    -0.248 NA
ATOM     52  C   UNL     1       8.978   3.595   6.746  1.00  0.00     0.031 C 
ATOM     53  C   UNL     1       8.865  -0.285   3.555  1.00  0.00     0.029 A 
ATOM     54  N   UNL     1      10.874   0.453   4.208  1.00  0.00    -0.354 N 
ATOM     55  C   UNL     1      11.249   3.781   6.940  1.00  0.00     0.074 A 
ATOM     56  C   UNL     1       9.949   4.297   7.309  1.00  0.00     0.031 C 
ATOM     57  C   UNL     1       9.794  -1.062   2.970  1.00  0.00     0.029 A 
ATOM     58  C   UNL     1      11.126  -0.580   3.337  1.00  0.00     0.049 A 
ATOM     59  H   UNL     1      11.585   0.950   4.673  1.00  0.00     0.167 HD
ATOM     60  C   UNL     1      12.421   4.261   7.418  1.00  0.00     0.031 A 
ATOM     61  C   UNL     1      12.295  -1.063   2.868  1.00  0.00     0.031 A 
ATOM     62  C   UNL     1      13.713   3.759   7.032  1.00  0.00     0.049 A 
ATOM     63  C   UNL     1      13.590  -0.456   3.346  1.00  0.00     0.074 A 
ATOM     64  C   UNL     1      14.960   4.175   7.463  1.00  0.00     0.029 A 
ATOM     65  N   UNL     1      13.925   2.737   6.119  1.00  0.00    -0.354 N 
ATOM     66  N   UNL     1      13.778   0.517   4.207  1.00  0.00    -0.248 NA
ATOM     67  C   UNL     1      14.832  -1.018   2.796  1.00  0.00     0.031 C 
ATOM     68  C   UNL     1      15.928   3.450   6.760  1.00  0.00     0.029 A 
ATOM     69  C   UNL     1      15.283   2.529   5.950  1.00  0.00     0.049 A 
ATOM     70  H   UNL     1      13.214   2.234   5.659  1.00  0.00     0.167 HD
ATOM     71  C   UNL     1      15.158   0.661   4.324  1.00  0.00     0.074 A 
ATOM     72  C   UNL     1      15.756  -0.334   3.458  1.00  0.00     0.031 C 
ATOM     73  C   UNL     1      15.866   1.534   5.083  1.00  0.00     0.031 A 
BRANCH  60  74
ATOM     74  C   UNL     1      12.356   5.418   8.382  1.00  0.00    -0.014 A 
ATOM     75  C   UNL     1      11.849   5.258   9.685  1.00  0.00     0.010 A 
ATOM     76  C   UNL     1      12.839   6.679   7.988  1.00  0.00     0.010 A 
ATOM     77  C   UNL     1      11.787   6.347  10.559  1.00  0.00     0.020 A 
ATOM     78  C   UNL     1      12.809   7.763   8.870  1.00  0.00     0.020 A 
ATOM     79  C   UNL     1      12.267   7.593  10.145  1.00  0.00     0.054 A 
BRANCH  79  80
ATOM     80  S   UNL     1      12.192   8.983  11.308  1.00  0.00     0.124 S 
ATOM     81  O   UNL     1      10.757   9.249  11.367  1.00  0.00    -0.237 OA
ATOM     82  O   UNL     1      12.777   8.415  12.520  1.00  0.00    -0.237 OA
ATOM     83  O   UNL     1      12.991  10.021  10.661  1.00  0.00    -0.744 OA
ENDBRANCH  79  80
ENDBRANCH  60  74
BRANCH  61  84
ATOM     84  C   UNL     1      12.296  -2.167   1.866  1.00  0.00    -0.014 A 
ATOM     85  C   UNL     1      12.788  -3.442   2.194  1.00  0.00     0.010 A 
ATOM     86  C   UNL     1      11.801  -1.941   0.567  1.00  0.00     0.010 A 
ATOM     87  C   UNL     1      12.797  -4.466   1.240  1.00  0.00     0.020 A 
ATOM     88  C   UNL     1      11.779  -2.970  -0.379  1.00  0.00     0.020 A 
ATOM     89  C   UNL     1      12.286  -4.224  -0.038  1.00  0.00     0.054 A 
BRANCH  89  90
ATOM     90  S   UNL     1      12.252  -5.584  -1.239  1.00  0.00     0.124 S 
ATOM     91  O   UNL     1      13.667  -5.746  -1.557  1.00  0.00    -0.237 OA
ATOM     92  O   UNL     1      11.648  -6.668  -0.467  1.00  0.00    -0.237 OA
ATOM     93  O   UNL     1      11.421  -5.064  -2.322  1.00  0.00    -0.744 OA
ENDBRANCH  89  90
ENDBRANCH  61  84
BRANCH  73  94
ATOM     94  C   UNL     1      17.371   1.433   5.050  1.00  0.00    -0.014 A 
ATOM     95  C   UNL     1      18.110   1.810   3.915  1.00  0.00     0.010 A 
ATOM     96  C   UNL     1      18.059   1.009   6.203  1.00  0.00     0.010 A 
ATOM     97  C   UNL     1      19.506   1.734   3.923  1.00  0.00     0.020 A 
ATOM     98  C   UNL     1      19.455   0.963   6.226  1.00  0.00     0.020 A 
ATOM     99  C   UNL     1      20.170   1.313   5.079  1.00  0.00     0.054 A 
BRANCH  99 100
ATOM    100  S   UNL     1      21.983   1.266   5.076  1.00  0.00     0.124 S 
ATOM    101  O   UNL     1      22.257   0.130   4.200  1.00  0.00    -0.237 OA
ATOM    102  O   UNL     1      22.336   2.576   4.535  1.00  0.00    -0.237 OA
ATOM    103  O   UNL     1      22.328   1.065   6.482  1.00  0.00    -0.744 OA
ENDBRANCH  99 100
ENDBRANCH  73  94
ENDBRANCH  47  48
ENDBRANCH  40  42
ENDBRANCH  39  40
ENDBRANCH  38  39
ENDBRANCH  37  38
ENDBRANCH  36  37
ENDBRANCH  35  36
ENDBRANCH  34  35
ENDBRANCH  33  34
ENDBRANCH   1  33
TORSDOF 27
