REMARK SMILES CCSc1ccc(-c2cc(Cl)cc3c2O[C@@H](C(F)(F)F)C(C(=O)OCCOCCOCCOCCOC(=O)c2ccc(-c4c5nc(c(-c6ccc(S(=O)(=O)[O-])cc6)c6ccc([nH]6)c(-c6ccc(S(=O)(=O)[O-])cc6)c6nc(c(-c7ccc(S(=O)(=O)[O-])cc7)c7ccc4[nH]7)C=C6)C=C5)cc2)=C3)cc1
REMARK SMILES IDX 30 1 29 2 28 3 27 4 26 5 25 6 24 7 22 8 23 9 21 10 8 11 9 12
REMARK SMILES IDX 14 13 10 14 13 15 15 16 11 17 12 18 99 19 16 20 7 21 4 22
REMARK SMILES IDX 5 23 101 24 6 25 100 26 3 27 2 28 1 29 17 30 18 31 19 32
REMARK SMILES IDX 20 33 31 34 32 35 33 36 34 37 35 38 36 39 37 40 38 41 39 42
REMARK SMILES IDX 40 43 98 44 41 45 97 46 42 47 43 48 44 49 91 50 45 51 96 52
REMARK SMILES IDX 90 53 92 54 46 55 95 56 89 57 88 58 47 60 77 61 58 62 76 63
REMARK SMILES IDX 59 64 62 65 75 66 93 67 60 68 61 69 74 71 94 72 63 73 48 74
REMARK SMILES IDX 49 75 57 76 50 77 56 78 51 79 52 80 53 81 54 82 55 83 78 84
REMARK SMILES IDX 79 85 87 86 80 87 86 88 81 89 82 90 83 91 84 92 85 93 64 94
REMARK SMILES IDX 65 95 73 96 66 97 72 98 67 99 68 100 69 101 70 102 71 103
REMARK H PARENT 92 59 62 70
REMARK Flexibility Score: inf
ROOT
ATOM      1  O   UNL     1      13.486  -4.459   2.724  1.00  0.00    -0.377 OA
ENDROOT
BRANCH   1   2
ATOM      2  C   UNL     1      12.080  -4.334   2.666  1.00  0.00     0.188 C 
BRANCH   2   3
ATOM      3  C   UNL     1      11.557  -4.202   1.230  1.00  0.00     0.188 C 
BRANCH   3   4
ATOM      4  O   UNL     1      12.531  -4.468   0.226  1.00  0.00    -0.376 OA
BRANCH   4   5
ATOM      5  C   UNL     1      13.250  -3.361  -0.318  1.00  0.00     0.202 C 
BRANCH   5   6
ATOM      6  C   UNL     1      13.851  -2.341   0.660  1.00  0.00     0.261 C 
BRANCH   6   7
ATOM      7  O   UNL     1      12.803  -1.606   1.333  1.00  0.00    -0.460 OA
BRANCH   7   8
ATOM      8  C   UNL     1      12.339  -0.529   0.681  1.00  0.00     0.338 C 
ATOM      9  O   UNL     1      12.828  -0.066  -0.341  1.00  0.00    -0.246 OA
BRANCH   8  10
ATOM     10  C   UNL     1      11.037  -0.055   1.214  1.00  0.00     0.087 C 
ATOM     11  C   UNL     1       7.919  -2.767   0.857  1.00  0.00     0.026 A 
ATOM     12  C   UNL     1       8.219  -3.597  -0.246  1.00  0.00     0.033 A 
ATOM     13  C   UNL     1       8.816  -1.705   1.088  1.00  0.00     0.135 A 
ATOM     14  C   UNL     1       9.106  -3.177  -1.235  1.00  0.00     0.042 A 
ATOM     15  C   UNL     1       9.515  -1.170  -0.004  1.00  0.00     0.019 A 
ATOM     16  O   UNL     1       9.206  -1.364   2.380  1.00  0.00    -0.475 OA
ATOM     17  Cl  UNL     1       9.413  -4.189  -2.588  1.00  0.00    -0.084 Cl
ATOM     18  C   UNL     1       9.672  -1.911  -1.170  1.00  0.00     0.032 A 
ATOM     19  C   UNL     1      10.193   0.130   0.182  1.00  0.00     0.027 C 
ATOM     20  C   UNL     1      10.354  -0.412   2.524  1.00  0.00     0.316 C 
BRANCH  11  21
ATOM     21  C   UNL     1       6.453  -2.692   1.178  1.00  0.00    -0.015 A 
ATOM     22  C   UNL     1       3.594  -2.593   0.907  1.00  0.00     0.007 A 
ATOM     23  C   UNL     1       4.260  -3.794   1.183  1.00  0.00     0.015 A 
ATOM     24  C   UNL     1       4.358  -1.433   0.833  1.00  0.00     0.015 A 
ATOM     25  C   UNL     1       5.661  -3.844   1.323  1.00  0.00     0.010 A 
ATOM     26  C   UNL     1       5.759  -1.481   0.974  1.00  0.00     0.010 A 
BRANCH  22  27
ATOM     27  S   UNL     1       1.813  -2.649   0.752  1.00  0.00    -0.126 SA
BRANCH  27  28
ATOM     28  C   UNL     1       1.401  -1.407  -0.531  1.00  0.00     0.071 C 
ATOM     29  C   UNL     1       1.065  -0.051   0.071  1.00  0.00     0.016 C 
ENDBRANCH  27  28
ENDBRANCH  22  27
ENDBRANCH  11  21
BRANCH  20  30
ATOM     30  C   UNL     1      11.233  -0.610   3.786  1.00  0.00     0.430 C 
ATOM     31  F   UNL     1      11.722   0.595   4.187  1.00  0.00    -0.167 F 
ATOM     32  F   UNL     1      10.499  -1.087   4.822  1.00  0.00    -0.167 F 
ATOM     33  F   UNL     1      12.290  -1.420   3.650  1.00  0.00    -0.167 F 
ENDBRANCH  20  30
ENDBRANCH   8  10
ENDBRANCH   7   8
ENDBRANCH   6   7
ENDBRANCH   5   6
ENDBRANCH   4   5
ENDBRANCH   3   4
ENDBRANCH   2   3
ENDBRANCH   1   2
BRANCH   1  34
ATOM     34  C   UNL     1      14.038  -5.760   2.547  1.00  0.00     0.188 C 
BRANCH  34  35
ATOM     35  C   UNL     1      13.285  -6.848   1.749  1.00  0.00     0.188 C 
BRANCH  35  36
ATOM     36  O   UNL     1      11.906  -6.990   2.094  1.00  0.00    -0.376 OA
BRANCH  36  37
ATOM     37  C   UNL     1      11.549  -8.132   2.861  1.00  0.00     0.202 C 
BRANCH  37  38
ATOM     38  C   UNL     1      11.845  -7.994   4.361  1.00  0.00     0.261 C 
BRANCH  38  39
ATOM     39  O   UNL     1      13.234  -7.867   4.694  1.00  0.00    -0.460 OA
BRANCH  39  40
ATOM     40  C   UNL     1      14.052  -8.873   4.313  1.00  0.00     0.338 C 
ATOM     41  O   UNL     1      13.730  -9.921   3.781  1.00  0.00    -0.246 OA
BRANCH  40  42
ATOM     42  C   UNL     1      15.443  -8.405   4.466  1.00  0.00     0.060 A 
ATOM     43  C   UNL     1      16.304  -8.479   3.364  1.00  0.00     0.016 A 
ATOM     44  C   UNL     1      15.886  -7.875   5.681  1.00  0.00     0.016 A 
ATOM     45  C   UNL     1      17.628  -8.062   3.488  1.00  0.00     0.010 A 
ATOM     46  C   UNL     1      17.216  -7.476   5.810  1.00  0.00     0.010 A 
ATOM     47  C   UNL     1      18.101  -7.603   4.725  1.00  0.00    -0.014 A 
BRANCH  47  48
ATOM     48  C   UNL     1      19.557  -7.471   4.954  1.00  0.00     0.031 A 
ATOM     49  C   UNL     1      20.286  -8.648   5.543  1.00  0.00     0.074 A 
ATOM     50  C   UNL     1      20.219  -6.341   4.651  1.00  0.00     0.049 A 
ATOM     51  N   UNL     1      21.545  -8.765   5.871  1.00  0.00    -0.248 NA
ATOM     52  C   UNL     1      19.480  -9.856   5.798  1.00  0.00     0.031 C 
ATOM     53  C   UNL     1      19.630  -5.147   4.047  1.00  0.00     0.029 A 
ATOM     54  N   UNL     1      21.541  -6.016   4.824  1.00  0.00    -0.354 N 
ATOM     55  C   UNL     1      21.684 -10.055   6.369  1.00  0.00     0.074 A 
ATOM     56  C   UNL     1      20.377 -10.671   6.330  1.00  0.00     0.031 C 
ATOM     57  C   UNL     1      20.588  -4.212   3.913  1.00  0.00     0.029 A 
ATOM     58  C   UNL     1      21.847  -4.731   4.446  1.00  0.00     0.049 A 
ATOM     59  H   UNL     1      22.208  -6.645   5.185  1.00  0.00     0.167 HD
ATOM     60  C   UNL     1      22.801 -10.675   6.814  1.00  0.00     0.031 A 
ATOM     61  C   UNL     1      23.006  -4.049   4.540  1.00  0.00     0.031 A 
ATOM     62  C   UNL     1      24.093 -10.051   6.883  1.00  0.00     0.049 A 
ATOM     63  C   UNL     1      24.222  -4.734   5.112  1.00  0.00     0.074 A 
ATOM     64  C   UNL     1      25.289 -10.592   7.321  1.00  0.00     0.029 A 
ATOM     65  N   UNL     1      24.356  -8.740   6.515  1.00  0.00    -0.354 N 
ATOM     66  N   UNL     1      24.346  -5.964   5.552  1.00  0.00    -0.248 NA
ATOM     67  C   UNL     1      25.457  -3.940   5.191  1.00  0.00     0.031 C 
ATOM     68  C   UNL     1      26.265  -9.592   7.266  1.00  0.00     0.029 A 
ATOM     69  C   UNL     1      25.690  -8.446   6.737  1.00  0.00     0.049 A 
ATOM     70  H   UNL     1      23.692  -8.112   6.150  1.00  0.00     0.167 HD
ATOM     71  C   UNL     1      25.678  -6.098   5.935  1.00  0.00     0.074 A 
ATOM     72  C   UNL     1      26.320  -4.829   5.664  1.00  0.00     0.031 C 
ATOM     73  C   UNL     1      26.313  -7.176   6.461  1.00  0.00     0.031 A 
BRANCH  60  74
ATOM     74  C   UNL     1      22.654 -12.094   7.292  1.00  0.00    -0.014 A 
ATOM     75  C   UNL     1      22.422 -13.145   6.386  1.00  0.00     0.010 A 
ATOM     76  C   UNL     1      22.760 -12.382   8.665  1.00  0.00     0.010 A 
ATOM     77  C   UNL     1      22.255 -14.452   6.849  1.00  0.00     0.020 A 
ATOM     78  C   UNL     1      22.620 -13.692   9.128  1.00  0.00     0.020 A 
ATOM     79  C   UNL     1      22.350 -14.717   8.218  1.00  0.00     0.054 A 
BRANCH  79  80
ATOM     80  S   UNL     1      22.140 -16.424   8.791  1.00  0.00     0.124 S 
ATOM     81  O   UNL     1      20.700 -16.618   8.640  1.00  0.00    -0.237 OA
ATOM     82  O   UNL     1      22.976 -17.180   7.861  1.00  0.00    -0.237 OA
ATOM     83  O   UNL     1      22.622 -16.390  10.170  1.00  0.00    -0.744 OA
ENDBRANCH  79  80
ENDBRANCH  60  74
BRANCH  61  84
ATOM     84  C   UNL     1      23.070  -2.628   4.101  1.00  0.00    -0.014 A 
ATOM     85  C   UNL     1      23.793  -2.260   2.953  1.00  0.00     0.010 A 
ATOM     86  C   UNL     1      22.405  -1.629   4.837  1.00  0.00     0.010 A 
ATOM     87  C   UNL     1      23.862  -0.921   2.557  1.00  0.00     0.020 A 
ATOM     88  C   UNL     1      22.450  -0.293   4.430  1.00  0.00     0.020 A 
ATOM     89  C   UNL     1      23.187   0.055   3.297  1.00  0.00     0.054 A 
BRANCH  89  90
ATOM     90  S   UNL     1      23.246   1.779   2.735  1.00  0.00     0.124 S 
ATOM     91  O   UNL     1      24.604   2.171   3.096  1.00  0.00    -0.237 OA
ATOM     92  O   UNL     1      22.982   1.653   1.303  1.00  0.00    -0.237 OA
ATOM     93  O   UNL     1      22.183   2.425   3.502  1.00  0.00    -0.744 OA
ENDBRANCH  89  90
ENDBRANCH  61  84
BRANCH  73  94
ATOM     94  C   UNL     1      27.786  -7.047   6.747  1.00  0.00    -0.014 A 
ATOM     95  C   UNL     1      28.257  -6.286   7.830  1.00  0.00     0.010 A 
ATOM     96  C   UNL     1      28.708  -7.758   5.956  1.00  0.00     0.010 A 
ATOM     97  C   UNL     1      29.627  -6.215   8.101  1.00  0.00     0.020 A 
ATOM     98  C   UNL     1      30.075  -7.711   6.239  1.00  0.00     0.020 A 
ATOM     99  C   UNL     1      30.527  -6.928   7.303  1.00  0.00     0.054 A 
BRANCH  99 100
ATOM    100  S   UNL     1      32.295  -6.858   7.703  1.00  0.00     0.124 S 
ATOM    101  O   UNL     1      32.659  -5.522   7.239  1.00  0.00    -0.237 OA
ATOM    102  O   UNL     1      32.305  -7.045   9.152  1.00  0.00    -0.237 OA
ATOM    103  O   UNL     1      32.868  -7.962   6.936  1.00  0.00    -0.744 OA
ENDBRANCH  99 100
ENDBRANCH  73  94
ENDBRANCH  47  48
ENDBRANCH  40  42
ENDBRANCH  39  40
ENDBRANCH  38  39
ENDBRANCH  37  38
ENDBRANCH  36  37
ENDBRANCH  35  36
ENDBRANCH  34  35
ENDBRANCH   1  34
TORSDOF 27
