REMARK SMILES CC(=O)N[C@@H](C(=O)N(CC(=O)OCCOCCOCCOCCOC(=O)c1ccc(-c2c3nc(c(-c4ccc(S(=O)(=O)[O-])cc4)c4ccc([nH]4)c(-c4ccc(S(=O)(=O)[O-])cc4)c4nc(c(-c5ccc(S(=O)(=O)[O-])cc5)c5ccc2[nH]5)C=C4)C=C3)cc1)C(C)(C)C)C(C)C
REMARK SMILES IDX 17 1 16 2 15 3 14 4 13 5 12 6 10 7 11 8 9 9 8 10 6 11 7 12
REMARK SMILES IDX 5 13 4 14 1 15 2 16 3 17 91 19 92 20 93 21 87 22 88 23 89 24
REMARK SMILES IDX 90 25 18 26 19 27 20 28 21 29 22 30 23 31 24 32 25 33 26 34
REMARK SMILES IDX 27 35 28 36 86 37 29 38 85 39 30 40 31 41 32 42 79 43 33 44
REMARK SMILES IDX 84 45 78 46 80 47 34 48 83 49 77 50 76 51 35 53 65 54 46 55
REMARK SMILES IDX 64 56 47 57 50 58 63 59 81 60 48 61 49 62 62 64 82 65 51 66
REMARK SMILES IDX 36 67 37 68 45 69 38 70 44 71 39 72 40 73 41 74 42 75 43 76
REMARK SMILES IDX 66 77 67 78 75 79 68 80 74 81 69 82 70 83 71 84 72 85 73 86
REMARK SMILES IDX 52 87 53 88 61 89 54 90 60 91 55 92 56 93 57 94 58 95 59 96
REMARK H PARENT 4 18 80 52 50 63
REMARK Flexibility Score: inf
ROOT
ATOM      1  C   UNL     1       4.474   0.889  -4.925  1.00  0.00     0.188 C 
ENDROOT
BRANCH   1   2
ATOM      2  C   UNL     1       4.835  -0.594  -4.736  1.00  0.00     0.188 C 
BRANCH   2   3
ATOM      3  O   UNL     1       3.956  -1.617  -5.190  1.00  0.00    -0.376 OA
BRANCH   3   4
ATOM      4  C   UNL     1       2.594  -1.302  -5.440  1.00  0.00     0.202 C 
BRANCH   4   5
ATOM      5  C   UNL     1       1.732  -0.863  -4.238  1.00  0.00     0.261 C 
BRANCH   5   6
ATOM      6  O   UNL     1       2.313   0.128  -3.349  1.00  0.00    -0.462 OA
BRANCH   6   7
ATOM      7  C   UNL     1       2.833  -0.316  -2.179  1.00  0.00     0.325 C 
ATOM      8  O   UNL     1       2.789  -1.487  -1.805  1.00  0.00    -0.250 OA
BRANCH   7   9
ATOM      9  C   UNL     1       3.569   0.749  -1.307  1.00  0.00     0.242 C 
BRANCH   9  10
ATOM     10  N   UNL     1       3.718   2.208  -1.580  1.00  0.00    -0.325 N 
BRANCH  10  11
ATOM     11  C   UNL     1       2.668   3.116  -1.333  1.00  0.00     0.246 C 
ATOM     12  O   UNL     1       2.729   4.281  -1.738  1.00  0.00    -0.272 OA
BRANCH  11  13
ATOM     13  C   UNL     1       1.441   2.672  -0.480  1.00  0.00     0.174 C 
BRANCH  13  14
ATOM     14  N   UNL     1       0.613   1.813  -1.322  1.00  0.00    -0.344 N 
ATOM     15  C   UNL     1       0.245   0.012   0.329  1.00  0.00     0.114 C 
ATOM     16  C   UNL     1       0.035   0.614  -1.034  1.00  0.00     0.217 C 
ATOM     17  O   UNL     1      -0.603   0.027  -1.904  1.00  0.00    -0.275 OA
ATOM     18  H   UNL     1       0.449   2.150  -2.232  1.00  0.00     0.164 HD
ENDBRANCH  13  14
BRANCH  13  19
ATOM     19  C   UNL     1       0.649   3.917   0.026  1.00  0.00     0.015 C 
ATOM     20  C   UNL     1      -0.675   3.549   0.701  1.00  0.00     0.010 C 
ATOM     21  C   UNL     1       1.477   4.749   1.022  1.00  0.00     0.010 C 
ENDBRANCH  13  19
ENDBRANCH  11  13
ENDBRANCH  10  11
BRANCH  10  22
ATOM     22  C   UNL     1       5.076   2.818  -1.911  1.00  0.00     0.035 C 
ATOM     23  C   UNL     1       5.009   3.731  -3.164  1.00  0.00     0.034 C 
ATOM     24  C   UNL     1       5.563   3.694  -0.724  1.00  0.00     0.034 C 
ATOM     25  C   UNL     1       6.219   1.790  -2.109  1.00  0.00     0.034 C 
ENDBRANCH  10  22
ENDBRANCH   9  10
ENDBRANCH   7   9
ENDBRANCH   6   7
ENDBRANCH   5   6
ENDBRANCH   4   5
ENDBRANCH   3   4
ENDBRANCH   2   3
ENDBRANCH   1   2
BRANCH   1  26
ATOM     26  O   UNL     1       3.631   1.130  -6.030  1.00  0.00    -0.377 OA
BRANCH  26  27
ATOM     27  C   UNL     1       4.212   1.866  -7.085  1.00  0.00     0.188 C 
BRANCH  27  28
ATOM     28  C   UNL     1       5.492   1.239  -7.661  1.00  0.00     0.188 C 
BRANCH  28  29
ATOM     29  O   UNL     1       6.487   1.033  -6.671  1.00  0.00    -0.376 OA
BRANCH  29  30
ATOM     30  C   UNL     1       7.556   1.937  -6.481  1.00  0.00     0.202 C 
BRANCH  30  31
ATOM     31  C   UNL     1       7.393   3.466  -6.384  1.00  0.00     0.261 C 
BRANCH  31  32
ATOM     32  O   UNL     1       6.205   4.054  -6.910  1.00  0.00    -0.460 OA
BRANCH  32  33
ATOM     33  C   UNL     1       6.230   4.390  -8.219  1.00  0.00     0.338 C 
ATOM     34  O   UNL     1       7.156   4.216  -8.996  1.00  0.00    -0.246 OA
BRANCH  33  35
ATOM     35  C   UNL     1       4.872   4.811  -8.622  1.00  0.00     0.060 A 
ATOM     36  C   UNL     1       4.188   4.021  -9.555  1.00  0.00     0.016 A 
ATOM     37  C   UNL     1       4.268   5.952  -8.086  1.00  0.00     0.016 A 
ATOM     38  C   UNL     1       2.902   4.368  -9.960  1.00  0.00     0.010 A 
ATOM     39  C   UNL     1       2.994   6.326  -8.531  1.00  0.00     0.010 A 
ATOM     40  C   UNL     1       2.317   5.548  -9.486  1.00  0.00    -0.014 A 
BRANCH  40  41
ATOM     41  C   UNL     1       1.094   6.058 -10.150  1.00  0.00     0.031 A 
ATOM     42  C   UNL     1       1.260   7.029 -11.287  1.00  0.00     0.074 A 
ATOM     43  C   UNL     1      -0.131   5.640  -9.782  1.00  0.00     0.049 A 
ATOM     44  N   UNL     1       0.347   7.629 -12.003  1.00  0.00    -0.248 NA
ATOM     45  C   UNL     1       2.643   7.364 -11.670  1.00  0.00     0.031 C 
ATOM     46  C   UNL     1      -0.413   4.659  -8.736  1.00  0.00     0.029 A 
ATOM     47  N   UNL     1      -1.370   6.001 -10.250  1.00  0.00    -0.354 N 
ATOM     48  C   UNL     1       1.041   8.422 -12.910  1.00  0.00     0.074 A 
ATOM     49  C   UNL     1       2.451   8.238 -12.647  1.00  0.00     0.031 C 
ATOM     50  C   UNL     1      -1.746   4.512  -8.626  1.00  0.00     0.029 A 
ATOM     51  C   UNL     1      -2.409   5.413  -9.568  1.00  0.00     0.049 A 
ATOM     52  H   UNL     1      -1.502   6.621 -11.003  1.00  0.00     0.167 HD
ATOM     53  C   UNL     1       0.547   9.234 -13.872  1.00  0.00     0.031 A 
ATOM     54  C   UNL     1      -3.740   5.606  -9.672  1.00  0.00     0.031 A 
ATOM     55  C   UNL     1      -0.857   9.423 -14.119  1.00  0.00     0.049 A 
ATOM     56  C   UNL     1      -4.264   6.579 -10.700  1.00  0.00     0.074 A 
ATOM     57  C   UNL     1      -1.458  10.208 -15.088  1.00  0.00     0.029 A 
ATOM     58  N   UNL     1      -1.877   8.839 -13.385  1.00  0.00    -0.354 N 
ATOM     59  N   UNL     1      -3.597   7.291 -11.579  1.00  0.00    -0.248 NA
ATOM     60  C   UNL     1      -5.721   6.772 -10.755  1.00  0.00     0.031 C 
ATOM     61  C   UNL     1      -2.841  10.155 -14.893  1.00  0.00     0.029 A 
ATOM     62  C   UNL     1      -3.104   9.277 -13.853  1.00  0.00     0.049 A 
ATOM     63  H   UNL     1      -1.748   8.206 -12.642  1.00  0.00     0.167 HD
ATOM     64  C   UNL     1      -4.555   7.992 -12.306  1.00  0.00     0.074 A 
ATOM     65  C   UNL     1      -5.846   7.605 -11.779  1.00  0.00     0.031 C 
ATOM     66  C   UNL     1      -4.382   8.878 -13.319  1.00  0.00     0.031 A 
BRANCH  53  67
ATOM     67  C   UNL     1       1.526  10.020 -14.701  1.00  0.00    -0.014 A 
ATOM     68  C   UNL     1       2.328   9.400 -15.675  1.00  0.00     0.010 A 
ATOM     69  C   UNL     1       1.590  11.417 -14.548  1.00  0.00     0.010 A 
ATOM     70  C   UNL     1       3.189  10.162 -16.470  1.00  0.00     0.020 A 
ATOM     71  C   UNL     1       2.429  12.186 -15.358  1.00  0.00     0.020 A 
ATOM     72  C   UNL     1       3.229  11.552 -16.309  1.00  0.00     0.054 A 
BRANCH  72  73
ATOM     73  S   UNL     1       4.311  12.521 -17.395  1.00  0.00     0.124 S 
ATOM     74  O   UNL     1       5.638  12.152 -16.908  1.00  0.00    -0.237 OA
ATOM     75  O   UNL     1       3.967  12.015 -18.722  1.00  0.00    -0.237 OA
ATOM     76  O   UNL     1       3.917  13.903 -17.137  1.00  0.00    -0.744 OA
ENDBRANCH  72  73
ENDBRANCH  53  67
BRANCH  54  77
ATOM     77  C   UNL     1      -4.676   4.908  -8.744  1.00  0.00    -0.014 A 
ATOM     78  C   UNL     1      -5.603   3.963  -9.220  1.00  0.00     0.010 A 
ATOM     79  C   UNL     1      -4.667   5.219  -7.371  1.00  0.00     0.010 A 
ATOM     80  C   UNL     1      -6.521   3.369  -8.347  1.00  0.00     0.020 A 
ATOM     81  C   UNL     1      -5.560   4.603  -6.491  1.00  0.00     0.020 A 
ATOM     82  C   UNL     1      -6.495   3.695  -6.988  1.00  0.00     0.054 A 
BRANCH  82  83
ATOM     83  S   UNL     1      -7.685   2.900  -5.872  1.00  0.00     0.124 S 
ATOM     84  O   UNL     1      -8.937   3.547  -6.253  1.00  0.00    -0.237 OA
ATOM     85  O   UNL     1      -7.565   1.491  -6.236  1.00  0.00    -0.237 OA
ATOM     86  O   UNL     1      -7.186   3.239  -4.541  1.00  0.00    -0.744 OA
ENDBRANCH  82  83
ENDBRANCH  54  77
BRANCH  66  87
ATOM     87  C   UNL     1      -5.615   9.467 -13.954  1.00  0.00    -0.014 A 
ATOM     88  C   UNL     1      -6.414  10.404 -13.274  1.00  0.00     0.010 A 
ATOM     89  C   UNL     1      -5.938   9.131 -15.283  1.00  0.00     0.010 A 
ATOM     90  C   UNL     1      -7.528  10.970 -13.900  1.00  0.00     0.020 A 
ATOM     91  C   UNL     1      -7.031   9.719 -15.923  1.00  0.00     0.020 A 
ATOM     92  C   UNL     1      -7.828  10.625 -15.222  1.00  0.00     0.054 A 
BRANCH  92  93
ATOM     93  S   UNL     1      -9.249  11.413 -16.028  1.00  0.00     0.124 S 
ATOM     94  O   UNL     1     -10.375  10.777 -15.349  1.00  0.00    -0.237 OA
ATOM     95  O   UNL     1      -9.048  12.827 -15.722  1.00  0.00    -0.237 OA
ATOM     96  O   UNL     1      -9.092  11.058 -17.437  1.00  0.00    -0.744 OA
ENDBRANCH  92  93
ENDBRANCH  66  87
ENDBRANCH  40  41
ENDBRANCH  33  35
ENDBRANCH  32  33
ENDBRANCH  31  32
ENDBRANCH  30  31
ENDBRANCH  29  30
ENDBRANCH  28  29
ENDBRANCH  27  28
ENDBRANCH  26  27
ENDBRANCH   1  26
TORSDOF 29
