REMARK SMILES O=C(OCCOCCOCCOCCOC(=O)c1ccc(-c2c3nc(c(-c4ccc(S(=O)(=O)[O-])cc4)c4ccc([nH]4)c(-c4ccc(S(=O)(=O)[O-])cc4)c4nc(c(-c5ccc(S(=O)(=O)[O-])cc5)c5ccc2[nH]5)C=C4)C=C3)cc1)C1=Cc2cc(Cl)cc(-c3ccc(CO)cc3)c2O[C@@H]1C(F)(F)F
REMARK SMILES IDX 9 1 8 2 7 3 6 4 5 5 4 6 3 7 2 8 1 9 78 10 79 11 96 12 80 13
REMARK SMILES IDX 95 14 81 15 94 16 82 17 85 18 83 19 84 20 97 21 98 22 99 23
REMARK SMILES IDX 100 24 86 25 87 26 93 27 88 28 92 29 89 30 90 31 91 32 10 34
REMARK SMILES IDX 11 35 12 36 13 37 14 38 15 39 16 40 17 41 18 42 19 43 77 44
REMARK SMILES IDX 20 45 76 46 21 47 22 48 23 49 70 50 24 51 75 52 69 53 71 54
REMARK SMILES IDX 25 55 74 56 68 57 67 58 26 60 56 61 37 62 55 63 38 64 41 65
REMARK SMILES IDX 54 66 72 67 39 68 40 69 53 71 73 72 42 73 27 74 28 75 36 76
REMARK SMILES IDX 29 77 35 78 30 79 31 80 32 81 33 82 34 83 57 84 58 85 66 86
REMARK SMILES IDX 59 87 65 88 60 89 61 90 62 91 63 92 64 93 43 94 44 95 52 96
REMARK SMILES IDX 45 97 51 98 46 99 47 100 48 101 49 102 50 103
REMARK H PARENT 91 33 71 59 41 70
REMARK Flexibility Score: inf
ROOT
ATOM      1  O   UNL     1       2.329  -2.390   3.388  1.00  0.00    -0.377 OA
ENDROOT
BRANCH   1   2
ATOM      2  C   UNL     1       1.615  -1.800   2.339  1.00  0.00     0.188 C 
BRANCH   2   3
ATOM      3  C   UNL     1       2.156  -2.303   1.014  1.00  0.00     0.188 C 
BRANCH   3   4
ATOM      4  O   UNL     1       3.512  -2.087   0.502  1.00  0.00    -0.376 OA
BRANCH   4   5
ATOM      5  C   UNL     1       4.319  -0.872  -0.271  1.00  0.00     0.202 C 
BRANCH   5   6
ATOM      6  C   UNL     1       3.607   1.154  -0.665  1.00  0.00     0.261 C 
BRANCH   6   7
ATOM      7  O   UNL     1       2.723   1.589  -1.830  1.00  0.00    -0.460 OA
BRANCH   7   8
ATOM      8  C   UNL     1       2.950   0.878  -2.941  1.00  0.00     0.338 C 
ATOM      9  O   UNL     1       2.320   0.865  -3.969  1.00  0.00    -0.246 OA
BRANCH   8  10
ATOM     10  C   UNL     1       3.792  -0.130  -2.322  1.00  0.00     0.087 C 
ATOM     11  C   UNL     1       5.163   0.298  -2.073  1.00  0.00     0.027 C 
ATOM     12  C   UNL     1       2.506  -0.547  -0.959  1.00  0.00     0.316 C 
ATOM     13  C   UNL     1       5.805   0.735  -0.452  1.00  0.00     0.019 A 
ATOM     14  O   UNL     1       3.126   0.049   0.803  1.00  0.00    -0.475 OA
ATOM     15  C   UNL     1       7.112   1.145  -0.404  1.00  0.00     0.032 A 
ATOM     16  C   UNL     1       4.817   0.776   0.985  1.00  0.00     0.135 A 
ATOM     17  C   UNL     1       7.552   1.586   0.844  1.00  0.00     0.042 A 
ATOM     18  C   UNL     1       5.336   1.338   2.165  1.00  0.00     0.026 A 
ATOM     19  Cl  UNL     1       9.217   2.049   0.975  1.00  0.00    -0.084 Cl
ATOM     20  C   UNL     1       6.725   1.691   2.023  1.00  0.00     0.033 A 
BRANCH  12  21
ATOM     21  C   UNL     1       2.276  -2.072  -1.716  1.00  0.00     0.430 C 
ATOM     22  F   UNL     1       1.434  -2.980  -1.190  1.00  0.00    -0.167 F 
ATOM     23  F   UNL     1       1.711  -1.804  -2.938  1.00  0.00    -0.167 F 
ATOM     24  F   UNL     1       3.425  -2.732  -2.020  1.00  0.00    -0.167 F 
ENDBRANCH  12  21
BRANCH  18  25
ATOM     25  C   UNL     1       4.779   1.588   3.501  1.00  0.00    -0.015 A 
ATOM     26  C   UNL     1       4.388   2.842   3.997  1.00  0.00     0.009 A 
ATOM     27  C   UNL     1       4.875   0.598   4.458  1.00  0.00     0.009 A 
ATOM     28  C   UNL     1       3.876   2.999   5.312  1.00  0.00     0.007 A 
ATOM     29  C   UNL     1       4.191   0.693   5.668  1.00  0.00     0.007 A 
ATOM     30  C   UNL     1       3.675   1.889   6.127  1.00  0.00    -0.023 A 
BRANCH  30  31
ATOM     31  C   UNL     1       2.952   1.918   7.448  1.00  0.00     0.191 C 
BRANCH  31  32
ATOM     32  O   UNL     1       3.676   2.591   8.458  1.00  0.00    -0.392 OA
ATOM     33  H   UNL     1       4.515   2.131   8.616  1.00  0.00     0.211 HD
ENDBRANCH  31  32
ENDBRANCH  30  31
ENDBRANCH  18  25
ENDBRANCH   8  10
ENDBRANCH   7   8
ENDBRANCH   6   7
ENDBRANCH   5   6
ENDBRANCH   4   5
ENDBRANCH   3   4
ENDBRANCH   2   3
ENDBRANCH   1   2
BRANCH   1  34
ATOM     34  C   UNL     1       3.608  -1.811   3.462  1.00  0.00     0.188 C 
BRANCH  34  35
ATOM     35  C   UNL     1       4.802  -2.703   3.157  1.00  0.00     0.188 C 
BRANCH  35  36
ATOM     36  O   UNL     1       4.477  -3.964   2.638  1.00  0.00    -0.376 OA
BRANCH  36  37
ATOM     37  C   UNL     1       3.874  -4.928   3.489  1.00  0.00     0.202 C 
BRANCH  37  38
ATOM     38  C   UNL     1       3.227  -4.611   4.858  1.00  0.00     0.261 C 
BRANCH  38  39
ATOM     39  O   UNL     1       3.865  -3.663   5.733  1.00  0.00    -0.460 OA
BRANCH  39  40
ATOM     40  C   UNL     1       5.151  -3.860   6.097  1.00  0.00     0.338 C 
ATOM     41  O   UNL     1       5.862  -4.797   5.788  1.00  0.00    -0.246 OA
BRANCH  40  42
ATOM     42  C   UNL     1       5.615  -2.606   6.754  1.00  0.00     0.060 A 
ATOM     43  C   UNL     1       6.795  -1.980   6.316  1.00  0.00     0.016 A 
ATOM     44  C   UNL     1       4.850  -2.011   7.758  1.00  0.00     0.016 A 
ATOM     45  C   UNL     1       7.232  -0.779   6.903  1.00  0.00     0.010 A 
ATOM     46  C   UNL     1       5.276  -0.803   8.329  1.00  0.00     0.010 A 
ATOM     47  C   UNL     1       6.497  -0.198   7.944  1.00  0.00    -0.014 A 
BRANCH  47  48
ATOM     48  C   UNL     1       7.105   0.823   8.851  1.00  0.00     0.031 A 
ATOM     49  C   UNL     1       7.441   0.336  10.243  1.00  0.00     0.074 A 
ATOM     50  C   UNL     1       7.326   2.117   8.534  1.00  0.00     0.049 A 
ATOM     51  N   UNL     1       7.903   0.997  11.270  1.00  0.00    -0.248 NA
ATOM     52  C   UNL     1       7.169  -1.087  10.524  1.00  0.00     0.031 C 
ATOM     53  C   UNL     1       7.052   2.753   7.246  1.00  0.00     0.029 A 
ATOM     54  N   UNL     1       7.811   3.153   9.306  1.00  0.00    -0.354 N 
ATOM     55  C   UNL     1       7.955   0.070  12.303  1.00  0.00     0.074 A 
ATOM     56  C   UNL     1       7.344  -1.145  11.829  1.00  0.00     0.031 C 
ATOM     57  C   UNL     1       7.338   4.069   7.327  1.00  0.00     0.029 A 
ATOM     58  C   UNL     1       7.841   4.375   8.665  1.00  0.00     0.049 A 
ATOM     59  H   UNL     1       8.110   3.031  10.236  1.00  0.00     0.167 HD
ATOM     60  C   UNL     1       8.531   0.175  13.520  1.00  0.00     0.031 A 
ATOM     61  C   UNL     1       8.245   5.590   9.100  1.00  0.00     0.031 A 
ATOM     62  C   UNL     1       9.170   1.365  13.993  1.00  0.00     0.049 A 
ATOM     63  C   UNL     1       8.837   5.714  10.489  1.00  0.00     0.074 A 
ATOM     64  C   UNL     1       9.849   1.560  15.180  1.00  0.00     0.029 A 
ATOM     65  N   UNL     1       9.203   2.564  13.301  1.00  0.00    -0.354 N 
ATOM     66  N   UNL     1       8.987   4.791  11.411  1.00  0.00    -0.248 NA
ATOM     67  C   UNL     1       9.363   7.033  10.876  1.00  0.00     0.031 C 
ATOM     68  C   UNL     1      10.225   2.903  15.242  1.00  0.00     0.029 A 
ATOM     69  C   UNL     1       9.864   3.517  14.052  1.00  0.00     0.049 A 
ATOM     70  H   UNL     1       8.813   2.715  12.410  1.00  0.00     0.167 HD
ATOM     71  C   UNL     1       9.686   5.401  12.452  1.00  0.00     0.074 A 
ATOM     72  C   UNL     1       9.925   6.770  12.047  1.00  0.00     0.031 C 
ATOM     73  C   UNL     1      10.109   4.872  13.628  1.00  0.00     0.031 A 
BRANCH  60  74
ATOM     74  C   UNL     1       8.499  -1.047  14.396  1.00  0.00    -0.014 A 
ATOM     75  C   UNL     1       9.178  -2.226  14.027  1.00  0.00     0.010 A 
ATOM     76  C   UNL     1       7.764  -1.025  15.591  1.00  0.00     0.010 A 
ATOM     77  C   UNL     1       9.073  -3.377  14.807  1.00  0.00     0.020 A 
ATOM     78  C   UNL     1       7.694  -2.162  16.399  1.00  0.00     0.020 A 
ATOM     79  C   UNL     1       8.333  -3.335  15.992  1.00  0.00     0.054 A 
BRANCH  79  80
ATOM     80  S   UNL     1       8.245  -4.834  17.005  1.00  0.00     0.124 S 
ATOM     81  O   UNL     1       7.414  -5.707  16.179  1.00  0.00    -0.237 OA
ATOM     82  O   UNL     1       9.648  -5.223  17.116  1.00  0.00    -0.237 OA
ATOM     83  O   UNL     1       7.625  -4.377  18.246  1.00  0.00    -0.744 OA
ENDBRANCH  79  80
ENDBRANCH  60  74
BRANCH  61  84
ATOM     84  C   UNL     1       8.192   6.793   8.208  1.00  0.00    -0.014 A 
ATOM     85  C   UNL     1       9.380   7.384   7.732  1.00  0.00     0.010 A 
ATOM     86  C   UNL     1       6.965   7.393   7.872  1.00  0.00     0.010 A 
ATOM     87  C   UNL     1       9.345   8.556   6.966  1.00  0.00     0.020 A 
ATOM     88  C   UNL     1       6.923   8.550   7.081  1.00  0.00     0.020 A 
ATOM     89  C   UNL     1       8.114   9.130   6.639  1.00  0.00     0.054 A 
BRANCH  89  90
ATOM     90  S   UNL     1       8.096  10.620   5.599  1.00  0.00     0.124 S 
ATOM     91  O   UNL     1       8.690  11.620   6.481  1.00  0.00    -0.237 OA
ATOM     92  O   UNL     1       8.916  10.213   4.460  1.00  0.00    -0.237 OA
ATOM     93  O   UNL     1       6.679  10.812   5.300  1.00  0.00    -0.744 OA
ENDBRANCH  89  90
ENDBRANCH  61  84
BRANCH  73  94
ATOM     94  C   UNL     1      10.954   5.734  14.532  1.00  0.00    -0.014 A 
ATOM     95  C   UNL     1      10.435   6.862  15.188  1.00  0.00     0.010 A 
ATOM     96  C   UNL     1      12.290   5.356  14.773  1.00  0.00     0.010 A 
ATOM     97  C   UNL     1      11.252   7.626  16.028  1.00  0.00     0.020 A 
ATOM     98  C   UNL     1      13.095   6.090  15.644  1.00  0.00     0.020 A 
ATOM     99  C   UNL     1      12.577   7.235  16.249  1.00  0.00     0.054 A 
BRANCH  99 100
ATOM    100  S   UNL     1      13.608   8.231  17.358  1.00  0.00     0.124 S 
ATOM    101  O   UNL     1      13.809   9.447  16.575  1.00  0.00    -0.237 OA
ATOM    102  O   UNL     1      12.759   8.376  18.538  1.00  0.00    -0.237 OA
ATOM    103  O   UNL     1      14.802   7.412  17.552  1.00  0.00    -0.744 OA
ENDBRANCH  99 100
ENDBRANCH  73  94
ENDBRANCH  47  48
ENDBRANCH  40  42
ENDBRANCH  39  40
ENDBRANCH  38  39
ENDBRANCH  37  38
ENDBRANCH  36  37
ENDBRANCH  35  36
ENDBRANCH  34  35
ENDBRANCH   1  34
TORSDOF 27
