REMARK SMILES C[C@@H]1CN(C(=O)Nc2ccc(O)c(C(=O)OCCOCCOCCOCCOC(=O)c3ccc(-c4c5nc(c(-c6ccc(S(=O)(=O)[O-])cc6)c6ccc([nH]6)c(-c6ccc(S(=O)(=O)[O-])cc6)c6nc(c(-c7ccc(S(=O)(=O)[O-])cc7)c7ccc4[nH]7)C=C6)C=C5)cc3)c2)C[C@@H]1C
REMARK SMILES IDX 23 1 22 2 21 3 20 4 19 5 18 6 17 7 16 8 14 9 15 10 13 11
REMARK SMILES IDX 8 12 9 13 91 14 10 15 11 16 7 17 5 18 6 19 4 21 1 22 2 23
REMARK SMILES IDX 3 24 93 25 92 26 94 27 12 28 24 30 25 31 26 32 27 33 28 34
REMARK SMILES IDX 29 35 30 36 31 37 32 38 90 39 33 40 89 41 34 42 35 43 36 44
REMARK SMILES IDX 83 45 37 46 88 47 82 48 84 49 38 50 87 51 81 52 80 53 39 55
REMARK SMILES IDX 69 56 50 57 68 58 51 59 54 60 67 61 85 62 52 63 53 64 66 66
REMARK SMILES IDX 86 67 55 68 40 69 41 70 49 71 42 72 48 73 43 74 44 75 45 76
REMARK SMILES IDX 46 77 47 78 70 79 71 80 79 81 72 82 78 83 73 84 74 85 75 86
REMARK SMILES IDX 76 87 77 88 56 89 57 90 65 91 58 92 64 93 59 94 60 95 61 96
REMARK SMILES IDX 62 97 63 98
REMARK H PARENT 7 20 12 29 84 54 54 65
REMARK Flexibility Score: inf
ROOT
ATOM      1  C   UNL     1      -3.079   3.123   7.960  1.00  0.00     0.188 C 
ENDROOT
BRANCH   1   2
ATOM      2  O   UNL     1      -3.112   2.279   6.814  1.00  0.00    -0.377 OA
BRANCH   2   3
ATOM      3  C   UNL     1      -2.677   0.930   6.923  1.00  0.00     0.188 C 
BRANCH   3   4
ATOM      4  C   UNL     1      -1.430   0.562   7.762  1.00  0.00     0.188 C 
BRANCH   4   5
ATOM      5  O   UNL     1      -0.948   1.609   8.583  1.00  0.00    -0.376 OA
BRANCH   5   6
ATOM      6  C   UNL     1       0.307   2.202   8.308  1.00  0.00     0.202 C 
BRANCH   6   7
ATOM      7  C   UNL     1       0.588   2.796   6.920  1.00  0.00     0.261 C 
BRANCH   7   8
ATOM      8  O   UNL     1      -0.061   2.131   5.839  1.00  0.00    -0.460 OA
BRANCH   8   9
ATOM      9  C   UNL     1       0.586   1.111   5.237  1.00  0.00     0.342 C 
ATOM     10  O   UNL     1       1.674   0.653   5.540  1.00  0.00    -0.246 OA
BRANCH   9  11
ATOM     11  C   UNL     1      -0.385   0.440   4.341  1.00  0.00     0.103 A 
ATOM     12  C   UNL     1      -1.398  -1.628   3.630  1.00  0.00     0.044 A 
ATOM     13  C   UNL     1      -2.366  -0.917   2.915  1.00  0.00     0.030 A 
ATOM     14  C   UNL     1      -0.459  -0.959   4.411  1.00  0.00     0.045 A 
ATOM     15  C   UNL     1      -2.294   0.476   2.845  1.00  0.00     0.049 A 
ATOM     16  C   UNL     1      -1.276   1.148   3.521  1.00  0.00     0.130 A 
BRANCH  12  17
ATOM     17  N   UNL     1      -1.284  -3.011   3.480  1.00  0.00    -0.308 N 
ATOM     18  C   UNL     1      -0.827  -3.729   2.407  1.00  0.00     0.321 C 
ATOM     19  O   UNL     1      -0.829  -4.959   2.517  1.00  0.00    -0.248 OA
ATOM     20  H   UNL     1      -1.572  -3.545   4.255  1.00  0.00     0.171 HD
BRANCH  18  21
ATOM     21  N   UNL     1      -0.289  -3.110   1.307  1.00  0.00    -0.324 N 
ATOM     22  C   UNL     1       1.337  -0.246  -0.429  1.00  0.00     0.010 C 
ATOM     23  C   UNL     1       0.626  -1.587  -0.286  1.00  0.00     0.010 C 
ATOM     24  C   UNL     1      -0.125  -1.691   1.033  1.00  0.00     0.125 C 
ATOM     25  C   UNL     1       1.445  -2.887  -0.297  1.00  0.00     0.010 C 
ATOM     26  C   UNL     1       0.425  -3.882   0.295  1.00  0.00     0.125 C 
ATOM     27  C   UNL     1       2.721  -2.876   0.552  1.00  0.00     0.010 C 
ENDBRANCH  18  21
ENDBRANCH  12  17
BRANCH  16  28
ATOM     28  O   UNL     1      -1.139   2.496   3.359  1.00  0.00    -0.507 OA
ATOM     29  H   UNL     1      -1.736   2.965   2.811  1.00  0.00     0.293 HD
ENDBRANCH  16  28
ENDBRANCH   9  11
ENDBRANCH   8   9
ENDBRANCH   7   8
ENDBRANCH   6   7
ENDBRANCH   5   6
ENDBRANCH   4   5
ENDBRANCH   3   4
ENDBRANCH   2   3
ENDBRANCH   1   2
BRANCH   1  30
ATOM     30  C   UNL     1      -3.397   2.546   9.360  1.00  0.00     0.188 C 
BRANCH  30  31
ATOM     31  O   UNL     1      -3.739   1.169   9.368  1.00  0.00    -0.376 OA
BRANCH  31  32
ATOM     32  C   UNL     1      -5.104   0.837   9.551  1.00  0.00     0.202 C 
BRANCH  32  33
ATOM     33  C   UNL     1      -6.107   1.346   8.504  1.00  0.00     0.261 C 
BRANCH  33  34
ATOM     34  O   UNL     1      -6.103   2.759   8.249  1.00  0.00    -0.460 OA
BRANCH  34  35
ATOM     35  C   UNL     1      -6.468   3.576   9.260  1.00  0.00     0.338 C 
ATOM     36  O   UNL     1      -6.810   3.248  10.385  1.00  0.00    -0.246 OA
BRANCH  35  37
ATOM     37  C   UNL     1      -6.197   4.962   8.825  1.00  0.00     0.060 A 
ATOM     38  C   UNL     1      -5.254   5.730   9.521  1.00  0.00     0.016 A 
ATOM     39  C   UNL     1      -6.860   5.488   7.715  1.00  0.00     0.016 A 
ATOM     40  C   UNL     1      -4.987   7.040   9.118  1.00  0.00     0.010 A 
ATOM     41  C   UNL     1      -6.610   6.807   7.329  1.00  0.00     0.010 A 
ATOM     42  C   UNL     1      -5.694   7.597   8.044  1.00  0.00    -0.014 A 
BRANCH  42  43
ATOM     43  C   UNL     1      -5.619   9.054   7.780  1.00  0.00     0.031 A 
ATOM     44  C   UNL     1      -6.716   9.932   8.318  1.00  0.00     0.074 A 
ATOM     45  C   UNL     1      -4.603   9.590   7.080  1.00  0.00     0.049 A 
ATOM     46  N   UNL     1      -6.907  11.215   8.154  1.00  0.00    -0.248 NA
ATOM     47  C   UNL     1      -7.736   9.271   9.149  1.00  0.00     0.031 C 
ATOM     48  C   UNL     1      -3.456   8.854   6.551  1.00  0.00     0.029 A 
ATOM     49  N   UNL     1      -4.383  10.886   6.685  1.00  0.00    -0.354 N 
ATOM     50  C   UNL     1      -8.074  11.512   8.850  1.00  0.00     0.074 A 
ATOM     51  C   UNL     1      -8.561  10.272   9.413  1.00  0.00     0.031 C 
ATOM     52  C   UNL     1      -2.658   9.710   5.889  1.00  0.00     0.029 A 
ATOM     53  C   UNL     1      -3.257  11.043   5.912  1.00  0.00     0.049 A 
ATOM     54  H   UNL     1      -4.975  11.633   6.931  1.00  0.00     0.167 HD
ATOM     55  C   UNL     1      -8.684  12.710   9.006  1.00  0.00     0.031 A 
ATOM     56  C   UNL     1      -2.782  12.132   5.273  1.00  0.00     0.031 A 
ATOM     57  C   UNL     1      -8.207  13.937   8.426  1.00  0.00     0.049 A 
ATOM     58  C   UNL     1      -3.528  13.438   5.387  1.00  0.00     0.074 A 
ATOM     59  C   UNL     1      -8.746  15.207   8.536  1.00  0.00     0.029 A 
ATOM     60  N   UNL     1      -7.085  14.048   7.617  1.00  0.00    -0.354 N 
ATOM     61  N   UNL     1      -4.616  13.711   6.067  1.00  0.00    -0.248 NA
ATOM     62  C   UNL     1      -2.976  14.585   4.651  1.00  0.00     0.031 C 
ATOM     63  C   UNL     1      -7.991  16.072   7.738  1.00  0.00     0.029 A 
ATOM     64  C   UNL     1      -6.936  15.357   7.192  1.00  0.00     0.049 A 
ATOM     65  H   UNL     1      -6.484  13.305   7.381  1.00  0.00     0.167 HD
ATOM     66  C   UNL     1      -4.863  15.066   5.863  1.00  0.00     0.074 A 
ATOM     67  C   UNL     1      -3.801  15.559   5.011  1.00  0.00     0.031 C 
ATOM     68  C   UNL     1      -5.876  15.834   6.339  1.00  0.00     0.031 A 
BRANCH  55  69
ATOM     69  C   UNL     1      -9.963  12.742   9.803  1.00  0.00    -0.014 A 
ATOM     70  C   UNL     1      -9.966  12.530  11.193  1.00  0.00     0.010 A 
ATOM     71  C   UNL     1     -11.178  13.022   9.151  1.00  0.00     0.010 A 
ATOM     72  C   UNL     1     -11.165  12.560  11.911  1.00  0.00     0.020 A 
ATOM     73  C   UNL     1     -12.375  13.084   9.870  1.00  0.00     0.020 A 
ATOM     74  C   UNL     1     -12.362  12.837  11.243  1.00  0.00     0.054 A 
BRANCH  74  75
ATOM     75  S   UNL     1     -13.899  12.896  12.204  1.00  0.00     0.124 S 
ATOM     76  O   UNL     1     -14.097  11.488  12.542  1.00  0.00    -0.237 OA
ATOM     77  O   UNL     1     -13.543  13.765  13.322  1.00  0.00    -0.237 OA
ATOM     78  O   UNL     1     -14.873  13.454  11.270  1.00  0.00    -0.744 OA
ENDBRANCH  74  75
ENDBRANCH  55  69
BRANCH  56  79
ATOM     79  C   UNL     1      -1.550  12.031   4.441  1.00  0.00    -0.014 A 
ATOM     80  C   UNL     1      -0.368  12.693   4.819  1.00  0.00     0.010 A 
ATOM     81  C   UNL     1      -1.556  11.273   3.255  1.00  0.00     0.010 A 
ATOM     82  C   UNL     1       0.777  12.611   4.021  1.00  0.00     0.020 A 
ATOM     83  C   UNL     1      -0.404  11.162   2.471  1.00  0.00     0.020 A 
ATOM     84  C   UNL     1       0.754  11.841   2.855  1.00  0.00     0.054 A 
BRANCH  84  85
ATOM     85  S   UNL     1       2.269  11.704   1.866  1.00  0.00     0.124 S 
ATOM     86  O   UNL     1       2.375  13.039   1.285  1.00  0.00    -0.237 OA
ATOM     87  O   UNL     1       3.272  11.371   2.874  1.00  0.00    -0.237 OA
ATOM     88  O   UNL     1       1.965  10.632   0.921  1.00  0.00    -0.744 OA
ENDBRANCH  84  85
ENDBRANCH  56  79
BRANCH  68  89
ATOM     89  C   UNL     1      -5.871  17.299   5.981  1.00  0.00    -0.014 A 
ATOM     90  C   UNL     1      -6.144  17.735   4.673  1.00  0.00     0.010 A 
ATOM     91  C   UNL     1      -5.646  18.257   6.988  1.00  0.00     0.010 A 
ATOM     92  C   UNL     1      -6.159  19.100   4.371  1.00  0.00     0.020 A 
ATOM     93  C   UNL     1      -5.693  19.623   6.697  1.00  0.00     0.020 A 
ATOM     94  C   UNL     1      -5.935  20.035   5.386  1.00  0.00     0.054 A 
BRANCH  94  95
ATOM     95  S   UNL     1      -6.002  21.801   4.975  1.00  0.00     0.124 S 
ATOM     96  O   UNL     1      -4.778  21.980   4.199  1.00  0.00    -0.237 OA
ATOM     97  O   UNL     1      -7.247  21.906   4.219  1.00  0.00    -0.237 OA
ATOM     98  O   UNL     1      -6.014  22.461   6.279  1.00  0.00    -0.744 OA
ENDBRANCH  94  95
ENDBRANCH  68  89
ENDBRANCH  42  43
ENDBRANCH  35  37
ENDBRANCH  34  35
ENDBRANCH  33  34
ENDBRANCH  32  33
ENDBRANCH  31  32
ENDBRANCH  30  31
ENDBRANCH   1  30
TORSDOF 26
