REMARK SMILES O=C(OCCOCCOCCOCCOC(=O)c1ccc2c(=O)n(Cc3cccnc3)c(=O)[nH]c2c1)c1ccc(-c2c3nc(c(-c4ccc(S(=O)(=O)[O-])cc4)c4ccc([nH]4)c(-c4ccc(S(=O)(=O)[O-])cc4)c4nc(c(-c5ccc(S(=O)(=O)[O-])cc5)c5ccc2[nH]5)C=C4)C=C3)cc1
REMARK SMILES IDX 8 1 7 2 6 3 5 4 4 5 3 6 2 7 1 8 37 9 38 10 96 11 39 12 95 13
REMARK SMILES IDX 40 14 41 15 42 16 89 17 43 18 94 19 88 20 90 21 44 22 93 23
REMARK SMILES IDX 87 24 86 25 45 27 75 28 56 29 74 30 57 31 60 32 73 33 91 34
REMARK SMILES IDX 58 35 59 36 72 38 92 39 61 40 46 41 47 42 55 43 48 44 54 45
REMARK SMILES IDX 49 46 50 47 51 48 52 49 53 50 76 51 77 52 85 53 78 54 84 55
REMARK SMILES IDX 79 56 80 57 81 58 82 59 83 60 62 61 63 62 71 63 64 64 70 65
REMARK SMILES IDX 65 66 66 67 67 68 68 69 69 70 9 71 10 72 11 73 12 74 13 75
REMARK SMILES IDX 14 76 15 77 16 78 17 79 18 80 19 81 36 82 20 83 35 84 21 85
REMARK SMILES IDX 34 86 22 87 32 88 23 90 24 91 33 92 25 93 26 94 27 95 31 96
REMARK SMILES IDX 28 97 30 98 29 99
REMARK H PARENT 90 26 60 37 34 89
REMARK Flexibility Score: inf
ROOT
ATOM      1  C   UNL     1       1.938  -1.209   2.238  1.00  0.00     0.188 C 
ENDROOT
BRANCH   1   2
ATOM      2  C   UNL     1       2.463  -0.135   1.281  1.00  0.00     0.188 C 
BRANCH   2   3
ATOM      3  O   UNL     1       3.778  -0.426   0.809  1.00  0.00    -0.376 OA
BRANCH   3   4
ATOM      4  C   UNL     1       4.722   0.636   0.854  1.00  0.00     0.202 C 
BRANCH   4   5
ATOM      5  C   UNL     1       4.547   1.727  -0.194  1.00  0.00     0.261 C 
BRANCH   5   6
ATOM      6  O   UNL     1       3.251   1.804  -0.800  1.00  0.00    -0.460 OA
BRANCH   6   7
ATOM      7  C   UNL     1       2.614   1.012  -1.692  1.00  0.00     0.338 C 
ATOM      8  O   UNL     1       1.465   1.340  -1.994  1.00  0.00    -0.246 OA
BRANCH   7   9
ATOM      9  C   UNL     1       3.139  -0.262  -2.289  1.00  0.00     0.060 A 
ATOM     10  C   UNL     1       2.316  -0.875  -3.258  1.00  0.00     0.016 A 
ATOM     11  C   UNL     1       4.315  -0.924  -1.939  1.00  0.00     0.016 A 
ATOM     12  C   UNL     1       2.650  -2.103  -3.837  1.00  0.00     0.010 A 
ATOM     13  C   UNL     1       4.628  -2.179  -2.460  1.00  0.00     0.010 A 
ATOM     14  C   UNL     1       3.815  -2.758  -3.435  1.00  0.00    -0.014 A 
BRANCH  14  15
ATOM     15  C   UNL     1       4.385  -3.877  -4.206  1.00  0.00     0.031 A 
ATOM     16  C   UNL     1       4.354  -5.282  -3.701  1.00  0.00     0.074 A 
ATOM     17  C   UNL     1       5.119  -3.523  -5.278  1.00  0.00     0.049 A 
ATOM     18  N   UNL     1       4.850  -6.354  -4.258  1.00  0.00    -0.248 NA
ATOM     19  C   UNL     1       3.716  -5.517  -2.397  1.00  0.00     0.031 C 
ATOM     20  C   UNL     1       5.286  -2.140  -5.742  1.00  0.00     0.029 A 
ATOM     21  N   UNL     1       5.894  -4.256  -6.132  1.00  0.00    -0.354 N 
ATOM     22  C   UNL     1       4.579  -7.397  -3.381  1.00  0.00     0.074 A 
ATOM     23  C   UNL     1       3.913  -6.821  -2.233  1.00  0.00     0.031 C 
ATOM     24  C   UNL     1       6.121  -2.124  -6.786  1.00  0.00     0.029 A 
ATOM     25  C   UNL     1       6.552  -3.488  -7.063  1.00  0.00     0.049 A 
ATOM     26  H   UNL     1       5.974  -5.237  -6.085  1.00  0.00     0.167 HD
ATOM     27  C   UNL     1       4.865  -8.710  -3.549  1.00  0.00     0.031 A 
ATOM     28  C   UNL     1       7.402  -3.841  -8.044  1.00  0.00     0.031 A 
ATOM     29  C   UNL     1       5.565  -9.211  -4.708  1.00  0.00     0.049 A 
ATOM     30  C   UNL     1       7.668  -5.300  -8.241  1.00  0.00     0.074 A 
ATOM     31  C   UNL     1       5.800 -10.526  -5.067  1.00  0.00     0.029 A 
ATOM     32  N   UNL     1       6.167  -8.418  -5.679  1.00  0.00    -0.354 N 
ATOM     33  N   UNL     1       7.237  -6.306  -7.515  1.00  0.00    -0.248 NA
ATOM     34  C   UNL     1       8.494  -5.685  -9.388  1.00  0.00     0.031 C 
ATOM     35  C   UNL     1       6.623 -10.525  -6.195  1.00  0.00     0.029 A 
ATOM     36  C   UNL     1       6.825  -9.213  -6.602  1.00  0.00     0.049 A 
ATOM     37  H   UNL     1       6.130  -7.434  -5.707  1.00  0.00     0.167 HD
ATOM     38  C   UNL     1       7.731  -7.450  -8.121  1.00  0.00     0.074 A 
ATOM     39  C   UNL     1       8.477  -7.010  -9.287  1.00  0.00     0.031 C 
ATOM     40  C   UNL     1       7.582  -8.743  -7.742  1.00  0.00     0.031 A 
BRANCH  27  41
ATOM     41  C   UNL     1       4.420  -9.704  -2.499  1.00  0.00    -0.014 A 
ATOM     42  C   UNL     1       5.369 -10.517  -1.849  1.00  0.00     0.010 A 
ATOM     43  C   UNL     1       3.054  -9.940  -2.256  1.00  0.00     0.010 A 
ATOM     44  C   UNL     1       4.965 -11.563  -1.011  1.00  0.00     0.020 A 
ATOM     45  C   UNL     1       2.645 -10.964  -1.394  1.00  0.00     0.020 A 
ATOM     46  C   UNL     1       3.603 -11.786  -0.797  1.00  0.00     0.054 A 
BRANCH  46  47
ATOM     47  S   UNL     1       3.095 -13.174   0.257  1.00  0.00     0.124 S 
ATOM     48  O   UNL     1       3.393 -14.329  -0.584  1.00  0.00    -0.237 OA
ATOM     49  O   UNL     1       3.946 -13.010   1.433  1.00  0.00    -0.237 OA
ATOM     50  O   UNL     1       1.673 -12.924   0.491  1.00  0.00    -0.744 OA
ENDBRANCH  46  47
ENDBRANCH  27  41
BRANCH  28  51
ATOM     51  C   UNL     1       7.909  -2.769  -8.942  1.00  0.00    -0.014 A 
ATOM     52  C   UNL     1       8.800  -1.792  -8.455  1.00  0.00     0.010 A 
ATOM     53  C   UNL     1       7.301  -2.576 -10.194  1.00  0.00     0.010 A 
ATOM     54  C   UNL     1       8.995  -0.598  -9.157  1.00  0.00     0.020 A 
ATOM     55  C   UNL     1       7.515  -1.395 -10.912  1.00  0.00     0.020 A 
ATOM     56  C   UNL     1       8.325  -0.396 -10.367  1.00  0.00     0.054 A 
BRANCH  56  57
ATOM     57  S   UNL     1       8.457   1.224 -11.175  1.00  0.00     0.124 S 
ATOM     58  O   UNL     1       7.694   2.075 -10.265  1.00  0.00    -0.237 OA
ATOM     59  O   UNL     1       9.899   1.454 -11.190  1.00  0.00    -0.237 OA
ATOM     60  O   UNL     1       7.848   1.006 -12.484  1.00  0.00    -0.744 OA
ENDBRANCH  56  57
ENDBRANCH  28  51
BRANCH  40  61
ATOM     61  C   UNL     1       8.282  -9.795  -8.560  1.00  0.00    -0.014 A 
ATOM     62  C   UNL     1       7.527 -10.751  -9.265  1.00  0.00     0.010 A 
ATOM     63  C   UNL     1       9.677  -9.943  -8.472  1.00  0.00     0.010 A 
ATOM     64  C   UNL     1       8.148 -11.878  -9.805  1.00  0.00     0.020 A 
ATOM     65  C   UNL     1      10.305 -11.051  -9.042  1.00  0.00     0.020 A 
ATOM     66  C   UNL     1       9.531 -12.030  -9.671  1.00  0.00     0.054 A 
BRANCH  66  67
ATOM     67  S   UNL     1      10.301 -13.552 -10.284  1.00  0.00     0.124 S 
ATOM     68  O   UNL     1       9.820 -14.545  -9.329  1.00  0.00    -0.237 OA
ATOM     69  O   UNL     1       9.758 -13.660 -11.635  1.00  0.00    -0.237 OA
ATOM     70  O   UNL     1      11.733 -13.264 -10.216  1.00  0.00    -0.744 OA
ENDBRANCH  66  67
ENDBRANCH  40  61
ENDBRANCH  14  15
ENDBRANCH   7   9
ENDBRANCH   6   7
ENDBRANCH   5   6
ENDBRANCH   4   5
ENDBRANCH   3   4
ENDBRANCH   2   3
ENDBRANCH   1   2
BRANCH   1  71
ATOM     71  O   UNL     1       2.611  -1.318   3.490  1.00  0.00    -0.377 OA
BRANCH  71  72
ATOM     72  C   UNL     1       4.033  -1.327   3.456  1.00  0.00     0.188 C 
BRANCH  72  73
ATOM     73  C   UNL     1       4.765  -2.382   2.591  1.00  0.00     0.188 C 
BRANCH  73  74
ATOM     74  O   UNL     1       3.903  -3.156   1.780  1.00  0.00    -0.376 OA
BRANCH  74  75
ATOM     75  C   UNL     1       3.652  -4.487   2.207  1.00  0.00     0.202 C 
BRANCH  75  76
ATOM     76  C   UNL     1       3.052  -4.717   3.608  1.00  0.00     0.261 C 
BRANCH  76  77
ATOM     77  O   UNL     1       3.598  -3.946   4.697  1.00  0.00    -0.460 OA
BRANCH  77  78
ATOM     78  C   UNL     1       4.821  -4.270   5.154  1.00  0.00     0.338 C 
ATOM     79  O   UNL     1       5.555  -5.163   4.753  1.00  0.00    -0.246 OA
BRANCH  78  80
ATOM     80  C   UNL     1       5.248  -3.239   6.123  1.00  0.00     0.062 A 
ATOM     81  C   UNL     1       4.564  -3.109   7.336  1.00  0.00     0.016 A 
ATOM     82  C   UNL     1       6.324  -2.381   5.805  1.00  0.00     0.042 A 
ATOM     83  C   UNL     1       5.060  -2.233   8.298  1.00  0.00     0.017 A 
ATOM     84  C   UNL     1       6.726  -1.421   6.726  1.00  0.00     0.056 A 
ATOM     85  C   UNL     1       6.173  -1.443   7.994  1.00  0.00     0.064 A 
ATOM     86  N   UNL     1       7.648  -0.418   6.415  1.00  0.00    -0.307 N 
ATOM     87  C   UNL     1       6.891  -0.709   9.032  1.00  0.00     0.264 A 
ATOM     88  C   UNL     1       8.048   0.551   7.309  1.00  0.00     0.329 A 
ATOM     89  H   UNL     1       8.032  -0.403   5.508  1.00  0.00     0.171 HD
ATOM     90  O   UNL     1       6.861  -1.163  10.173  1.00  0.00    -0.268 OA
ATOM     91  N   UNL     1       7.634   0.388   8.624  1.00  0.00    -0.255 N 
ATOM     92  O   UNL     1       8.773   1.466   6.922  1.00  0.00    -0.248 OA
BRANCH  91  93
ATOM     93  C   UNL     1       8.197   1.247   9.664  1.00  0.00     0.168 C 
BRANCH  93  94
ATOM     94  C   UNL     1       7.172   2.123  10.352  1.00  0.00    -0.010 A 
ATOM     95  C   UNL     1       6.144   1.598  11.146  1.00  0.00     0.009 A 
ATOM     96  C   UNL     1       7.227   3.508  10.250  1.00  0.00     0.116 A 
ATOM     97  C   UNL     1       5.206   2.433  11.739  1.00  0.00     0.020 A 
ATOM     98  N   UNL     1       6.345   4.352  10.840  1.00  0.00    -0.264 NA
ATOM     99  C   UNL     1       5.348   3.793  11.559  1.00  0.00     0.111 A 
ENDBRANCH  93  94
ENDBRANCH  91  93
ENDBRANCH  78  80
ENDBRANCH  77  78
ENDBRANCH  76  77
ENDBRANCH  75  76
ENDBRANCH  74  75
ENDBRANCH  73  74
ENDBRANCH  72  73
ENDBRANCH  71  72
ENDBRANCH   1  71
TORSDOF 25
