REMARK SMILES CC[NH2+][C@@]1(C(=O)OCCOCCOCCOCCOC(=O)c2ccc(-c3c4nc(c(-c5ccc(S(=O)(=O)[O-])cc5)c5ccc([nH]5)c(-c5ccc(S(=O)(=O)[O-])cc5)c5nc(c(-c6ccc(S(=O)(=O)[O-])cc6)c6ccc3[nH]6)C=C5)C=C4)cc2)CCC[C@H]1CCN1C(=O)CCC1=O
REMARK SMILES IDX 13 1 12 2 11 3 10 4 9 5 8 6 7 7 5 8 6 9 4 10 82 11 85 12
REMARK SMILES IDX 83 13 84 14 3 15 2 18 1 19 86 20 87 21 88 22 89 23 93 24
REMARK SMILES IDX 90 25 91 26 92 27 94 28 14 29 15 30 16 31 17 32 18 33 19 34
REMARK SMILES IDX 20 35 21 36 22 37 23 38 81 39 24 40 80 41 25 42 26 43 27 44
REMARK SMILES IDX 74 45 28 46 79 47 73 48 75 49 29 50 78 51 72 52 71 53 30 55
REMARK SMILES IDX 60 56 41 57 59 58 42 59 45 60 58 61 76 62 43 63 44 64 57 66
REMARK SMILES IDX 77 67 46 68 31 69 32 70 40 71 33 72 39 73 34 74 35 75 36 76
REMARK SMILES IDX 37 77 38 78 61 79 62 80 70 81 63 82 69 83 64 84 65 85 66 86
REMARK SMILES IDX 67 87 68 88 47 89 48 90 56 91 49 92 55 93 50 94 51 95 52 96
REMARK SMILES IDX 53 97 54 98
REMARK H PARENT 3 16 3 17 75 54 45 65
REMARK Flexibility Score: inf
ROOT
ATOM      1  O   UNL     1       2.080  -4.276   4.636  1.00  0.00    -0.377 OA
ENDROOT
BRANCH   1   2
ATOM      2  C   UNL     1       2.236  -2.878   4.439  1.00  0.00     0.188 C 
BRANCH   2   3
ATOM      3  C   UNL     1       1.197  -1.884   4.969  1.00  0.00     0.188 C 
BRANCH   3   4
ATOM      4  O   UNL     1       0.598  -2.277   6.177  1.00  0.00    -0.376 OA
BRANCH   4   5
ATOM      5  C   UNL     1      -0.701  -2.842   6.170  1.00  0.00     0.202 C 
BRANCH   5   6
ATOM      6  C   UNL     1      -1.309  -3.631   4.989  1.00  0.00     0.261 C 
BRANCH   6   7
ATOM      7  O   UNL     1      -0.533  -3.768   3.789  1.00  0.00    -0.459 OA
BRANCH   7   8
ATOM      8  C   UNL     1      -0.961  -3.036   2.728  1.00  0.00     0.368 C 
ATOM      9  O   UNL     1      -1.919  -2.264   2.788  1.00  0.00    -0.245 OA
BRANCH   8  10
ATOM     10  C   UNL     1      -0.092  -3.204   1.418  1.00  0.00     0.197 C 
ATOM     11  C   UNL     1      -1.099  -3.737   0.376  1.00  0.00     0.081 C 
ATOM     12  C   UNL     1       0.999  -4.332   1.402  1.00  0.00     0.064 C 
ATOM     13  C   UNL     1      -1.219  -5.214   0.730  1.00  0.00     0.008 C 
ATOM     14  C   UNL     1       0.186  -5.634   1.143  1.00  0.00     0.011 C 
BRANCH  10  15
ATOM     15  N   UNL     1       0.457  -1.862   1.200  1.00  0.00    -0.332 N 
ATOM     16  H   UNL     1       0.048  -1.256   1.912  1.00  0.00     0.347 HD
ATOM     17  H   UNL     1       1.465  -2.009   1.238  1.00  0.00     0.347 HD
BRANCH  15  18
ATOM     18  C   UNL     1       0.260  -1.206  -0.070  1.00  0.00     0.257 C 
ATOM     19  C   UNL     1       0.936   0.158  -0.052  1.00  0.00     0.071 C 
ENDBRANCH  15  18
ENDBRANCH  10  15
BRANCH  12  20
ATOM     20  C   UNL     1       2.104  -4.252   0.303  1.00  0.00     0.033 C 
BRANCH  20  21
ATOM     21  C   UNL     1       3.227  -3.204   0.391  1.00  0.00     0.129 C 
BRANCH  21  22
ATOM     22  N   UNL     1       4.263  -3.348   1.402  1.00  0.00    -0.283 N 
ATOM     23  C   UNL     1       5.038  -4.461   1.560  1.00  0.00     0.229 C 
ATOM     24  C   UNL     1       4.798  -2.261   2.040  1.00  0.00     0.229 C 
ATOM     25  O   UNL     1       4.881  -5.552   1.033  1.00  0.00    -0.274 OA
ATOM     26  C   UNL     1       6.228  -4.121   2.412  1.00  0.00     0.110 C 
ATOM     27  C   UNL     1       6.020  -2.674   2.802  1.00  0.00     0.110 C 
ATOM     28  O   UNL     1       4.382  -1.111   2.000  1.00  0.00    -0.274 OA
ENDBRANCH  21  22
ENDBRANCH  20  21
ENDBRANCH  12  20
ENDBRANCH   8  10
ENDBRANCH   7   8
ENDBRANCH   6   7
ENDBRANCH   5   6
ENDBRANCH   4   5
ENDBRANCH   3   4
ENDBRANCH   2   3
ENDBRANCH   1   2
BRANCH   1  29
ATOM     29  C   UNL     1       1.923  -4.831   5.938  1.00  0.00     0.188 C 
BRANCH  29  30
ATOM     30  C   UNL     1       2.503  -4.122   7.177  1.00  0.00     0.188 C 
BRANCH  30  31
ATOM     31  O   UNL     1       3.375  -3.041   6.901  1.00  0.00    -0.376 OA
BRANCH  31  32
ATOM     32  C   UNL     1       4.766  -3.318   6.834  1.00  0.00     0.202 C 
BRANCH  32  33
ATOM     33  C   UNL     1       5.214  -4.430   5.877  1.00  0.00     0.261 C 
BRANCH  33  34
ATOM     34  O   UNL     1       4.781  -5.756   6.187  1.00  0.00    -0.460 OA
BRANCH  34  35
ATOM     35  C   UNL     1       5.086  -6.232   7.411  1.00  0.00     0.338 C 
ATOM     36  O   UNL     1       5.758  -5.703   8.268  1.00  0.00    -0.246 OA
BRANCH  35  37
ATOM     37  C   UNL     1       4.261  -7.436   7.595  1.00  0.00     0.060 A 
ATOM     38  C   UNL     1       3.351  -7.459   8.656  1.00  0.00     0.016 A 
ATOM     39  C   UNL     1       4.386  -8.521   6.723  1.00  0.00     0.016 A 
ATOM     40  C   UNL     1       2.609  -8.607   8.894  1.00  0.00     0.010 A 
ATOM     41  C   UNL     1       3.652  -9.678   6.971  1.00  0.00     0.010 A 
ATOM     42  C   UNL     1       2.809  -9.740   8.094  1.00  0.00    -0.014 A 
BRANCH  42  43
ATOM     43  C   UNL     1       2.352 -11.045   8.615  1.00  0.00     0.031 A 
ATOM     44  C   UNL     1       3.355 -11.887   9.357  1.00  0.00     0.074 A 
ATOM     45  C   UNL     1       1.065 -11.418   8.521  1.00  0.00     0.049 A 
ATOM     46  N   UNL     1       3.187 -13.028   9.971  1.00  0.00    -0.248 NA
ATOM     47  C   UNL     1       4.734 -11.368   9.421  1.00  0.00     0.031 C 
ATOM     48  C   UNL     1       0.005 -10.648   7.871  1.00  0.00     0.029 A 
ATOM     49  N   UNL     1       0.431 -12.536   8.994  1.00  0.00    -0.354 N 
ATOM     50  C   UNL     1       4.434 -13.362  10.488  1.00  0.00     0.074 A 
ATOM     51  C   UNL     1       5.358 -12.329  10.082  1.00  0.00     0.031 C 
ATOM     52  C   UNL     1      -1.155 -11.316   7.997  1.00  0.00     0.029 A 
ATOM     53  C   UNL     1      -0.912 -12.569   8.708  1.00  0.00     0.049 A 
ATOM     54  H   UNL     1       0.894 -13.248   9.492  1.00  0.00     0.167 HD
ATOM     55  C   UNL     1       4.776 -14.429  11.245  1.00  0.00     0.031 A 
ATOM     56  C   UNL     1      -1.833 -13.512   8.986  1.00  0.00     0.031 A 
ATOM     57  C   UNL     1       3.850 -15.460  11.629  1.00  0.00     0.049 A 
ATOM     58  C   UNL     1      -1.412 -14.729   9.770  1.00  0.00     0.074 A 
ATOM     59  C   UNL     1       4.085 -16.589  12.391  1.00  0.00     0.029 A 
ATOM     60  N   UNL     1       2.510 -15.487  11.271  1.00  0.00    -0.354 N 
ATOM     61  N   UNL     1      -0.232 -15.027  10.264  1.00  0.00    -0.248 NA
ATOM     62  C   UNL     1      -2.452 -15.727  10.049  1.00  0.00     0.031 C 
ATOM     63  C   UNL     1       2.902 -17.333  12.439  1.00  0.00     0.029 A 
ATOM     64  C   UNL     1       1.910 -16.627  11.775  1.00  0.00     0.049 A 
ATOM     65  H   UNL     1       2.053 -14.798  10.737  1.00  0.00     0.167 HD
ATOM     66  C   UNL     1      -0.398 -16.230  10.944  1.00  0.00     0.074 A 
ATOM     67  C   UNL     1      -1.795 -16.591  10.810  1.00  0.00     0.031 C 
ATOM     68  C   UNL     1       0.517 -16.969  11.622  1.00  0.00     0.031 A 
BRANCH  55  69
ATOM     69  C   UNL     1       6.219 -14.551  11.663  1.00  0.00    -0.014 A 
ATOM     70  C   UNL     1       6.796 -13.660  12.587  1.00  0.00     0.010 A 
ATOM     71  C   UNL     1       7.007 -15.588  11.131  1.00  0.00     0.010 A 
ATOM     72  C   UNL     1       8.144 -13.781  12.940  1.00  0.00     0.020 A 
ATOM     73  C   UNL     1       8.345 -15.732  11.506  1.00  0.00     0.020 A 
ATOM     74  C   UNL     1       8.909 -14.817  12.397  1.00  0.00     0.054 A 
BRANCH  74  75
ATOM     75  S   UNL     1      10.647 -14.966  12.894  1.00  0.00     0.124 S 
ATOM     76  O   UNL     1      11.250 -13.810  12.236  1.00  0.00    -0.237 OA
ATOM     77  O   UNL     1      10.570 -14.890  14.351  1.00  0.00    -0.237 OA
ATOM     78  O   UNL     1      11.051 -16.265  12.361  1.00  0.00    -0.744 OA
ENDBRANCH  74  75
ENDBRANCH  55  69
BRANCH  56  79
ATOM     79  C   UNL     1      -3.237 -13.347   8.515  1.00  0.00    -0.014 A 
ATOM     80  C   UNL     1      -4.292 -13.163   9.426  1.00  0.00     0.010 A 
ATOM     81  C   UNL     1      -3.524 -13.378   7.138  1.00  0.00     0.010 A 
ATOM     82  C   UNL     1      -5.608 -13.034   8.970  1.00  0.00     0.020 A 
ATOM     83  C   UNL     1      -4.833 -13.216   6.676  1.00  0.00     0.020 A 
ATOM     84  C   UNL     1      -5.869 -13.057   7.597  1.00  0.00     0.054 A 
BRANCH  84  85
ATOM     85  S   UNL     1      -7.578 -12.838   7.027  1.00  0.00     0.124 S 
ATOM     86  O   UNL     1      -8.197 -14.096   7.431  1.00  0.00    -0.237 OA
ATOM     87  O   UNL     1      -8.005 -11.654   7.767  1.00  0.00    -0.237 OA
ATOM     88  O   UNL     1      -7.435 -12.645   5.585  1.00  0.00    -0.744 OA
ENDBRANCH  84  85
ENDBRANCH  56  79
BRANCH  68  89
ATOM     89  C   UNL     1       0.023 -18.213  12.314  1.00  0.00    -0.014 A 
ATOM     90  C   UNL     1      -0.413 -19.337  11.591  1.00  0.00     0.010 A 
ATOM     91  C   UNL     1       0.021 -18.262  13.721  1.00  0.00     0.010 A 
ATOM     92  C   UNL     1      -0.899 -20.463  12.261  1.00  0.00     0.020 A 
ATOM     93  C   UNL     1      -0.427 -19.400  14.395  1.00  0.00     0.020 A 
ATOM     94  C   UNL     1      -0.908 -20.484  13.660  1.00  0.00     0.054 A 
BRANCH  94  95
ATOM     95  S   UNL     1      -1.541 -21.956  14.507  1.00  0.00     0.124 S 
ATOM     96  O   UNL     1      -2.977 -21.850  14.267  1.00  0.00    -0.237 OA
ATOM     97  O   UNL     1      -0.865 -23.045  13.805  1.00  0.00    -0.237 OA
ATOM     98  O   UNL     1      -1.126 -21.764  15.894  1.00  0.00    -0.744 OA
ENDBRANCH  94  95
ENDBRANCH  68  89
ENDBRANCH  42  43
ENDBRANCH  35  37
ENDBRANCH  34  35
ENDBRANCH  33  34
ENDBRANCH  32  33
ENDBRANCH  31  32
ENDBRANCH  30  31
ENDBRANCH  29  30
ENDBRANCH   1  29
TORSDOF 28
