REMARK SMILES CCC(CC)(CC)NC(=O)NC[C@@H]1CC[C@H](C(=O)OCCOCCOCCOCCOC(=O)c2ccc(-c3c4nc(c(-c5ccc(S(=O)(=O)[O-])cc5)c5ccc([nH]5)c(-c5ccc(S(=O)(=O)[O-])cc5)c5nc(c(-c6ccc(S(=O)(=O)[O-])cc6)c6ccc3[nH]6)C=C5)C=C4)cc2)O1
REMARK SMILES IDX 24 1 23 2 22 3 21 4 20 5 19 6 17 7 18 8 16 9 13 10 14 11
REMARK SMILES IDX 94 12 15 13 12 14 11 15 8 16 9 17 10 19 3 21 2 22 1 23 4 24
REMARK SMILES IDX 5 25 6 26 7 27 25 28 26 29 27 30 28 31 29 32 30 33 31 34
REMARK SMILES IDX 32 35 33 36 34 37 35 38 93 39 36 40 92 41 37 42 38 43 39 44
REMARK SMILES IDX 86 45 40 46 91 47 85 48 87 49 41 50 90 51 84 52 83 53 42 55
REMARK SMILES IDX 72 56 53 57 71 58 54 59 57 60 70 61 88 62 55 63 56 64 69 66
REMARK SMILES IDX 89 67 58 68 43 69 44 70 52 71 45 72 51 73 46 74 47 75 48 76
REMARK SMILES IDX 49 77 50 78 73 79 74 80 82 81 75 82 81 83 76 84 77 85 78 86
REMARK SMILES IDX 79 87 80 88 59 89 60 90 68 91 61 92 67 93 62 94 63 95 64 96
REMARK SMILES IDX 65 97 66 98
REMARK H PARENT 8 18 11 20 87 54 57 65
REMARK Flexibility Score: inf
ROOT
ATOM      1  C   UNL     1       3.078   4.044  -2.268  1.00  0.00     0.188 C 
ENDROOT
BRANCH   1   2
ATOM      2  C   UNL     1       2.874   4.971  -1.066  1.00  0.00     0.188 C 
BRANCH   2   3
ATOM      3  O   UNL     1       3.773   4.905   0.020  1.00  0.00    -0.376 OA
BRANCH   3   4
ATOM      4  C   UNL     1       3.903   3.723   0.799  1.00  0.00     0.202 C 
BRANCH   4   5
ATOM      5  C   UNL     1       2.810   2.644   0.921  1.00  0.00     0.261 C 
BRANCH   5   6
ATOM      6  O   UNL     1       2.393   1.951  -0.280  1.00  0.00    -0.461 OA
BRANCH   6   7
ATOM      7  C   UNL     1       1.142   2.225  -0.736  1.00  0.00     0.335 C 
ATOM      8  O   UNL     1       0.419   3.096  -0.248  1.00  0.00    -0.249 OA
BRANCH   7   9
ATOM      9  C   UNL     1       0.626   1.321  -1.893  1.00  0.00     0.228 C 
ATOM     10  C   UNL     1       0.942  -1.006  -1.835  1.00  0.00     0.138 C 
ATOM     11  C   UNL     1       2.056  -0.406  -2.680  1.00  0.00     0.037 C 
ATOM     12  O   UNL     1       0.061   0.071  -1.486  1.00  0.00    -0.361 OA
ATOM     13  C   UNL     1       1.521   0.956  -3.054  1.00  0.00     0.047 C 
BRANCH  10  14
ATOM     14  C   UNL     1       1.375  -1.866  -0.611  1.00  0.00     0.149 C 
BRANCH  14  15
ATOM     15  N   UNL     1       2.489  -1.349   0.184  1.00  0.00    -0.336 N 
ATOM     16  N   UNL     1       2.116  -0.742   2.493  1.00  0.00    -0.333 N 
ATOM     17  C   UNL     1       2.834  -0.981   1.406  1.00  0.00     0.315 C 
ATOM     18  H   UNL     1       2.756  -0.511   3.204  1.00  0.00     0.165 HD
ATOM     19  O   UNL     1       4.053  -0.793   1.547  1.00  0.00    -0.249 OA
ATOM     20  H   UNL     1       3.267  -1.233  -0.408  1.00  0.00     0.165 HD
BRANCH  16  21
ATOM     21  C   UNL     1       0.750  -0.671   3.111  1.00  0.00     0.041 C 
BRANCH  21  22
ATOM     22  C   UNL     1      -0.422  -0.728   2.130  1.00  0.00     0.025 C 
ATOM     23  C   UNL     1      -0.367   0.431   1.174  1.00  0.00     0.006 C 
ENDBRANCH  21  22
BRANCH  21  24
ATOM     24  C   UNL     1       0.691   0.694   3.919  1.00  0.00     0.025 C 
ATOM     25  C   UNL     1      -0.698   1.266   4.240  1.00  0.00     0.006 C 
ENDBRANCH  21  24
BRANCH  21  26
ATOM     26  C   UNL     1       0.609  -1.824   4.146  1.00  0.00     0.025 C 
ATOM     27  C   UNL     1       1.015  -3.203   3.641  1.00  0.00     0.006 C 
ENDBRANCH  21  26
ENDBRANCH  16  21
ENDBRANCH  14  15
ENDBRANCH  10  14
ENDBRANCH   7   9
ENDBRANCH   6   7
ENDBRANCH   5   6
ENDBRANCH   4   5
ENDBRANCH   3   4
ENDBRANCH   2   3
ENDBRANCH   1   2
BRANCH   1  28
ATOM     28  O   UNL     1       3.937   2.934  -2.096  1.00  0.00    -0.377 OA
BRANCH  28  29
ATOM     29  C   UNL     1       5.347   3.112  -2.064  1.00  0.00     0.188 C 
BRANCH  29  30
ATOM     30  C   UNL     1       5.946   4.523  -2.176  1.00  0.00     0.188 C 
BRANCH  30  31
ATOM     31  O   UNL     1       5.233   5.407  -3.023  1.00  0.00    -0.376 OA
BRANCH  31  32
ATOM     32  C   UNL     1       5.532   5.436  -4.410  1.00  0.00     0.202 C 
BRANCH  32  33
ATOM     33  C   UNL     1       5.481   4.128  -5.220  1.00  0.00     0.261 C 
BRANCH  33  34
ATOM     34  O   UNL     1       6.396   3.086  -4.843  1.00  0.00    -0.460 OA
BRANCH  34  35
ATOM     35  C   UNL     1       7.707   3.394  -4.721  1.00  0.00     0.338 C 
ATOM     36  O   UNL     1       8.240   4.447  -4.984  1.00  0.00    -0.246 OA
BRANCH  35  37
ATOM     37  C   UNL     1       8.364   2.271  -4.013  1.00  0.00     0.060 A 
ATOM     38  C   UNL     1       8.997   2.523  -2.788  1.00  0.00     0.016 A 
ATOM     39  C   UNL     1       8.368   0.987  -4.560  1.00  0.00     0.016 A 
ATOM     40  C   UNL     1       9.677   1.498  -2.130  1.00  0.00     0.010 A 
ATOM     41  C   UNL     1       9.070  -0.033  -3.911  1.00  0.00     0.010 A 
ATOM     42  C   UNL     1       9.759   0.228  -2.713  1.00  0.00    -0.014 A 
BRANCH  42  43
ATOM     43  C   UNL     1      10.723  -0.763  -2.175  1.00  0.00     0.031 A 
ATOM     44  C   UNL     1      12.056  -0.910  -2.862  1.00  0.00     0.074 A 
ATOM     45  C   UNL     1      10.439  -1.495  -1.083  1.00  0.00     0.049 A 
ATOM     46  N   UNL     1      13.039  -1.730  -2.598  1.00  0.00    -0.248 NA
ATOM     47  C   UNL     1      12.312  -0.010  -4.000  1.00  0.00     0.031 C 
ATOM     48  C   UNL     1       9.207  -1.406  -0.300  1.00  0.00     0.029 A 
ATOM     49  N   UNL     1      11.173  -2.465  -0.446  1.00  0.00    -0.354 N 
ATOM     50  C   UNL     1      14.022  -1.457  -3.542  1.00  0.00     0.074 A 
ATOM     51  C   UNL     1      13.508  -0.413  -4.402  1.00  0.00     0.031 C 
ATOM     52  C   UNL     1       9.267  -2.295   0.708  1.00  0.00     0.029 A 
ATOM     53  C   UNL     1      10.522  -3.039   0.620  1.00  0.00     0.049 A 
ATOM     54  H   UNL     1      12.081  -2.724  -0.727  1.00  0.00     0.167 HD
ATOM     55  C   UNL     1      15.245  -2.021  -3.679  1.00  0.00     0.031 A 
ATOM     56  C   UNL     1      10.887  -4.065   1.416  1.00  0.00     0.031 A 
ATOM     57  C   UNL     1      15.749  -3.065  -2.827  1.00  0.00     0.049 A 
ATOM     58  C   UNL     1      12.223  -4.731   1.192  1.00  0.00     0.074 A 
ATOM     59  C   UNL     1      16.983  -3.689  -2.872  1.00  0.00     0.029 A 
ATOM     60  N   UNL     1      15.045  -3.646  -1.783  1.00  0.00    -0.354 N 
ATOM     61  N   UNL     1      13.155  -4.442   0.313  1.00  0.00    -0.248 NA
ATOM     62  C   UNL     1      12.560  -5.856   2.076  1.00  0.00     0.031 C 
ATOM     63  C   UNL     1      16.999  -4.696  -1.902  1.00  0.00     0.029 A 
ATOM     64  C   UNL     1      15.805  -4.646  -1.200  1.00  0.00     0.049 A 
ATOM     65  H   UNL     1      14.139  -3.386  -1.498  1.00  0.00     0.167 HD
ATOM     66  C   UNL     1      14.198  -5.331   0.559  1.00  0.00     0.074 A 
ATOM     67  C   UNL     1      13.791  -6.151   1.681  1.00  0.00     0.031 C 
ATOM     68  C   UNL     1      15.386  -5.457  -0.084  1.00  0.00     0.031 A 
BRANCH  55  69
ATOM     69  C   UNL     1      16.112  -1.551  -4.818  1.00  0.00    -0.014 A 
ATOM     70  C   UNL     1      16.698  -0.272  -4.817  1.00  0.00     0.010 A 
ATOM     71  C   UNL     1      16.393  -2.429  -5.881  1.00  0.00     0.010 A 
ATOM     72  C   UNL     1      17.526   0.128  -5.870  1.00  0.00     0.020 A 
ATOM     73  C   UNL     1      17.244  -2.045  -6.920  1.00  0.00     0.020 A 
ATOM     74  C   UNL     1      17.796  -0.763  -6.913  1.00  0.00     0.054 A 
BRANCH  74  75
ATOM     75  S   UNL     1      18.911  -0.232  -8.242  1.00  0.00     0.124 S 
ATOM     76  O   UNL     1      18.102   0.770  -8.932  1.00  0.00    -0.237 OA
ATOM     77  O   UNL     1      20.060   0.287  -7.506  1.00  0.00    -0.237 OA
ATOM     78  O   UNL     1      19.160  -1.457  -8.998  1.00  0.00    -0.744 OA
ENDBRANCH  74  75
ENDBRANCH  55  69
BRANCH  56  79
ATOM     79  C   UNL     1       9.964  -4.555   2.479  1.00  0.00    -0.014 A 
ATOM     80  C   UNL     1      10.297  -4.435   3.840  1.00  0.00     0.010 A 
ATOM     81  C   UNL     1       8.747  -5.172   2.130  1.00  0.00     0.010 A 
ATOM     82  C   UNL     1       9.447  -4.945   4.827  1.00  0.00     0.020 A 
ATOM     83  C   UNL     1       7.879  -5.652   3.114  1.00  0.00     0.020 A 
ATOM     84  C   UNL     1       8.242  -5.549   4.458  1.00  0.00     0.054 A 
BRANCH  84  85
ATOM     85  S   UNL     1       7.142  -6.176   5.757  1.00  0.00     0.124 S 
ATOM     86  O   UNL     1       7.879  -7.337   6.246  1.00  0.00    -0.237 OA
ATOM     87  O   UNL     1       7.063  -5.043   6.677  1.00  0.00    -0.237 OA
ATOM     88  O   UNL     1       5.903  -6.478   5.044  1.00  0.00    -0.744 OA
ENDBRANCH  84  85
ENDBRANCH  56  79
BRANCH  68  89
ATOM     89  C   UNL     1      16.353  -6.495   0.431  1.00  0.00    -0.014 A 
ATOM     90  C   UNL     1      16.100  -7.871   0.284  1.00  0.00     0.010 A 
ATOM     91  C   UNL     1      17.559  -6.083   1.028  1.00  0.00     0.010 A 
ATOM     92  C   UNL     1      17.016  -8.813   0.762  1.00  0.00     0.020 A 
ATOM     93  C   UNL     1      18.493  -7.021   1.475  1.00  0.00     0.020 A 
ATOM     94  C   UNL     1      18.207  -8.382   1.355  1.00  0.00     0.054 A 
BRANCH  94  95
ATOM     95  S   UNL     1      19.392  -9.625   1.938  1.00  0.00     0.124 S 
ATOM     96  O   UNL     1      18.712 -10.167   3.111  1.00  0.00    -0.237 OA
ATOM     97  O   UNL     1      19.493 -10.530   0.796  1.00  0.00    -0.237 OA
ATOM     98  O   UNL     1      20.598  -8.850   2.221  1.00  0.00    -0.744 OA
ENDBRANCH  94  95
ENDBRANCH  68  89
ENDBRANCH  42  43
ENDBRANCH  35  37
ENDBRANCH  34  35
ENDBRANCH  33  34
ENDBRANCH  32  33
ENDBRANCH  31  32
ENDBRANCH  30  31
ENDBRANCH  29  30
ENDBRANCH  28  29
ENDBRANCH   1  28
TORSDOF 29
