REMARK SMILES O=C(NC1CCCCCC1)N[C@@H]1C=C[C@H](C(=O)OCCOCCOCCOCCOC(=O)c2ccc(-c3c4nc(c(-c5ccc(S(=O)(=O)[O-])cc5)c5ccc([nH]5)c(-c5ccc(S(=O)(=O)[O-])cc5)c5nc(c(-c6ccc(S(=O)(=O)[O-])cc6)c6ccc3[nH]6)C=C5)C=C4)cc2)C1
REMARK SMILES IDX 23 1 22 2 21 3 20 4 19 5 18 6 16 7 17 8 15 9 12 10 13 11
REMARK SMILES IDX 93 12 14 13 11 14 1 15 2 16 3 17 4 20 5 21 6 22 7 23 10 25
REMARK SMILES IDX 9 26 8 27 24 29 25 30 26 31 27 32 28 33 29 34 30 35 31 36
REMARK SMILES IDX 32 37 33 38 34 39 92 40 35 41 91 42 36 43 37 44 38 45 85 46
REMARK SMILES IDX 39 47 90 48 84 49 86 50 40 51 89 52 83 53 82 54 41 56 71 57
REMARK SMILES IDX 52 58 70 59 53 60 56 61 69 62 87 63 54 64 55 65 68 67 88 68
REMARK SMILES IDX 57 69 42 70 43 71 51 72 44 73 50 74 45 75 46 76 47 77 48 78
REMARK SMILES IDX 49 79 72 80 73 81 81 82 74 83 80 84 75 85 76 86 77 87 78 88
REMARK SMILES IDX 79 89 58 90 59 91 67 92 60 93 66 94 61 95 62 96 63 97 64 98
REMARK SMILES IDX 65 99
REMARK H PARENT 3 18 11 19 86 55 56 66
REMARK Flexibility Score: 90.00
ROOT
ATOM      1  C   UNL     1       0.600   5.898  -0.724  1.00  0.00     0.188 C 
ENDROOT
BRANCH   1   2
ATOM      2  C   UNL     1      -0.507   5.324   0.191  1.00  0.00     0.188 C 
BRANCH   2   3
ATOM      3  O   UNL     1      -1.369   6.306   0.764  1.00  0.00    -0.376 OA
BRANCH   3   4
ATOM      4  C   UNL     1      -1.103   6.622   2.133  1.00  0.00     0.202 C 
BRANCH   4   5
ATOM      5  C   UNL     1       0.236   7.334   2.347  1.00  0.00     0.261 C 
BRANCH   5   6
ATOM      6  O   UNL     1       1.357   6.448   2.137  1.00  0.00    -0.463 OA
BRANCH   6   7
ATOM      7  C   UNL     1       1.666   5.597   3.154  1.00  0.00     0.312 C 
ATOM      8  O   UNL     1       1.149   5.646   4.263  1.00  0.00    -0.252 OA
BRANCH   7   9
ATOM      9  C   UNL     1       2.847   4.699   2.756  1.00  0.00     0.124 C 
ATOM     10  C   UNL     1       2.491   2.455   1.758  1.00  0.00     0.107 C 
ATOM     11  C   UNL     1       2.809   2.374   3.208  1.00  0.00    -0.006 C 
ATOM     12  C   UNL     1       2.718   3.935   1.426  1.00  0.00     0.048 C 
ATOM     13  C   UNL     1       3.038   3.582   3.740  1.00  0.00    -0.014 C 
BRANCH  10  14
ATOM     14  N   UNL     1       1.177   1.928   1.442  1.00  0.00    -0.332 N 
ATOM     15  O   UNL     1      -0.152   3.225   2.773  1.00  0.00    -0.249 OA
ATOM     16  C   UNL     1      -0.011   2.325   1.958  1.00  0.00     0.315 C 
ATOM     17  N   UNL     1      -1.115   1.745   1.409  1.00  0.00    -0.335 N 
ATOM     18  H   UNL     1      -1.750   2.357   0.971  1.00  0.00     0.165 HD
ATOM     19  H   UNL     1       1.145   1.201   0.779  1.00  0.00     0.165 HD
BRANCH  17  20
ATOM     20  C   UNL     1      -1.477   0.319   1.387  1.00  0.00     0.083 C 
BRANCH  20  21
ATOM     21  C   UNL     1      -0.505  -0.607   0.648  1.00  0.00     0.025 C 
BRANCH  21  22
ATOM     22  C   UNL     1       0.639  -1.181   1.484  1.00  0.00     0.002 C 
BRANCH  22  23
ATOM     23  C   UNL     1       0.269  -2.464   2.222  1.00  0.00     0.000 CG0
ATOM     24  G   UNL     1      -0.683  -2.267   3.396  1.00  0.00     0.000 G0
ENDBRANCH  22  23
ENDBRANCH  21  22
ENDBRANCH  20  21
BRANCH  20  25
ATOM     25  C   UNL     1      -1.889  -0.112   2.805  1.00  0.00     0.025 C 
BRANCH  25  26
ATOM     26  C   UNL     1      -2.016  -1.615   3.036  1.00  0.00     0.002 C 
BRANCH  26  27
ATOM     27  C   UNL     1      -0.683  -2.267   3.396  1.00  0.00     0.000 CG0
ATOM     28  G   UNL     1       0.269  -2.464   2.222  1.00  0.00     0.000 G0
ENDBRANCH  26  27
ENDBRANCH  25  26
ENDBRANCH  20  25
ENDBRANCH  17  20
ENDBRANCH  10  14
ENDBRANCH   7   9
ENDBRANCH   6   7
ENDBRANCH   5   6
ENDBRANCH   4   5
ENDBRANCH   3   4
ENDBRANCH   2   3
ENDBRANCH   1   2
BRANCH   1  29
ATOM     29  O   UNL     1       0.269   6.679  -1.862  1.00  0.00    -0.377 OA
BRANCH  29  30
ATOM     30  C   UNL     1      -0.904   7.464  -1.752  1.00  0.00     0.188 C 
BRANCH  30  31
ATOM     31  C   UNL     1      -2.150   6.683  -2.200  1.00  0.00     0.188 C 
BRANCH  31  32
ATOM     32  O   UNL     1      -1.918   5.279  -2.298  1.00  0.00    -0.376 OA
BRANCH  32  33
ATOM     33  C   UNL     1      -1.650   4.727  -3.579  1.00  0.00     0.202 C 
BRANCH  33  34
ATOM     34  C   UNL     1      -0.428   5.193  -4.393  1.00  0.00     0.261 C 
BRANCH  34  35
ATOM     35  O   UNL     1      -0.255   6.602  -4.583  1.00  0.00    -0.460 OA
BRANCH  35  36
ATOM     36  C   UNL     1      -1.200   7.291  -5.251  1.00  0.00     0.338 C 
ATOM     37  O   UNL     1      -2.204   6.844  -5.775  1.00  0.00    -0.246 OA
BRANCH  36  38
ATOM     38  C   UNL     1      -0.902   8.726  -5.034  1.00  0.00     0.060 A 
ATOM     39  C   UNL     1      -1.899   9.548  -4.492  1.00  0.00     0.016 A 
ATOM     40  C   UNL     1       0.381   9.233  -5.273  1.00  0.00     0.016 A 
ATOM     41  C   UNL     1      -1.617  10.882  -4.195  1.00  0.00     0.010 A 
ATOM     42  C   UNL     1       0.651  10.578  -5.012  1.00  0.00     0.010 A 
ATOM     43  C   UNL     1      -0.355  11.412  -4.498  1.00  0.00    -0.014 A 
BRANCH  43  44
ATOM     44  C   UNL     1      -0.177  12.882  -4.532  1.00  0.00     0.031 A 
ATOM     45  C   UNL     1      -0.510  13.584  -5.820  1.00  0.00     0.074 A 
ATOM     46  C   UNL     1       0.253  13.576  -3.463  1.00  0.00     0.049 A 
ATOM     47  N   UNL     1      -0.441  14.854  -6.115  1.00  0.00    -0.248 NA
ATOM     48  C   UNL     1      -0.990  12.732  -6.923  1.00  0.00     0.031 C 
ATOM     49  C   UNL     1       0.573  13.012  -2.153  1.00  0.00     0.029 A 
ATOM     50  N   UNL     1       0.498  14.919  -3.321  1.00  0.00    -0.354 N 
ATOM     51  C   UNL     1      -0.873  14.954  -7.432  1.00  0.00     0.074 A 
ATOM     52  C   UNL     1      -1.176  13.616  -7.889  1.00  0.00     0.031 C 
ATOM     53  C   UNL     1       0.982  14.004  -1.341  1.00  0.00     0.029 A 
ATOM     54  C   UNL     1       0.978  15.266  -2.080  1.00  0.00     0.049 A 
ATOM     55  H   UNL     1       0.345  15.574  -4.040  1.00  0.00     0.167 HD
ATOM     56  C   UNL     1      -1.009  16.061  -8.197  1.00  0.00     0.031 A 
ATOM     57  C   UNL     1       1.381  16.463  -1.608  1.00  0.00     0.031 A 
ATOM     58  C   UNL     1      -0.668  17.384  -7.755  1.00  0.00     0.049 A 
ATOM     59  C   UNL     1       1.301  17.673  -2.506  1.00  0.00     0.074 A 
ATOM     60  C   UNL     1      -0.762  18.574  -8.452  1.00  0.00     0.029 A 
ATOM     61  N   UNL     1      -0.150  17.687  -6.505  1.00  0.00    -0.354 N 
ATOM     62  N   UNL     1       0.857  17.758  -3.738  1.00  0.00    -0.248 NA
ATOM     63  C   UNL     1       1.768  18.949  -1.946  1.00  0.00     0.031 C 
ATOM     64  C   UNL     1      -0.251  19.592  -7.640  1.00  0.00     0.029 A 
ATOM     65  C   UNL     1       0.105  19.043  -6.418  1.00  0.00     0.049 A 
ATOM     66  H   UNL     1       0.012  17.033  -5.787  1.00  0.00     0.167 HD
ATOM     67  C   UNL     1       0.966  19.101  -4.090  1.00  0.00     0.074 A 
ATOM     68  C   UNL     1       1.508  19.791  -2.938  1.00  0.00     0.031 C 
ATOM     69  C   UNL     1       0.644  19.709  -5.259  1.00  0.00     0.031 A 
BRANCH  56  70
ATOM     70  C   UNL     1      -1.511  15.868  -9.601  1.00  0.00    -0.014 A 
ATOM     71  C   UNL     1      -2.853  15.531  -9.852  1.00  0.00     0.010 A 
ATOM     72  C   UNL     1      -0.629  16.031 -10.683  1.00  0.00     0.010 A 
ATOM     73  C   UNL     1      -3.296  15.325 -11.161  1.00  0.00     0.020 A 
ATOM     74  C   UNL     1      -1.075  15.850 -11.995  1.00  0.00     0.020 A 
ATOM     75  C   UNL     1      -2.402  15.482 -12.224  1.00  0.00     0.054 A 
BRANCH  75  76
ATOM     76  S   UNL     1      -3.007  15.227 -13.914  1.00  0.00     0.124 S 
ATOM     77  O   UNL     1      -3.143  13.774 -13.969  1.00  0.00    -0.237 OA
ATOM     78  O   UNL     1      -4.262  15.976 -13.922  1.00  0.00    -0.237 OA
ATOM     79  O   UNL     1      -1.947  15.786 -14.750  1.00  0.00    -0.744 OA
ENDBRANCH  75  76
ENDBRANCH  56  70
BRANCH  57  80
ATOM     80  C   UNL     1       1.915  16.581  -0.222  1.00  0.00    -0.014 A 
ATOM     81  C   UNL     1       1.193  17.262   0.773  1.00  0.00     0.010 A 
ATOM     82  C   UNL     1       3.162  16.018   0.106  1.00  0.00     0.010 A 
ATOM     83  C   UNL     1       1.714  17.393   2.065  1.00  0.00     0.020 A 
ATOM     84  C   UNL     1       3.676  16.124   1.402  1.00  0.00     0.020 A 
ATOM     85  C   UNL     1       2.953  16.822   2.372  1.00  0.00     0.054 A 
BRANCH  85  86
ATOM     86  S   UNL     1       3.588  16.961   4.066  1.00  0.00     0.124 S 
ATOM     87  O   UNL     1       4.007  18.358   4.120  1.00  0.00    -0.237 OA
ATOM     88  O   UNL     1       2.419  16.619   4.871  1.00  0.00    -0.237 OA
ATOM     89  O   UNL     1       4.671  15.980   4.106  1.00  0.00    -0.744 OA
ENDBRANCH  85  86
ENDBRANCH  57  80
BRANCH  69  90
ATOM     90  C   UNL     1       0.831  21.201  -5.344  1.00  0.00    -0.014 A 
ATOM     91  C   UNL     1       2.111  21.772  -5.446  1.00  0.00     0.010 A 
ATOM     92  C   UNL     1      -0.301  22.036  -5.394  1.00  0.00     0.010 A 
ATOM     93  C   UNL     1       2.257  23.156  -5.570  1.00  0.00     0.020 A 
ATOM     94  C   UNL     1      -0.160  23.417  -5.545  1.00  0.00     0.020 A 
ATOM     95  C   UNL     1       1.120  23.970  -5.619  1.00  0.00     0.054 A 
BRANCH  95  96
ATOM     96  S   UNL     1       1.334  25.759  -5.830  1.00  0.00     0.124 S 
ATOM     97  O   UNL     1       1.787  26.169  -4.504  1.00  0.00    -0.237 OA
ATOM     98  O   UNL     1       2.336  25.841  -6.890  1.00  0.00    -0.237 OA
ATOM     99  O   UNL     1       0.001  26.225  -6.205  1.00  0.00    -0.744 OA
ENDBRANCH  95  96
ENDBRANCH  69  90
ENDBRANCH  43  44
ENDBRANCH  36  38
ENDBRANCH  35  36
ENDBRANCH  34  35
ENDBRANCH  33  34
ENDBRANCH  32  33
ENDBRANCH  31  32
ENDBRANCH  30  31
ENDBRANCH  29  30
ENDBRANCH   1  29
TORSDOF 25
