REMARK SMILES CSc1ccc(/C=C2\C(C)=C(CC(=O)OCCOCCOCCOCCOC(=O)c3ccc(-c4c5nc(c(-c6ccc(S(=O)(=O)[O-])cc6)c6ccc([nH]6)c(-c6ccc(S(=O)(=O)[O-])cc6)c6nc(c(-c7ccc(S(=O)(=O)[O-])cc7)c7ccc4[nH]7)C=C6)C=C5)cc3)c3cc(F)ccc32)cc1
REMARK SMILES IDX 21 1 20 2 19 3 18 4 17 5 16 6 15 7 13 8 14 9 12 10 11 11
REMARK SMILES IDX 7 12 8 13 9 14 96 15 10 16 90 17 95 18 91 19 94 20 92 21
REMARK SMILES IDX 93 22 6 23 3 24 4 25 98 26 5 27 97 28 2 29 1 30 22 31 23 32
REMARK SMILES IDX 24 33 25 34 26 35 27 36 28 37 29 38 30 39 31 40 89 41 32 42
REMARK SMILES IDX 88 43 33 44 34 45 35 46 82 47 36 48 87 49 81 50 83 51 37 52
REMARK SMILES IDX 86 53 80 54 79 55 38 57 68 58 49 59 67 60 50 61 53 62 66 63
REMARK SMILES IDX 84 64 51 65 52 66 65 68 85 69 54 70 39 71 40 72 48 73 41 74
REMARK SMILES IDX 47 75 42 76 43 77 44 78 45 79 46 80 69 81 70 82 78 83 71 84
REMARK SMILES IDX 77 85 72 86 73 87 74 88 75 89 76 90 55 91 56 92 64 93 57 94
REMARK SMILES IDX 63 95 58 96 59 97 60 98 61 99 62 100
REMARK H PARENT 83 56 53 67
REMARK Flexibility Score: inf
ROOT
ATOM      1  O   UNL     1      -0.120  -5.603   8.383  1.00  0.00    -0.377 OA
ENDROOT
BRANCH   1   2
ATOM      2  C   UNL     1       0.542  -6.715   8.956  1.00  0.00     0.188 C 
BRANCH   2   3
ATOM      3  C   UNL     1       0.879  -6.523  10.433  1.00  0.00     0.188 C 
BRANCH   3   4
ATOM      4  O   UNL     1      -0.226  -6.458  11.322  1.00  0.00    -0.376 OA
BRANCH   4   5
ATOM      5  C   UNL     1      -1.096  -5.329  11.227  1.00  0.00     0.202 C 
BRANCH   5   6
ATOM      6  C   UNL     1      -0.466  -3.925  11.240  1.00  0.00     0.261 C 
BRANCH   6   7
ATOM      7  O   UNL     1       0.063  -3.523   9.952  1.00  0.00    -0.463 OA
BRANCH   7   8
ATOM      8  C   UNL     1       1.382  -3.222   9.909  1.00  0.00     0.310 C 
ATOM      9  O   UNL     1       2.115  -3.212  10.899  1.00  0.00    -0.252 OA
BRANCH   8  10
ATOM     10  C   UNL     1       1.940  -2.842   8.543  1.00  0.00     0.159 C 
BRANCH  10  11
ATOM     11  C   UNL     1       1.283  -3.271   7.224  1.00  0.00    -0.025 C 
ATOM     12  C   UNL     1       2.594  -0.632   5.463  1.00  0.00     0.017 C 
ATOM     13  C   UNL     1       2.154  -1.875   5.713  1.00  0.00    -0.014 C 
ATOM     14  C   UNL     1       0.871  -2.333   6.315  1.00  0.00    -0.039 C 
ATOM     15  C   UNL     1       2.924  -3.123   5.513  1.00  0.00    -0.010 A 
ATOM     16  C   UNL     1      -0.134  -2.781   5.237  1.00  0.00     0.045 C 
ATOM     17  C   UNL     1       2.257  -4.030   6.356  1.00  0.00    -0.011 A 
ATOM     18  C   UNL     1       3.537  -3.546   4.332  1.00  0.00     0.012 A 
ATOM     19  C   UNL     1       2.149  -5.361   5.990  1.00  0.00     0.048 A 
ATOM     20  C   UNL     1       3.417  -4.896   3.972  1.00  0.00     0.040 A 
ATOM     21  C   UNL     1       2.710  -5.779   4.791  1.00  0.00     0.123 A 
ATOM     22  F   UNL     1       2.449  -7.020   4.354  1.00  0.00    -0.207 F 
BRANCH  12  23
ATOM     23  C   UNL     1       1.785   0.510   4.956  1.00  0.00    -0.025 A 
ATOM     24  C   UNL     1       0.902   1.721   2.605  1.00  0.00     0.007 A 
ATOM     25  C   UNL     1       0.060   0.861   3.299  1.00  0.00     0.015 A 
ATOM     26  C   UNL     1       2.059   2.186   3.230  1.00  0.00     0.015 A 
ATOM     27  C   UNL     1       0.477   0.318   4.511  1.00  0.00     0.009 A 
ATOM     28  C   UNL     1       2.504   1.579   4.409  1.00  0.00     0.009 A 
BRANCH  24  29
ATOM     29  S   UNL     1       0.584   2.086   0.892  1.00  0.00    -0.130 SA
ATOM     30  C   UNL     1       0.979   0.445   0.199  1.00  0.00     0.091 C 
ENDBRANCH  24  29
ENDBRANCH  12  23
ENDBRANCH  10  11
ENDBRANCH   8  10
ENDBRANCH   7   8
ENDBRANCH   6   7
ENDBRANCH   5   6
ENDBRANCH   4   5
ENDBRANCH   3   4
ENDBRANCH   2   3
ENDBRANCH   1   2
BRANCH   1  31
ATOM     31  C   UNL     1      -1.437  -5.707   7.845  1.00  0.00     0.188 C 
BRANCH  31  32
ATOM     32  C   UNL     1      -2.172  -7.045   7.953  1.00  0.00     0.188 C 
BRANCH  32  33
ATOM     33  O   UNL     1      -1.645  -8.165   7.234  1.00  0.00    -0.376 OA
BRANCH  33  34
ATOM     34  C   UNL     1      -0.889  -7.919   6.053  1.00  0.00     0.202 C 
BRANCH  34  35
ATOM     35  C   UNL     1      -1.688  -7.761   4.763  1.00  0.00     0.261 C 
BRANCH  35  36
ATOM     36  O   UNL     1      -2.615  -6.672   4.838  1.00  0.00    -0.460 OA
BRANCH  36  37
ATOM     37  C   UNL     1      -3.885  -7.056   5.119  1.00  0.00     0.338 C 
ATOM     38  O   UNL     1      -4.301  -8.188   5.267  1.00  0.00    -0.246 OA
BRANCH  37  39
ATOM     39  C   UNL     1      -4.704  -5.862   5.382  1.00  0.00     0.060 A 
ATOM     40  C   UNL     1      -5.503  -5.874   6.531  1.00  0.00     0.016 A 
ATOM     41  C   UNL     1      -4.755  -4.796   4.480  1.00  0.00     0.016 A 
ATOM     42  C   UNL     1      -6.399  -4.841   6.760  1.00  0.00     0.010 A 
ATOM     43  C   UNL     1      -5.671  -3.768   4.700  1.00  0.00     0.010 A 
ATOM     44  C   UNL     1      -6.525  -3.816   5.816  1.00  0.00    -0.014 A 
BRANCH  44  45
ATOM     45  C   UNL     1      -7.700  -2.926   5.901  1.00  0.00     0.031 A 
ATOM     46  C   UNL     1      -8.894  -3.248   5.045  1.00  0.00     0.074 A 
ATOM     47  C   UNL     1      -7.715  -1.902   6.770  1.00  0.00     0.049 A 
ATOM     48  N   UNL     1     -10.031  -2.614   4.944  1.00  0.00    -0.248 NA
ATOM     49  C   UNL     1      -8.795  -4.444   4.188  1.00  0.00     0.031 C 
ATOM     50  C   UNL     1      -6.623  -1.549   7.679  1.00  0.00     0.029 A 
ATOM     51  N   UNL     1      -8.684  -0.970   7.029  1.00  0.00    -0.354 N 
ATOM     52  C   UNL     1     -10.771  -3.318   4.001  1.00  0.00     0.074 A 
ATOM     53  C   UNL     1      -9.954  -4.419   3.547  1.00  0.00     0.031 C 
ATOM     54  C   UNL     1      -6.981  -0.465   8.389  1.00  0.00     0.029 A 
ATOM     55  C   UNL     1      -8.306  -0.029   7.957  1.00  0.00     0.049 A 
ATOM     56  H   UNL     1      -9.566  -0.973   6.593  1.00  0.00     0.167 HD
ATOM     57  C   UNL     1     -12.022  -3.062   3.557  1.00  0.00     0.031 A 
ATOM     58  C   UNL     1      -8.951   1.075   8.382  1.00  0.00     0.031 A 
ATOM     59  C   UNL     1     -12.820  -1.963   4.029  1.00  0.00     0.049 A 
ATOM     60  C   UNL     1     -10.324   1.364   7.828  1.00  0.00     0.074 A 
ATOM     61  C   UNL     1     -14.113  -1.627   3.672  1.00  0.00     0.029 A 
ATOM     62  N   UNL     1     -12.397  -1.019   4.952  1.00  0.00    -0.354 N 
ATOM     63  N   UNL     1     -11.028   0.668   6.965  1.00  0.00    -0.248 NA
ATOM     64  C   UNL     1     -10.994   2.578   8.312  1.00  0.00     0.031 C 
ATOM     65  C   UNL     1     -14.445  -0.437   4.324  1.00  0.00     0.029 A 
ATOM     66  C   UNL     1     -13.390  -0.077   5.149  1.00  0.00     0.049 A 
ATOM     67  H   UNL     1     -11.521  -1.019   5.400  1.00  0.00     0.167 HD
ATOM     68  C   UNL     1     -12.235   1.344   6.828  1.00  0.00     0.074 A 
ATOM     69  C   UNL     1     -12.172   2.491   7.711  1.00  0.00     0.031 C 
ATOM     70  C   UNL     1     -13.302   1.049   6.043  1.00  0.00     0.031 A 
BRANCH  57  71
ATOM     71  C   UNL     1     -12.593  -3.945   2.481  1.00  0.00    -0.014 A 
ATOM     72  C   UNL     1     -13.000  -5.265   2.746  1.00  0.00     0.010 A 
ATOM     73  C   UNL     1     -12.806  -3.408   1.197  1.00  0.00     0.010 A 
ATOM     74  C   UNL     1     -13.605  -6.032   1.745  1.00  0.00     0.020 A 
ATOM     75  C   UNL     1     -13.435  -4.162   0.203  1.00  0.00     0.020 A 
ATOM     76  C   UNL     1     -13.828  -5.471   0.483  1.00  0.00     0.054 A 
BRANCH  76  77
ATOM     77  S   UNL     1     -14.690  -6.461  -0.769  1.00  0.00     0.124 S 
ATOM     78  O   UNL     1     -13.693  -7.479  -1.089  1.00  0.00    -0.237 OA
ATOM     79  O   UNL     1     -15.865  -6.937  -0.044  1.00  0.00    -0.237 OA
ATOM     80  O   UNL     1     -14.966  -5.505  -1.839  1.00  0.00    -0.744 OA
ENDBRANCH  76  77
ENDBRANCH  57  71
BRANCH  58  81
ATOM     81  C   UNL     1      -8.293   2.012   9.335  1.00  0.00    -0.014 A 
ATOM     82  C   UNL     1      -8.813   2.228  10.623  1.00  0.00     0.010 A 
ATOM     83  C   UNL     1      -7.148   2.726   8.935  1.00  0.00     0.010 A 
ATOM     84  C   UNL     1      -8.225   3.169  11.476  1.00  0.00     0.020 A 
ATOM     85  C   UNL     1      -6.536   3.640   9.797  1.00  0.00     0.020 A 
ATOM     86  C   UNL     1      -7.092   3.871  11.055  1.00  0.00     0.054 A 
BRANCH  86  87
ATOM     87  S   UNL     1      -6.344   5.083  12.178  1.00  0.00     0.124 S 
ATOM     88  O   UNL     1      -7.323   6.164  12.153  1.00  0.00    -0.237 OA
ATOM     89  O   UNL     1      -6.255   4.337  13.431  1.00  0.00    -0.237 OA
ATOM     90  O   UNL     1      -5.060   5.385  11.549  1.00  0.00    -0.744 OA
ENDBRANCH  86  87
ENDBRANCH  58  81
BRANCH  70  91
ATOM     91  C   UNL     1     -14.505   1.948   6.142  1.00  0.00    -0.014 A 
ATOM     92  C   UNL     1     -14.485   3.258   5.633  1.00  0.00     0.010 A 
ATOM     93  C   UNL     1     -15.695   1.444   6.698  1.00  0.00     0.010 A 
ATOM     94  C   UNL     1     -15.625   4.061   5.713  1.00  0.00     0.020 A 
ATOM     95  C   UNL     1     -16.847   2.232   6.747  1.00  0.00     0.020 A 
ATOM     96  C   UNL     1     -16.799   3.542   6.267  1.00  0.00     0.054 A 
BRANCH  96  97
ATOM     97  S   UNL     1     -18.276   4.591   6.320  1.00  0.00     0.124 S 
ATOM     98  O   UNL     1     -17.925   5.558   7.356  1.00  0.00    -0.237 OA
ATOM     99  O   UNL     1     -18.340   5.121   4.960  1.00  0.00    -0.237 OA
ATOM    100  O   UNL     1     -19.349   3.663   6.672  1.00  0.00    -0.744 OA
ENDBRANCH  96  97
ENDBRANCH  70  91
ENDBRANCH  44  45
ENDBRANCH  37  39
ENDBRANCH  36  37
ENDBRANCH  35  36
ENDBRANCH  34  35
ENDBRANCH  33  34
ENDBRANCH  32  33
ENDBRANCH  31  32
ENDBRANCH   1  31
TORSDOF 26
