REMARK SMILES Cc1ccc(-c2cc(C(=O)OCCOCCOCCOCCOC(=O)c3ccc(-c4c5nc(c(-c6ccc(S(=O)(=O)[O-])cc6)c6ccc([nH]6)c(-c6ccc(S(=O)(=O)[O-])cc6)c6nc(c(-c7ccc(S(=O)(=O)[O-])cc7)c7ccc4[nH]7)C=C6)C=C5)cc3)c3c(-c4cccc([N+](=O)[O-])c4)[nH]nc3n2)cc1
REMARK SMILES IDX 18 1 17 2 16 3 15 4 14 5 13 6 12 7 11 8 9 9 10 10 8 11 6 12
REMARK SMILES IDX 7 13 100 14 99 15 86 16 98 17 87 18 97 19 5 21 1 22 2 23
REMARK SMILES IDX 3 24 102 25 4 26 101 27 88 28 89 29 96 30 90 31 92 32 91 33
REMARK SMILES IDX 93 34 94 35 95 36 19 37 20 38 21 39 22 40 23 41 24 42 25 43
REMARK SMILES IDX 26 44 27 45 85 46 28 47 84 48 29 49 30 50 31 51 78 52 32 53
REMARK SMILES IDX 83 54 77 55 79 56 33 57 82 58 76 59 75 60 34 62 64 63 45 64
REMARK SMILES IDX 63 65 46 66 49 67 62 68 80 69 47 70 48 71 61 73 81 74 50 75
REMARK SMILES IDX 35 76 36 77 44 78 37 79 43 80 38 81 39 82 40 83 41 84 42 85
REMARK SMILES IDX 65 86 66 87 74 88 67 89 73 90 68 91 69 92 70 93 71 94 72 95
REMARK SMILES IDX 51 96 52 97 60 98 53 99 59 100 54 101 55 102 56 103 57 104
REMARK SMILES IDX 58 105
REMARK H PARENT 97 20 79 61 49 72
REMARK Flexibility Score: inf
ROOT
ATOM      1  C   UNL     1      -4.816  -1.841  -4.606  1.00  0.00     0.188 C 
ENDROOT
BRANCH   1   2
ATOM      2  O   UNL     1      -5.592  -1.280  -3.558  1.00  0.00    -0.377 OA
BRANCH   2   3
ATOM      3  C   UNL     1      -7.005  -1.377  -3.420  1.00  0.00     0.188 C 
BRANCH   3   4
ATOM      4  C   UNL     1      -8.324  -0.554  -4.083  1.00  0.00     0.188 C 
BRANCH   4   5
ATOM      5  O   UNL     1      -8.717   1.023  -4.915  1.00  0.00    -0.376 OA
BRANCH   5   6
ATOM      6  C   UNL     1      -8.051   2.658  -4.911  1.00  0.00     0.202 C 
BRANCH   6   7
ATOM      7  C   UNL     1      -6.958   3.460  -3.607  1.00  0.00     0.261 C 
BRANCH   7   8
ATOM      8  O   UNL     1      -6.560   2.727  -1.984  1.00  0.00    -0.460 OA
BRANCH   8   9
ATOM      9  C   UNL     1      -6.966   1.854  -0.851  1.00  0.00     0.339 C 
ATOM     10  O   UNL     1      -8.091   1.840  -0.352  1.00  0.00    -0.246 OA
BRANCH   9  11
ATOM     11  C   UNL     1      -6.125   0.759  -0.095  1.00  0.00     0.075 A 
ATOM     12  C   UNL     1      -3.984  -0.320   0.843  1.00  0.00     0.074 A 
ATOM     13  C   UNL     1      -4.720   0.575   0.017  1.00  0.00     0.045 A 
ATOM     14  N   UNL     1      -4.544  -1.147   1.736  1.00  0.00    -0.226 NA
ATOM     15  C   UNL     1      -5.898  -1.091   1.695  1.00  0.00     0.182 A 
ATOM     16  C   UNL     1      -6.670  -0.227   0.793  1.00  0.00     0.061 A 
ATOM     17  N   UNL     1      -6.672  -1.851   2.466  1.00  0.00    -0.154 NA
ATOM     18  C   UNL     1      -7.969  -0.706   0.968  1.00  0.00     0.076 A 
ATOM     19  N   UNL     1      -7.900  -1.562   2.042  1.00  0.00    -0.275 N 
ATOM     20  H   UNL     1      -8.705  -1.935   2.468  1.00  0.00     0.190 HD
BRANCH  12  21
ATOM     21  C   UNL     1      -2.502  -0.329   0.725  1.00  0.00     0.000 A 
ATOM     22  C   UNL     1       1.792  -0.214   0.036  1.00  0.00     0.044 C 
ATOM     23  C   UNL     1       0.308  -0.247   0.262  1.00  0.00    -0.051 A 
ATOM     24  C   UNL     1      -0.401  -1.451   0.168  1.00  0.00     0.004 A 
ATOM     25  C   UNL     1      -0.388   0.914   0.598  1.00  0.00     0.004 A 
ATOM     26  C   UNL     1      -1.788  -1.491   0.396  1.00  0.00     0.010 A 
ATOM     27  C   UNL     1      -1.769   0.871   0.825  1.00  0.00     0.010 A 
ENDBRANCH  12  21
BRANCH  18  28
ATOM     28  C   UNL     1      -9.257  -0.602   0.290  1.00  0.00     0.007 A 
ATOM     29  C   UNL     1     -10.236   0.283   0.751  1.00  0.00     0.011 A 
ATOM     30  C   UNL     1      -9.566  -1.471  -0.764  1.00  0.00     0.096 A 
ATOM     31  C   UNL     1     -11.487   0.351   0.131  1.00  0.00     0.008 A 
ATOM     32  C   UNL     1     -10.816  -1.379  -1.398  1.00  0.00     0.270 A 
ATOM     33  C   UNL     1     -11.780  -0.468  -0.958  1.00  0.00     0.085 A 
BRANCH  32  34
ATOM     34  N   UNL     1     -11.062  -2.159  -2.616  1.00  0.00     0.062 N 
ATOM     35  O   UNL     1     -11.930  -1.754  -3.403  1.00  0.00    -0.258 OA
ATOM     36  O   UNL     1     -10.347  -3.152  -2.817  1.00  0.00    -0.258 OA
ENDBRANCH  32  34
ENDBRANCH  18  28
ENDBRANCH   9  11
ENDBRANCH   8   9
ENDBRANCH   7   8
ENDBRANCH   6   7
ENDBRANCH   5   6
ENDBRANCH   4   5
ENDBRANCH   3   4
ENDBRANCH   2   3
ENDBRANCH   1   2
BRANCH   1  37
ATOM     37  C   UNL     1      -5.262  -3.128  -5.260  1.00  0.00     0.188 C 
BRANCH  37  38
ATOM     38  O   UNL     1      -6.649  -3.049  -5.548  1.00  0.00    -0.376 OA
BRANCH  38  39
ATOM     39  C   UNL     1      -7.212  -4.232  -6.075  1.00  0.00     0.202 C 
BRANCH  39  40
ATOM     40  C   UNL     1      -6.753  -4.520  -7.509  1.00  0.00     0.261 C 
BRANCH  40  41
ATOM     41  O   UNL     1      -7.290  -3.584  -8.474  1.00  0.00    -0.460 OA
BRANCH  41  42
ATOM     42  C   UNL     1      -6.450  -2.609  -8.949  1.00  0.00     0.338 C 
ATOM     43  O   UNL     1      -5.854  -2.715 -10.027  1.00  0.00    -0.246 OA
BRANCH  42  44
ATOM     44  C   UNL     1      -6.553  -1.376  -8.137  1.00  0.00     0.060 A 
ATOM     45  C   UNL     1      -5.596  -0.395  -7.884  1.00  0.00     0.016 A 
ATOM     46  C   UNL     1      -7.747  -1.168  -7.544  1.00  0.00     0.016 A 
ATOM     47  C   UNL     1      -5.687   0.522  -6.753  1.00  0.00     0.010 A 
ATOM     48  C   UNL     1      -7.786  -0.282  -6.480  1.00  0.00     0.010 A 
ATOM     49  C   UNL     1      -6.706   0.451  -5.794  1.00  0.00    -0.014 A 
BRANCH  49  50
ATOM     50  C   UNL     1      -6.673   1.108  -4.034  1.00  0.00     0.031 A 
ATOM     51  C   UNL     1      -8.337   1.588  -2.994  1.00  0.00     0.074 A 
ATOM     52  C   UNL     1      -5.294   1.362  -3.723  1.00  0.00     0.049 A 
ATOM     53  N   UNL     1      -8.637   2.820  -2.479  1.00  0.00    -0.248 NA
ATOM     54  C   UNL     1      -9.941   1.186  -3.102  1.00  0.00     0.031 C 
ATOM     55  C   UNL     1      -4.560   1.780  -2.519  1.00  0.00     0.029 A 
ATOM     56  N   UNL     1      -4.188   1.495  -4.601  1.00  0.00    -0.354 N 
ATOM     57  C   UNL     1      -9.882   3.130  -2.016  1.00  0.00     0.074 A 
ATOM     58  C   UNL     1     -10.706   2.154  -2.603  1.00  0.00     0.031 C 
ATOM     59  C   UNL     1      -3.273   2.081  -2.644  1.00  0.00     0.029 A 
ATOM     60  C   UNL     1      -3.141   2.251  -4.024  1.00  0.00     0.049 A 
ATOM     61  H   UNL     1      -4.153   1.108  -5.505  1.00  0.00     0.167 HD
ATOM     62  C   UNL     1     -10.107   4.143  -1.125  1.00  0.00     0.031 A 
ATOM     63  C   UNL     1      -2.778   3.487  -4.445  1.00  0.00     0.031 A 
ATOM     64  C   UNL     1      -8.858   4.737  -0.605  1.00  0.00     0.049 A 
ATOM     65  C   UNL     1      -3.287   4.676  -3.575  1.00  0.00     0.074 A 
ATOM     66  C   UNL     1      -8.126   4.462   0.541  1.00  0.00     0.029 A 
ATOM     67  N   UNL     1      -8.002   5.502  -1.406  1.00  0.00    -0.354 N 
ATOM     68  N   UNL     1      -4.440   4.730  -2.917  1.00  0.00    -0.248 NA
ATOM     69  C   UNL     1      -2.447   5.825  -3.238  1.00  0.00     0.031 C 
ATOM     70  C   UNL     1      -6.770   4.846   0.313  1.00  0.00     0.029 A 
ATOM     71  C   UNL     1      -6.682   5.487  -0.920  1.00  0.00     0.049 A 
ATOM     72  H   UNL     1      -8.288   5.990  -2.211  1.00  0.00     0.167 HD
ATOM     73  C   UNL     1      -4.546   5.908  -2.184  1.00  0.00     0.074 A 
ATOM     74  C   UNL     1      -3.231   6.514  -2.387  1.00  0.00     0.031 C 
ATOM     75  C   UNL     1      -5.626   6.377  -1.446  1.00  0.00     0.031 A 
BRANCH  62  76
ATOM     76  C   UNL     1     -11.478   4.188  -0.454  1.00  0.00    -0.014 A 
ATOM     77  C   UNL     1     -11.593   4.295   0.943  1.00  0.00     0.010 A 
ATOM     78  C   UNL     1     -12.683   3.964  -1.162  1.00  0.00     0.010 A 
ATOM     79  C   UNL     1     -12.802   4.016   1.608  1.00  0.00     0.020 A 
ATOM     80  C   UNL     1     -13.882   3.624  -0.510  1.00  0.00     0.020 A 
ATOM     81  C   UNL     1     -13.925   3.624   0.879  1.00  0.00     0.054 A 
BRANCH  81  82
ATOM     82  S   UNL     1     -15.395   3.026   1.765  1.00  0.00     0.124 S 
ATOM     83  O   UNL     1     -14.834   2.008   2.651  1.00  0.00    -0.237 OA
ATOM     84  O   UNL     1     -15.884   4.234   2.420  1.00  0.00    -0.237 OA
ATOM     85  O   UNL     1     -16.252   2.501   0.703  1.00  0.00    -0.744 OA
ENDBRANCH  81  82
ENDBRANCH  62  76
BRANCH  63  86
ATOM     86  C   UNL     1      -2.104   3.281  -5.762  1.00  0.00    -0.014 A 
ATOM     87  C   UNL     1      -1.019   2.346  -5.721  1.00  0.00     0.010 A 
ATOM     88  C   UNL     1      -2.891   3.313  -6.925  1.00  0.00     0.010 A 
ATOM     89  C   UNL     1      -0.930   1.302  -6.652  1.00  0.00     0.020 A 
ATOM     90  C   UNL     1      -2.758   2.298  -7.896  1.00  0.00     0.020 A 
ATOM     91  C   UNL     1      -1.840   1.255  -7.702  1.00  0.00     0.054 A 
BRANCH  91  92
ATOM     92  S   UNL     1      -1.929  -0.286  -8.671  1.00  0.00     0.124 S 
ATOM     93  O   UNL     1      -0.531  -0.559  -8.982  1.00  0.00    -0.237 OA
ATOM     94  O   UNL     1      -2.544  -1.202  -7.708  1.00  0.00    -0.237 OA
ATOM     95  O   UNL     1      -2.762   0.089  -9.809  1.00  0.00    -0.744 OA
ENDBRANCH  91  92
ENDBRANCH  63  86
BRANCH  75  96
ATOM     96  C   UNL     1      -5.803   7.840  -1.002  1.00  0.00    -0.014 A 
ATOM     97  C   UNL     1      -5.141   8.928  -1.584  1.00  0.00     0.010 A 
ATOM     98  C   UNL     1      -6.845   8.166  -0.085  1.00  0.00     0.010 A 
ATOM     99  C   UNL     1      -5.483  10.252  -1.262  1.00  0.00     0.020 A 
ATOM    100  C   UNL     1      -7.236   9.475   0.196  1.00  0.00     0.020 A 
ATOM    101  C   UNL     1      -6.540  10.517  -0.389  1.00  0.00     0.054 A 
BRANCH 101 102
ATOM    102  S   UNL     1      -7.073  12.222  -0.110  1.00  0.00     0.124 S 
ATOM    103  O   UNL     1      -6.186  12.638   0.973  1.00  0.00    -0.237 OA
ATOM    104  O   UNL     1      -6.824  12.855  -1.403  1.00  0.00    -0.237 OA
ATOM    105  O   UNL     1      -8.483  12.087   0.247  1.00  0.00    -0.744 OA
ENDBRANCH 101 102
ENDBRANCH  75  96
ENDBRANCH  49  50
ENDBRANCH  42  44
ENDBRANCH  41  42
ENDBRANCH  40  41
ENDBRANCH  39  40
ENDBRANCH  38  39
ENDBRANCH  37  38
ENDBRANCH   1  37
TORSDOF 26
