REMARK SMILES O=Cc1c(OCc2ccc(C(=O)OCCOCCOCCOCCOC(=O)c3ccc(-c4c5nc(c(-c6ccc(S(=O)(=O)[O-])cc6)c6ccc([nH]6)c(-c6ccc(S(=O)(=O)[O-])cc6)c6nc(c(-c7ccc(S(=O)(=O)[O-])cc7)c7ccc4[nH]7)C=C6)C=C5)cc3)cc2)ccc2ccccc12
REMARK SMILES IDX 18 1 17 2 16 3 15 4 14 5 13 6 11 7 12 8 10 9 7 10 8 11 89 12
REMARK SMILES IDX 9 13 88 14 6 15 5 16 4 17 3 18 97 19 90 20 92 21 96 22 91 23
REMARK SMILES IDX 93 24 95 25 94 26 2 27 1 28 19 29 20 30 21 31 22 32 23 33
REMARK SMILES IDX 24 34 25 35 26 36 27 37 28 38 29 39 87 40 30 41 86 42 31 43
REMARK SMILES IDX 32 44 33 45 80 46 34 47 85 48 79 49 81 50 35 51 84 52 78 53
REMARK SMILES IDX 77 54 36 56 66 57 47 58 65 59 48 60 51 61 64 62 82 63 49 64
REMARK SMILES IDX 50 65 63 67 83 68 52 69 37 70 38 71 46 72 39 73 45 74 40 75
REMARK SMILES IDX 41 76 42 77 43 78 44 79 67 80 68 81 76 82 69 83 75 84 70 85
REMARK SMILES IDX 71 86 72 87 73 88 74 89 53 90 54 91 62 92 55 93 61 94 56 95
REMARK SMILES IDX 57 96 58 97 59 98 60 99
REMARK H PARENT 81 55 51 66
REMARK Flexibility Score: inf
ROOT
ATOM      1  C   UNL     1       4.444   7.566   3.763  1.00  0.00     0.188 C 
ENDROOT
BRANCH   1   2
ATOM      2  C   UNL     1       5.946   7.222   3.658  1.00  0.00     0.188 C 
BRANCH   2   3
ATOM      3  O   UNL     1       6.809   8.327   3.848  1.00  0.00    -0.376 OA
BRANCH   3   4
ATOM      4  C   UNL     1       7.497   8.873   2.738  1.00  0.00     0.202 C 
BRANCH   4   5
ATOM      5  C   UNL     1       6.706   9.386   1.524  1.00  0.00     0.261 C 
BRANCH   5   6
ATOM      6  O   UNL     1       5.595   8.584   1.113  1.00  0.00    -0.460 OA
BRANCH   6   7
ATOM      7  C   UNL     1       5.884   7.445   0.453  1.00  0.00     0.338 C 
ATOM      8  O   UNL     1       6.990   7.030   0.151  1.00  0.00    -0.246 OA
BRANCH   7   9
ATOM      9  C   UNL     1       4.646   6.643   0.364  1.00  0.00     0.060 A 
ATOM     10  C   UNL     1       2.404   4.993   0.109  1.00  0.00    -0.011 A 
ATOM     11  C   UNL     1       3.570   4.511   0.722  1.00  0.00     0.008 A 
ATOM     12  C   UNL     1       2.320   6.359  -0.211  1.00  0.00     0.008 A 
ATOM     13  C   UNL     1       4.704   5.312   0.790  1.00  0.00     0.016 A 
ATOM     14  C   UNL     1       3.435   7.189  -0.069  1.00  0.00     0.016 A 
BRANCH  10  15
ATOM     15  C   UNL     1       1.292   4.055  -0.330  1.00  0.00     0.265 C 
BRANCH  15  16
ATOM     16  O   UNL     1       1.626   2.658  -0.370  1.00  0.00    -0.488 OA
BRANCH  16  17
ATOM     17  C   UNL     1       2.641   2.194  -1.170  1.00  0.00     0.130 A 
ATOM     18  C   UNL     1       3.049   0.861  -0.971  1.00  0.00     0.064 A 
ATOM     19  C   UNL     1       4.232   0.338  -1.571  1.00  0.00    -0.004 A 
ATOM     20  C   UNL     1       3.371   2.987  -2.054  1.00  0.00     0.048 A 
ATOM     21  C   UNL     1       5.002   1.206  -2.380  1.00  0.00    -0.017 A 
ATOM     22  C   UNL     1       4.699  -0.993  -1.420  1.00  0.00     0.009 A 
ATOM     23  C   UNL     1       4.554   2.510  -2.622  1.00  0.00     0.012 A 
ATOM     24  C   UNL     1       6.209   0.763  -2.946  1.00  0.00     0.009 A 
ATOM     25  C   UNL     1       5.891  -1.426  -2.005  1.00  0.00     0.001 A 
ATOM     26  C   UNL     1       6.653  -0.543  -2.757  1.00  0.00     0.001 A 
BRANCH  18  27
ATOM     27  C   UNL     1       2.269  -0.001  -0.051  1.00  0.00     0.264 C 
ATOM     28  O   UNL     1       1.047  -0.075  -0.072  1.00  0.00    -0.298 OA
ENDBRANCH  18  27
ENDBRANCH  16  17
ENDBRANCH  15  16
ENDBRANCH  10  15
ENDBRANCH   7   9
ENDBRANCH   6   7
ENDBRANCH   5   6
ENDBRANCH   4   5
ENDBRANCH   3   4
ENDBRANCH   2   3
ENDBRANCH   1   2
BRANCH   1  29
ATOM     29  O   UNL     1       4.049   8.928   3.772  1.00  0.00    -0.377 OA
BRANCH  29  30
ATOM     30  C   UNL     1       4.700   9.855   4.636  1.00  0.00     0.188 C 
BRANCH  30  31
ATOM     31  C   UNL     1       5.412   9.397   5.933  1.00  0.00     0.188 C 
BRANCH  31  32
ATOM     32  O   UNL     1       5.194   8.041   6.287  1.00  0.00    -0.376 OA
BRANCH  32  33
ATOM     33  C   UNL     1       4.338   7.780   7.383  1.00  0.00     0.202 C 
BRANCH  33  34
ATOM     34  C   UNL     1       2.873   8.217   7.243  1.00  0.00     0.261 C 
BRANCH  34  35
ATOM     35  O   UNL     1       2.651   9.596   6.910  1.00  0.00    -0.460 OA
BRANCH  35  36
ATOM     36  C   UNL     1       3.028  10.526   7.813  1.00  0.00     0.338 C 
ATOM     37  O   UNL     1       3.544  10.328   8.902  1.00  0.00    -0.246 OA
BRANCH  36  38
ATOM     38  C   UNL     1       2.885  11.849   7.170  1.00  0.00     0.060 A 
ATOM     39  C   UNL     1       4.021  12.646   6.973  1.00  0.00     0.016 A 
ATOM     40  C   UNL     1       1.632  12.281   6.731  1.00  0.00     0.016 A 
ATOM     41  C   UNL     1       3.901  13.889   6.350  1.00  0.00     0.010 A 
ATOM     42  C   UNL     1       1.511  13.536   6.130  1.00  0.00     0.010 A 
ATOM     43  C   UNL     1       2.640  14.356   5.958  1.00  0.00    -0.014 A 
BRANCH  43  44
ATOM     44  C   UNL     1       2.466  15.762   5.519  1.00  0.00     0.031 A 
ATOM     45  C   UNL     1       1.961  16.767   6.517  1.00  0.00     0.074 A 
ATOM     46  C   UNL     1       2.745  16.140   4.259  1.00  0.00     0.049 A 
ATOM     47  N   UNL     1       1.669  18.030   6.348  1.00  0.00    -0.248 NA
ATOM     48  C   UNL     1       1.754  16.277   7.890  1.00  0.00     0.031 C 
ATOM     49  C   UNL     1       3.285  15.273   3.214  1.00  0.00     0.029 A 
ATOM     50  N   UNL     1       2.600  17.360   3.644  1.00  0.00    -0.354 N 
ATOM     51  C   UNL     1       1.233  18.485   7.587  1.00  0.00     0.074 A 
ATOM     52  C   UNL     1       1.271  17.355   8.490  1.00  0.00     0.031 C 
ATOM     53  C   UNL     1       3.418  15.987   2.082  1.00  0.00     0.029 A 
ATOM     54  C   UNL     1       2.934  17.348   2.311  1.00  0.00     0.049 A 
ATOM     55  H   UNL     1       2.286  18.166   4.114  1.00  0.00     0.167 HD
ATOM     56  C   UNL     1       0.838  19.730   7.942  1.00  0.00     0.031 A 
ATOM     57  C   UNL     1       2.834  18.315   1.377  1.00  0.00     0.031 A 
ATOM     58  C   UNL     1       0.775  20.844   7.032  1.00  0.00     0.049 A 
ATOM     59  C   UNL     1       2.300  19.669   1.771  1.00  0.00     0.074 A 
ATOM     60  C   UNL     1       0.403  22.150   7.296  1.00  0.00     0.029 A 
ATOM     61  N   UNL     1       1.075  20.779   5.679  1.00  0.00    -0.354 N 
ATOM     62  N   UNL     1       1.921  20.095   2.953  1.00  0.00    -0.248 NA
ATOM     63  C   UNL     1       2.182  20.672   0.704  1.00  0.00     0.031 C 
ATOM     64  C   UNL     1       0.408  22.857   6.089  1.00  0.00     0.029 A 
ATOM     65  C   UNL     1       0.856  22.011   5.086  1.00  0.00     0.049 A 
ATOM     66  H   UNL     1       1.396  19.975   5.210  1.00  0.00     0.167 HD
ATOM     67  C   UNL     1       1.541  21.422   2.776  1.00  0.00     0.074 A 
ATOM     68  C   UNL     1       1.755  21.733   1.377  1.00  0.00     0.031 C 
ATOM     69  C   UNL     1       1.059  22.304   3.688  1.00  0.00     0.031 A 
BRANCH  56  70
ATOM     70  C   UNL     1       0.392  19.935   9.368  1.00  0.00    -0.014 A 
ATOM     71  C   UNL     1       1.302  19.868  10.439  1.00  0.00     0.010 A 
ATOM     72  C   UNL     1      -0.960  20.215   9.638  1.00  0.00     0.010 A 
ATOM     73  C   UNL     1       0.858  20.025  11.755  1.00  0.00     0.020 A 
ATOM     74  C   UNL     1      -1.402  20.406  10.950  1.00  0.00     0.020 A 
ATOM     75  C   UNL     1      -0.492  20.289  12.002  1.00  0.00     0.054 A 
BRANCH  75  76
ATOM     76  S   UNL     1      -1.038  20.492  13.720  1.00  0.00     0.124 S 
ATOM     77  O   UNL     1      -0.933  19.128  14.232  1.00  0.00    -0.237 OA
ATOM     78  O   UNL     1      -0.064  21.440  14.254  1.00  0.00    -0.237 OA
ATOM     79  O   UNL     1      -2.400  21.006  13.594  1.00  0.00    -0.744 OA
ENDBRANCH  75  76
ENDBRANCH  56  70
BRANCH  57  80
ATOM     80  C   UNL     1       3.231  18.031  -0.030  1.00  0.00    -0.014 A 
ATOM     81  C   UNL     1       4.364  18.644  -0.593  1.00  0.00     0.010 A 
ATOM     82  C   UNL     1       2.484  17.130  -0.812  1.00  0.00     0.010 A 
ATOM     83  C   UNL     1       4.742  18.363  -1.910  1.00  0.00     0.020 A 
ATOM     84  C   UNL     1       2.875  16.823  -2.118  1.00  0.00     0.020 A 
ATOM     85  C   UNL     1       4.000  17.446  -2.661  1.00  0.00     0.054 A 
BRANCH  85  86
ATOM     86  S   UNL     1       4.558  17.037  -4.338  1.00  0.00     0.124 S 
ATOM     87  O   UNL     1       4.266  18.268  -5.066  1.00  0.00    -0.237 OA
ATOM     88  O   UNL     1       5.974  16.742  -4.133  1.00  0.00    -0.237 OA
ATOM     89  O   UNL     1       3.736  15.885  -4.702  1.00  0.00    -0.744 OA
ENDBRANCH  85  86
ENDBRANCH  57  80
BRANCH  69  90
ATOM     90  C   UNL     1       0.745  23.700   3.210  1.00  0.00    -0.014 A 
ATOM     91  C   UNL     1      -0.351  23.953   2.366  1.00  0.00     0.010 A 
ATOM     92  C   UNL     1       1.524  24.782   3.661  1.00  0.00     0.010 A 
ATOM     93  C   UNL     1      -0.642  25.258   1.956  1.00  0.00     0.020 A 
ATOM     94  C   UNL     1       1.216  26.091   3.281  1.00  0.00     0.020 A 
ATOM     95  C   UNL     1       0.142  26.319   2.419  1.00  0.00     0.054 A 
BRANCH  95  96
ATOM     96  S   UNL     1      -0.287  28.006   1.908  1.00  0.00     0.124 S 
ATOM     97  O   UNL     1       0.091  28.003   0.497  1.00  0.00    -0.237 OA
ATOM     98  O   UNL     1      -1.722  28.066   2.174  1.00  0.00    -0.237 OA
ATOM     99  O   UNL     1       0.536  28.851   2.771  1.00  0.00    -0.744 OA
ENDBRANCH  95  96
ENDBRANCH  69  90
ENDBRANCH  43  44
ENDBRANCH  36  38
ENDBRANCH  35  36
ENDBRANCH  34  35
ENDBRANCH  33  34
ENDBRANCH  32  33
ENDBRANCH  31  32
ENDBRANCH  30  31
ENDBRANCH  29  30
ENDBRANCH   1  29
TORSDOF 27
