REMARK SMILES O=C(OCCOCCOCCOCCOC(=O)c1ccccc1Nc1cccc(S(F)(F)(F)(F)F)c1)c1ccc(-c2c3nc(c(-c4ccc(S(=O)(=O)[O-])cc4)c4ccc([nH]4)c(-c4ccc(S(=O)(=O)[O-])cc4)c4nc(c(-c5ccc(S(=O)(=O)[O-])cc5)c5ccc2[nH]5)C=C4)C=C3)cc1
REMARK SMILES IDX 9 1 8 2 7 3 6 4 5 5 4 6 3 7 2 8 1 9 37 10 38 11 96 12 39 13
REMARK SMILES IDX 95 14 40 15 41 16 42 17 89 18 43 19 94 20 88 21 90 22 44 23
REMARK SMILES IDX 93 24 87 25 86 26 45 28 75 29 56 30 74 31 57 32 60 33 73 34
REMARK SMILES IDX 91 35 58 36 59 37 72 39 92 40 61 41 46 42 47 43 55 44 48 45
REMARK SMILES IDX 54 46 49 47 50 48 51 49 52 50 53 51 76 52 77 53 85 54 78 55
REMARK SMILES IDX 84 56 79 57 80 58 81 59 82 60 83 61 62 62 63 63 71 64 64 65
REMARK SMILES IDX 70 66 65 67 66 68 67 69 68 70 69 71 10 72 11 73 12 74 13 75
REMARK SMILES IDX 14 76 15 77 16 78 17 79 18 80 19 81 23 82 20 83 22 84 21 85
REMARK SMILES IDX 24 86 25 88 26 89 36 90 27 91 29 92 28 93 30 94 31 95 32 96
REMARK SMILES IDX 33 97 34 98 35 99
REMARK H PARENT 90 27 60 38 24 87
REMARK Flexibility Score: inf
ROOT
ATOM      1  O   UNL     1       2.917   0.586  -2.703  1.00  0.00    -0.377 OA
ENDROOT
BRANCH   1   2
ATOM      2  C   UNL     1       2.444   1.655  -1.898  1.00  0.00     0.188 C 
BRANCH   2   3
ATOM      3  C   UNL     1       2.951   1.481  -0.475  1.00  0.00     0.188 C 
BRANCH   3   4
ATOM      4  O   UNL     1       4.371   1.481  -0.475  1.00  0.00    -0.376 OA
BRANCH   4   5
ATOM      5  C   UNL     1       4.844   0.411  -1.281  1.00  0.00     0.202 C 
BRANCH   5   6
ATOM      6  C   UNL     1       4.337  -0.908  -0.721  1.00  0.00     0.261 C 
BRANCH   6   7
ATOM      7  O   UNL     1       2.917  -0.908  -0.721  1.00  0.00    -0.460 OA
BRANCH   7   8
ATOM      8  C   UNL     1       2.207   0.075   0.019  1.00  0.00     0.338 C 
ATOM      9  O   UNL     1       0.936   0.075   0.019  1.00  0.00    -0.246 OA
BRANCH   8  10
ATOM     10  C   UNL     1       2.967   1.126   0.811  1.00  0.00     0.060 A 
ATOM     11  C   UNL     1       4.121   1.722   0.329  1.00  0.00     0.016 A 
ATOM     12  C   UNL     1       2.533   1.363   2.043  1.00  0.00     0.016 A 
ATOM     13  C   UNL     1       4.911   2.335   1.330  1.00  0.00     0.010 A 
ATOM     14  C   UNL     1       3.297   2.085   2.928  1.00  0.00     0.010 A 
ATOM     15  C   UNL     1       4.477   2.654   2.536  1.00  0.00    -0.014 A 
BRANCH  15  16
ATOM     16  C   UNL     1       5.248   3.602   3.440  1.00  0.00     0.031 A 
ATOM     17  C   UNL     1       5.648   3.046   4.657  1.00  0.00     0.074 A 
ATOM     18  C   UNL     1       5.614   4.865   3.009  1.00  0.00     0.049 A 
ATOM     19  N   UNL     1       6.450   3.589   5.574  1.00  0.00    -0.248 NA
ATOM     20  C   UNL     1       5.232   1.719   5.133  1.00  0.00     0.031 C 
ATOM     21  C   UNL     1       5.222   5.430   1.779  1.00  0.00     0.029 A 
ATOM     22  N   UNL     1       6.401   5.787   3.663  1.00  0.00    -0.354 N 
ATOM     23  C   UNL     1       6.616   2.747   6.597  1.00  0.00     0.074 A 
ATOM     24  C   UNL     1       5.831   1.535   6.330  1.00  0.00     0.031 C 
ATOM     25  C   UNL     1       5.754   6.677   1.699  1.00  0.00     0.029 A 
ATOM     26  C   UNL     1       6.489   6.914   2.876  1.00  0.00     0.049 A 
ATOM     27  H   UNL     1       6.827   5.662   4.542  1.00  0.00     0.167 HD
ATOM     28  C   UNL     1       7.394   2.942   7.739  1.00  0.00     0.031 A 
ATOM     29  C   UNL     1       7.165   8.092   3.152  1.00  0.00     0.031 A 
ATOM     30  C   UNL     1       8.105   4.104   7.995  1.00  0.00     0.049 A 
ATOM     31  C   UNL     1       7.896   8.310   4.323  1.00  0.00     0.074 A 
ATOM     32  C   UNL     1       8.900   4.314   9.139  1.00  0.00     0.029 A 
ATOM     33  N   UNL     1       8.173   5.240   7.220  1.00  0.00    -0.354 N 
ATOM     34  N   UNL     1       8.094   7.453   5.326  1.00  0.00    -0.248 NA
ATOM     35  C   UNL     1       8.589   9.565   4.641  1.00  0.00     0.031 C 
ATOM     36  C   UNL     1       9.433   5.562   9.058  1.00  0.00     0.029 A 
ATOM     37  C   UNL     1       8.978   6.153   7.864  1.00  0.00     0.049 A 
ATOM     38  H   UNL     1       7.724   5.376   6.354  1.00  0.00     0.167 HD
ATOM     39  C   UNL     1       8.862   8.012   6.263  1.00  0.00     0.074 A 
ATOM     40  C   UNL     1       9.186   9.382   5.839  1.00  0.00     0.031 C 
ATOM     41  C   UNL     1       9.310   7.435   7.452  1.00  0.00     0.031 A 
BRANCH  28  42
ATOM     42  C   UNL     1       7.465   1.818   8.759  1.00  0.00    -0.014 A 
ATOM     43  C   UNL     1       7.927   0.560   8.410  1.00  0.00     0.010 A 
ATOM     44  C   UNL     1       7.042   2.079   9.991  1.00  0.00     0.010 A 
ATOM     45  C   UNL     1       7.632  -0.444   9.362  1.00  0.00     0.020 A 
ATOM     46  C   UNL     1       6.906   1.069  10.912  1.00  0.00     0.020 A 
ATOM     47  C   UNL     1       7.288  -0.210  10.616  1.00  0.00     0.054 A 
BRANCH  47  48
ATOM     48  S   UNL     1       7.321  -1.512  11.873  1.00  0.00     0.124 S 
ATOM     49  O   UNL     1       6.375  -2.642  11.461  1.00  0.00    -0.237 OA
ATOM     50  O   UNL     1       8.744  -2.060  12.003  1.00  0.00    -0.237 OA
ATOM     51  O   UNL     1       6.819  -0.867  13.374  1.00  0.00    -0.744 OA
ENDBRANCH  47  48
ENDBRANCH  28  42
BRANCH  29  52
ATOM     52  C   UNL     1       7.107   9.210   2.124  1.00  0.00    -0.014 A 
ATOM     53  C   UNL     1       8.303   9.635   1.568  1.00  0.00     0.010 A 
ATOM     54  C   UNL     1       5.949   9.749   1.763  1.00  0.00     0.010 A 
ATOM     55  C   UNL     1       8.199  10.845   0.842  1.00  0.00     0.020 A 
ATOM     56  C   UNL     1       5.916  10.849   0.941  1.00  0.00     0.020 A 
ATOM     57  C   UNL     1       7.065  11.359   0.402  1.00  0.00     0.054 A 
BRANCH  57  58
ATOM     58  S   UNL     1       7.033  12.668  -0.848  1.00  0.00     0.124 S 
ATOM     59  O   UNL     1       7.785  13.893  -0.323  1.00  0.00    -0.237 OA
ATOM     60  O   UNL     1       7.704  12.168  -2.129  1.00  0.00    -0.237 OA
ATOM     61  O   UNL     1       5.411  13.097  -1.183  1.00  0.00    -0.744 OA
ENDBRANCH  57  58
ENDBRANCH  29  52
BRANCH  41  62
ATOM     62  C   UNL     1      10.216   8.261   8.350  1.00  0.00    -0.014 A 
ATOM     63  C   UNL     1       9.841   9.514   8.806  1.00  0.00     0.010 A 
ATOM     64  C   UNL     1      11.424   7.769   8.602  1.00  0.00     0.010 A 
ATOM     65  C   UNL     1      10.920  10.299   9.278  1.00  0.00     0.020 A 
ATOM     66  C   UNL     1      12.389   8.551   9.189  1.00  0.00     0.020 A 
ATOM     67  C   UNL     1      12.104   9.820   9.611  1.00  0.00     0.054 A 
BRANCH  67  68
ATOM     68  S   UNL     1      13.289  10.793  10.575  1.00  0.00     0.124 S 
ATOM     69  O   UNL     1      13.637  12.074   9.814  1.00  0.00    -0.237 OA
ATOM     70  O   UNL     1      12.670  11.155  11.927  1.00  0.00    -0.237 OA
ATOM     71  O   UNL     1      14.710   9.875  10.825  1.00  0.00    -0.744 OA
ENDBRANCH  67  68
ENDBRANCH  41  62
ENDBRANCH  15  16
ENDBRANCH   8  10
ENDBRANCH   7   8
ENDBRANCH   6   7
ENDBRANCH   5   6
ENDBRANCH   4   5
ENDBRANCH   3   4
ENDBRANCH   2   3
ENDBRANCH   1   2
BRANCH   1  72
ATOM     72  C   UNL     1       4.337   0.586  -2.703  1.00  0.00     0.188 C 
BRANCH  72  73
ATOM     73  C   UNL     1       4.844   1.905  -3.263  1.00  0.00     0.188 C 
BRANCH  73  74
ATOM     74  O   UNL     1       4.371   2.974  -2.458  1.00  0.00    -0.376 OA
BRANCH  74  75
ATOM     75  C   UNL     1       2.951   2.974  -2.458  1.00  0.00     0.202 C 
BRANCH  75  76
ATOM     76  C   UNL     1       2.444   3.148  -3.880  1.00  0.00     0.261 C 
BRANCH  76  77
ATOM     77  O   UNL     1       2.917   2.079  -4.686  1.00  0.00    -0.460 OA
BRANCH  77  78
ATOM     78  C   UNL     1       4.313   1.872  -4.842  1.00  0.00     0.340 C 
ATOM     79  O   UNL     1       5.139   2.643  -4.261  1.00  0.00    -0.246 OA
BRANCH  78  80
ATOM     80  C   UNL     1       4.820   0.727  -5.704  1.00  0.00     0.083 A 
ATOM     81  C   UNL     1       5.759  -0.080  -5.083  1.00  0.00     0.018 A 
ATOM     82  C   UNL     1       4.337   0.425  -6.904  1.00  0.00     0.053 A 
ATOM     83  C   UNL     1       6.346  -1.040  -5.941  1.00  0.00     0.001 A 
ATOM     84  C   UNL     1       4.868  -0.613  -7.630  1.00  0.00     0.027 A 
ATOM     85  C   UNL     1       5.841  -1.416  -7.102  1.00  0.00     0.002 A 
BRANCH  82  86
ATOM     86  N   UNL     1       3.224   1.209  -7.459  1.00  0.00    -0.355 N 
ATOM     87  H   UNL     1       2.841   1.954  -6.943  1.00  0.00     0.167 HD
BRANCH  86  88
ATOM     88  C   UNL     1       2.685   0.880  -8.787  1.00  0.00     0.040 A 
ATOM     89  C   UNL     1       2.768   1.803  -9.816  1.00  0.00     0.026 A 
ATOM     90  C   UNL     1       2.177  -0.331  -8.986  1.00  0.00     0.050 A 
ATOM     91  C   UNL     1       2.018   1.451 -10.963  1.00  0.00     0.004 A 
ATOM     92  C   UNL     1       1.579  -0.650 -10.181  1.00  0.00     0.109 A 
ATOM     93  C   UNL     1       1.572   0.235 -11.223  1.00  0.00     0.024 A 
BRANCH  92  94
ATOM     94  S   UNL     1       0.789  -2.267 -10.379  1.00  0.00     0.310 S 
ATOM     95  F   UNL     1       0.292  -2.285  -8.873  1.00  0.00    -0.094 F 
ATOM     96  F   UNL     1       2.125  -2.932  -9.874  1.00  0.00    -0.094 F 
ATOM     97  F   UNL     1       0.125  -3.663 -10.550  1.00  0.00    -0.094 F 
ATOM     98  F   UNL     1      -0.584  -1.578 -10.747  1.00  0.00    -0.094 F 
ATOM     99  F   UNL     1       1.413  -0.841 -10.102  1.00  0.00    -0.094 F 
ENDBRANCH  92  94
ENDBRANCH  86  88
ENDBRANCH  82  86
ENDBRANCH  78  80
ENDBRANCH  77  78
ENDBRANCH  76  77
ENDBRANCH  75  76
ENDBRANCH  74  75
ENDBRANCH  73  74
ENDBRANCH  72  73
ENDBRANCH   1  72
TORSDOF 26
