REMARK SMILES O=C(OCCOCCOCCOCCOC(=O)[C@H]1CCCN(C(=O)c2cc(Br)ccc2Cl)C1)c1ccc(-c2c3nc(c(-c4ccc(S(=O)(=O)[O-])cc4)c4ccc([nH]4)c(-c4ccc(S(=O)(=O)[O-])cc4)c4nc(c(-c5ccc(S(=O)(=O)[O-])cc5)c5ccc2[nH]5)C=C4)C=C3)cc1
REMARK SMILES IDX 8 1 7 2 6 3 5 4 4 5 3 6 2 7 1 8 34 9 35 10 93 11 36 12 92 13
REMARK SMILES IDX 37 14 38 15 39 16 86 17 40 18 91 19 85 20 87 21 41 22 90 23
REMARK SMILES IDX 84 24 83 25 42 27 72 28 53 29 71 30 54 31 57 32 70 33 88 34
REMARK SMILES IDX 55 35 56 36 69 38 89 39 58 40 43 41 44 42 52 43 45 44 51 45
REMARK SMILES IDX 46 46 47 47 48 48 49 49 50 50 73 51 74 52 82 53 75 54 81 55
REMARK SMILES IDX 76 56 77 57 78 58 79 59 80 60 59 61 60 62 68 63 61 64 67 65
REMARK SMILES IDX 62 66 63 67 64 68 65 69 66 70 9 71 10 72 11 73 12 74 13 75
REMARK SMILES IDX 14 76 15 77 16 78 17 79 18 80 19 81 33 82 20 83 22 84 21 85
REMARK SMILES IDX 23 86 24 87 25 88 26 89 31 90 27 91 30 92 32 93 28 94 29 95
REMARK H PARENT 87 26 57 37
REMARK Flexibility Score: inf
ROOT
ATOM      1  C   UNL     1       3.024   2.471   8.456  1.00  0.00     0.188 C 
ENDROOT
BRANCH   1   2
ATOM      2  C   UNL     1       1.735   3.156   8.035  1.00  0.00     0.188 C 
BRANCH   2   3
ATOM      3  O   UNL     1       0.757   2.133   7.993  1.00  0.00    -0.376 OA
BRANCH   3   4
ATOM      4  C   UNL     1      -0.333   2.304   7.117  1.00  0.00     0.202 C 
BRANCH   4   5
ATOM      5  C   UNL     1      -1.509   2.999   7.795  1.00  0.00     0.261 C 
BRANCH   5   6
ATOM      6  O   UNL     1      -1.076   4.033   8.694  1.00  0.00    -0.460 OA
BRANCH   6   7
ATOM      7  C   UNL     1      -0.973   3.952  10.045  1.00  0.00     0.338 C 
ATOM      8  O   UNL     1      -0.733   4.982  10.676  1.00  0.00    -0.246 OA
BRANCH   7   9
ATOM      9  C   UNL     1      -1.144   2.687  10.828  1.00  0.00     0.060 A 
ATOM     10  C   UNL     1      -0.744   1.421  10.399  1.00  0.00     0.016 A 
ATOM     11  C   UNL     1      -1.631   2.805  12.139  1.00  0.00     0.016 A 
ATOM     12  C   UNL     1      -0.831   0.303  11.216  1.00  0.00     0.010 A 
ATOM     13  C   UNL     1      -1.718   1.685  12.977  1.00  0.00     0.010 A 
ATOM     14  C   UNL     1      -1.320   0.428  12.509  1.00  0.00    -0.014 A 
BRANCH  14  15
ATOM     15  C   UNL     1      -1.540  -0.810  13.276  1.00  0.00     0.031 A 
ATOM     16  C   UNL     1      -2.945  -1.317  13.387  1.00  0.00     0.074 A 
ATOM     17  C   UNL     1      -0.490  -1.522  13.727  1.00  0.00     0.049 A 
ATOM     18  N   UNL     1      -3.407  -2.322  14.075  1.00  0.00    -0.248 NA
ATOM     19  C   UNL     1      -3.968  -0.600  12.602  1.00  0.00     0.031 C 
ATOM     20  C   UNL     1       0.921  -1.178  13.518  1.00  0.00     0.029 A 
ATOM     21  N   UNL     1      -0.442  -2.696  14.431  1.00  0.00    -0.354 N 
ATOM     22  C   UNL     1      -4.778  -2.326  13.850  1.00  0.00     0.074 A 
ATOM     23  C   UNL     1      -5.075  -1.240  12.946  1.00  0.00     0.031 C 
ATOM     24  C   UNL     1       1.692  -2.126  14.077  1.00  0.00     0.029 A 
ATOM     25  C   UNL     1       0.836  -3.097  14.746  1.00  0.00     0.049 A 
ATOM     26  H   UNL     1      -1.246  -3.204  14.687  1.00  0.00     0.167 HD
ATOM     27  C   UNL     1      -5.702  -3.158  14.377  1.00  0.00     0.031 A 
ATOM     28  C   UNL     1       1.251  -4.107  15.535  1.00  0.00     0.031 A 
ATOM     29  C   UNL     1      -5.364  -4.231  15.269  1.00  0.00     0.049 A 
ATOM     30  C   UNL     1       0.193  -4.957  16.191  1.00  0.00     0.074 A 
ATOM     31  C   UNL     1      -6.206  -5.112  15.920  1.00  0.00     0.029 A 
ATOM     32  N   UNL     1      -4.066  -4.566  15.630  1.00  0.00    -0.354 N 
ATOM     33  N   UNL     1      -1.111  -4.912  16.036  1.00  0.00    -0.248 NA
ATOM     34  C   UNL     1       0.653  -5.974  17.145  1.00  0.00     0.031 C 
ATOM     35  C   UNL     1      -5.417  -5.947  16.718  1.00  0.00     0.029 A 
ATOM     36  C   UNL     1      -4.082  -5.624  16.518  1.00  0.00     0.049 A 
ATOM     37  H   UNL     1      -3.254  -4.117  15.302  1.00  0.00     0.167 HD
ATOM     38  C   UNL     1      -1.627  -5.897  16.868  1.00  0.00     0.074 A 
ATOM     39  C   UNL     1      -0.491  -6.543  17.499  1.00  0.00     0.031 C 
ATOM     40  C   UNL     1      -2.918  -6.234  17.108  1.00  0.00     0.031 A 
BRANCH  27  41
ATOM     41  C   UNL     1      -7.146  -2.874  14.078  1.00  0.00    -0.014 A 
ATOM     42  C   UNL     1      -7.716  -3.165  12.827  1.00  0.00     0.010 A 
ATOM     43  C   UNL     1      -7.951  -2.309  15.084  1.00  0.00     0.010 A 
ATOM     44  C   UNL     1      -9.063  -2.877  12.582  1.00  0.00     0.020 A 
ATOM     45  C   UNL     1      -9.302  -2.039  14.851  1.00  0.00     0.020 A 
ATOM     46  C   UNL     1      -9.847  -2.317  13.596  1.00  0.00     0.054 A 
BRANCH  46  47
ATOM     47  S   UNL     1     -11.601  -1.991  13.266  1.00  0.00     0.124 S 
ATOM     48  O   UNL     1     -11.530  -0.843  12.364  1.00  0.00    -0.237 OA
ATOM     49  O   UNL     1     -12.049  -3.240  12.657  1.00  0.00    -0.237 OA
ATOM     50  O   UNL     1     -12.158  -1.710  14.587  1.00  0.00    -0.744 OA
ENDBRANCH  46  47
ENDBRANCH  27  41
BRANCH  28  51
ATOM     51  C   UNL     1       2.700  -4.299  15.840  1.00  0.00    -0.014 A 
ATOM     52  C   UNL     1       3.373  -5.482  15.487  1.00  0.00     0.010 A 
ATOM     53  C   UNL     1       3.410  -3.300  16.536  1.00  0.00     0.010 A 
ATOM     54  C   UNL     1       4.711  -5.676  15.856  1.00  0.00     0.020 A 
ATOM     55  C   UNL     1       4.753  -3.476  16.876  1.00  0.00     0.020 A 
ATOM     56  C   UNL     1       5.390  -4.674  16.553  1.00  0.00     0.054 A 
BRANCH  56  57
ATOM     57  S   UNL     1       7.122  -4.942  17.026  1.00  0.00     0.124 S 
ATOM     58  O   UNL     1       6.991  -5.875  18.140  1.00  0.00    -0.237 OA
ATOM     59  O   UNL     1       7.703  -5.491  15.804  1.00  0.00    -0.237 OA
ATOM     60  O   UNL     1       7.590  -3.604  17.381  1.00  0.00    -0.744 OA
ENDBRANCH  56  57
ENDBRANCH  28  51
BRANCH  40  61
ATOM     61  C   UNL     1      -3.158  -7.362  18.069  1.00  0.00    -0.014 A 
ATOM     62  C   UNL     1      -2.996  -7.176  19.453  1.00  0.00     0.010 A 
ATOM     63  C   UNL     1      -3.624  -8.596  17.582  1.00  0.00     0.010 A 
ATOM     64  C   UNL     1      -3.276  -8.219  20.335  1.00  0.00     0.020 A 
ATOM     65  C   UNL     1      -3.932  -9.631  18.465  1.00  0.00     0.020 A 
ATOM     66  C   UNL     1      -3.744  -9.439  19.836  1.00  0.00     0.054 A 
BRANCH  66  67
ATOM     67  S   UNL     1      -4.160 -10.757  21.007  1.00  0.00     0.124 S 
ATOM     68  O   UNL     1      -2.839 -11.233  21.408  1.00  0.00    -0.237 OA
ATOM     69  O   UNL     1      -4.913 -10.046  22.037  1.00  0.00    -0.237 OA
ATOM     70  O   UNL     1      -4.945 -11.695  20.207  1.00  0.00    -0.744 OA
ENDBRANCH  66  67
ENDBRANCH  40  61
ENDBRANCH  14  15
ENDBRANCH   7   9
ENDBRANCH   6   7
ENDBRANCH   5   6
ENDBRANCH   4   5
ENDBRANCH   3   4
ENDBRANCH   2   3
ENDBRANCH   1   2
BRANCH   1  71
ATOM     71  O   UNL     1       3.390   1.465   7.509  1.00  0.00    -0.377 OA
BRANCH  71  72
ATOM     72  C   UNL     1       2.793   0.176   7.571  1.00  0.00     0.188 C 
BRANCH  72  73
ATOM     73  C   UNL     1       3.308  -0.742   8.682  1.00  0.00     0.188 C 
BRANCH  73  74
ATOM     74  O   UNL     1       3.576  -0.000   9.853  1.00  0.00    -0.376 OA
BRANCH  74  75
ATOM     75  C   UNL     1       4.918  -0.000  10.312  1.00  0.00     0.202 C 
BRANCH  75  76
ATOM     76  C   UNL     1       6.109   0.255   9.352  1.00  0.00     0.261 C 
BRANCH  76  77
ATOM     77  O   UNL     1       5.819   0.758   8.031  1.00  0.00    -0.463 OA
BRANCH  77  78
ATOM     78  C   UNL     1       6.275   0.019   6.983  1.00  0.00     0.310 C 
ATOM     79  O   UNL     1       6.910  -1.023   7.115  1.00  0.00    -0.252 OA
BRANCH  78  80
ATOM     80  C   UNL     1       5.845   0.520   5.604  1.00  0.00     0.119 C 
ATOM     81  C   UNL     1       5.452   1.997   5.452  1.00  0.00     0.019 C 
ATOM     82  C   UNL     1       6.976   0.236   4.597  1.00  0.00     0.135 C 
ATOM     83  C   UNL     1       4.964   2.256   4.028  1.00  0.00     0.022 C 
ATOM     84  N   UNL     1       6.588   0.611   3.227  1.00  0.00    -0.338 N 
ATOM     85  C   UNL     1       6.093   1.980   3.057  1.00  0.00     0.120 C 
BRANCH  84  86
ATOM     86  C   UNL     1       6.704  -0.327   2.205  1.00  0.00     0.255 C 
ATOM     87  O   UNL     1       7.037  -1.499   2.369  1.00  0.00    -0.269 OA
BRANCH  86  88
ATOM     88  C   UNL     1       6.330   0.075   0.838  1.00  0.00     0.059 A 
ATOM     89  C   UNL     1       5.171  -0.503   0.302  1.00  0.00     0.031 A 
ATOM     90  C   UNL     1       7.060   1.018   0.105  1.00  0.00     0.053 A 
ATOM     91  C   UNL     1       4.714  -0.084  -0.944  1.00  0.00     0.018 A 
ATOM     92  C   UNL     1       6.574   1.449  -1.132  1.00  0.00     0.022 A 
ATOM     93  Cl  UNL     1       8.543   1.698   0.670  1.00  0.00    -0.083 Cl
ATOM     94  Br  UNL     1       3.147  -0.844  -1.675  1.00  0.00    -0.051 Br
ATOM     95  C   UNL     1       5.397   0.905  -1.653  1.00  0.00     0.017 A 
ENDBRANCH  86  88
ENDBRANCH  84  86
ENDBRANCH  78  80
ENDBRANCH  77  78
ENDBRANCH  76  77
ENDBRANCH  75  76
ENDBRANCH  74  75
ENDBRANCH  73  74
ENDBRANCH  72  73
ENDBRANCH  71  72
ENDBRANCH   1  71
TORSDOF 25
