REMARK SMILES CC(C)OC(=O)c1c(NC(=O)[C@H]2[C@@H](C(=O)OCCOCCOCCOCCOC(=O)c3ccc(-c4c5nc(c(-c6ccc(S(=O)(=O)[O-])cc6)c6ccc([nH]6)c(-c6ccc(S(=O)(=O)[O-])cc6)c6nc(c(-c7ccc(S(=O)(=O)[O-])cc7)c7ccc4[nH]7)C=C6)C=C5)cc3)[C@@H]3C=C[C@H]2CC3)sc2c1CCC2
REMARK SMILES IDX 21 1 20 2 19 3 18 4 17 5 16 6 14 7 15 8 13 9 12 10 94 11
REMARK SMILES IDX 91 12 93 13 95 14 92 15 96 16 10 17 9 18 11 20 8 21 7 22
REMARK SMILES IDX 99 23 97 24 98 25 100 26 102 27 101 28 5 29 6 30 4 31 2 32
REMARK SMILES IDX 1 33 3 34 22 35 23 36 24 37 25 38 26 39 27 40 28 41 29 42
REMARK SMILES IDX 30 43 31 44 32 45 90 46 33 47 89 48 34 49 35 50 36 51 83 52
REMARK SMILES IDX 37 53 88 54 82 55 84 56 38 57 87 58 81 59 80 60 39 62 69 63
REMARK SMILES IDX 50 64 68 65 51 66 54 67 67 68 85 69 52 70 53 71 66 73 86 74
REMARK SMILES IDX 55 75 40 76 41 77 49 78 42 79 48 80 43 81 44 82 45 83 46 84
REMARK SMILES IDX 47 85 70 86 71 87 79 88 72 89 78 90 73 91 74 92 75 93 76 94
REMARK SMILES IDX 77 95 56 96 57 97 65 98 58 99 64 100 59 101 60 102 61 103
REMARK SMILES IDX 62 104 63 105
REMARK H PARENT 9 19 84 61 54 72
REMARK Flexibility Score: inf
ROOT
ATOM      1  C   UNL     1      -5.789   1.625   0.601  1.00  0.00     0.188 C 
ENDROOT
BRANCH   1   2
ATOM      2  C   UNL     1      -5.928   0.744  -0.667  1.00  0.00     0.188 C 
BRANCH   2   3
ATOM      3  O   UNL     1      -6.771   1.288  -1.673  1.00  0.00    -0.376 OA
BRANCH   3   4
ATOM      4  C   UNL     1      -7.994   0.637  -1.956  1.00  0.00     0.202 C 
BRANCH   4   5
ATOM      5  C   UNL     1      -9.034   0.677  -0.828  1.00  0.00     0.261 C 
BRANCH   5   6
ATOM      6  O   UNL     1      -8.571   0.111   0.406  1.00  0.00    -0.463 OA
BRANCH   6   7
ATOM      7  C   UNL     1      -8.248  -1.212   0.358  1.00  0.00     0.310 C 
ATOM      8  O   UNL     1      -8.476  -1.923  -0.603  1.00  0.00    -0.252 OA
BRANCH   7   9
ATOM      9  C   UNL     1      -7.424  -1.557   1.587  1.00  0.00     0.119 C 
ATOM     10  C   UNL     1      -6.735  -2.947   1.666  1.00  0.00     0.100 C 
ATOM     11  C   UNL     1      -7.353  -3.727   2.856  1.00  0.00     0.025 C 
ATOM     12  C   UNL     1      -8.210  -1.273   2.895  1.00  0.00     0.026 C 
ATOM     13  C   UNL     1      -6.935  -2.940   4.087  1.00  0.00    -0.027 C 
ATOM     14  C   UNL     1      -8.903  -3.678   2.774  1.00  0.00     0.009 C 
ATOM     15  C   UNL     1      -7.337  -1.657   4.082  1.00  0.00    -0.027 C 
ATOM     16  C   UNL     1      -9.414  -2.228   2.928  1.00  0.00     0.009 C 
BRANCH  10  17
ATOM     17  C   UNL     1      -6.628  -3.830   0.431  1.00  0.00     0.229 C 
ATOM     18  N   UNL     1      -5.420  -4.167  -0.122  1.00  0.00    -0.317 N 
ATOM     19  H   UNL     1      -5.396  -4.135  -1.106  1.00  0.00     0.170 HD
ATOM     20  O   UNL     1      -7.628  -4.312  -0.106  1.00  0.00    -0.274 OA
BRANCH  18  21
ATOM     21  C   UNL     1      -4.220  -4.547   0.475  1.00  0.00     0.110 A 
ATOM     22  C   UNL     1      -3.203  -5.289  -0.144  1.00  0.00     0.098 A 
ATOM     23  C   UNL     1      -2.222  -5.666   0.819  1.00  0.00    -0.017 A 
ATOM     24  S   UNL     1      -3.893  -4.285   2.136  1.00  0.00    -0.122 S 
ATOM     25  C   UNL     1      -2.471  -5.127   2.048  1.00  0.00     0.011 A 
ATOM     26  C   UNL     1      -0.983  -6.488   0.860  1.00  0.00     0.038 C 
ATOM     27  C   UNL     1      -1.467  -5.448   3.083  1.00  0.00     0.047 C 
ATOM     28  C   UNL     1      -0.743  -6.643   2.401  1.00  0.00     0.010 C 
BRANCH  22  29
ATOM     29  C   UNL     1      -3.250  -5.654  -1.557  1.00  0.00     0.341 C 
ATOM     30  O   UNL     1      -3.725  -4.921  -2.407  1.00  0.00    -0.246 OA
BRANCH  29  31
ATOM     31  O   UNL     1      -2.787  -6.917  -1.781  1.00  0.00    -0.459 OA
BRANCH  31  32
ATOM     32  C   UNL     1      -2.849  -7.477  -3.113  1.00  0.00     0.170 C 
ATOM     33  C   UNL     1      -4.237  -7.430  -3.751  1.00  0.00     0.052 C 
ATOM     34  C   UNL     1      -1.767  -6.878  -4.001  1.00  0.00     0.052 C 
ENDBRANCH  31  32
ENDBRANCH  29  31
ENDBRANCH  22  29
ENDBRANCH  18  21
ENDBRANCH  10  17
ENDBRANCH   7   9
ENDBRANCH   6   7
ENDBRANCH   5   6
ENDBRANCH   4   5
ENDBRANCH   3   4
ENDBRANCH   2   3
ENDBRANCH   1   2
BRANCH   1  35
ATOM     35  O   UNL     1      -6.609   2.772   0.760  1.00  0.00    -0.377 OA
BRANCH  35  36
ATOM     36  C   UNL     1      -6.806   3.650  -0.343  1.00  0.00     0.188 C 
BRANCH  36  37
ATOM     37  C   UNL     1      -5.742   3.821  -1.464  1.00  0.00     0.188 C 
BRANCH  37  38
ATOM     38  O   UNL     1      -4.633   2.933  -1.406  1.00  0.00    -0.376 OA
BRANCH  38  39
ATOM     39  C   UNL     1      -3.312   3.404  -1.213  1.00  0.00     0.202 C 
BRANCH  39  40
ATOM     40  C   UNL     1      -2.969   3.905   0.189  1.00  0.00     0.261 C 
BRANCH  40  41
ATOM     41  O   UNL     1      -4.004   4.684   0.753  1.00  0.00    -0.460 OA
BRANCH  41  42
ATOM     42  C   UNL     1      -4.227   5.840   0.099  1.00  0.00     0.338 C 
ATOM     43  O   UNL     1      -3.659   6.242  -0.899  1.00  0.00    -0.246 OA
BRANCH  42  44
ATOM     44  C   UNL     1      -5.257   6.584   0.828  1.00  0.00     0.060 A 
ATOM     45  C   UNL     1      -5.563   7.823   0.271  1.00  0.00     0.016 A 
ATOM     46  C   UNL     1      -5.422   6.287   2.187  1.00  0.00     0.016 A 
ATOM     47  C   UNL     1      -5.615   8.878   1.137  1.00  0.00     0.010 A 
ATOM     48  C   UNL     1      -5.440   7.343   3.050  1.00  0.00     0.010 A 
ATOM     49  C   UNL     1      -5.404   8.617   2.494  1.00  0.00    -0.014 A 
BRANCH  49  50
ATOM     50  C   UNL     1      -5.133   9.747   3.338  1.00  0.00     0.031 A 
ATOM     51  C   UNL     1      -6.356  10.473   3.691  1.00  0.00     0.074 A 
ATOM     52  C   UNL     1      -3.894  10.031   3.770  1.00  0.00     0.049 A 
ATOM     53  N   UNL     1      -6.754  11.607   3.224  1.00  0.00    -0.248 NA
ATOM     54  C   UNL     1      -7.363   9.737   4.469  1.00  0.00     0.031 C 
ATOM     55  C   UNL     1      -2.688   9.202   3.700  1.00  0.00     0.029 A 
ATOM     56  N   UNL     1      -3.494  11.103   4.495  1.00  0.00    -0.354 N 
ATOM     57  C   UNL     1      -7.972  11.835   3.843  1.00  0.00     0.074 A 
ATOM     58  C   UNL     1      -8.399  10.568   4.381  1.00  0.00     0.031 C 
ATOM     59  C   UNL     1      -1.774   9.690   4.572  1.00  0.00     0.029 A 
ATOM     60  C   UNL     1      -2.289  10.921   5.153  1.00  0.00     0.049 A 
ATOM     61  H   UNL     1      -4.013  11.938   4.549  1.00  0.00     0.167 HD
ATOM     62  C   UNL     1      -8.384  13.095   4.139  1.00  0.00     0.031 A 
ATOM     63  C   UNL     1      -1.830  11.679   6.179  1.00  0.00     0.031 A 
ATOM     64  C   UNL     1      -7.626  14.088   3.421  1.00  0.00     0.049 A 
ATOM     65  C   UNL     1      -2.583  12.963   6.151  1.00  0.00     0.074 A 
ATOM     66  C   UNL     1      -7.413  14.363   2.085  1.00  0.00     0.029 A 
ATOM     67  N   UNL     1      -6.622  14.729   4.113  1.00  0.00    -0.354 N 
ATOM     68  N   UNL     1      -2.468  13.844   5.196  1.00  0.00    -0.248 NA
ATOM     69  C   UNL     1      -3.805  13.067   6.939  1.00  0.00     0.031 C 
ATOM     70  C   UNL     1      -6.057  14.794   2.003  1.00  0.00     0.029 A 
ATOM     71  C   UNL     1      -5.525  14.807   3.295  1.00  0.00     0.049 A 
ATOM     72  H   UNL     1      -6.683  15.071   5.034  1.00  0.00     0.167 HD
ATOM     73  C   UNL     1      -3.755  14.325   4.988  1.00  0.00     0.074 A 
ATOM     74  C   UNL     1      -4.513  13.892   6.160  1.00  0.00     0.031 C 
ATOM     75  C   UNL     1      -4.152  14.777   3.761  1.00  0.00     0.031 A 
BRANCH  62  76
ATOM     76  C   UNL     1      -9.142  13.415   5.403  1.00  0.00    -0.014 A 
ATOM     77  C   UNL     1      -9.543  14.744   5.625  1.00  0.00     0.010 A 
ATOM     78  C   UNL     1      -9.221  12.529   6.500  1.00  0.00     0.010 A 
ATOM     79  C   UNL     1      -9.909  15.182   6.903  1.00  0.00     0.020 A 
ATOM     80  C   UNL     1      -9.632  12.941   7.763  1.00  0.00     0.020 A 
ATOM     81  C   UNL     1      -9.929  14.278   7.967  1.00  0.00     0.054 A 
BRANCH  81  82
ATOM     82  S   UNL     1     -10.257  14.877   9.638  1.00  0.00     0.124 S 
ATOM     83  O   UNL     1      -9.074  15.690   9.898  1.00  0.00    -0.237 OA
ATOM     84  O   UNL     1     -11.508  15.608   9.463  1.00  0.00    -0.237 OA
ATOM     85  O   UNL     1     -10.362  13.650  10.425  1.00  0.00    -0.744 OA
ENDBRANCH  81  82
ENDBRANCH  62  76
BRANCH  63  86
ATOM     86  C   UNL     1      -1.059  11.215   7.360  1.00  0.00    -0.014 A 
ATOM     87  C   UNL     1      -0.465  12.134   8.243  1.00  0.00     0.010 A 
ATOM     88  C   UNL     1      -1.126   9.866   7.768  1.00  0.00     0.010 A 
ATOM     89  C   UNL     1      -0.009  11.728   9.509  1.00  0.00     0.020 A 
ATOM     90  C   UNL     1      -0.664   9.451   9.022  1.00  0.00     0.020 A 
ATOM     91  C   UNL     1      -0.129  10.391   9.898  1.00  0.00     0.054 A 
BRANCH  91  92
ATOM     92  S   UNL     1       0.298   9.907  11.596  1.00  0.00     0.124 S 
ATOM     93  O   UNL     1       1.754  10.018  11.593  1.00  0.00    -0.237 OA
ATOM     94  O   UNL     1      -0.410  10.901  12.397  1.00  0.00    -0.237 OA
ATOM     95  O   UNL     1      -0.220   8.544  11.707  1.00  0.00    -0.744 OA
ENDBRANCH  91  92
ENDBRANCH  63  86
BRANCH  75  96
ATOM     96  C   UNL     1      -3.091  15.034   2.715  1.00  0.00    -0.014 A 
ATOM     97  C   UNL     1      -2.261  14.027   2.186  1.00  0.00     0.010 A 
ATOM     98  C   UNL     1      -3.053  16.311   2.129  1.00  0.00     0.010 A 
ATOM     99  C   UNL     1      -1.401  14.299   1.111  1.00  0.00     0.020 A 
ATOM    100  C   UNL     1      -2.213  16.584   1.047  1.00  0.00     0.020 A 
ATOM    101  C   UNL     1      -1.385  15.578   0.546  1.00  0.00     0.054 A 
BRANCH 101 102
ATOM    102  S   UNL     1      -0.321  15.909  -0.886  1.00  0.00     0.124 S 
ATOM    103  O   UNL     1       1.017  15.872  -0.303  1.00  0.00    -0.237 OA
ATOM    104  O   UNL     1      -0.643  14.809  -1.793  1.00  0.00    -0.237 OA
ATOM    105  O   UNL     1      -0.758  17.226  -1.348  1.00  0.00    -0.744 OA
ENDBRANCH 101 102
ENDBRANCH  75  96
ENDBRANCH  49  50
ENDBRANCH  42  44
ENDBRANCH  41  42
ENDBRANCH  40  41
ENDBRANCH  39  40
ENDBRANCH  38  39
ENDBRANCH  37  38
ENDBRANCH  36  37
ENDBRANCH  35  36
ENDBRANCH   1  35
TORSDOF 28
