REMARK SMILES O=C(OCCOCCOCCOCCOC(=O)c1cnccc1C(=O)N1CCC(Cc2ccccc2)CC1)c1ccc(-c2c3nc(c(-c4ccc(S(=O)(=O)[O-])cc4)c4ccc([nH]4)c(-c4ccc(S(=O)(=O)[O-])cc4)c4nc(c(-c5ccc(S(=O)(=O)[O-])cc5)c5ccc2[nH]5)C=C4)C=C3)cc1
REMARK SMILES IDX 9 1 8 2 7 3 6 4 5 5 4 6 3 7 2 8 1 9 39 10 40 11 98 12 41 13
REMARK SMILES IDX 97 14 42 15 43 16 44 17 91 18 45 19 96 20 90 21 92 22 46 23
REMARK SMILES IDX 95 24 89 25 88 26 47 28 77 29 58 30 76 31 59 32 62 33 75 34
REMARK SMILES IDX 93 35 60 36 61 37 74 39 94 40 63 41 48 42 49 43 57 44 50 45
REMARK SMILES IDX 56 46 51 47 52 48 53 49 54 50 55 51 78 52 79 53 87 54 80 55
REMARK SMILES IDX 86 56 81 57 82 58 83 59 84 60 85 61 64 62 65 63 73 64 66 65
REMARK SMILES IDX 72 66 67 67 68 68 69 69 70 70 71 71 10 72 11 73 12 74 13 75
REMARK SMILES IDX 14 76 15 77 16 78 17 79 18 80 19 81 23 82 20 83 22 84 21 85
REMARK SMILES IDX 24 86 25 87 26 88 27 89 38 90 28 91 37 92 29 93 30 94 31 95
REMARK SMILES IDX 32 96 36 97 33 98 35 99 34 100
REMARK H PARENT 92 27 62 38
REMARK Flexibility Score: inf
ROOT
ATOM      1  O   UNL     1       2.842  -3.359  -1.436  1.00  0.00    -0.377 OA
ENDROOT
BRANCH   1   2
ATOM      2  C   UNL     1       2.029  -2.198  -1.281  1.00  0.00     0.188 C 
BRANCH   2   3
ATOM      3  C   UNL     1       2.332  -1.318  -0.067  1.00  0.00     0.188 C 
BRANCH   3   4
ATOM      4  O   UNL     1       3.656  -0.789  -0.131  1.00  0.00    -0.376 OA
BRANCH   4   5
ATOM      5  C   UNL     1       4.427  -0.890   1.064  1.00  0.00     0.202 C 
BRANCH   5   6
ATOM      6  C   UNL     1       4.250   0.293   2.010  1.00  0.00     0.261 C 
BRANCH   6   7
ATOM      7  O   UNL     1       2.882   0.709   2.082  1.00  0.00    -0.460 OA
BRANCH   7   8
ATOM      8  C   UNL     1       2.245   1.604   1.289  1.00  0.00     0.338 C 
ATOM      9  O   UNL     1       1.049   1.804   1.510  1.00  0.00    -0.246 OA
BRANCH   8  10
ATOM     10  C   UNL     1       2.877   2.371   0.160  1.00  0.00     0.060 A 
ATOM     11  C   UNL     1       4.044   2.035  -0.539  1.00  0.00     0.016 A 
ATOM     12  C   UNL     1       2.181   3.517  -0.262  1.00  0.00     0.016 A 
ATOM     13  C   UNL     1       4.528   2.813  -1.587  1.00  0.00     0.010 A 
ATOM     14  C   UNL     1       2.665   4.320  -1.297  1.00  0.00     0.010 A 
ATOM     15  C   UNL     1       3.865   3.983  -1.931  1.00  0.00    -0.014 A 
BRANCH  15  16
ATOM     16  C   UNL     1       4.591   4.990  -2.720  1.00  0.00     0.031 A 
ATOM     17  C   UNL     1       5.318   6.048  -1.944  1.00  0.00     0.074 A 
ATOM     18  C   UNL     1       4.653   4.917  -4.058  1.00  0.00     0.049 A 
ATOM     19  N   UNL     1       5.905   7.132  -2.365  1.00  0.00    -0.248 NA
ATOM     20  C   UNL     1       5.393   5.848  -0.484  1.00  0.00     0.031 C 
ATOM     21  C   UNL     1       4.100   3.835  -4.873  1.00  0.00     0.029 A 
ATOM     22  N   UNL     1       5.211   5.775  -4.965  1.00  0.00    -0.354 N 
ATOM     23  C   UNL     1       6.375   7.765  -1.220  1.00  0.00     0.074 A 
ATOM     24  C   UNL     1       6.018   6.943  -0.089  1.00  0.00     0.031 C 
ATOM     25  C   UNL     1       4.331   4.107  -6.169  1.00  0.00     0.029 A 
ATOM     26  C   UNL     1       4.986   5.409  -6.270  1.00  0.00     0.049 A 
ATOM     27  H   UNL     1       5.723   6.576  -4.709  1.00  0.00     0.167 HD
ATOM     28  C   UNL     1       7.025   8.947  -1.128  1.00  0.00     0.031 A 
ATOM     29  C   UNL     1       5.237   6.088  -7.407  1.00  0.00     0.031 A 
ATOM     30  C   UNL     1       7.324   9.751  -2.278  1.00  0.00     0.049 A 
ATOM     31  C   UNL     1       5.874   7.448  -7.286  1.00  0.00     0.074 A 
ATOM     32  C   UNL     1       7.909  11.000  -2.337  1.00  0.00     0.029 A 
ATOM     33  N   UNL     1       7.045   9.368  -3.586  1.00  0.00    -0.354 N 
ATOM     34  N   UNL     1       6.250   8.085  -6.199  1.00  0.00    -0.248 NA
ATOM     35  C   UNL     1       6.114   8.187  -8.531  1.00  0.00     0.031 C 
ATOM     36  C   UNL     1       7.938  11.393  -3.679  1.00  0.00     0.029 A 
ATOM     37  C   UNL     1       7.433  10.361  -4.461  1.00  0.00     0.049 A 
ATOM     38  H   UNL     1       6.631   8.515  -3.848  1.00  0.00     0.167 HD
ATOM     39  C   UNL     1       6.794   9.289  -6.628  1.00  0.00     0.074 A 
ATOM     40  C   UNL     1       6.699   9.289  -8.077  1.00  0.00     0.031 C 
ATOM     41  C   UNL     1       7.327  10.302  -5.900  1.00  0.00     0.031 A 
BRANCH  28  42
ATOM     42  C   UNL     1       7.326   9.451   0.258  1.00  0.00    -0.014 A 
ATOM     43  C   UNL     1       8.277   8.823   1.084  1.00  0.00     0.010 A 
ATOM     44  C   UNL     1       6.577  10.524   0.773  1.00  0.00     0.010 A 
ATOM     45  C   UNL     1       8.422   9.214   2.419  1.00  0.00     0.020 A 
ATOM     46  C   UNL     1       6.741  10.938   2.098  1.00  0.00     0.020 A 
ATOM     47  C   UNL     1       7.642  10.260   2.921  1.00  0.00     0.054 A 
BRANCH  47  48
ATOM     48  S   UNL     1       7.814  10.719   4.668  1.00  0.00     0.124 S 
ATOM     49  O   UNL     1       7.132   9.613   5.337  1.00  0.00    -0.237 OA
ATOM     50  O   UNL     1       9.262  10.762   4.848  1.00  0.00    -0.237 OA
ATOM     51  O   UNL     1       7.139  12.011   4.756  1.00  0.00    -0.744 OA
ENDBRANCH  47  48
ENDBRANCH  28  42
BRANCH  29  52
ATOM     52  C   UNL     1       4.830   5.511  -8.719  1.00  0.00    -0.014 A 
ATOM     53  C   UNL     1       5.787   5.067  -9.646  1.00  0.00     0.010 A 
ATOM     54  C   UNL     1       3.464   5.343  -9.021  1.00  0.00     0.010 A 
ATOM     55  C   UNL     1       5.388   4.457 -10.842  1.00  0.00     0.020 A 
ATOM     56  C   UNL     1       3.061   4.711 -10.201  1.00  0.00     0.020 A 
ATOM     57  C   UNL     1       4.027   4.272 -11.107  1.00  0.00     0.054 A 
BRANCH  57  58
ATOM     58  S   UNL     1       3.536   3.391 -12.617  1.00  0.00     0.124 S 
ATOM     59  O   UNL     1       3.839   4.372 -13.654  1.00  0.00    -0.237 OA
ATOM     60  O   UNL     1       4.399   2.212 -12.587  1.00  0.00    -0.237 OA
ATOM     61  O   UNL     1       2.116   3.118 -12.407  1.00  0.00    -0.744 OA
ENDBRANCH  57  58
ENDBRANCH  29  52
BRANCH  41  62
ATOM     62  C   UNL     1       7.903  11.466  -6.654  1.00  0.00    -0.014 A 
ATOM     63  C   UNL     1       7.076  12.448  -7.221  1.00  0.00     0.010 A 
ATOM     64  C   UNL     1       9.300  11.635  -6.676  1.00  0.00     0.010 A 
ATOM     65  C   UNL     1       7.640  13.585  -7.804  1.00  0.00     0.020 A 
ATOM     66  C   UNL     1       9.865  12.781  -7.234  1.00  0.00     0.020 A 
ATOM     67  C   UNL     1       9.030  13.747  -7.799  1.00  0.00     0.054 A 
BRANCH  67  68
ATOM     68  S   UNL     1       9.733  15.276  -8.474  1.00  0.00     0.124 S 
ATOM     69  O   UNL     1       9.573  15.073  -9.911  1.00  0.00    -0.237 OA
ATOM     70  O   UNL     1       8.882  16.307  -7.885  1.00  0.00    -0.237 OA
ATOM     71  O   UNL     1      11.112  15.265  -7.992  1.00  0.00    -0.744 OA
ENDBRANCH  67  68
ENDBRANCH  41  62
ENDBRANCH  15  16
ENDBRANCH   8  10
ENDBRANCH   7   8
ENDBRANCH   6   7
ENDBRANCH   5   6
ENDBRANCH   4   5
ENDBRANCH   3   4
ENDBRANCH   2   3
ENDBRANCH   1   2
BRANCH   1  72
ATOM     72  C   UNL     1       4.252  -3.192  -1.324  1.00  0.00     0.188 C 
BRANCH  72  73
ATOM     73  C   UNL     1       4.994  -2.174  -2.228  1.00  0.00     0.188 C 
BRANCH  73  74
ATOM     74  O   UNL     1       4.171  -1.296  -2.985  1.00  0.00    -0.376 OA
BRANCH  74  75
ATOM     75  C   UNL     1       4.147  -1.562  -4.385  1.00  0.00     0.202 C 
BRANCH  75  76
ATOM     76  C   UNL     1       3.350  -2.811  -4.750  1.00  0.00     0.261 C 
BRANCH  76  77
ATOM     77  O   UNL     1       3.787  -4.000  -4.061  1.00  0.00    -0.460 OA
BRANCH  77  78
ATOM     78  C   UNL     1       4.934  -4.581  -4.456  1.00  0.00     0.340 C 
ATOM     79  O   UNL     1       5.701  -4.175  -5.315  1.00  0.00    -0.246 OA
BRANCH  78  80
ATOM     80  C   UNL     1       5.221  -5.740  -3.605  1.00  0.00     0.091 A 
ATOM     81  C   UNL     1       6.481  -5.689  -3.001  1.00  0.00     0.127 A 
ATOM     82  C   UNL     1       4.353  -6.772  -3.238  1.00  0.00     0.057 A 
ATOM     83  N   UNL     1       6.912  -6.537  -2.037  1.00  0.00    -0.264 NA
ATOM     84  C   UNL     1       4.809  -7.671  -2.247  1.00  0.00     0.035 A 
ATOM     85  C   UNL     1       6.058  -7.506  -1.672  1.00  0.00     0.112 A 
BRANCH  82  86
ATOM     86  C   UNL     1       2.914  -6.954  -3.610  1.00  0.00     0.254 C 
ATOM     87  O   UNL     1       2.229  -7.610  -2.816  1.00  0.00    -0.269 OA
ATOM     88  N   UNL     1       2.305  -6.385  -4.728  1.00  0.00    -0.339 N 
ATOM     89  C   UNL     1       0.999  -5.779  -4.457  1.00  0.00     0.120 C 
ATOM     90  C   UNL     1       2.926  -6.162  -6.034  1.00  0.00     0.120 C 
ATOM     91  C   UNL     1       0.050  -5.759  -5.642  1.00  0.00     0.025 C 
ATOM     92  C   UNL     1       1.946  -6.074  -7.196  1.00  0.00     0.025 C 
ATOM     93  C   UNL     1       0.746  -5.167  -6.868  1.00  0.00    -0.003 C 
BRANCH  93  94
ATOM     94  C   UNL     1      -0.149  -5.047  -8.112  1.00  0.00     0.039 C 
BRANCH  94  95
ATOM     95  C   UNL     1      -1.541  -4.513  -7.885  1.00  0.00    -0.048 A 
ATOM     96  C   UNL     1      -2.636  -5.383  -7.985  1.00  0.00     0.004 A 
ATOM     97  C   UNL     1      -1.772  -3.161  -7.602  1.00  0.00     0.004 A 
ATOM     98  C   UNL     1      -3.938  -4.910  -7.830  1.00  0.00     0.000 A 
ATOM     99  C   UNL     1      -3.078  -2.689  -7.446  1.00  0.00     0.000 A 
ATOM    100  C   UNL     1      -4.159  -3.561  -7.566  1.00  0.00     0.000 A 
ENDBRANCH  94  95
ENDBRANCH  93  94
ENDBRANCH  82  86
ENDBRANCH  78  80
ENDBRANCH  77  78
ENDBRANCH  76  77
ENDBRANCH  75  76
ENDBRANCH  74  75
ENDBRANCH  73  74
ENDBRANCH  72  73
ENDBRANCH   1  72
TORSDOF 26
