REMARK SMILES CC(C)N(CCCC(=O)OCCOCCOCCOCCOC(=O)c1ccc(-c2c3nc(c(-c4ccc(S(=O)(=O)[O-])cc4)c4ccc([nH]4)c(-c4ccc(S(=O)(=O)[O-])cc4)c4nc(c(-c5ccc(S(=O)(=O)[O-])cc5)c5ccc2[nH]5)C=C4)C=C3)cc1)C(=O)Cc1c(F)cccc1F
REMARK SMILES IDX 14 1 13 2 12 3 11 4 10 5 8 6 9 7 7 8 6 9 5 10 4 11 2 12 1 13
REMARK SMILES IDX 3 14 85 15 86 16 87 17 88 18 89 19 94 20 90 21 91 22 93 23
REMARK SMILES IDX 95 24 92 25 15 26 16 27 17 28 18 29 19 30 20 31 21 32 22 33
REMARK SMILES IDX 23 34 24 35 25 36 26 37 84 38 27 39 83 40 28 41 29 42 30 43
REMARK SMILES IDX 77 44 31 45 82 46 76 47 78 48 32 49 81 50 75 51 74 52 33 54
REMARK SMILES IDX 63 55 44 56 62 57 45 58 48 59 61 60 79 61 46 62 47 63 60 65
REMARK SMILES IDX 80 66 49 67 34 68 35 69 43 70 36 71 42 72 37 73 38 74 39 75
REMARK SMILES IDX 40 76 41 77 64 78 65 79 73 80 66 81 72 82 67 83 68 84 69 85
REMARK SMILES IDX 70 86 71 87 50 88 51 89 59 90 52 91 58 92 53 93 54 94 55 95
REMARK SMILES IDX 56 96 57 97
REMARK H PARENT 78 53 48 64
REMARK Flexibility Score: inf
ROOT
ATOM      1  C   UNL     1      -7.477  -1.590  -2.247  1.00  0.00     0.188 C 
ENDROOT
BRANCH   1   2
ATOM      2  O   UNL     1      -7.131  -0.724  -1.134  1.00  0.00    -0.376 OA
BRANCH   2   3
ATOM      3  C   UNL     1      -6.395   0.504  -1.401  1.00  0.00     0.202 C 
BRANCH   3   4
ATOM      4  C   UNL     1      -4.975   0.909  -0.371  1.00  0.00     0.261 C 
BRANCH   4   5
ATOM      5  O   UNL     1      -3.406  -0.337   0.037  1.00  0.00    -0.463 OA
BRANCH   5   6
ATOM      6  C   UNL     1      -3.102  -1.802   0.679  1.00  0.00     0.305 C 
ATOM      7  O   UNL     1      -3.677  -2.313   1.657  1.00  0.00    -0.252 OA
BRANCH   6   8
ATOM      8  C   UNL     1      -2.239  -2.783  -0.024  1.00  0.00     0.124 C 
BRANCH   8   9
ATOM      9  C   UNL     1      -1.226  -2.260  -0.951  1.00  0.00     0.033 C 
BRANCH   9  10
ATOM     10  C   UNL     1      -0.770  -0.903  -0.481  1.00  0.00     0.120 C 
BRANCH  10  11
ATOM     11  N   UNL     1      -0.446  -0.746   0.961  1.00  0.00    -0.340 N 
BRANCH  11  12
ATOM     12  C   UNL     1       1.021  -0.932   1.056  1.00  0.00     0.078 C 
ATOM     13  C   UNL     1       1.774   0.374   0.789  1.00  0.00     0.031 C 
ATOM     14  C   UNL     1       1.488  -1.755   2.240  1.00  0.00     0.031 C 
ENDBRANCH  11  12
BRANCH  11  15
ATOM     15  C   UNL     1      -1.112  -0.061   2.050  1.00  0.00     0.227 C 
ATOM     16  O   UNL     1      -0.346   0.457   2.894  1.00  0.00    -0.275 OA
BRANCH  15  17
ATOM     17  C   UNL     1      -2.703  -0.000   2.582  1.00  0.00     0.142 C 
BRANCH  17  18
ATOM     18  C   UNL     1      -3.970   0.561   1.659  1.00  0.00     0.033 A 
ATOM     19  C   UNL     1      -3.015   1.582   0.598  1.00  0.00     0.129 A 
ATOM     20  C   UNL     1      -5.072  -0.690   0.913  1.00  0.00     0.129 A 
ATOM     21  F   UNL     1      -2.227   2.508   1.172  1.00  0.00    -0.207 F 
ATOM     22  C   UNL     1      -2.854   1.280  -1.101  1.00  0.00     0.040 A 
ATOM     23  C   UNL     1      -4.804  -1.122  -0.858  1.00  0.00     0.040 A 
ATOM     24  F   UNL     1      -5.972  -1.372   1.638  1.00  0.00    -0.207 F 
ATOM     25  C   UNL     1      -3.699  -0.081  -1.854  1.00  0.00     0.006 A 
ENDBRANCH  17  18
ENDBRANCH  15  17
ENDBRANCH  11  15
ENDBRANCH  10  11
ENDBRANCH   9  10
ENDBRANCH   8   9
ENDBRANCH   6   8
ENDBRANCH   5   6
ENDBRANCH   4   5
ENDBRANCH   3   4
ENDBRANCH   2   3
ENDBRANCH   1   2
BRANCH   1  26
ATOM     26  C   UNL     1      -6.604  -2.858  -2.555  1.00  0.00     0.188 C 
BRANCH  26  27
ATOM     27  O   UNL     1      -5.321  -2.693  -3.183  1.00  0.00    -0.377 OA
BRANCH  27  28
ATOM     28  C   UNL     1      -5.205  -1.743  -4.232  1.00  0.00     0.188 C 
BRANCH  28  29
ATOM     29  C   UNL     1      -6.146  -1.958  -5.402  1.00  0.00     0.188 C 
BRANCH  29  30
ATOM     30  O   UNL     1      -6.616  -3.282  -5.483  1.00  0.00    -0.376 OA
BRANCH  30  31
ATOM     31  C   UNL     1      -5.804  -4.313  -6.015  1.00  0.00     0.202 C 
BRANCH  31  32
ATOM     32  C   UNL     1      -4.263  -4.314  -6.073  1.00  0.00     0.261 C 
BRANCH  32  33
ATOM     33  O   UNL     1      -3.545  -3.099  -6.309  1.00  0.00    -0.460 OA
BRANCH  33  34
ATOM     34  C   UNL     1      -3.713  -2.459  -7.483  1.00  0.00     0.338 C 
ATOM     35  O   UNL     1      -4.498  -2.739  -8.368  1.00  0.00    -0.246 OA
BRANCH  34  36
ATOM     36  C   UNL     1      -2.854  -1.254  -7.440  1.00  0.00     0.060 A 
ATOM     37  C   UNL     1      -3.436   0.019  -7.478  1.00  0.00     0.016 A 
ATOM     38  C   UNL     1      -1.464  -1.395  -7.404  1.00  0.00     0.016 A 
ATOM     39  C   UNL     1      -2.623   1.157  -7.540  1.00  0.00     0.010 A 
ATOM     40  C   UNL     1      -0.653  -0.258  -7.481  1.00  0.00     0.010 A 
ATOM     41  C   UNL     1      -1.228   1.020  -7.596  1.00  0.00    -0.014 A 
BRANCH  41  42
ATOM     42  C   UNL     1      -0.381   2.155  -8.049  1.00  0.00     0.031 A 
ATOM     43  C   UNL     1      -0.059   2.240  -9.521  1.00  0.00     0.074 A 
ATOM     44  C   UNL     1       0.110   3.074  -7.198  1.00  0.00     0.049 A 
ATOM     45  N   UNL     1       0.729   3.071 -10.151  1.00  0.00    -0.248 NA
ATOM     46  C   UNL     1      -0.714   1.250 -10.395  1.00  0.00     0.031 C 
ATOM     47  C   UNL     1      -0.161   3.139  -5.763  1.00  0.00     0.029 A 
ATOM     48  N   UNL     1       0.959   4.130  -7.427  1.00  0.00    -0.354 N 
ATOM     49  C   UNL     1       0.679   2.693 -11.489  1.00  0.00     0.074 A 
ATOM     50  C   UNL     1      -0.203   1.552 -11.579  1.00  0.00     0.031 C 
ATOM     51  C   UNL     1       0.522   4.174  -5.237  1.00  0.00     0.029 A 
ATOM     52  C   UNL     1       1.306   4.821  -6.289  1.00  0.00     0.049 A 
ATOM     53  H   UNL     1       1.288   4.371  -8.323  1.00  0.00     0.167 HD
ATOM     54  C   UNL     1       1.312   3.243 -12.551  1.00  0.00     0.031 A 
ATOM     55  C   UNL     1       2.174   5.839  -6.115  1.00  0.00     0.031 A 
ATOM     56  C   UNL     1       2.197   4.371 -12.467  1.00  0.00     0.049 A 
ATOM     57  C   UNL     1       2.927   6.388  -7.306  1.00  0.00     0.074 A 
ATOM     58  C   UNL     1       2.875   5.007 -13.492  1.00  0.00     0.029 A 
ATOM     59  N   UNL     1       2.533   5.026 -11.294  1.00  0.00    -0.354 N 
ATOM     60  N   UNL     1       2.846   6.036  -8.568  1.00  0.00    -0.248 NA
ATOM     61  C   UNL     1       3.885   7.474  -7.048  1.00  0.00     0.031 C 
ATOM     62  C   UNL     1       3.664   6.015 -12.931  1.00  0.00     0.029 A 
ATOM     63  C   UNL     1       3.427   6.045 -11.566  1.00  0.00     0.049 A 
ATOM     64  H   UNL     1       2.187   4.800 -10.400  1.00  0.00     0.167 HD
ATOM     65  C   UNL     1       3.709   6.888  -9.255  1.00  0.00     0.074 A 
ATOM     66  C   UNL     1       4.300   7.771  -8.273  1.00  0.00     0.031 C 
ATOM     67  C   UNL     1       3.984   6.936 -10.581  1.00  0.00     0.031 A 
BRANCH  54  68
ATOM     68  C   UNL     1       1.099   2.608 -13.897  1.00  0.00    -0.014 A 
ATOM     69  C   UNL     1      -0.115   2.761 -14.591  1.00  0.00     0.010 A 
ATOM     70  C   UNL     1       2.151   1.896 -14.500  1.00  0.00     0.010 A 
ATOM     71  C   UNL     1      -0.279   2.193 -15.856  1.00  0.00     0.020 A 
ATOM     72  C   UNL     1       1.999   1.348 -15.776  1.00  0.00     0.020 A 
ATOM     73  C   UNL     1       0.780   1.491 -16.441  1.00  0.00     0.054 A 
BRANCH  73  74
ATOM     74  S   UNL     1       0.555   0.805 -18.105  1.00  0.00     0.124 S 
ATOM     75  O   UNL     1      -0.346  -0.316 -17.848  1.00  0.00    -0.237 OA
ATOM     76  O   UNL     1      -0.030   1.926 -18.836  1.00  0.00    -0.237 OA
ATOM     77  O   UNL     1       1.907   0.435 -18.514  1.00  0.00    -0.744 OA
ENDBRANCH  73  74
ENDBRANCH  54  68
BRANCH  55  78
ATOM     78  C   UNL     1       2.419   6.405  -4.758  1.00  0.00    -0.014 A 
ATOM     79  C   UNL     1       2.034   7.722  -4.450  1.00  0.00     0.010 A 
ATOM     80  C   UNL     1       3.092   5.646  -3.782  1.00  0.00     0.010 A 
ATOM     81  C   UNL     1       2.351   8.283  -3.208  1.00  0.00     0.020 A 
ATOM     82  C   UNL     1       3.383   6.192  -2.529  1.00  0.00     0.020 A 
ATOM     83  C   UNL     1       3.028   7.514  -2.257  1.00  0.00     0.054 A 
BRANCH  83  84
ATOM     84  S   UNL     1       3.422   8.259  -0.649  1.00  0.00     0.124 S 
ATOM     85  O   UNL     1       4.515   9.162  -0.995  1.00  0.00    -0.237 OA
ATOM     86  O   UNL     1       2.162   8.901  -0.283  1.00  0.00    -0.237 OA
ATOM     87  O   UNL     1       3.793   7.111   0.174  1.00  0.00    -0.744 OA
ENDBRANCH  83  84
ENDBRANCH  55  78
BRANCH  67  88
ATOM     88  C   UNL     1       4.909   8.017 -11.076  1.00  0.00    -0.014 A 
ATOM     89  C   UNL     1       6.295   7.958 -10.854  1.00  0.00     0.010 A 
ATOM     90  C   UNL     1       4.384   9.063 -11.860  1.00  0.00     0.010 A 
ATOM     91  C   UNL     1       7.138   8.936 -11.393  1.00  0.00     0.020 A 
ATOM     92  C   UNL     1       5.225  10.025 -12.421  1.00  0.00     0.020 A 
ATOM     93  C   UNL     1       6.598   9.961 -12.176  1.00  0.00     0.054 A 
BRANCH  93  94
ATOM     94  S   UNL     1       7.719  11.178 -12.921  1.00  0.00     0.124 S 
ATOM     95  O   UNL     1       8.089  11.995 -11.769  1.00  0.00    -0.237 OA
ATOM     96  O   UNL     1       8.784  10.340 -13.467  1.00  0.00    -0.237 OA
ATOM     97  O   UNL     1       6.889  11.848 -13.919  1.00  0.00    -0.744 OA
ENDBRANCH  93  94
ENDBRANCH  67  88
ENDBRANCH  41  42
ENDBRANCH  34  36
ENDBRANCH  33  34
ENDBRANCH  32  33
ENDBRANCH  31  32
ENDBRANCH  30  31
ENDBRANCH  29  30
ENDBRANCH  28  29
ENDBRANCH  27  28
ENDBRANCH  26  27
ENDBRANCH   1  26
TORSDOF 30
