REMARK SMILES O=C(Cc1c(C(=O)c2cc3c(cn2)CCCC3)[nH]c2cc(Cl)ccc12)OCCOCCOCCOCCOC(=O)c1ccc(-c2c3nc(c(-c4ccc(S(=O)(=O)[O-])cc4)c4ccc([nH]4)c(-c4ccc(S(=O)(=O)[O-])cc4)c4nc(c(-c5ccc(S(=O)(=O)[O-])cc5)c5ccc2[nH]5)C=C4)C=C3)cc1
REMARK SMILES IDX 32 1 31 2 30 3 29 4 28 5 27 6 26 7 2 8 1 9 3 10 4 11 5 12
REMARK SMILES IDX 25 13 18 14 19 15 24 16 20 18 23 19 21 20 22 21 6 22 7 23
REMARK SMILES IDX 8 24 9 25 13 26 10 27 12 28 11 29 17 30 14 31 16 32 15 33
REMARK SMILES IDX 33 34 34 35 35 36 36 37 37 38 38 39 39 40 40 41 41 42 42 43
REMARK SMILES IDX 100 44 43 45 99 46 44 47 45 48 46 49 93 50 47 51 98 52 92 53
REMARK SMILES IDX 94 54 48 55 97 56 91 57 90 58 49 60 79 61 60 62 78 63 61 64
REMARK SMILES IDX 64 65 77 66 95 67 62 68 63 69 76 71 96 72 65 73 50 74 51 75
REMARK SMILES IDX 59 76 52 77 58 78 53 79 54 80 55 81 56 82 57 83 80 84 81 85
REMARK SMILES IDX 89 86 82 87 88 88 83 89 84 90 85 91 86 92 87 93 66 94 67 95
REMARK SMILES IDX 75 96 68 97 74 98 69 99 70 100 71 101 72 102 73 103
REMARK H PARENT 18 17 94 59 64 70
REMARK Flexibility Score: inf
ROOT
ATOM      1  O   UNL     1       2.855  -1.216   3.644  1.00  0.00    -0.377 OA
ENDROOT
BRANCH   1   2
ATOM      2  C   UNL     1       2.272  -1.147   2.347  1.00  0.00     0.188 C 
BRANCH   2   3
ATOM      3  C   UNL     1       2.991  -2.004   1.296  1.00  0.00     0.188 C 
BRANCH   3   4
ATOM      4  O   UNL     1       4.353  -1.674   1.091  1.00  0.00    -0.376 OA
BRANCH   4   5
ATOM      5  C   UNL     1       4.782  -0.618   0.255  1.00  0.00     0.202 C 
BRANCH   5   6
ATOM      6  C   UNL     1       4.019   0.701   0.183  1.00  0.00     0.261 C 
BRANCH   6   7
ATOM      7  O   UNL     1       2.596   0.657  -0.054  1.00  0.00    -0.463 OA
BRANCH   7   8
ATOM      8  C   UNL     1       1.847  -0.137  -0.840  1.00  0.00     0.310 C 
ATOM      9  O   UNL     1       0.669  -0.332  -0.526  1.00  0.00    -0.252 OA
BRANCH   8  10
ATOM     10  C   UNL     1       2.442  -0.910  -1.993  1.00  0.00     0.161 C 
BRANCH  10  11
ATOM     11  C   UNL     1       3.573  -0.312  -2.761  1.00  0.00     0.000 A 
ATOM     12  C   UNL     1       3.737   1.021  -3.100  1.00  0.00     0.093 A 
ATOM     13  C   UNL     1       4.654  -1.044  -3.343  1.00  0.00     0.004 A 
ATOM     14  N   UNL     1       4.929   1.123  -3.781  1.00  0.00    -0.351 N 
ATOM     15  C   UNL     1       5.450  -0.129  -4.026  1.00  0.00     0.048 A 
ATOM     16  C   UNL     1       5.012  -2.409  -3.359  1.00  0.00     0.012 A 
ATOM     17  H   UNL     1       5.350   1.970  -4.053  1.00  0.00     0.167 HD
ATOM     18  C   UNL     1       6.552  -0.524  -4.795  1.00  0.00     0.047 A 
ATOM     19  C   UNL     1       6.113  -2.822  -4.115  1.00  0.00     0.021 A 
ATOM     20  C   UNL     1       6.851  -1.891  -4.839  1.00  0.00     0.043 A 
ATOM     21  Cl  UNL     1       8.156  -2.436  -5.823  1.00  0.00    -0.084 Cl
BRANCH  12  22
ATOM     22  C   UNL     1       2.804   2.094  -2.820  1.00  0.00     0.227 C 
ATOM     23  O   UNL     1       1.618   1.901  -2.558  1.00  0.00    -0.285 OA
BRANCH  22  24
ATOM     24  C   UNL     1       3.211   3.477  -3.030  1.00  0.00     0.113 A 
ATOM     25  C   UNL     1       2.838   3.998  -4.249  1.00  0.00     0.036 A 
ATOM     26  N   UNL     1       3.815   4.151  -2.025  1.00  0.00    -0.252 NA
ATOM     27  C   UNL     1       3.049   5.345  -4.462  1.00  0.00    -0.041 A 
ATOM     28  C   UNL     1       3.982   5.476  -2.246  1.00  0.00     0.115 A 
ATOM     29  C   UNL     1       3.632   6.113  -3.441  1.00  0.00    -0.026 A 
ATOM     30  C   UNL     1       2.656   5.910  -5.793  1.00  0.00     0.036 C 
ATOM     31  C   UNL     1       3.788   7.603  -3.591  1.00  0.00     0.037 C 
ATOM     32  C   UNL     1       2.547   7.424  -5.773  1.00  0.00     0.005 C 
ATOM     33  C   UNL     1       3.751   8.034  -5.060  1.00  0.00     0.005 C 
ENDBRANCH  22  24
ENDBRANCH  12  22
ENDBRANCH  10  11
ENDBRANCH   8  10
ENDBRANCH   7   8
ENDBRANCH   6   7
ENDBRANCH   5   6
ENDBRANCH   4   5
ENDBRANCH   3   4
ENDBRANCH   2   3
ENDBRANCH   1   2
BRANCH   1  34
ATOM     34  C   UNL     1       4.203  -0.778   3.698  1.00  0.00     0.188 C 
BRANCH  34  35
ATOM     35  C   UNL     1       5.266  -1.899   3.752  1.00  0.00     0.188 C 
BRANCH  35  36
ATOM     36  O   UNL     1       4.941  -3.283   3.701  1.00  0.00    -0.376 OA
BRANCH  36  37
ATOM     37  C   UNL     1       3.719  -3.788   4.209  1.00  0.00     0.202 C 
BRANCH  37  38
ATOM     38  C   UNL     1       3.305  -3.569   5.667  1.00  0.00     0.261 C 
BRANCH  38  39
ATOM     39  O   UNL     1       3.561  -2.271   6.197  1.00  0.00    -0.460 OA
BRANCH  39  40
ATOM     40  C   UNL     1       4.744  -2.126   6.834  1.00  0.00     0.338 C 
ATOM     41  O   UNL     1       5.590  -2.984   7.026  1.00  0.00    -0.246 OA
BRANCH  40  42
ATOM     42  C   UNL     1       4.944  -0.686   7.100  1.00  0.00     0.060 A 
ATOM     43  C   UNL     1       3.899   0.104   7.586  1.00  0.00     0.016 A 
ATOM     44  C   UNL     1       6.191  -0.115   6.804  1.00  0.00     0.016 A 
ATOM     45  C   UNL     1       4.122   1.457   7.829  1.00  0.00     0.010 A 
ATOM     46  C   UNL     1       6.409   1.242   7.034  1.00  0.00     0.010 A 
ATOM     47  C   UNL     1       5.389   2.023   7.590  1.00  0.00    -0.014 A 
BRANCH  47  48
ATOM     48  C   UNL     1       5.707   3.340   8.183  1.00  0.00     0.031 A 
ATOM     49  C   UNL     1       5.743   4.598   7.379  1.00  0.00     0.074 A 
ATOM     50  C   UNL     1       5.954   3.357   9.508  1.00  0.00     0.049 A 
ATOM     51  N   UNL     1       5.845   5.829   7.808  1.00  0.00    -0.248 NA
ATOM     52  C   UNL     1       5.662   4.473   5.917  1.00  0.00     0.031 C 
ATOM     53  C   UNL     1       5.976   2.165  10.363  1.00  0.00     0.029 A 
ATOM     54  N   UNL     1       6.195   4.391  10.373  1.00  0.00    -0.354 N 
ATOM     55  C   UNL     1       5.815   6.631   6.677  1.00  0.00     0.074 A 
ATOM     56  C   UNL     1       5.735   5.744   5.535  1.00  0.00     0.031 C 
ATOM     57  C   UNL     1       6.153   2.542  11.636  1.00  0.00     0.029 A 
ATOM     58  C   UNL     1       6.289   3.994  11.686  1.00  0.00     0.049 A 
ATOM     59  H   UNL     1       6.291   5.327  10.082  1.00  0.00     0.167 HD
ATOM     60  C   UNL     1       5.834   7.984   6.615  1.00  0.00     0.031 A 
ATOM     61  C   UNL     1       6.438   4.716  12.813  1.00  0.00     0.031 A 
ATOM     62  C   UNL     1       5.927   8.838   7.775  1.00  0.00     0.049 A 
ATOM     63  C   UNL     1       6.472   6.213  12.709  1.00  0.00     0.074 A 
ATOM     64  C   UNL     1       5.902  10.222   7.819  1.00  0.00     0.029 A 
ATOM     65  N   UNL     1       6.068   8.402   9.085  1.00  0.00    -0.354 N 
ATOM     66  N   UNL     1       6.343   6.963  11.640  1.00  0.00    -0.248 NA
ATOM     67  C   UNL     1       6.648   6.965  13.957  1.00  0.00     0.031 C 
ATOM     68  C   UNL     1       6.110  10.621   9.140  1.00  0.00     0.029 A 
ATOM     69  C   UNL     1       6.170   9.489   9.938  1.00  0.00     0.049 A 
ATOM     70  H   UNL     1       6.091   7.459   9.367  1.00  0.00     0.167 HD
ATOM     71  C   UNL     1       6.392   8.276  12.091  1.00  0.00     0.074 A 
ATOM     72  C   UNL     1       6.547   8.217  13.530  1.00  0.00     0.031 C 
ATOM     73  C   UNL     1       6.316   9.422  11.373  1.00  0.00     0.031 A 
BRANCH  60  74
ATOM     74  C   UNL     1       5.723   8.656   5.269  1.00  0.00    -0.014 A 
ATOM     75  C   UNL     1       6.782   9.454   4.794  1.00  0.00     0.010 A 
ATOM     76  C   UNL     1       4.508   8.648   4.563  1.00  0.00     0.010 A 
ATOM     77  C   UNL     1       6.612  10.267   3.669  1.00  0.00     0.020 A 
ATOM     78  C   UNL     1       4.343   9.437   3.420  1.00  0.00     0.020 A 
ATOM     79  C   UNL     1       5.387  10.262   2.996  1.00  0.00     0.054 A 
BRANCH  79  80
ATOM     80  S   UNL     1       5.167  11.364   1.571  1.00  0.00     0.124 S 
ATOM     81  O   UNL     1       5.080  12.676   2.202  1.00  0.00    -0.237 OA
ATOM     82  O   UNL     1       6.376  11.116   0.787  1.00  0.00    -0.237 OA
ATOM     83  O   UNL     1       3.933  10.883   0.952  1.00  0.00    -0.744 OA
ENDBRANCH  79  80
ENDBRANCH  60  74
BRANCH  61  84
ATOM     84  C   UNL     1       6.477   4.014  14.126  1.00  0.00    -0.014 A 
ATOM     85  C   UNL     1       7.536   3.140  14.438  1.00  0.00     0.010 A 
ATOM     86  C   UNL     1       5.412   4.145  15.034  1.00  0.00     0.010 A 
ATOM     87  C   UNL     1       7.505   2.375  15.606  1.00  0.00     0.020 A 
ATOM     88  C   UNL     1       5.395   3.409  16.222  1.00  0.00     0.020 A 
ATOM     89  C   UNL     1       6.429   2.508  16.487  1.00  0.00     0.054 A 
BRANCH  89  90
ATOM     90  S   UNL     1       6.397   1.480  17.981  1.00  0.00     0.124 S 
ATOM     91  O   UNL     1       6.058   0.169  17.436  1.00  0.00    -0.237 OA
ATOM     92  O   UNL     1       7.759   1.617  18.489  1.00  0.00    -0.237 OA
ATOM     93  O   UNL     1       5.363   2.103  18.803  1.00  0.00    -0.744 OA
ENDBRANCH  89  90
ENDBRANCH  61  84
BRANCH  73  94
ATOM     94  C   UNL     1       6.388  10.734  12.114  1.00  0.00    -0.014 A 
ATOM     95  C   UNL     1       5.278  11.601  12.100  1.00  0.00     0.010 A 
ATOM     96  C   UNL     1       7.592  11.175  12.692  1.00  0.00     0.010 A 
ATOM     97  C   UNL     1       5.385  12.900  12.603  1.00  0.00     0.020 A 
ATOM     98  C   UNL     1       7.691  12.461  13.229  1.00  0.00     0.020 A 
ATOM     99  C   UNL     1       6.596  13.326  13.152  1.00  0.00     0.054 A 
BRANCH  99 100
ATOM    100  S   UNL     1       6.732  15.034  13.745  1.00  0.00     0.124 S 
ATOM    101  O   UNL     1       6.799  15.788  12.497  1.00  0.00    -0.237 OA
ATOM    102  O   UNL     1       5.505  15.204  14.519  1.00  0.00    -0.237 OA
ATOM    103  O   UNL     1       7.962  15.027  14.535  1.00  0.00    -0.744 OA
ENDBRANCH  99 100
ENDBRANCH  73  94
ENDBRANCH  47  48
ENDBRANCH  40  42
ENDBRANCH  39  40
ENDBRANCH  38  39
ENDBRANCH  37  38
ENDBRANCH  36  37
ENDBRANCH  35  36
ENDBRANCH  34  35
ENDBRANCH   1  34
TORSDOF 26
