REMARK SMILES [NH3+][C@H](Cc1ccc(O)c(F)c1)C(=O)OCCOCCOCCOCCOC(=O)c1ccc(-c2c3nc(c(-c4ccc(S(=O)(=O)[O-])cc4)c4ccc([nH]4)c(-c4ccc(S(=O)(=O)[O-])cc4)c4nc(c(-c5ccc(S(=O)(=O)[O-])cc5)c5ccc2[nH]5)C=C4)C=C3)cc1
REMARK SMILES IDX 20 1 19 2 18 3 17 4 16 5 15 6 14 7 12 8 13 9 2 10 1 11 3 15
REMARK SMILES IDX 4 16 5 17 11 18 6 19 9 20 7 21 10 22 8 23 21 25 22 26 23 27
REMARK SMILES IDX 24 28 25 29 26 30 27 31 28 32 29 33 30 34 88 35 31 36 87 37
REMARK SMILES IDX 32 38 33 39 34 40 81 41 35 42 86 43 80 44 82 45 36 46 85 47
REMARK SMILES IDX 79 48 78 49 37 51 67 52 48 53 66 54 49 55 52 56 65 57 83 58
REMARK SMILES IDX 50 59 51 60 64 62 84 63 53 64 38 65 39 66 47 67 40 68 46 69
REMARK SMILES IDX 41 70 42 71 43 72 44 73 45 74 68 75 69 76 77 77 70 78 76 79
REMARK SMILES IDX 71 80 72 81 73 82 74 83 75 84 54 85 55 86 63 87 56 88 62 89
REMARK SMILES IDX 57 90 58 91 59 92 60 93 61 94
REMARK H PARENT 1 12 1 13 1 14 8 24 82 50 52 61
REMARK Flexibility Score: inf
ROOT
ATOM      1  O   UNL     1      -1.973  -0.746   0.091  1.00  0.00    -0.377 OA
ENDROOT
BRANCH   1   2
ATOM      2  C   UNL     1      -1.356  -0.393   1.310  1.00  0.00     0.188 C 
BRANCH   2   3
ATOM      3  C   UNL     1      -1.965   0.841   1.990  1.00  0.00     0.188 C 
BRANCH   3   4
ATOM      4  O   UNL     1      -3.276   1.285   1.678  1.00  0.00    -0.376 OA
BRANCH   4   5
ATOM      5  C   UNL     1      -3.728   1.441   0.339  1.00  0.00     0.202 C 
BRANCH   5   6
ATOM      6  C   UNL     1      -2.867   2.015  -0.801  1.00  0.00     0.261 C 
BRANCH   6   7
ATOM      7  O   UNL     1      -1.468   1.730  -0.741  1.00  0.00    -0.459 OA
BRANCH   7   8
ATOM      8  C   UNL     1      -0.665   2.743  -0.341  1.00  0.00     0.365 C 
ATOM      9  O   UNL     1      -1.071   3.869  -0.067  1.00  0.00    -0.245 OA
BRANCH   8  10
ATOM     10  C   UNL     1       0.809   2.300  -0.155  1.00  0.00     0.296 C 
BRANCH  10  11
ATOM     11  N   UNL     1       1.696   3.367  -0.678  1.00  0.00    -0.346 N 
ATOM     12  H   UNL     1       1.379   4.273  -0.332  1.00  0.00     0.345 HD
ATOM     13  H   UNL     1       1.666   3.364  -1.698  1.00  0.00     0.345 HD
ATOM     14  H   UNL     1       2.652   3.199  -0.366  1.00  0.00     0.345 HD
ENDBRANCH  10  11
BRANCH  10  15
ATOM     15  C   UNL     1       1.178   0.855  -0.608  1.00  0.00     0.113 C 
BRANCH  15  16
ATOM     16  C   UNL     1       2.213   0.756  -1.695  1.00  0.00    -0.038 A 
ATOM     17  C   UNL     1       3.567   0.565  -1.374  1.00  0.00     0.008 A 
ATOM     18  C   UNL     1       1.833   0.950  -3.026  1.00  0.00     0.047 A 
ATOM     19  C   UNL     1       4.542   0.655  -2.366  1.00  0.00     0.049 A 
ATOM     20  C   UNL     1       2.809   1.042  -4.008  1.00  0.00     0.165 A 
ATOM     21  C   UNL     1       4.157   0.923  -3.678  1.00  0.00     0.151 A 
ATOM     22  F   UNL     1       2.435   1.297  -5.268  1.00  0.00    -0.203 F 
BRANCH  21  23
ATOM     23  O   UNL     1       5.096   1.098  -4.652  1.00  0.00    -0.505 OA
ATOM     24  H   UNL     1       6.007   1.021  -4.445  1.00  0.00     0.293 HD
ENDBRANCH  21  23
ENDBRANCH  15  16
ENDBRANCH  10  15
ENDBRANCH   8  10
ENDBRANCH   7   8
ENDBRANCH   6   7
ENDBRANCH   5   6
ENDBRANCH   4   5
ENDBRANCH   3   4
ENDBRANCH   2   3
ENDBRANCH   1   2
BRANCH   1  25
ATOM     25  C   UNL     1      -2.918  -1.809   0.134  1.00  0.00     0.188 C 
BRANCH  25  26
ATOM     26  C   UNL     1      -3.800  -1.963   1.393  1.00  0.00     0.188 C 
BRANCH  26  27
ATOM     27  O   UNL     1      -3.079  -1.948   2.619  1.00  0.00    -0.376 OA
BRANCH  27  28
ATOM     28  C   UNL     1      -2.731  -3.186   3.222  1.00  0.00     0.202 C 
BRANCH  28  29
ATOM     29  C   UNL     1      -1.752  -4.107   2.474  1.00  0.00     0.261 C 
BRANCH  29  30
ATOM     30  O   UNL     1      -2.141  -4.536   1.161  1.00  0.00    -0.460 OA
BRANCH  30  31
ATOM     31  C   UNL     1      -3.318  -5.181   1.020  1.00  0.00     0.338 C 
ATOM     32  O   UNL     1      -4.092  -5.497   1.907  1.00  0.00    -0.246 OA
BRANCH  31  33
ATOM     33  C   UNL     1      -3.609  -5.256  -0.428  1.00  0.00     0.060 A 
ATOM     34  C   UNL     1      -4.770  -4.649  -0.927  1.00  0.00     0.016 A 
ATOM     35  C   UNL     1      -2.726  -5.909  -1.289  1.00  0.00     0.016 A 
ATOM     36  C   UNL     1      -5.069  -4.723  -2.289  1.00  0.00     0.010 A 
ATOM     37  C   UNL     1      -3.038  -6.003  -2.646  1.00  0.00     0.010 A 
ATOM     38  C   UNL     1      -4.227  -5.440  -3.147  1.00  0.00    -0.014 A 
BRANCH  38  39
ATOM     39  C   UNL     1      -4.672  -5.798  -4.515  1.00  0.00     0.031 A 
ATOM     40  C   UNL     1      -5.245  -7.171  -4.732  1.00  0.00     0.074 A 
ATOM     41  C   UNL     1      -4.535  -4.949  -5.548  1.00  0.00     0.049 A 
ATOM     42  N   UNL     1      -5.568  -7.769  -5.847  1.00  0.00    -0.248 NA
ATOM     43  C   UNL     1      -5.468  -7.981  -3.523  1.00  0.00     0.031 C 
ATOM     44  C   UNL     1      -4.038  -3.578  -5.458  1.00  0.00     0.029 A 
ATOM     45  N   UNL     1      -4.778  -5.135  -6.887  1.00  0.00    -0.354 N 
ATOM     46  C   UNL     1      -6.004  -9.037  -5.479  1.00  0.00     0.074 A 
ATOM     47  C   UNL     1      -5.887  -9.126  -4.040  1.00  0.00     0.031 C 
ATOM     48  C   UNL     1      -3.980  -3.057  -6.696  1.00  0.00     0.029 A 
ATOM     49  C   UNL     1      -4.391  -4.072  -7.667  1.00  0.00     0.049 A 
ATOM     50  H   UNL     1      -5.189  -5.952  -7.252  1.00  0.00     0.167 HD
ATOM     51  C   UNL     1      -6.454 -10.040  -6.270  1.00  0.00     0.031 A 
ATOM     52  C   UNL     1      -4.332  -3.947  -9.009  1.00  0.00     0.031 A 
ATOM     53  C   UNL     1      -6.545  -9.950  -7.702  1.00  0.00     0.049 A 
ATOM     54  C   UNL     1      -4.770  -5.098  -9.879  1.00  0.00     0.074 A 
ATOM     55  C   UNL     1      -7.013 -10.897  -8.594  1.00  0.00     0.029 A 
ATOM     56  N   UNL     1      -6.141  -8.856  -8.453  1.00  0.00    -0.354 N 
ATOM     57  N   UNL     1      -5.215  -6.279  -9.521  1.00  0.00    -0.248 NA
ATOM     58  C   UNL     1      -4.704  -4.899 -11.335  1.00  0.00     0.031 C 
ATOM     59  C   UNL     1      -6.823 -10.406  -9.888  1.00  0.00     0.029 A 
ATOM     60  C   UNL     1      -6.314  -9.119  -9.801  1.00  0.00     0.049 A 
ATOM     61  H   UNL     1      -5.784  -8.016  -8.083  1.00  0.00     0.167 HD
ATOM     62  C   UNL     1      -5.511  -6.952 -10.703  1.00  0.00     0.074 A 
ATOM     63  C   UNL     1      -5.198  -6.044 -11.788  1.00  0.00     0.031 C 
ATOM     64  C   UNL     1      -6.004  -8.204 -10.873  1.00  0.00     0.031 A 
BRANCH  51  65
ATOM     65  C   UNL     1      -6.815 -11.341  -5.601  1.00  0.00    -0.014 A 
ATOM     66  C   UNL     1      -7.924 -11.448  -4.742  1.00  0.00     0.010 A 
ATOM     67  C   UNL     1      -6.026 -12.481  -5.842  1.00  0.00     0.010 A 
ATOM     68  C   UNL     1      -8.201 -12.653  -4.091  1.00  0.00     0.020 A 
ATOM     69  C   UNL     1      -6.321 -13.697  -5.222  1.00  0.00     0.020 A 
ATOM     70  C   UNL     1      -7.393 -13.769  -4.331  1.00  0.00     0.054 A 
BRANCH  70  71
ATOM     71  S   UNL     1      -7.769 -15.318  -3.466  1.00  0.00     0.124 S 
ATOM     72  O   UNL     1      -7.375 -14.999  -2.096  1.00  0.00    -0.237 OA
ATOM     73  O   UNL     1      -9.204 -15.467  -3.688  1.00  0.00    -0.237 OA
ATOM     74  O   UNL     1      -6.930 -16.305  -4.140  1.00  0.00    -0.744 OA
ENDBRANCH  70  71
ENDBRANCH  51  65
BRANCH  52  75
ATOM     75  C   UNL     1      -3.798  -2.691  -9.605  1.00  0.00    -0.014 A 
ATOM     76  C   UNL     1      -4.643  -1.799 -10.287  1.00  0.00     0.010 A 
ATOM     77  C   UNL     1      -2.436  -2.363  -9.458  1.00  0.00     0.010 A 
ATOM     78  C   UNL     1      -4.138  -0.603 -10.808  1.00  0.00     0.020 A 
ATOM     79  C   UNL     1      -1.934  -1.156  -9.951  1.00  0.00     0.020 A 
ATOM     80  C   UNL     1      -2.788  -0.284 -10.627  1.00  0.00     0.054 A 
BRANCH  80  81
ATOM     81  S   UNL     1      -2.180   1.312 -11.239  1.00  0.00     0.124 S 
ATOM     82  O   UNL     1      -2.223   1.119 -12.686  1.00  0.00    -0.237 OA
ATOM     83  O   UNL     1      -3.162   2.248 -10.696  1.00  0.00    -0.237 OA
ATOM     84  O   UNL     1      -0.843   1.415 -10.660  1.00  0.00    -0.744 OA
ENDBRANCH  80  81
ENDBRANCH  52  75
BRANCH  64  85
ATOM     85  C   UNL     1      -6.290  -8.672 -12.277  1.00  0.00    -0.014 A 
ATOM     86  C   UNL     1      -5.256  -9.012 -13.166  1.00  0.00     0.010 A 
ATOM     87  C   UNL     1      -7.626  -8.881 -12.671  1.00  0.00     0.010 A 
ATOM     88  C   UNL     1      -5.553  -9.546 -14.424  1.00  0.00     0.020 A 
ATOM     89  C   UNL     1      -7.926  -9.441 -13.914  1.00  0.00     0.020 A 
ATOM     90  C   UNL     1      -6.886  -9.767 -14.786  1.00  0.00     0.054 A 
BRANCH  90  91
ATOM     91  S   UNL     1      -7.240 -10.543 -16.388  1.00  0.00     0.124 S 
ATOM     92  O   UNL     1      -6.892  -9.479 -17.326  1.00  0.00    -0.237 OA
ATOM     93  O   UNL     1      -6.347 -11.698 -16.387  1.00  0.00    -0.237 OA
ATOM     94  O   UNL     1      -8.664 -10.863 -16.312  1.00  0.00    -0.744 OA
ENDBRANCH  90  91
ENDBRANCH  64  85
ENDBRANCH  38  39
ENDBRANCH  31  33
ENDBRANCH  30  31
ENDBRANCH  29  30
ENDBRANCH  28  29
ENDBRANCH  27  28
ENDBRANCH  26  27
ENDBRANCH  25  26
ENDBRANCH   1  25
TORSDOF 27
