REMARK SMILES CCc1cccc(NC(=O)NCC(=O)OCCOCCOCCOCCOC(=O)c2ccc(-c3c4nc(c(-c5ccc(S(=O)(=O)[O-])cc5)c5ccc([nH]5)c(-c5ccc(S(=O)(=O)[O-])cc5)c5nc(c(-c6ccc(S(=O)(=O)[O-])cc6)c6ccc3[nH]6)C=C5)C=C4)cc2)c1
REMARK SMILES IDX 21 1 20 2 19 3 18 4 17 5 16 6 15 7 13 8 14 9 12 10 11 11
REMARK SMILES IDX 8 12 9 13 10 15 7 17 3 18 4 19 90 20 5 21 6 22 2 23 1 24
REMARK SMILES IDX 22 25 23 26 24 27 25 28 26 29 27 30 28 31 29 32 30 33 31 34
REMARK SMILES IDX 89 35 32 36 88 37 33 38 34 39 35 40 82 41 36 42 87 43 81 44
REMARK SMILES IDX 83 45 37 46 86 47 80 48 79 49 38 51 68 52 49 53 67 54 50 55
REMARK SMILES IDX 53 56 66 57 84 58 51 59 52 60 65 62 85 63 54 64 39 65 40 66
REMARK SMILES IDX 48 67 41 68 47 69 42 70 43 71 44 72 45 73 46 74 69 75 70 76
REMARK SMILES IDX 78 77 71 78 77 79 72 80 73 81 74 82 75 83 76 84 55 85 56 86
REMARK SMILES IDX 64 87 57 88 63 89 58 90 59 91 60 92 61 93 62 94
REMARK H PARENT 8 14 11 16 83 50 53 61
REMARK Flexibility Score: inf
ROOT
ATOM      1  O   UNL     1       3.468   8.517  -0.903  1.00  0.00    -0.377 OA
ENDROOT
BRANCH   1   2
ATOM      2  C   UNL     1       3.814   8.783   0.440  1.00  0.00     0.188 C 
BRANCH   2   3
ATOM      3  C   UNL     1       5.194   8.255   0.888  1.00  0.00     0.188 C 
BRANCH   3   4
ATOM      4  O   UNL     1       6.096   7.634  -0.021  1.00  0.00    -0.376 OA
BRANCH   4   5
ATOM      5  C   UNL     1       5.629   6.809  -1.079  1.00  0.00     0.202 C 
BRANCH   5   6
ATOM      6  C   UNL     1       4.642   5.673  -0.790  1.00  0.00     0.261 C 
BRANCH   6   7
ATOM      7  O   UNL     1       3.534   6.028   0.049  1.00  0.00    -0.462 OA
BRANCH   7   8
ATOM      8  C   UNL     1       3.556   5.628   1.349  1.00  0.00     0.325 C 
ATOM      9  O   UNL     1       4.501   5.057   1.883  1.00  0.00    -0.250 OA
BRANCH   8  10
ATOM     10  C   UNL     1       2.266   6.026   2.105  1.00  0.00     0.240 C 
BRANCH  10  11
ATOM     11  N   UNL     1       1.157   6.641   1.358  1.00  0.00    -0.327 N 
ATOM     12  N   UNL     1      -0.452   4.934   0.941  1.00  0.00    -0.308 N 
ATOM     13  C   UNL     1      -0.060   6.226   0.964  1.00  0.00     0.319 C 
ATOM     14  H   UNL     1      -1.428   4.806   0.942  1.00  0.00     0.171 HD
ATOM     15  O   UNL     1      -0.888   7.102   0.697  1.00  0.00    -0.248 OA
ATOM     16  H   UNL     1       1.350   7.567   1.084  1.00  0.00     0.166 HD
BRANCH  12  17
ATOM     17  C   UNL     1       0.284   3.747   0.916  1.00  0.00     0.043 A 
ATOM     18  C   UNL     1       0.538   1.424   1.463  1.00  0.00    -0.046 A 
ATOM     19  C   UNL     1       1.930   1.566   1.398  1.00  0.00     0.004 A 
ATOM     20  C   UNL     1      -0.288   2.547   1.310  1.00  0.00     0.029 A 
ATOM     21  C   UNL     1       2.447   2.689   0.793  1.00  0.00     0.002 A 
ATOM     22  C   UNL     1       1.581   3.713   0.439  1.00  0.00     0.026 A 
BRANCH  18  23
ATOM     23  C   UNL     1      -0.022   0.028   1.442  1.00  0.00     0.032 C 
ATOM     24  C   UNL     1       0.444  -0.642   0.144  1.00  0.00     0.009 C 
ENDBRANCH  18  23
ENDBRANCH  12  17
ENDBRANCH  10  11
ENDBRANCH   8  10
ENDBRANCH   7   8
ENDBRANCH   6   7
ENDBRANCH   5   6
ENDBRANCH   4   5
ENDBRANCH   3   4
ENDBRANCH   2   3
ENDBRANCH   1   2
BRANCH   1  25
ATOM     25  C   UNL     1       3.732   9.554  -1.841  1.00  0.00     0.188 C 
BRANCH  25  26
ATOM     26  C   UNL     1       5.042  10.346  -1.659  1.00  0.00     0.188 C 
BRANCH  26  27
ATOM     27  O   UNL     1       5.255  10.823  -0.337  1.00  0.00    -0.376 OA
BRANCH  27  28
ATOM     28  C   UNL     1       4.850  12.132   0.029  1.00  0.00     0.202 C 
BRANCH  28  29
ATOM     29  C   UNL     1       3.364  12.519  -0.070  1.00  0.00     0.261 C 
BRANCH  29  30
ATOM     30  O   UNL     1       2.733  12.346  -1.344  1.00  0.00    -0.460 OA
BRANCH  30  31
ATOM     31  C   UNL     1       3.281  12.970  -2.406  1.00  0.00     0.338 C 
ATOM     32  O   UNL     1       4.234  13.735  -2.395  1.00  0.00    -0.246 OA
BRANCH  31  33
ATOM     33  C   UNL     1       2.675  12.397  -3.624  1.00  0.00     0.060 A 
ATOM     34  C   UNL     1       3.510  11.808  -4.583  1.00  0.00     0.016 A 
ATOM     35  C   UNL     1       1.291  12.432  -3.816  1.00  0.00     0.016 A 
ATOM     36  C   UNL     1       2.970  11.291  -5.758  1.00  0.00     0.010 A 
ATOM     37  C   UNL     1       0.753  11.942  -5.008  1.00  0.00     0.010 A 
ATOM     38  C   UNL     1       1.596  11.409  -6.000  1.00  0.00    -0.014 A 
BRANCH  38  39
ATOM     39  C   UNL     1       1.081  11.196  -7.372  1.00  0.00     0.031 A 
ATOM     40  C   UNL     1       0.895  12.405  -8.248  1.00  0.00     0.074 A 
ATOM     41  C   UNL     1       0.816   9.964  -7.841  1.00  0.00     0.049 A 
ATOM     42  N   UNL     1       0.419  12.484  -9.462  1.00  0.00    -0.248 NA
ATOM     43  C   UNL     1       1.302  13.700  -7.674  1.00  0.00     0.031 C 
ATOM     44  C   UNL     1       1.016   8.716  -7.108  1.00  0.00     0.029 A 
ATOM     45  N   UNL     1       0.314   9.568  -9.055  1.00  0.00    -0.354 N 
ATOM     46  C   UNL     1       0.454  13.835  -9.791  1.00  0.00     0.074 A 
ATOM     47  C   UNL     1       0.973  14.541  -8.642  1.00  0.00     0.031 C 
ATOM     48  C   UNL     1       0.628   7.689  -7.886  1.00  0.00     0.029 A 
ATOM     49  C   UNL     1       0.117   8.211  -9.152  1.00  0.00     0.049 A 
ATOM     50  H   UNL     1       0.115  10.195  -9.787  1.00  0.00     0.167 HD
ATOM     51  C   UNL     1       0.088  14.433 -10.949  1.00  0.00     0.031 A 
ATOM     52  C   UNL     1      -0.439   7.481 -10.140  1.00  0.00     0.031 A 
ATOM     53  C   UNL     1      -0.444  13.724 -12.082  1.00  0.00     0.049 A 
ATOM     54  C   UNL     1      -0.923   8.180 -11.387  1.00  0.00     0.074 A 
ATOM     55  C   UNL     1      -0.836  14.234 -13.307  1.00  0.00     0.029 A 
ATOM     56  N   UNL     1      -0.669  12.357 -12.125  1.00  0.00    -0.354 N 
ATOM     57  N   UNL     1      -0.865   9.455 -11.695  1.00  0.00    -0.248 NA
ATOM     58  C   UNL     1      -1.540   7.339 -12.423  1.00  0.00     0.031 C 
ATOM     59  C   UNL     1      -1.363  13.185 -14.065  1.00  0.00     0.029 A 
ATOM     60  C   UNL     1      -1.226  12.009 -13.344  1.00  0.00     0.049 A 
ATOM     61  H   UNL     1      -0.463  11.726 -11.398  1.00  0.00     0.167 HD
ATOM     62  C   UNL     1      -1.407   9.562 -12.973  1.00  0.00     0.074 A 
ATOM     63  C   UNL     1      -1.774   8.223 -13.384  1.00  0.00     0.031 C 
ATOM     64  C   UNL     1      -1.583  10.668 -13.739  1.00  0.00     0.031 A 
BRANCH  51  65
ATOM     65  C   UNL     1       0.206  15.932 -11.027  1.00  0.00    -0.014 A 
ATOM     66  C   UNL     1       1.459  16.570 -11.065  1.00  0.00     0.010 A 
ATOM     67  C   UNL     1      -0.962  16.714 -11.098  1.00  0.00     0.010 A 
ATOM     68  C   UNL     1       1.541  17.964 -11.136  1.00  0.00     0.020 A 
ATOM     69  C   UNL     1      -0.884  18.105 -11.201  1.00  0.00     0.020 A 
ATOM     70  C   UNL     1       0.368  18.723 -11.204  1.00  0.00     0.054 A 
BRANCH  70  71
ATOM     71  S   UNL     1       0.506  20.527 -11.326  1.00  0.00     0.124 S 
ATOM     72  O   UNL     1       0.986  20.883  -9.993  1.00  0.00    -0.237 OA
ATOM     73  O   UNL     1       1.472  20.700 -12.408  1.00  0.00    -0.237 OA
ATOM     74  O   UNL     1      -0.855  20.960 -11.634  1.00  0.00    -0.744 OA
ENDBRANCH  70  71
ENDBRANCH  51  65
BRANCH  52  75
ATOM     75  C   UNL     1      -0.593   6.008  -9.984  1.00  0.00    -0.014 A 
ATOM     76  C   UNL     1       0.132   5.117 -10.796  1.00  0.00     0.010 A 
ATOM     77  C   UNL     1      -1.478   5.485  -9.022  1.00  0.00     0.010 A 
ATOM     78  C   UNL     1      -0.038   3.736 -10.661  1.00  0.00     0.020 A 
ATOM     79  C   UNL     1      -1.626   4.105  -8.862  1.00  0.00     0.020 A 
ATOM     80  C   UNL     1      -0.913   3.238  -9.691  1.00  0.00     0.054 A 
BRANCH  80  81
ATOM     81  S   UNL     1      -1.078   1.441  -9.502  1.00  0.00     0.124 S 
ATOM     82  O   UNL     1      -1.796   1.071 -10.717  1.00  0.00    -0.237 OA
ATOM     83  O   UNL     1       0.315   1.005  -9.431  1.00  0.00    -0.237 OA
ATOM     84  O   UNL     1      -1.832   1.294  -8.259  1.00  0.00    -0.744 OA
ENDBRANCH  80  81
ENDBRANCH  52  75
BRANCH  64  85
ATOM     85  C   UNL     1      -2.155  10.480 -15.121  1.00  0.00    -0.014 A 
ATOM     86  C   UNL     1      -3.500  10.123 -15.319  1.00  0.00     0.010 A 
ATOM     87  C   UNL     1      -1.342  10.729 -16.243  1.00  0.00     0.010 A 
ATOM     88  C   UNL     1      -4.013   9.987 -16.613  1.00  0.00     0.020 A 
ATOM     89  C   UNL     1      -1.859  10.628 -17.537  1.00  0.00     0.020 A 
ATOM     90  C   UNL     1      -3.189  10.243 -17.713  1.00  0.00     0.054 A 
BRANCH  90  91
ATOM     91  S   UNL     1      -3.891  10.104 -19.380  1.00  0.00     0.124 S 
ATOM     92  O   UNL     1      -4.058   8.660 -19.520  1.00  0.00    -0.237 OA
ATOM     93  O   UNL     1      -5.128  10.873 -19.270  1.00  0.00    -0.237 OA
ATOM     94  O   UNL     1      -2.869  10.698 -20.239  1.00  0.00    -0.744 OA
ENDBRANCH  90  91
ENDBRANCH  64  85
ENDBRANCH  38  39
ENDBRANCH  31  33
ENDBRANCH  30  31
ENDBRANCH  29  30
ENDBRANCH  28  29
ENDBRANCH  27  28
ENDBRANCH  26  27
ENDBRANCH  25  26
ENDBRANCH   1  25
TORSDOF 26
