REMARK SMILES NC(=O)c1ccc(N(CC(=O)OCCOCCOCCOCCOC(=O)c2ccc(-c3c4nc(c(-c5ccc(S(=O)(=O)[O-])cc5)c5ccc([nH]5)c(-c5ccc(S(=O)(=O)[O-])cc5)c5nc(c(-c6ccc(S(=O)(=O)[O-])cc6)c6ccc3[nH]6)C=C5)C=C4)cc2)C2CCCC2)nn1
REMARK SMILES IDX 18 1 17 2 16 3 15 4 14 5 13 6 12 7 10 8 11 9 9 10 8 11 7 12
REMARK SMILES IDX 4 13 5 14 93 15 6 16 92 17 2 18 1 19 3 22 87 23 88 24 91 25
REMARK SMILES IDX 89 26 90 27 19 28 20 29 21 30 22 31 23 32 24 33 25 34 26 35
REMARK SMILES IDX 27 36 28 37 86 38 29 39 85 40 30 41 31 42 32 43 79 44 33 45
REMARK SMILES IDX 84 46 78 47 80 48 34 49 83 50 77 51 76 52 35 54 65 55 46 56
REMARK SMILES IDX 64 57 47 58 50 59 63 60 81 61 48 62 49 63 62 65 82 66 51 67
REMARK SMILES IDX 36 68 37 69 45 70 38 71 44 72 39 73 40 74 41 75 42 76 43 77
REMARK SMILES IDX 66 78 67 79 75 80 68 81 74 82 69 83 70 84 71 85 72 86 73 87
REMARK SMILES IDX 52 88 53 89 61 90 54 91 60 92 55 93 56 94 57 95 58 96 59 97
REMARK H PARENT 1 20 1 21 80 53 50 64
REMARK Flexibility Score: inf
ROOT
ATOM      1  O   UNL     1       6.545  -4.473   5.207  1.00  0.00    -0.377 OA
ENDROOT
BRANCH   1   2
ATOM      2  C   UNL     1       5.986  -3.970   6.399  1.00  0.00     0.188 C 
BRANCH   2   3
ATOM      3  C   UNL     1       5.738  -5.011   7.492  1.00  0.00     0.188 C 
BRANCH   3   4
ATOM      4  O   UNL     1       5.720  -6.399   7.179  1.00  0.00    -0.376 OA
BRANCH   4   5
ATOM      5  C   UNL     1       5.487  -6.813   5.838  1.00  0.00     0.202 C 
BRANCH   5   6
ATOM      6  C   UNL     1       4.128  -6.455   5.190  1.00  0.00     0.261 C 
BRANCH   6   7
ATOM      7  O   UNL     1       3.731  -5.055   5.217  1.00  0.00    -0.462 OA
BRANCH   7   8
ATOM      8  C   UNL     1       2.618  -4.732   5.929  1.00  0.00     0.325 C 
ATOM      9  O   UNL     1       1.920  -5.580   6.489  1.00  0.00    -0.250 OA
BRANCH   8  10
ATOM     10  C   UNL     1       2.366  -3.232   6.216  1.00  0.00     0.241 C 
BRANCH  10  11
ATOM     11  N   UNL     1       2.956  -2.134   5.385  1.00  0.00    -0.341 N 
BRANCH  11  12
ATOM     12  C   UNL     1       2.204  -1.754   4.274  1.00  0.00     0.152 A 
ATOM     13  C   UNL     1       0.661  -1.034   2.077  1.00  0.00     0.150 A 
ATOM     14  C   UNL     1       1.621  -0.158   2.522  1.00  0.00     0.040 A 
ATOM     15  N   UNL     1       0.436  -2.202   2.701  1.00  0.00    -0.143 NA
ATOM     16  C   UNL     1       2.384  -0.533   3.622  1.00  0.00     0.051 A 
ATOM     17  N   UNL     1       1.226  -2.557   3.800  1.00  0.00    -0.132 NA
BRANCH  13  18
ATOM     18  C   UNL     1      -0.142  -0.692   0.878  1.00  0.00     0.269 C 
ATOM     19  N   UNL     1       0.567  -0.220  -0.202  1.00  0.00    -0.364 N 
ATOM     20  H   UNL     1       0.095   0.025  -1.031  1.00  0.00     0.160 HD
ATOM     21  H   UNL     1       1.546  -0.129  -0.147  1.00  0.00     0.160 HD
ATOM     22  O   UNL     1      -1.361  -0.779   0.852  1.00  0.00    -0.268 OA
ENDBRANCH  13  18
ENDBRANCH  11  12
BRANCH  11  23
ATOM     23  C   UNL     1       4.000  -1.282   5.993  1.00  0.00     0.084 C 
ATOM     24  C   UNL     1       5.162  -0.910   5.048  1.00  0.00     0.025 C 
ATOM     25  C   UNL     1       3.522   0.032   6.620  1.00  0.00     0.025 C 
ATOM     26  C   UNL     1       5.459   0.569   5.292  1.00  0.00     0.002 C 
ATOM     27  C   UNL     1       4.778   0.900   6.611  1.00  0.00     0.002 C 
ENDBRANCH  11  23
ENDBRANCH  10  11
ENDBRANCH   8  10
ENDBRANCH   7   8
ENDBRANCH   6   7
ENDBRANCH   5   6
ENDBRANCH   4   5
ENDBRANCH   3   4
ENDBRANCH   2   3
ENDBRANCH   1   2
BRANCH   1  28
ATOM     28  C   UNL     1       7.846  -4.052   4.869  1.00  0.00     0.188 C 
BRANCH  28  29
ATOM     29  C   UNL     1       8.881  -4.218   5.985  1.00  0.00     0.188 C 
BRANCH  29  30
ATOM     30  O   UNL     1       8.509  -3.523   7.170  1.00  0.00    -0.376 OA
BRANCH  30  31
ATOM     31  C   UNL     1       9.119  -2.273   7.443  1.00  0.00     0.202 C 
BRANCH  31  32
ATOM     32  C   UNL     1       8.868  -1.071   6.512  1.00  0.00     0.261 C 
BRANCH  32  33
ATOM     33  O   UNL     1       8.928  -1.291   5.096  1.00  0.00    -0.460 OA
BRANCH  33  34
ATOM     34  C   UNL     1      10.140  -1.505   4.542  1.00  0.00     0.338 C 
ATOM     35  O   UNL     1      11.209  -1.514   5.132  1.00  0.00    -0.246 OA
BRANCH  34  36
ATOM     36  C   UNL     1       9.948  -1.926   3.132  1.00  0.00     0.060 A 
ATOM     37  C   UNL     1      10.356  -3.213   2.758  1.00  0.00     0.016 A 
ATOM     38  C   UNL     1       9.377  -1.072   2.183  1.00  0.00     0.016 A 
ATOM     39  C   UNL     1      10.216  -3.643   1.435  1.00  0.00     0.010 A 
ATOM     40  C   UNL     1       9.270  -1.493   0.849  1.00  0.00     0.010 A 
ATOM     41  C   UNL     1       9.715  -2.770   0.462  1.00  0.00    -0.014 A 
BRANCH  41  42
ATOM     42  C   UNL     1       9.845  -3.124  -0.977  1.00  0.00     0.031 A 
ATOM     43  C   UNL     1      11.035  -2.599  -1.738  1.00  0.00     0.074 A 
ATOM     44  C   UNL     1       8.956  -3.923  -1.596  1.00  0.00     0.049 A 
ATOM     45  N   UNL     1      11.345  -2.745  -3.000  1.00  0.00    -0.248 NA
ATOM     46  C   UNL     1      12.007  -1.807  -0.966  1.00  0.00     0.031 C 
ATOM     47  C   UNL     1       7.799  -4.554  -0.964  1.00  0.00     0.029 A 
ATOM     48  N   UNL     1       8.891  -4.338  -2.905  1.00  0.00    -0.354 N 
ATOM     49  C   UNL     1      12.541  -2.058  -3.177  1.00  0.00     0.074 A 
ATOM     50  C   UNL     1      12.887  -1.474  -1.899  1.00  0.00     0.031 C 
ATOM     51  C   UNL     1       7.133  -5.269  -1.889  1.00  0.00     0.029 A 
ATOM     52  C   UNL     1       7.793  -5.117  -3.186  1.00  0.00     0.049 A 
ATOM     53  H   UNL     1       9.569  -4.100  -3.579  1.00  0.00     0.167 HD
ATOM     54  C   UNL     1      13.288  -1.925  -4.299  1.00  0.00     0.031 A 
ATOM     55  C   UNL     1       7.356  -5.626  -4.356  1.00  0.00     0.031 A 
ATOM     56  C   UNL     1      12.934  -2.488  -5.575  1.00  0.00     0.049 A 
ATOM     57  C   UNL     1       8.149  -5.378  -5.617  1.00  0.00     0.074 A 
ATOM     58  C   UNL     1      13.629  -2.410  -6.769  1.00  0.00     0.029 A 
ATOM     59  N   UNL     1      11.785  -3.220  -5.828  1.00  0.00    -0.354 N 
ATOM     60  N   UNL     1       9.286  -4.740  -5.764  1.00  0.00    -0.248 NA
ATOM     61  C   UNL     1       7.599  -5.921  -6.869  1.00  0.00     0.031 C 
ATOM     62  C   UNL     1      12.866  -3.036  -7.760  1.00  0.00     0.029 A 
ATOM     63  C   UNL     1      11.732  -3.569  -7.167  1.00  0.00     0.049 A 
ATOM     64  H   UNL     1      11.106  -3.457  -5.155  1.00  0.00     0.167 HD
ATOM     65  C   UNL     1       9.602  -4.833  -7.117  1.00  0.00     0.074 A 
ATOM     66  C   UNL     1       8.543  -5.598  -7.743  1.00  0.00     0.031 C 
ATOM     67  C   UNL     1      10.674  -4.333  -7.781  1.00  0.00     0.031 A 
BRANCH  54  68
ATOM     68  C   UNL     1      14.543  -1.097  -4.206  1.00  0.00    -0.014 A 
ATOM     69  C   UNL     1      15.669  -1.550  -3.497  1.00  0.00     0.010 A 
ATOM     70  C   UNL     1      14.606   0.141  -4.872  1.00  0.00     0.010 A 
ATOM     71  C   UNL     1      16.822  -0.763  -3.422  1.00  0.00     0.020 A 
ATOM     72  C   UNL     1      15.767   0.917  -4.826  1.00  0.00     0.020 A 
ATOM     73  C   UNL     1      16.862   0.467  -4.087  1.00  0.00     0.054 A 
BRANCH  73  74
ATOM     74  S   UNL     1      18.377   1.459  -3.988  1.00  0.00     0.124 S 
ATOM     75  O   UNL     1      18.352   1.908  -2.597  1.00  0.00    -0.237 OA
ATOM     76  O   UNL     1      19.416   0.488  -4.316  1.00  0.00    -0.237 OA
ATOM     77  O   UNL     1      18.171   2.509  -4.983  1.00  0.00    -0.744 OA
ENDBRANCH  73  74
ENDBRANCH  54  68
BRANCH  55  78
ATOM     78  C   UNL     1       6.082  -6.399  -4.407  1.00  0.00    -0.014 A 
ATOM     79  C   UNL     1       6.082  -7.772  -4.712  1.00  0.00     0.010 A 
ATOM     80  C   UNL     1       4.853  -5.756  -4.165  1.00  0.00     0.010 A 
ATOM     81  C   UNL     1       4.879  -8.482  -4.791  1.00  0.00     0.020 A 
ATOM     82  C   UNL     1       3.652  -6.469  -4.212  1.00  0.00     0.020 A 
ATOM     83  C   UNL     1       3.672  -7.826  -4.536  1.00  0.00     0.054 A 
BRANCH  83  84
ATOM     84  S   UNL     1       2.129  -8.779  -4.600  1.00  0.00     0.124 S 
ATOM     85  O   UNL     1       1.989  -9.034  -6.030  1.00  0.00    -0.237 OA
ATOM     86  O   UNL     1       2.447  -9.943  -3.777  1.00  0.00    -0.237 OA
ATOM     87  O   UNL     1       1.141  -7.868  -4.027  1.00  0.00    -0.744 OA
ENDBRANCH  83  84
ENDBRANCH  55  78
BRANCH  67  88
ATOM     88  C   UNL     1      10.789  -4.621  -9.257  1.00  0.00    -0.014 A 
ATOM     89  C   UNL     1       9.941  -4.003 -10.192  1.00  0.00     0.010 A 
ATOM     90  C   UNL     1      11.817  -5.465  -9.719  1.00  0.00     0.010 A 
ATOM     91  C   UNL     1      10.105  -4.241 -11.561  1.00  0.00     0.020 A 
ATOM     92  C   UNL     1      12.004  -5.680 -11.087  1.00  0.00     0.020 A 
ATOM     93  C   UNL     1      11.139  -5.074 -12.000  1.00  0.00     0.054 A 
BRANCH  93  94
ATOM     94  S   UNL     1      11.368  -5.315 -13.783  1.00  0.00     0.124 S 
ATOM     95  O   UNL     1      10.218  -6.145 -14.129  1.00  0.00    -0.237 OA
ATOM     96  O   UNL     1      11.334  -3.948 -14.297  1.00  0.00    -0.237 OA
ATOM     97  O   UNL     1      12.666  -5.979 -13.880  1.00  0.00    -0.744 OA
ENDBRANCH  93  94
ENDBRANCH  67  88
ENDBRANCH  41  42
ENDBRANCH  34  36
ENDBRANCH  33  34
ENDBRANCH  32  33
ENDBRANCH  31  32
ENDBRANCH  30  31
ENDBRANCH  29  30
ENDBRANCH  28  29
ENDBRANCH   1  28
TORSDOF 27
