REMARK SMILES CN(C(=O)C[C@H]1SC(=O)N(c2cccc(O)c2)C1=O)c1ccccc1C(=O)OCCOCCOCCOCCOC(=O)c1ccc(-c2c3nc(c(-c4ccc(S(=O)(=O)[O-])cc4)c4ccc([nH]4)c(-c4ccc(S(=O)(=O)[O-])cc4)c4nc(c(-c5ccc(S(=O)(=O)[O-])cc5)c5ccc2[nH]5)C=C4)C=C3)cc1
REMARK SMILES IDX 32 1 31 2 30 3 29 4 28 5 26 6 27 7 25 8 20 9 21 10 22 11
REMARK SMILES IDX 24 12 23 13 2 14 1 15 3 16 4 17 5 18 6 19 7 20 18 21 8 22
REMARK SMILES IDX 10 23 19 24 9 25 11 26 12 27 17 28 13 29 15 30 14 31 16 32
REMARK SMILES IDX 33 34 34 35 35 36 36 37 37 38 38 39 39 40 40 41 41 42 42 43
REMARK SMILES IDX 43 44 44 45 102 46 45 47 101 48 46 49 47 50 48 51 95 52
REMARK SMILES IDX 49 53 100 54 94 55 96 56 50 57 99 58 93 59 92 60 51 62 81 63
REMARK SMILES IDX 62 64 80 65 63 66 66 67 79 68 97 69 64 70 65 71 78 73 98 74
REMARK SMILES IDX 67 75 52 76 53 77 61 78 54 79 60 80 55 81 56 82 57 83 58 84
REMARK SMILES IDX 59 85 82 86 83 87 91 88 84 89 90 90 85 91 86 92 87 93 88 94
REMARK SMILES IDX 89 95 68 96 69 97 77 98 70 99 76 100 71 101 72 102 73 103
REMARK SMILES IDX 74 104 75 105
REMARK H PARENT 16 33 96 61 66 72
REMARK Flexibility Score: inf
ROOT
ATOM      1  C   UNL     1      -1.155  -7.881  -1.989  1.00  0.00     0.188 C 
ENDROOT
BRANCH   1   2
ATOM      2  O   UNL     1      -1.582  -8.426  -0.746  1.00  0.00    -0.376 OA
BRANCH   2   3
ATOM      3  C   UNL     1      -0.845  -8.243   0.458  1.00  0.00     0.202 C 
BRANCH   3   4
ATOM      4  C   UNL     1       0.688  -8.241   0.453  1.00  0.00     0.261 C 
BRANCH   4   5
ATOM      5  O   UNL     1       1.231  -7.327  -0.508  1.00  0.00    -0.460 OA
BRANCH   5   6
ATOM      6  C   UNL     1       2.336  -7.737  -1.167  1.00  0.00     0.340 C 
ATOM      7  O   UNL     1       2.991  -8.739  -0.934  1.00  0.00    -0.246 OA
BRANCH   6   8
ATOM      8  C   UNL     1       2.530  -6.918  -2.385  1.00  0.00     0.083 A 
ATOM      9  C   UNL     1       2.685  -5.515  -2.434  1.00  0.00     0.058 A 
ATOM     10  C   UNL     1       2.817  -4.933  -3.713  1.00  0.00     0.027 A 
ATOM     11  C   UNL     1       2.759  -5.691  -4.887  1.00  0.00     0.002 A 
ATOM     12  C   UNL     1       2.454  -7.673  -3.576  1.00  0.00     0.018 A 
ATOM     13  C   UNL     1       2.562  -7.062  -4.821  1.00  0.00     0.001 A 
BRANCH   9  14
ATOM     14  N   UNL     1       2.767  -4.647  -1.278  1.00  0.00    -0.315 N 
ATOM     15  C   UNL     1       3.546  -5.146  -0.143  1.00  0.00     0.153 C 
BRANCH  14  16
ATOM     16  C   UNL     1       2.115  -3.400  -1.296  1.00  0.00     0.228 C 
ATOM     17  O   UNL     1       1.450  -2.987  -2.252  1.00  0.00    -0.274 OA
BRANCH  16  18
ATOM     18  C   UNL     1       2.138  -2.529  -0.047  1.00  0.00     0.125 C 
BRANCH  18  19
ATOM     19  C   UNL     1       0.888  -2.665   0.824  1.00  0.00     0.156 C 
ATOM     20  S   UNL     1       0.238  -4.343   0.966  1.00  0.00    -0.050 SA
ATOM     21  C   UNL     1       1.204  -2.254   2.253  1.00  0.00     0.248 C 
ATOM     22  C   UNL     1       0.719  -4.535   2.625  1.00  0.00     0.293 C 
ATOM     23  N   UNL     1       1.076  -3.314   3.131  1.00  0.00    -0.240 N 
ATOM     24  O   UNL     1       1.542  -1.109   2.534  1.00  0.00    -0.273 OA
ATOM     25  O   UNL     1       0.740  -5.625   3.149  1.00  0.00    -0.261 OA
BRANCH  23  26
ATOM     26  C   UNL     1       1.214  -3.162   4.520  1.00  0.00     0.056 A 
ATOM     27  C   UNL     1       2.471  -3.144   5.126  1.00  0.00     0.027 A 
ATOM     28  C   UNL     1       0.054  -3.064   5.295  1.00  0.00     0.073 A 
ATOM     29  C   UNL     1       2.561  -3.022   6.514  1.00  0.00     0.006 A 
ATOM     30  C   UNL     1       0.163  -2.889   6.666  1.00  0.00     0.117 A 
ATOM     31  C   UNL     1       1.405  -2.885   7.286  1.00  0.00     0.046 A 
BRANCH  30  32
ATOM     32  O   UNL     1      -0.985  -2.688   7.373  1.00  0.00    -0.508 OA
ATOM     33  H   UNL     1      -0.948  -2.566   8.301  1.00  0.00     0.293 HD
ENDBRANCH  30  32
ENDBRANCH  23  26
ENDBRANCH  18  19
ENDBRANCH  16  18
ENDBRANCH  14  16
ENDBRANCH   9  14
ENDBRANCH   6   8
ENDBRANCH   5   6
ENDBRANCH   4   5
ENDBRANCH   3   4
ENDBRANCH   2   3
ENDBRANCH   1   2
BRANCH   1  34
ATOM     34  C   UNL     1      -0.945  -6.365  -2.132  1.00  0.00     0.188 C 
BRANCH  34  35
ATOM     35  O   UNL     1      -2.113  -5.576  -2.016  1.00  0.00    -0.377 OA
BRANCH  35  36
ATOM     36  C   UNL     1      -2.664  -5.501  -0.718  1.00  0.00     0.188 C 
BRANCH  36  37
ATOM     37  C   UNL     1      -3.996  -6.241  -0.538  1.00  0.00     0.188 C 
BRANCH  37  38
ATOM     38  O   UNL     1      -4.855  -6.547  -1.631  1.00  0.00    -0.376 OA
BRANCH  38  39
ATOM     39  C   UNL     1      -4.626  -5.983  -2.909  1.00  0.00     0.202 C 
BRANCH  39  40
ATOM     40  C   UNL     1      -4.914  -4.484  -3.090  1.00  0.00     0.261 C 
BRANCH  40  41
ATOM     41  O   UNL     1      -4.425  -3.603  -2.065  1.00  0.00    -0.460 OA
BRANCH  41  42
ATOM     42  C   UNL     1      -5.311  -3.328  -1.079  1.00  0.00     0.338 C 
ATOM     43  O   UNL     1      -6.447  -3.760  -0.970  1.00  0.00    -0.246 OA
BRANCH  42  44
ATOM     44  C   UNL     1      -4.692  -2.471  -0.042  1.00  0.00     0.060 A 
ATOM     45  C   UNL     1      -4.783  -2.884   1.293  1.00  0.00     0.016 A 
ATOM     46  C   UNL     1      -4.164  -1.215  -0.356  1.00  0.00     0.016 A 
ATOM     47  C   UNL     1      -4.426  -2.012   2.321  1.00  0.00     0.010 A 
ATOM     48  C   UNL     1      -3.825  -0.332   0.679  1.00  0.00     0.010 A 
ATOM     49  C   UNL     1      -4.013  -0.707   2.021  1.00  0.00    -0.014 A 
BRANCH  49  50
ATOM     50  C   UNL     1      -4.032   0.311   3.105  1.00  0.00     0.031 A 
ATOM     51  C   UNL     1      -5.285   1.122   3.302  1.00  0.00     0.074 A 
ATOM     52  C   UNL     1      -2.991   0.473   3.941  1.00  0.00     0.049 A 
ATOM     53  N   UNL     1      -5.558   2.011   4.221  1.00  0.00    -0.248 NA
ATOM     54  C   UNL     1      -6.363   0.917   2.320  1.00  0.00     0.031 C 
ATOM     55  C   UNL     1      -1.719  -0.230   3.835  1.00  0.00     0.029 A 
ATOM     56  N   UNL     1      -2.847   1.263   5.056  1.00  0.00    -0.354 N 
ATOM     57  C   UNL     1      -6.826   2.490   3.915  1.00  0.00     0.074 A 
ATOM     58  C   UNL     1      -7.262   1.805   2.718  1.00  0.00     0.031 C 
ATOM     59  C   UNL     1      -0.941   0.123   4.872  1.00  0.00     0.029 A 
ATOM     60  C   UNL     1      -1.657   1.070   5.720  1.00  0.00     0.049 A 
ATOM     61  H   UNL     1      -3.531   1.907   5.353  1.00  0.00     0.167 HD
ATOM     62  C   UNL     1      -7.561   3.420   4.568  1.00  0.00     0.031 A 
ATOM     63  C   UNL     1      -1.210   1.579   6.886  1.00  0.00     0.031 A 
ATOM     64  C   UNL     1      -7.121   4.115   5.748  1.00  0.00     0.049 A 
ATOM     65  C   UNL     1      -2.071   2.579   7.618  1.00  0.00     0.074 A 
ATOM     66  C   UNL     1      -7.770   5.111   6.457  1.00  0.00     0.029 A 
ATOM     67  N   UNL     1      -5.921   3.877   6.401  1.00  0.00    -0.354 N 
ATOM     68  N   UNL     1      -3.272   3.014   7.316  1.00  0.00    -0.248 NA
ATOM     69  C   UNL     1      -1.512   3.162   8.847  1.00  0.00     0.031 C 
ATOM     70  C   UNL     1      -6.948   5.497   7.522  1.00  0.00     0.029 A 
ATOM     71  C   UNL     1      -5.814   4.702   7.508  1.00  0.00     0.049 A 
ATOM     72  H   UNL     1      -5.246   3.219   6.120  1.00  0.00     0.167 HD
ATOM     73  C   UNL     1      -3.611   3.913   8.322  1.00  0.00     0.074 A 
ATOM     74  C   UNL     1      -2.516   3.916   9.269  1.00  0.00     0.031 C 
ATOM     75  C   UNL     1      -4.719   4.687   8.442  1.00  0.00     0.031 A 
BRANCH  62  76
ATOM     76  C   UNL     1      -8.908   3.762   3.991  1.00  0.00    -0.014 A 
ATOM     77  C   UNL     1      -9.982   2.857   4.070  1.00  0.00     0.010 A 
ATOM     78  C   UNL     1      -9.109   5.013   3.381  1.00  0.00     0.010 A 
ATOM     79  C   UNL     1     -11.224   3.185   3.521  1.00  0.00     0.020 A 
ATOM     80  C   UNL     1     -10.358   5.356   2.856  1.00  0.00     0.020 A 
ATOM     81  C   UNL     1     -11.404   4.433   2.918  1.00  0.00     0.054 A 
BRANCH  81  82
ATOM     82  S   UNL     1     -13.037   4.846   2.246  1.00  0.00     0.124 S 
ATOM     83  O   UNL     1     -13.095   4.005   1.054  1.00  0.00    -0.237 OA
ATOM     84  O   UNL     1     -13.936   4.461   3.332  1.00  0.00    -0.237 OA
ATOM     85  O   UNL     1     -12.954   6.282   1.991  1.00  0.00    -0.744 OA
ENDBRANCH  81  82
ENDBRANCH  62  76
BRANCH  63  86
ATOM     86  C   UNL     1       0.093   1.144   7.475  1.00  0.00    -0.014 A 
ATOM     87  C   UNL     1       0.123   0.498   8.727  1.00  0.00     0.010 A 
ATOM     88  C   UNL     1       1.310   1.403   6.821  1.00  0.00     0.010 A 
ATOM     89  C   UNL     1       1.339   0.151   9.324  1.00  0.00     0.020 A 
ATOM     90  C   UNL     1       2.527   1.018   7.393  1.00  0.00     0.020 A 
ATOM     91  C   UNL     1       2.534   0.408   8.648  1.00  0.00     0.054 A 
BRANCH  91  92
ATOM     92  S   UNL     1       4.092  -0.129   9.402  1.00  0.00     0.124 S 
ATOM     93  O   UNL     1       4.271   0.855  10.464  1.00  0.00    -0.237 OA
ATOM     94  O   UNL     1       3.770  -1.486   9.839  1.00  0.00    -0.237 OA
ATOM     95  O   UNL     1       5.051  -0.053   8.302  1.00  0.00    -0.744 OA
ENDBRANCH  91  92
ENDBRANCH  63  86
BRANCH  75  96
ATOM     96  C   UNL     1      -4.808   5.572   9.657  1.00  0.00    -0.014 A 
ATOM     97  C   UNL     1      -3.959   6.684   9.816  1.00  0.00     0.010 A 
ATOM     98  C   UNL     1      -5.760   5.290  10.653  1.00  0.00     0.010 A 
ATOM     99  C   UNL     1      -4.018   7.457  10.977  1.00  0.00     0.020 A 
ATOM    100  C   UNL     1      -5.843   6.081  11.802  1.00  0.00     0.020 A 
ATOM    101  C   UNL     1      -4.954   7.144  11.968  1.00  0.00     0.054 A 
BRANCH 101 102
ATOM    102  S   UNL     1      -5.007   8.157  13.471  1.00  0.00     0.124 S 
ATOM    103  O   UNL     1      -3.827   7.689  14.193  1.00  0.00    -0.237 OA
ATOM    104  O   UNL     1      -4.923   9.518  12.945  1.00  0.00    -0.237 OA
ATOM    105  O   UNL     1      -6.289   7.809  14.078  1.00  0.00    -0.744 OA
ENDBRANCH 101 102
ENDBRANCH  75  96
ENDBRANCH  49  50
ENDBRANCH  42  44
ENDBRANCH  41  42
ENDBRANCH  40  41
ENDBRANCH  39  40
ENDBRANCH  38  39
ENDBRANCH  37  38
ENDBRANCH  36  37
ENDBRANCH  35  36
ENDBRANCH  34  35
ENDBRANCH   1  34
TORSDOF 29
