REMARK SMILES Cc1cc(Br)cc2c1O[C@H](C(F)(F)F)C(C(=O)OCCOCCOCCOCCOC(=O)c1ccc(-c3c4nc(c(-c5ccc(S(=O)(=O)[O-])cc5)c5ccc([nH]5)c(-c5ccc(S(=O)(=O)[O-])cc5)c5nc(c(-c6ccc(S(=O)(=O)[O-])cc6)c6ccc3[nH]6)C=C5)C=C4)cc1)=C2
REMARK SMILES IDX 25 1 24 2 23 3 22 4 21 5 20 6 19 7 18 8 16 9 17 10 15 11
REMARK SMILES IDX 1 12 2 13 3 14 8 15 4 16 7 17 9 18 5 19 6 20 93 21 10 22
REMARK SMILES IDX 11 23 12 24 13 25 14 26 26 27 27 28 28 29 29 30 30 31 31 32
REMARK SMILES IDX 32 33 33 34 34 35 92 36 35 37 91 38 36 39 37 40 38 41 85 42
REMARK SMILES IDX 39 43 90 44 84 45 86 46 40 47 89 48 83 49 82 50 41 52 71 53
REMARK SMILES IDX 52 54 70 55 53 56 56 57 69 58 87 59 54 60 55 61 68 63 88 64
REMARK SMILES IDX 57 65 42 66 43 67 51 68 44 69 50 70 45 71 46 72 47 73 48 74
REMARK SMILES IDX 49 75 72 76 73 77 81 78 74 79 80 80 75 81 76 82 77 83 78 84
REMARK SMILES IDX 79 85 58 86 59 87 67 88 60 89 66 90 61 91 62 92 63 93 64 94
REMARK SMILES IDX 65 95
REMARK H PARENT 86 51 56 62
REMARK Flexibility Score: inf
ROOT
ATOM      1  C   UNL     1       4.457  -7.628   2.575  1.00  0.00     0.188 C 
ENDROOT
BRANCH   1   2
ATOM      2  O   UNL     1       3.351  -6.779   2.276  1.00  0.00    -0.377 OA
BRANCH   2   3
ATOM      3  C   UNL     1       2.960  -5.852   3.271  1.00  0.00     0.188 C 
BRANCH   3   4
ATOM      4  C   UNL     1       1.927  -6.420   4.262  1.00  0.00     0.188 C 
BRANCH   4   5
ATOM      5  O   UNL     1       1.766  -7.823   4.334  1.00  0.00    -0.376 OA
BRANCH   5   6
ATOM      6  C   UNL     1       1.251  -8.614   3.273  1.00  0.00     0.202 C 
BRANCH   6   7
ATOM      7  C   UNL     1       0.691  -8.122   1.924  1.00  0.00     0.261 C 
BRANCH   7   8
ATOM      8  O   UNL     1       0.714  -6.725   1.659  1.00  0.00    -0.460 OA
BRANCH   8   9
ATOM      9  C   UNL     1      -0.355  -6.018   2.067  1.00  0.00     0.338 C 
ATOM     10  O   UNL     1      -1.351  -6.443   2.625  1.00  0.00    -0.246 OA
BRANCH   9  11
ATOM     11  C   UNL     1      -0.035  -4.585   1.891  1.00  0.00     0.087 C 
ATOM     12  C   UNL     1       1.099   0.052   0.060  1.00  0.00     0.048 C 
ATOM     13  C   UNL     1       0.593  -0.496   1.365  1.00  0.00    -0.007 A 
ATOM     14  C   UNL     1       0.234   0.384   2.398  1.00  0.00     0.023 A 
ATOM     15  C   UNL     1       0.479  -1.880   1.575  1.00  0.00     0.130 A 
ATOM     16  C   UNL     1      -0.234  -0.114   3.613  1.00  0.00     0.019 A 
ATOM     17  C   UNL     1      -0.044  -2.368   2.777  1.00  0.00     0.019 A 
ATOM     18  O   UNL     1       0.890  -2.693   0.557  1.00  0.00    -0.475 OA
ATOM     19  Br  UNL     1      -0.730   1.082   4.991  1.00  0.00    -0.051 Br
ATOM     20  C   UNL     1      -0.373  -1.484   3.809  1.00  0.00     0.027 A 
ATOM     21  C   UNL     1      -0.317  -3.784   2.925  1.00  0.00     0.027 C 
ATOM     22  C   UNL     1       0.635  -4.122   0.625  1.00  0.00     0.316 C 
BRANCH  22  23
ATOM     23  C   UNL     1      -0.154  -4.526  -0.627  1.00  0.00     0.430 C 
ATOM     24  F   UNL     1       0.412  -4.023  -1.749  1.00  0.00    -0.167 F 
ATOM     25  F   UNL     1      -0.212  -5.868  -0.780  1.00  0.00    -0.167 F 
ATOM     26  F   UNL     1      -1.428  -4.069  -0.576  1.00  0.00    -0.167 F 
ENDBRANCH  22  23
ENDBRANCH   9  11
ENDBRANCH   8   9
ENDBRANCH   7   8
ENDBRANCH   6   7
ENDBRANCH   5   6
ENDBRANCH   4   5
ENDBRANCH   3   4
ENDBRANCH   2   3
ENDBRANCH   1   2
BRANCH   1  27
ATOM     27  C   UNL     1       4.725  -8.070   4.033  1.00  0.00     0.188 C 
BRANCH  27  28
ATOM     28  O   UNL     1       4.620  -7.022   4.989  1.00  0.00    -0.376 OA
BRANCH  28  29
ATOM     29  C   UNL     1       5.806  -6.466   5.530  1.00  0.00     0.202 C 
BRANCH  29  30
ATOM     30  C   UNL     1       6.689  -5.656   4.572  1.00  0.00     0.261 C 
BRANCH  30  31
ATOM     31  O   UNL     1       7.130  -6.346   3.395  1.00  0.00    -0.460 OA
BRANCH  31  32
ATOM     32  C   UNL     1       7.907  -7.434   3.575  1.00  0.00     0.338 C 
ATOM     33  O   UNL     1       8.305  -7.885   4.637  1.00  0.00    -0.246 OA
BRANCH  32  34
ATOM     34  C   UNL     1       8.044  -8.107   2.270  1.00  0.00     0.060 A 
ATOM     35  C   UNL     1       7.601  -9.429   2.133  1.00  0.00     0.016 A 
ATOM     36  C   UNL     1       8.609  -7.429   1.187  1.00  0.00     0.016 A 
ATOM     37  C   UNL     1       7.763 -10.095   0.918  1.00  0.00     0.010 A 
ATOM     38  C   UNL     1       8.793  -8.104  -0.019  1.00  0.00     0.010 A 
ATOM     39  C   UNL     1       8.405  -9.450  -0.146  1.00  0.00    -0.014 A 
BRANCH  39  40
ATOM     40  C   UNL     1       8.867 -10.227  -1.318  1.00  0.00     0.031 A 
ATOM     41  C   UNL     1      10.296 -10.697  -1.336  1.00  0.00     0.074 A 
ATOM     42  C   UNL     1       8.043 -10.508  -2.342  1.00  0.00     0.049 A 
ATOM     43  N   UNL     1      10.961 -11.292  -2.290  1.00  0.00    -0.248 NA
ATOM     44  C   UNL     1      11.078 -10.464  -0.109  1.00  0.00     0.031 C 
ATOM     45  C   UNL     1       6.621 -10.172  -2.403  1.00  0.00     0.029 A 
ATOM     46  N   UNL     1       8.294 -11.137  -3.534  1.00  0.00    -0.354 N 
ATOM     47  C   UNL     1      12.239 -11.497  -1.784  1.00  0.00     0.074 A 
ATOM     48  C   UNL     1      12.265 -10.941  -0.450  1.00  0.00     0.031 C 
ATOM     49  C   UNL     1       6.127 -10.591  -3.581  1.00  0.00     0.029 A 
ATOM     50  C   UNL     1       7.206 -11.181  -4.373  1.00  0.00     0.049 A 
ATOM     51  H   UNL     1       9.170 -11.521  -3.768  1.00  0.00     0.167 HD
ATOM     52  C   UNL     1      13.296 -12.099  -2.378  1.00  0.00     0.031 A 
ATOM     53  C   UNL     1       7.104 -11.621  -5.643  1.00  0.00     0.031 A 
ATOM     54  C   UNL     1      13.269 -12.626  -3.716  1.00  0.00     0.049 A 
ATOM     55  C   UNL     1       8.323 -12.187  -6.325  1.00  0.00     0.074 A 
ATOM     56  C   UNL     1      14.290 -13.239  -4.420  1.00  0.00     0.029 A 
ATOM     57  N   UNL     1      12.164 -12.601  -4.554  1.00  0.00    -0.354 N 
ATOM     58  N   UNL     1       9.534 -12.354  -5.847  1.00  0.00    -0.248 NA
ATOM     59  C   UNL     1       8.159 -12.629  -7.717  1.00  0.00     0.031 C 
ATOM     60  C   UNL     1      13.821 -13.529  -5.705  1.00  0.00     0.029 A 
ATOM     61  C   UNL     1      12.485 -13.168  -5.776  1.00  0.00     0.049 A 
ATOM     62  H   UNL     1      11.282 -12.235  -4.316  1.00  0.00     0.167 HD
ATOM     63  C   UNL     1      10.267 -12.953  -6.868  1.00  0.00     0.074 A 
ATOM     64  C   UNL     1       9.359 -13.127  -7.983  1.00  0.00     0.031 C 
ATOM     65  C   UNL     1      11.570 -13.330  -6.879  1.00  0.00     0.031 A 
BRANCH  52  66
ATOM     66  C   UNL     1      14.581 -12.187  -1.598  1.00  0.00    -0.014 A 
ATOM     67  C   UNL     1      14.704 -13.046  -0.491  1.00  0.00     0.010 A 
ATOM     68  C   UNL     1      15.699 -11.439  -2.011  1.00  0.00     0.010 A 
ATOM     69  C   UNL     1      15.914 -13.137   0.203  1.00  0.00     0.020 A 
ATOM     70  C   UNL     1      16.919 -11.550  -1.339  1.00  0.00     0.020 A 
ATOM     71  C   UNL     1      17.015 -12.392  -0.229  1.00  0.00     0.054 A 
BRANCH  71  72
ATOM     72  S   UNL     1      18.583 -12.566   0.666  1.00  0.00     0.124 S 
ATOM     73  O   UNL     1      18.265 -11.955   1.954  1.00  0.00    -0.237 OA
ATOM     74  O   UNL     1      18.777 -14.013   0.688  1.00  0.00    -0.237 OA
ATOM     75  O   UNL     1      19.537 -11.823  -0.154  1.00  0.00    -0.744 OA
ENDBRANCH  71  72
ENDBRANCH  52  66
BRANCH  53  76
ATOM     76  C   UNL     1       5.799 -11.535  -6.356  1.00  0.00    -0.014 A 
ATOM     77  C   UNL     1       5.087 -12.702  -6.684  1.00  0.00     0.010 A 
ATOM     78  C   UNL     1       5.252 -10.284  -6.698  1.00  0.00     0.010 A 
ATOM     79  C   UNL     1       3.857 -12.621  -7.344  1.00  0.00     0.020 A 
ATOM     80  C   UNL     1       4.008 -10.197  -7.331  1.00  0.00     0.020 A 
ATOM     81  C   UNL     1       3.321 -11.368  -7.655  1.00  0.00     0.054 A 
BRANCH  81  82
ATOM     82  S   UNL     1       1.693 -11.292  -8.452  1.00  0.00     0.124 S 
ATOM     83  O   UNL     1       1.973 -11.846  -9.773  1.00  0.00    -0.237 OA
ATOM     84  O   UNL     1       0.878 -12.128  -7.574  1.00  0.00    -0.237 OA
ATOM     85  O   UNL     1       1.365  -9.868  -8.427  1.00  0.00    -0.744 OA
ENDBRANCH  81  82
ENDBRANCH  53  76
BRANCH  65  86
ATOM     86  C   UNL     1      12.088 -14.011  -8.120  1.00  0.00    -0.014 A 
ATOM     87  C   UNL     1      12.264 -13.310  -9.326  1.00  0.00     0.010 A 
ATOM     88  C   UNL     1      12.452 -15.370  -8.060  1.00  0.00     0.010 A 
ATOM     89  C   UNL     1      12.752 -13.967 -10.460  1.00  0.00     0.020 A 
ATOM     90  C   UNL     1      12.973 -16.021  -9.181  1.00  0.00     0.020 A 
ATOM     91  C   UNL     1      13.101 -15.319 -10.380  1.00  0.00     0.054 A 
BRANCH  91  92
ATOM     92  S   UNL     1      13.747 -16.140 -11.863  1.00  0.00     0.124 S 
ATOM     93  O   UNL     1      12.565 -16.199 -12.718  1.00  0.00    -0.237 OA
ATOM     94  O   UNL     1      14.796 -15.224 -12.303  1.00  0.00    -0.237 OA
ATOM     95  O   UNL     1      14.221 -17.431 -11.367  1.00  0.00    -0.744 OA
ENDBRANCH  91  92
ENDBRANCH  65  86
ENDBRANCH  39  40
ENDBRANCH  32  34
ENDBRANCH  31  32
ENDBRANCH  30  31
ENDBRANCH  29  30
ENDBRANCH  28  29
ENDBRANCH  27  28
ENDBRANCH   1  27
TORSDOF 24
