REMARK SMILES Cc1ccc2[nH]c(C(=O)OCCOCCOCCOCCOC(=O)c3ccc(-c4c5nc(c(-c6ccc(S(=O)(=O)[O-])cc6)c6ccc([nH]6)c(-c6ccc(S(=O)(=O)[O-])cc6)c6nc(c(-c7ccc(S(=O)(=O)[O-])cc7)c7ccc4[nH]7)C=C6)C=C5)cc3)c(NC(=O)[C@H]3C[C@H]3c3ccccc3)c2c1
REMARK SMILES IDX 16 1 15 2 14 3 13 4 12 5 11 6 10 7 8 8 9 9 7 10 1 11 2 12
REMARK SMILES IDX 3 13 99 14 4 15 98 16 5 17 85 18 6 19 86 21 87 22 88 24
REMARK SMILES IDX 89 25 90 26 91 27 92 28 93 29 97 30 94 31 96 32 95 33 17 34
REMARK SMILES IDX 18 35 19 36 20 37 21 38 22 39 23 40 24 41 25 42 26 43 84 44
REMARK SMILES IDX 27 45 83 46 28 47 29 48 30 49 77 50 31 51 82 52 76 53 78 54
REMARK SMILES IDX 32 55 81 56 75 57 74 58 33 60 63 61 44 62 62 63 45 64 48 65
REMARK SMILES IDX 61 66 79 67 46 68 47 69 60 71 80 72 49 73 34 74 35 75 43 76
REMARK SMILES IDX 36 77 42 78 37 79 38 80 39 81 40 82 41 83 64 84 65 85 73 86
REMARK SMILES IDX 66 87 72 88 67 89 68 90 69 91 70 92 71 93 50 94 51 95 59 96
REMARK SMILES IDX 52 97 58 98 53 99 54 100 55 101 56 102 57 103
REMARK H PARENT 6 20 86 23 78 59 48 70
REMARK Flexibility Score: inf
ROOT
ATOM      1  O   UNL     1      -1.195  -2.994  -1.157  1.00  0.00    -0.377 OA
ENDROOT
BRANCH   1   2
ATOM      2  C   UNL     1      -2.286  -3.727  -1.677  1.00  0.00     0.188 C 
BRANCH   2   3
ATOM      3  C   UNL     1      -2.591  -3.577  -3.181  1.00  0.00     0.188 C 
BRANCH   3   4
ATOM      4  O   UNL     1      -2.863  -2.298  -3.741  1.00  0.00    -0.376 OA
BRANCH   4   5
ATOM      5  C   UNL     1      -4.000  -1.529  -3.364  1.00  0.00     0.202 C 
BRANCH   5   6
ATOM      6  C   UNL     1      -5.301  -2.258  -3.050  1.00  0.00     0.261 C 
BRANCH   6   7
ATOM      7  O   UNL     1      -5.082  -3.135  -1.938  1.00  0.00    -0.459 OA
BRANCH   7   8
ATOM      8  C   UNL     1      -6.004  -4.089  -1.695  1.00  0.00     0.357 C 
ATOM      9  O   UNL     1      -7.044  -4.216  -2.345  1.00  0.00    -0.244 OA
BRANCH   8  10
ATOM     10  C   UNL     1      -5.453  -5.102  -0.835  1.00  0.00     0.149 A 
ATOM     11  C   UNL     1      -4.221  -9.896   2.686  1.00  0.00     0.044 C 
ATOM     12  C   UNL     1      -4.363  -8.954   1.525  1.00  0.00    -0.050 A 
ATOM     13  C   UNL     1      -4.246  -9.434   0.218  1.00  0.00     0.005 A 
ATOM     14  C   UNL     1      -4.634  -7.588   1.753  1.00  0.00     0.016 A 
ATOM     15  C   UNL     1      -4.435  -8.591  -0.875  1.00  0.00     0.027 A 
ATOM     16  C   UNL     1      -4.867  -6.714   0.663  1.00  0.00     0.024 A 
ATOM     17  C   UNL     1      -4.768  -7.260  -0.611  1.00  0.00     0.048 A 
ATOM     18  C   UNL     1      -5.218  -5.300   0.532  1.00  0.00     0.082 A 
ATOM     19  N   UNL     1      -5.088  -6.266  -1.482  1.00  0.00    -0.347 N 
ATOM     20  H   UNL     1      -5.061  -6.364  -2.461  1.00  0.00     0.167 HD
BRANCH  18  21
ATOM     21  N   UNL     1      -5.322  -4.495   1.683  1.00  0.00    -0.323 N 
ATOM     22  C   UNL     1      -5.412  -3.134   1.930  1.00  0.00     0.228 C 
ATOM     23  H   UNL     1      -5.334  -5.027   2.512  1.00  0.00     0.170 HD
ATOM     24  O   UNL     1      -5.484  -2.705   3.075  1.00  0.00    -0.274 OA
BRANCH  22  25
ATOM     25  C   UNL     1      -5.336  -2.239   0.783  1.00  0.00     0.087 C 
ATOM     26  C   UNL     1      -6.683  -1.823   0.258  1.00  0.00     0.023 C 
ATOM     27  C   UNL     1      -5.570  -0.817   0.398  1.00  0.00     0.032 C 
BRANCH  27  28
ATOM     28  C   UNL     1      -6.051   0.503   0.903  1.00  0.00    -0.044 A 
ATOM     29  C   UNL     1      -6.968   1.193   0.071  1.00  0.00     0.004 A 
ATOM     30  C   UNL     1      -5.505   1.211   1.972  1.00  0.00     0.004 A 
ATOM     31  C   UNL     1      -7.294   2.532   0.256  1.00  0.00     0.000 A 
ATOM     32  C   UNL     1      -5.833   2.563   2.162  1.00  0.00     0.000 A 
ATOM     33  C   UNL     1      -6.710   3.224   1.302  1.00  0.00     0.000 A 
ENDBRANCH  27  28
ENDBRANCH  22  25
ENDBRANCH  18  21
ENDBRANCH   8  10
ENDBRANCH   7   8
ENDBRANCH   6   7
ENDBRANCH   5   6
ENDBRANCH   4   5
ENDBRANCH   3   4
ENDBRANCH   2   3
ENDBRANCH   1   2
BRANCH   1  34
ATOM     34  C   UNL     1      -1.390  -1.594  -1.087  1.00  0.00     0.188 C 
BRANCH  34  35
ATOM     35  C   UNL     1      -0.669  -0.796  -2.188  1.00  0.00     0.188 C 
BRANCH  35  36
ATOM     36  O   UNL     1       0.307  -1.385  -3.039  1.00  0.00    -0.376 OA
BRANCH  36  37
ATOM     37  C   UNL     1       1.020  -2.541  -2.637  1.00  0.00     0.202 C 
BRANCH  37  38
ATOM     38  C   UNL     1       1.925  -2.482  -1.397  1.00  0.00     0.261 C 
BRANCH  38  39
ATOM     39  O   UNL     1       1.455  -1.685  -0.303  1.00  0.00    -0.460 OA
BRANCH  39  40
ATOM     40  C   UNL     1       1.931  -0.418  -0.281  1.00  0.00     0.338 C 
ATOM     41  O   UNL     1       2.692   0.100  -1.082  1.00  0.00    -0.246 OA
BRANCH  40  42
ATOM     42  C   UNL     1       1.292   0.330   0.817  1.00  0.00     0.060 A 
ATOM     43  C   UNL     1       0.593   1.502   0.501  1.00  0.00     0.016 A 
ATOM     44  C   UNL     1       1.455  -0.064   2.147  1.00  0.00     0.016 A 
ATOM     45  C   UNL     1       0.087   2.308   1.517  1.00  0.00     0.010 A 
ATOM     46  C   UNL     1       0.974   0.762   3.167  1.00  0.00     0.010 A 
ATOM     47  C   UNL     1       0.325   1.969   2.854  1.00  0.00    -0.014 A 
BRANCH  47  48
ATOM     48  C   UNL     1       0.083   2.983   3.907  1.00  0.00     0.031 A 
ATOM     49  C   UNL     1       1.231   3.851   4.338  1.00  0.00     0.074 A 
ATOM     50  C   UNL     1      -1.135   3.142   4.452  1.00  0.00     0.049 A 
ATOM     51  N   UNL     1       1.265   4.782   5.255  1.00  0.00    -0.248 NA
ATOM     52  C   UNL     1       2.514   3.634   3.648  1.00  0.00     0.031 C 
ATOM     53  C   UNL     1      -2.320   2.368   4.096  1.00  0.00     0.029 A 
ATOM     54  N   UNL     1      -1.571   4.002   5.428  1.00  0.00    -0.354 N 
ATOM     55  C   UNL     1       2.575   5.246   5.268  1.00  0.00     0.074 A 
ATOM     56  C   UNL     1       3.307   4.486   4.280  1.00  0.00     0.031 C 
ATOM     57  C   UNL     1      -3.348   2.781   4.857  1.00  0.00     0.029 A 
ATOM     58  C   UNL     1      -2.898   3.844   5.748  1.00  0.00     0.049 A 
ATOM     59  H   UNL     1      -0.988   4.668   5.859  1.00  0.00     0.167 HD
ATOM     60  C   UNL     1       3.118   6.216   6.040  1.00  0.00     0.031 A 
ATOM     61  C   UNL     1      -3.659   4.477   6.663  1.00  0.00     0.031 A 
ATOM     62  C   UNL     1       2.385   6.954   7.034  1.00  0.00     0.049 A 
ATOM     63  C   UNL     1      -3.023   5.527   7.535  1.00  0.00     0.074 A 
ATOM     64  C   UNL     1       2.840   7.961   7.866  1.00  0.00     0.029 A 
ATOM     65  N   UNL     1       1.046   6.756   7.338  1.00  0.00    -0.354 N 
ATOM     66  N   UNL     1      -1.789   5.973   7.521  1.00  0.00    -0.248 NA
ATOM     67  C   UNL     1      -3.878   6.152   8.554  1.00  0.00     0.031 C 
ATOM     68  C   UNL     1       1.791   8.333   8.713  1.00  0.00     0.029 A 
ATOM     69  C   UNL     1       0.664   7.604   8.364  1.00  0.00     0.049 A 
ATOM     70  H   UNL     1       0.455   6.109   6.890  1.00  0.00     0.167 HD
ATOM     71  C   UNL     1      -1.722   6.937   8.522  1.00  0.00     0.074 A 
ATOM     72  C   UNL     1      -3.047   7.029   9.101  1.00  0.00     0.031 C 
ATOM     73  C   UNL     1      -0.659   7.674   8.931  1.00  0.00     0.031 A 
BRANCH  60  74
ATOM     74  C   UNL     1       4.586   6.496   5.868  1.00  0.00    -0.014 A 
ATOM     75  C   UNL     1       5.081   7.129   4.713  1.00  0.00     0.010 A 
ATOM     76  C   UNL     1       5.484   6.139   6.890  1.00  0.00     0.010 A 
ATOM     77  C   UNL     1       6.451   7.364   4.568  1.00  0.00     0.020 A 
ATOM     78  C   UNL     1       6.851   6.398   6.761  1.00  0.00     0.020 A 
ATOM     79  C   UNL     1       7.328   6.995   5.593  1.00  0.00     0.054 A 
BRANCH  79  80
ATOM     80  S   UNL     1       9.098   7.335   5.389  1.00  0.00     0.124 S 
ATOM     81  O   UNL     1       9.481   6.345   4.385  1.00  0.00    -0.237 OA
ATOM     82  O   UNL     1       9.107   8.723   4.937  1.00  0.00    -0.237 OA
ATOM     83  O   UNL     1       9.650   7.113   6.723  1.00  0.00    -0.744 OA
ENDBRANCH  79  80
ENDBRANCH  60  74
BRANCH  61  84
ATOM     84  C   UNL     1      -5.102   4.128   6.811  1.00  0.00    -0.014 A 
ATOM     85  C   UNL     1      -6.102   5.057   6.472  1.00  0.00     0.010 A 
ATOM     86  C   UNL     1      -5.485   2.862   7.290  1.00  0.00     0.010 A 
ATOM     87  C   UNL     1      -7.454   4.734   6.628  1.00  0.00     0.020 A 
ATOM     88  C   UNL     1      -6.836   2.523   7.415  1.00  0.00     0.020 A 
ATOM     89  C   UNL     1      -7.813   3.468   7.098  1.00  0.00     0.054 A 
BRANCH  89  90
ATOM     90  S   UNL     1      -9.574   3.060   7.261  1.00  0.00     0.124 S 
ATOM     91  O   UNL     1      -9.958   3.840   8.433  1.00  0.00    -0.237 OA
ATOM     92  O   UNL     1     -10.124   3.520   5.988  1.00  0.00    -0.237 OA
ATOM     93  O   UNL     1      -9.576   1.611   7.447  1.00  0.00    -0.744 OA
ENDBRANCH  89  90
ENDBRANCH  61  84
BRANCH  73  94
ATOM     94  C   UNL     1      -0.889   8.661  10.045  1.00  0.00    -0.014 A 
ATOM     95  C   UNL     1      -1.087   8.230  11.369  1.00  0.00     0.010 A 
ATOM     96  C   UNL     1      -0.846  10.040   9.771  1.00  0.00     0.010 A 
ATOM     97  C   UNL     1      -1.270   9.162  12.394  1.00  0.00     0.020 A 
ATOM     98  C   UNL     1      -0.998  10.975  10.798  1.00  0.00     0.020 A 
ATOM     99  C   UNL     1      -1.223  10.529  12.102  1.00  0.00     0.054 A 
BRANCH  99 100
ATOM    100  S   UNL     1      -1.419  11.718  13.457  1.00  0.00     0.124 S 
ATOM    101  O   UNL     1      -2.846  11.614  13.749  1.00  0.00    -0.237 OA
ATOM    102  O   UNL     1      -0.526  11.184  14.483  1.00  0.00    -0.237 OA
ATOM    103  O   UNL     1      -0.994  12.987  12.870  1.00  0.00    -0.744 OA
ENDBRANCH  99 100
ENDBRANCH  73  94
ENDBRANCH  47  48
ENDBRANCH  40  42
ENDBRANCH  39  40
ENDBRANCH  38  39
ENDBRANCH  37  38
ENDBRANCH  36  37
ENDBRANCH  35  36
ENDBRANCH  34  35
ENDBRANCH   1  34
TORSDOF 26
