REMARK SMILES C[C@@H]1CN(c2cc(C(=O)OCCOCCOCCOCCOC(=O)c3ccc(-c4c5nc(c(-c6ccc(S(=O)(=O)[O-])cc6)c6ccc([nH]6)c(-c6ccc(S(=O)(=O)[O-])cc6)c6nc(c(-c7ccc(S(=O)(=O)[O-])cc7)c7ccc4[nH]7)C=C6)C=C5)cc3)c(F)cc2F)S(=O)(=O)C1
REMARK SMILES IDX 17 1 16 2 15 3 14 4 13 5 12 6 11 7 10 8 8 9 9 10 7 11 5 12
REMARK SMILES IDX 6 13 88 14 87 15 89 16 85 17 86 18 4 19 1 20 2 21 3 22 93 23
REMARK SMILES IDX 90 24 91 25 92 26 18 27 19 28 20 29 21 30 22 31 23 32 24 33
REMARK SMILES IDX 25 34 26 35 84 36 27 37 83 38 28 39 29 40 30 41 77 42 31 43
REMARK SMILES IDX 82 44 76 45 78 46 32 47 81 48 75 49 74 50 33 52 63 53 44 54
REMARK SMILES IDX 62 55 45 56 48 57 61 58 79 59 46 60 47 61 60 63 80 64 49 65
REMARK SMILES IDX 34 66 35 67 43 68 36 69 42 70 37 71 38 72 39 73 40 74 41 75
REMARK SMILES IDX 64 76 65 77 73 78 66 79 72 80 67 81 68 82 69 83 70 84 71 85
REMARK SMILES IDX 50 86 51 87 59 88 52 89 58 90 53 91 54 92 55 93 56 94 57 95
REMARK H PARENT 78 51 48 62
REMARK Flexibility Score: inf
ROOT
ATOM      1  C   UNL     1       2.733  -3.716   9.287  1.00  0.00     0.188 C 
ENDROOT
BRANCH   1   2
ATOM      2  O   UNL     1       2.945  -4.030   7.912  1.00  0.00    -0.377 OA
BRANCH   2   3
ATOM      3  C   UNL     1       2.140  -3.433   6.909  1.00  0.00     0.188 C 
BRANCH   3   4
ATOM      4  C   UNL     1       0.605  -3.437   7.068  1.00  0.00     0.188 C 
BRANCH   4   5
ATOM      5  O   UNL     1       0.161  -3.825   8.351  1.00  0.00    -0.376 OA
BRANCH   5   6
ATOM      6  C   UNL     1      -0.380  -5.117   8.553  1.00  0.00     0.202 C 
BRANCH   6   7
ATOM      7  C   UNL     1       0.358  -6.373   8.059  1.00  0.00     0.261 C 
BRANCH   7   8
ATOM      8  O   UNL     1       1.065  -6.250   6.821  1.00  0.00    -0.460 OA
BRANCH   8   9
ATOM      9  C   UNL     1       0.358  -6.394   5.682  1.00  0.00     0.341 C 
ATOM     10  O   UNL     1      -0.843  -6.574   5.584  1.00  0.00    -0.246 OA
BRANCH   9  11
ATOM     11  C   UNL     1       1.225  -5.992   4.557  1.00  0.00     0.098 A 
ATOM     12  C   UNL     1       1.534  -4.522   2.660  1.00  0.00     0.088 A 
ATOM     13  C   UNL     1       0.716  -5.048   3.658  1.00  0.00     0.048 A 
ATOM     14  C   UNL     1       2.861  -4.959   2.551  1.00  0.00     0.150 A 
ATOM     15  C   UNL     1       3.366  -5.919   3.428  1.00  0.00     0.081 A 
ATOM     16  F   UNL     1       3.667  -4.451   1.607  1.00  0.00    -0.205 F 
ATOM     17  C   UNL     1       2.544  -6.428   4.433  1.00  0.00     0.140 A 
ATOM     18  F   UNL     1       3.051  -7.335   5.278  1.00  0.00    -0.206 F 
BRANCH  12  19
ATOM     19  N   UNL     1       0.927  -3.580   1.779  1.00  0.00    -0.267 N 
ATOM     20  C   UNL     1       1.173  -0.176   0.165  1.00  0.00     0.011 C 
ATOM     21  C   UNL     1       0.637  -1.546   0.543  1.00  0.00     0.023 C 
ATOM     22  C   UNL     1       1.316  -2.155   1.784  1.00  0.00     0.140 C 
ATOM     23  C   UNL     1       0.834  -2.575  -0.568  1.00  0.00     0.165 C 
ATOM     24  S   UNL     1       0.484  -4.131   0.226  1.00  0.00     0.235 S 
ATOM     25  O   UNL     1       1.419  -5.127  -0.252  1.00  0.00    -0.206 OA
ATOM     26  O   UNL     1      -0.943  -4.346   0.229  1.00  0.00    -0.206 OA
ENDBRANCH  12  19
ENDBRANCH   9  11
ENDBRANCH   8   9
ENDBRANCH   7   8
ENDBRANCH   6   7
ENDBRANCH   5   6
ENDBRANCH   4   5
ENDBRANCH   3   4
ENDBRANCH   2   3
ENDBRANCH   1   2
BRANCH   1  27
ATOM     27  C   UNL     1       2.059  -2.393   9.724  1.00  0.00     0.188 C 
BRANCH  27  28
ATOM     28  O   UNL     1       1.858  -1.452   8.682  1.00  0.00    -0.376 OA
BRANCH  28  29
ATOM     29  C   UNL     1       2.698  -0.312   8.660  1.00  0.00     0.202 C 
BRANCH  29  30
ATOM     30  C   UNL     1       4.194  -0.565   8.428  1.00  0.00     0.261 C 
BRANCH  30  31
ATOM     31  O   UNL     1       4.829  -1.465   9.349  1.00  0.00    -0.460 OA
BRANCH  31  32
ATOM     32  C   UNL     1       4.899  -1.062  10.638  1.00  0.00     0.338 C 
ATOM     33  O   UNL     1       4.498  -0.008  11.096  1.00  0.00    -0.246 OA
BRANCH  32  34
ATOM     34  C   UNL     1       5.370  -2.204  11.448  1.00  0.00     0.060 A 
ATOM     35  C   UNL     1       4.543  -2.690  12.468  1.00  0.00     0.016 A 
ATOM     36  C   UNL     1       6.616  -2.788  11.206  1.00  0.00     0.016 A 
ATOM     37  C   UNL     1       4.982  -3.734  13.280  1.00  0.00     0.010 A 
ATOM     38  C   UNL     1       7.061  -3.825  12.033  1.00  0.00     0.010 A 
ATOM     39  C   UNL     1       6.261  -4.275  13.098  1.00  0.00    -0.014 A 
BRANCH  39  40
ATOM     40  C   UNL     1       6.806  -5.187  14.134  1.00  0.00     0.031 A 
ATOM     41  C   UNL     1       7.748  -4.629  15.168  1.00  0.00     0.074 A 
ATOM     42  C   UNL     1       6.420  -6.473  14.197  1.00  0.00     0.049 A 
ATOM     43  N   UNL     1       8.286  -5.220  16.204  1.00  0.00    -0.248 NA
ATOM     44  C   UNL     1       8.134  -3.217  15.013  1.00  0.00     0.031 C 
ATOM     45  C   UNL     1       5.496  -7.124  13.269  1.00  0.00     0.029 A 
ATOM     46  N   UNL     1       6.754  -7.461  15.090  1.00  0.00    -0.354 N 
ATOM     47  C   UNL     1       9.079  -4.257  16.819  1.00  0.00     0.074 A 
ATOM     48  C   UNL     1       8.978  -3.054  16.021  1.00  0.00     0.031 C 
ATOM     49  C   UNL     1       5.335  -8.405  13.643  1.00  0.00     0.029 A 
ATOM     50  C   UNL     1       6.164  -8.671  14.818  1.00  0.00     0.049 A 
ATOM     51  H   UNL     1       7.359  -7.315  15.853  1.00  0.00     0.167 HD
ATOM     52  C   UNL     1       9.820  -4.362  17.948  1.00  0.00     0.031 A 
ATOM     53  C   UNL     1       6.286  -9.862  15.438  1.00  0.00     0.031 A 
ATOM     54  C   UNL     1       9.934  -5.567  18.728  1.00  0.00     0.049 A 
ATOM     55  C   UNL     1       7.149  -9.967  16.668  1.00  0.00     0.074 A 
ATOM     56  C   UNL     1      10.634  -5.767  19.905  1.00  0.00     0.029 A 
ATOM     57  N   UNL     1       9.349  -6.782  18.401  1.00  0.00    -0.354 N 
ATOM     58  N   UNL     1       7.852  -9.034  17.267  1.00  0.00    -0.248 NA
ATOM     59  C   UNL     1       7.218 -11.283  17.317  1.00  0.00     0.031 C 
ATOM     60  C   UNL     1      10.534  -7.120  20.248  1.00  0.00     0.029 A 
ATOM     61  C   UNL     1       9.704  -7.745  19.332  1.00  0.00     0.049 A 
ATOM     62  H   UNL     1       8.767  -6.937  17.623  1.00  0.00     0.167 HD
ATOM     63  C   UNL     1       8.429  -9.646  18.376  1.00  0.00     0.074 A 
ATOM     64  C   UNL     1       7.968 -11.020  18.377  1.00  0.00     0.031 C 
ATOM     65  C   UNL     1       9.262  -9.119  19.310  1.00  0.00     0.031 A 
BRANCH  52  66
ATOM     66  C   UNL     1      10.612  -3.151  18.374  1.00  0.00    -0.014 A 
ATOM     67  C   UNL     1       9.983  -1.982  18.843  1.00  0.00     0.010 A 
ATOM     68  C   UNL     1      12.018  -3.193  18.323  1.00  0.00     0.010 A 
ATOM     69  C   UNL     1      10.742  -0.866  19.207  1.00  0.00     0.020 A 
ATOM     70  C   UNL     1      12.781  -2.091  18.716  1.00  0.00     0.020 A 
ATOM     71  C   UNL     1      12.137  -0.927  19.138  1.00  0.00     0.054 A 
BRANCH  71  72
ATOM     72  S   UNL     1      13.099   0.532  19.625  1.00  0.00     0.124 S 
ATOM     73  O   UNL     1      12.817   1.458  18.530  1.00  0.00    -0.237 OA
ATOM     74  O   UNL     1      12.510   0.886  20.914  1.00  0.00    -0.237 OA
ATOM     75  O   UNL     1      14.473   0.040  19.684  1.00  0.00    -0.744 OA
ENDBRANCH  71  72
ENDBRANCH  52  66
BRANCH  53  76
ATOM     76  C   UNL     1       5.581 -11.054  14.889  1.00  0.00    -0.014 A 
ATOM     77  C   UNL     1       4.513 -11.652  15.580  1.00  0.00     0.010 A 
ATOM     78  C   UNL     1       5.974 -11.588  13.647  1.00  0.00     0.010 A 
ATOM     79  C   UNL     1       3.856 -12.764  15.043  1.00  0.00     0.020 A 
ATOM     80  C   UNL     1       5.299 -12.678  13.092  1.00  0.00     0.020 A 
ATOM     81  C   UNL     1       4.247 -13.264  13.797  1.00  0.00     0.054 A 
BRANCH  81  82
ATOM     82  S   UNL     1       3.329 -14.657  13.085  1.00  0.00     0.124 S 
ATOM     83  O   UNL     1       3.743 -15.764  13.940  1.00  0.00    -0.237 OA
ATOM     84  O   UNL     1       1.941 -14.225  13.234  1.00  0.00    -0.237 OA
ATOM     85  O   UNL     1       3.810 -14.715  11.707  1.00  0.00    -0.744 OA
ENDBRANCH  81  82
ENDBRANCH  53  76
BRANCH  65  86
ATOM     86  C   UNL     1       9.708 -10.030  20.428  1.00  0.00    -0.014 A 
ATOM     87  C   UNL     1      10.555 -11.129  20.190  1.00  0.00     0.010 A 
ATOM     88  C   UNL     1       9.273  -9.779  21.742  1.00  0.00     0.010 A 
ATOM     89  C   UNL     1      10.899 -11.996  21.231  1.00  0.00     0.020 A 
ATOM     90  C   UNL     1       9.647 -10.621  22.793  1.00  0.00     0.020 A 
ATOM     91  C   UNL     1      10.435 -11.741  22.525  1.00  0.00     0.054 A 
BRANCH  91  92
ATOM     92  S   UNL     1      10.880 -12.890  23.856  1.00  0.00     0.124 S 
ATOM     93  O   UNL     1      10.054 -14.053  23.541  1.00  0.00    -0.237 OA
ATOM     94  O   UNL     1      12.316 -13.067  23.660  1.00  0.00    -0.237 OA
ATOM     95  O   UNL     1      10.507 -12.173  25.073  1.00  0.00    -0.744 OA
ENDBRANCH  91  92
ENDBRANCH  65  86
ENDBRANCH  39  40
ENDBRANCH  32  34
ENDBRANCH  31  32
ENDBRANCH  30  31
ENDBRANCH  29  30
ENDBRANCH  28  29
ENDBRANCH  27  28
ENDBRANCH   1  27
TORSDOF 24
