REMARK SMILES Cc1ccc(S(=O)(=O)n2cc(C(=O)C(=O)NCC(=O)NCC(=O)OCCOCCOCCOCCOC(=O)c3ccc(-c4c5nc(c(-c6ccc(S(=O)(=O)[O-])cc6)c6ccc([nH]6)c(-c6ccc(S(=O)(=O)[O-])cc6)c6nc(c(-c7ccc(S(=O)(=O)[O-])cc7)c7ccc4[nH]7)C=C6)C=C5)cc3)c3ccccc32)cc1
REMARK SMILES IDX 28 1 27 2 26 3 25 4 24 5 22 6 23 7 21 8 20 9 18 10 19 11
REMARK SMILES IDX 17 13 16 14 14 15 15 16 12 18 13 19 11 20 9 21 10 22 104 23
REMARK SMILES IDX 99 24 103 25 100 26 102 27 101 28 6 29 7 30 8 31 5 32 1 33
REMARK SMILES IDX 2 34 3 35 106 36 4 37 105 38 29 39 30 40 31 41 32 42 33 43
REMARK SMILES IDX 34 44 35 45 36 46 37 47 38 48 39 49 40 50 98 51 41 52 97 53
REMARK SMILES IDX 42 54 43 55 44 56 91 57 45 58 96 59 90 60 92 61 46 62 95 63
REMARK SMILES IDX 89 64 88 65 47 67 77 68 58 69 76 70 59 71 62 72 75 73 93 74
REMARK SMILES IDX 60 75 61 76 74 78 94 79 63 80 48 81 49 82 57 83 50 84 56 85
REMARK SMILES IDX 51 86 52 87 53 88 54 89 55 90 78 91 79 92 87 93 80 94 86 95
REMARK SMILES IDX 81 96 82 97 83 98 84 99 85 100 64 101 65 102 73 103 66 104
REMARK SMILES IDX 72 105 67 106 68 107 69 108 70 109 71 110
REMARK H PARENT 20 12 16 17 92 66 62 77
REMARK Flexibility Score: inf
ROOT
ATOM      1  C   UNL     1     -11.550   4.510  -1.679  1.00  0.00     0.188 C 
ENDROOT
BRANCH   1   2
ATOM      2  O   UNL     1     -11.523   3.087  -1.660  1.00  0.00    -0.376 OA
BRANCH   2   3
ATOM      3  C   UNL     1     -10.894   2.461  -0.544  1.00  0.00     0.202 C 
BRANCH   3   4
ATOM      4  C   UNL     1      -9.389   2.602  -0.567  1.00  0.00     0.261 C 
BRANCH   4   5
ATOM      5  O   UNL     1      -9.042   3.780   0.179  1.00  0.00    -0.462 OA
BRANCH   5   6
ATOM      6  C   UNL     1      -8.230   4.668  -0.425  1.00  0.00     0.325 C 
ATOM      7  O   UNL     1      -7.647   4.500  -1.487  1.00  0.00    -0.250 OA
BRANCH   6   8
ATOM      8  C   UNL     1      -8.240   6.004   0.303  1.00  0.00     0.238 C 
BRANCH   8   9
ATOM      9  N   UNL     1      -8.901   6.083   1.602  1.00  0.00    -0.344 N 
ATOM     10  C   UNL     1      -8.450   6.650   2.754  1.00  0.00     0.239 C 
ATOM     11  O   UNL     1      -9.248   6.920   3.651  1.00  0.00    -0.273 OA
ATOM     12  H   UNL     1      -9.793   5.670   1.651  1.00  0.00     0.164 HD
BRANCH  10  13
ATOM     13  C   UNL     1      -6.952   6.790   2.972  1.00  0.00     0.216 C 
BRANCH  13  14
ATOM     14  N   UNL     1      -6.476   5.492   3.428  1.00  0.00    -0.340 N 
ATOM     15  C   UNL     1      -5.644   4.569   2.839  1.00  0.00     0.292 C 
ATOM     16  O   UNL     1      -5.452   3.504   3.412  1.00  0.00    -0.265 OA
ATOM     17  H   UNL     1      -6.808   5.229   4.317  1.00  0.00     0.164 HD
BRANCH  15  18
ATOM     18  C   UNL     1      -4.941   4.877   1.493  1.00  0.00     0.252 C 
ATOM     19  O   UNL     1      -4.798   6.055   1.173  1.00  0.00    -0.283 OA
BRANCH  18  20
ATOM     20  C   UNL     1      -4.456   3.804   0.616  1.00  0.00     0.054 A 
ATOM     21  N   UNL     1      -3.824   1.800  -0.148  1.00  0.00    -0.240 N 
ATOM     22  C   UNL     1      -4.154   2.507   0.981  1.00  0.00     0.117 A 
ATOM     23  C   UNL     1      -3.678   2.650  -1.224  1.00  0.00     0.065 A 
ATOM     24  C   UNL     1      -4.108   3.909  -0.778  1.00  0.00     0.012 A 
ATOM     25  C   UNL     1      -3.199   2.447  -2.531  1.00  0.00     0.028 A 
ATOM     26  C   UNL     1      -4.102   4.981  -1.698  1.00  0.00     0.011 A 
ATOM     27  C   UNL     1      -3.160   3.540  -3.399  1.00  0.00     0.002 A 
ATOM     28  C   UNL     1      -3.617   4.788  -2.995  1.00  0.00     0.001 A 
BRANCH  21  29
ATOM     29  S   UNL     1      -3.361   0.158  -0.114  1.00  0.00     0.268 S 
ATOM     30  O   UNL     1      -3.780  -0.391  -1.392  1.00  0.00    -0.201 OA
ATOM     31  O   UNL     1      -3.814  -0.353   1.158  1.00  0.00    -0.201 OA
BRANCH  29  32
ATOM     32  C   UNL     1      -1.594   0.136  -0.062  1.00  0.00     0.088 A 
ATOM     33  C   UNL     1       2.684  -0.137   0.028  1.00  0.00     0.044 C 
ATOM     34  C   UNL     1       1.190  -0.037   0.006  1.00  0.00    -0.051 A 
ATOM     35  C   UNL     1       0.413  -1.201  -0.063  1.00  0.00     0.005 A 
ATOM     36  C   UNL     1       0.559   1.210   0.064  1.00  0.00     0.005 A 
ATOM     37  C   UNL     1      -0.977  -1.118  -0.100  1.00  0.00     0.022 A 
ATOM     38  C   UNL     1      -0.832   1.300   0.038  1.00  0.00     0.022 A 
ENDBRANCH  29  32
ENDBRANCH  21  29
ENDBRANCH  18  20
ENDBRANCH  15  18
ENDBRANCH  13  14
ENDBRANCH  10  13
ENDBRANCH   8   9
ENDBRANCH   6   8
ENDBRANCH   5   6
ENDBRANCH   4   5
ENDBRANCH   3   4
ENDBRANCH   2   3
ENDBRANCH   1   2
BRANCH   1  39
ATOM     39  C   UNL     1     -11.876   5.213  -0.363  1.00  0.00     0.188 C 
BRANCH  39  40
ATOM     40  O   UNL     1     -13.200   5.066   0.079  1.00  0.00    -0.377 OA
BRANCH  40  41
ATOM     41  C   UNL     1     -13.782   3.782   0.132  1.00  0.00     0.188 C 
BRANCH  41  42
ATOM     42  C   UNL     1     -15.283   3.890  -0.180  1.00  0.00     0.188 C 
BRANCH  42  43
ATOM     43  O   UNL     1     -15.800   5.184  -0.476  1.00  0.00    -0.376 OA
BRANCH  43  44
ATOM     44  C   UNL     1     -15.640   6.150   0.582  1.00  0.00     0.202 C 
BRANCH  44  45
ATOM     45  C   UNL     1     -15.893   5.688   2.054  1.00  0.00     0.261 C 
BRANCH  45  46
ATOM     46  O   UNL     1     -15.096   4.523   2.373  1.00  0.00    -0.460 OA
BRANCH  46  47
ATOM     47  C   UNL     1     -15.081   3.880   3.566  1.00  0.00     0.338 C 
ATOM     48  O   UNL     1     -14.299   4.210   4.448  1.00  0.00    -0.246 OA
BRANCH  47  49
ATOM     49  C   UNL     1     -15.661   2.441   3.490  1.00  0.00     0.060 A 
ATOM     50  C   UNL     1     -15.158   1.638   4.503  1.00  0.00     0.016 A 
ATOM     51  C   UNL     1     -15.693   1.801   2.259  1.00  0.00     0.016 A 
ATOM     52  C   UNL     1     -14.120   0.753   4.209  1.00  0.00     0.010 A 
ATOM     53  C   UNL     1     -14.610   1.006   1.902  1.00  0.00     0.010 A 
ATOM     54  C   UNL     1     -13.694   0.663   2.889  1.00  0.00    -0.014 A 
BRANCH  54  55
ATOM     55  C   UNL     1     -12.264   0.600   2.530  1.00  0.00     0.031 A 
ATOM     56  C   UNL     1     -11.769  -0.354   1.491  1.00  0.00     0.074 A 
ATOM     57  C   UNL     1     -11.453   1.580   3.026  1.00  0.00     0.049 A 
ATOM     58  N   UNL     1     -10.542  -0.436   1.104  1.00  0.00    -0.248 NA
ATOM     59  C   UNL     1     -12.622  -1.298   0.767  1.00  0.00     0.031 C 
ATOM     60  C   UNL     1     -10.068   1.887   2.655  1.00  0.00     0.029 A 
ATOM     61  N   UNL     1     -11.651   2.483   4.071  1.00  0.00    -0.354 N 
ATOM     62  C   UNL     1     -10.461  -1.249  -0.008  1.00  0.00     0.074 A 
ATOM     63  C   UNL     1     -11.792  -1.770  -0.175  1.00  0.00     0.031 C 
ATOM     64  C   UNL     1      -9.503   2.690   3.573  1.00  0.00     0.029 A 
ATOM     65  C   UNL     1     -10.416   2.702   4.691  1.00  0.00     0.049 A 
ATOM     66  H   UNL     1     -12.508   2.893   4.327  1.00  0.00     0.167 HD
ATOM     67  C   UNL     1      -9.275  -1.323  -0.683  1.00  0.00     0.031 A 
ATOM     68  C   UNL     1     -10.112   2.107   5.888  1.00  0.00     0.031 A 
ATOM     69  C   UNL     1      -8.178  -0.858   0.177  1.00  0.00     0.049 A 
ATOM     70  C   UNL     1      -9.034   1.002   5.720  1.00  0.00     0.074 A 
ATOM     71  C   UNL     1      -7.220   0.137   0.116  1.00  0.00     0.029 A 
ATOM     72  N   UNL     1      -8.121  -1.353   1.485  1.00  0.00    -0.354 N 
ATOM     73  N   UNL     1      -8.710   0.438   4.574  1.00  0.00    -0.248 NA
ATOM     74  C   UNL     1      -8.190   0.497   6.798  1.00  0.00     0.031 C 
ATOM     75  C   UNL     1      -6.822   0.409   1.460  1.00  0.00     0.029 A 
ATOM     76  C   UNL     1      -7.319  -0.575   2.291  1.00  0.00     0.049 A 
ATOM     77  H   UNL     1      -8.596  -2.159   1.791  1.00  0.00     0.167 HD
ATOM     78  C   UNL     1      -7.615  -0.384   4.710  1.00  0.00     0.074 A 
ATOM     79  C   UNL     1      -7.375  -0.358   6.146  1.00  0.00     0.031 C 
ATOM     80  C   UNL     1      -6.981  -1.000   3.652  1.00  0.00     0.031 A 
BRANCH  67  81
ATOM     81  C   UNL     1      -9.130  -1.682  -2.160  1.00  0.00    -0.014 A 
ATOM     82  C   UNL     1      -7.871  -1.604  -2.799  1.00  0.00     0.010 A 
ATOM     83  C   UNL     1     -10.217  -1.983  -3.011  1.00  0.00     0.010 A 
ATOM     84  C   UNL     1      -7.711  -1.802  -4.189  1.00  0.00     0.020 A 
ATOM     85  C   UNL     1     -10.069  -2.212  -4.393  1.00  0.00     0.020 A 
ATOM     86  C   UNL     1      -8.815  -2.108  -4.981  1.00  0.00     0.054 A 
BRANCH  86  87
ATOM     87  S   UNL     1      -8.606  -2.361  -6.770  1.00  0.00     0.124 S 
ATOM     88  O   UNL     1      -8.202  -1.036  -7.234  1.00  0.00    -0.237 OA
ATOM     89  O   UNL     1      -7.574  -3.392  -6.832  1.00  0.00    -0.237 OA
ATOM     90  O   UNL     1      -9.930  -2.792  -7.217  1.00  0.00    -0.744 OA
ENDBRANCH  86  87
ENDBRANCH  67  81
BRANCH  68  91
ATOM     91  C   UNL     1     -11.217   2.278   6.901  1.00  0.00    -0.014 A 
ATOM     92  C   UNL     1     -11.583   3.620   7.196  1.00  0.00     0.010 A 
ATOM     93  C   UNL     1     -12.156   1.281   7.214  1.00  0.00     0.010 A 
ATOM     94  C   UNL     1     -12.886   3.972   7.591  1.00  0.00     0.020 A 
ATOM     95  C   UNL     1     -13.465   1.631   7.644  1.00  0.00     0.020 A 
ATOM     96  C   UNL     1     -13.839   2.977   7.776  1.00  0.00     0.054 A 
BRANCH  96  97
ATOM     97  S   UNL     1     -15.599   3.468   7.986  1.00  0.00     0.124 S 
ATOM     98  O   UNL     1     -15.668   3.785   9.408  1.00  0.00    -0.237 OA
ATOM     99  O   UNL     1     -15.758   4.606   7.086  1.00  0.00    -0.237 OA
ATOM    100  O   UNL     1     -16.339   2.273   7.581  1.00  0.00    -0.744 OA
ENDBRANCH  96  97
ENDBRANCH  68  91
BRANCH  80 101
ATOM    101  C   UNL     1      -5.924  -2.103   3.735  1.00  0.00    -0.014 A 
ATOM    102  C   UNL     1      -5.076  -2.339   4.820  1.00  0.00     0.010 A 
ATOM    103  C   UNL     1      -5.764  -2.982   2.626  1.00  0.00     0.010 A 
ATOM    104  C   UNL     1      -4.251  -3.478   4.866  1.00  0.00     0.020 A 
ATOM    105  C   UNL     1      -4.939  -4.107   2.648  1.00  0.00     0.020 A 
ATOM    106  C   UNL     1      -4.222  -4.378   3.798  1.00  0.00     0.054 A 
BRANCH 106 107
ATOM    107  S   UNL     1      -3.252  -5.896   3.930  1.00  0.00     0.124 S 
ATOM    108  O   UNL     1      -1.944  -5.404   4.356  1.00  0.00    -0.237 OA
ATOM    109  O   UNL     1      -3.998  -6.645   4.938  1.00  0.00    -0.237 OA
ATOM    110  O   UNL     1      -3.290  -6.462   2.583  1.00  0.00    -0.744 OA
ENDBRANCH 106 107
ENDBRANCH  80 101
ENDBRANCH  54  55
ENDBRANCH  47  49
ENDBRANCH  46  47
ENDBRANCH  45  46
ENDBRANCH  44  45
ENDBRANCH  43  44
ENDBRANCH  42  43
ENDBRANCH  41  42
ENDBRANCH  40  41
ENDBRANCH  39  40
ENDBRANCH   1  39
TORSDOF 30
