REMARK SMILES O=C(OCCOCCOCCOCCOC(=O)c1csc(CNc2ccc(-n3cccn3)nc2)c1)c1ccc(-c2c3nc(c(-c4ccc(S(=O)(=O)[O-])cc4)c4ccc([nH]4)c(-c4ccc(S(=O)(=O)[O-])cc4)c4nc(c(-c5ccc(S(=O)(=O)[O-])cc5)c5ccc2[nH]5)C=C4)C=C3)cc1
REMARK SMILES IDX 10 1 9 2 8 3 7 4 6 5 5 6 4 7 3 8 2 9 1 10 36 11 37 12 95 13
REMARK SMILES IDX 38 14 94 15 39 16 40 17 41 18 88 19 42 20 93 21 87 22 89 23
REMARK SMILES IDX 43 24 92 25 86 26 85 27 44 29 74 30 55 31 73 32 56 33 59 34
REMARK SMILES IDX 72 35 90 36 57 37 58 38 71 40 91 41 60 42 45 43 46 44 54 45
REMARK SMILES IDX 47 46 53 47 48 48 49 49 50 50 51 51 52 52 75 53 76 54 84 55
REMARK SMILES IDX 77 56 83 57 78 58 79 59 80 60 81 61 82 62 61 63 62 64 70 65
REMARK SMILES IDX 63 66 69 67 64 68 65 69 66 70 67 71 68 72 11 73 12 74 13 75
REMARK SMILES IDX 14 76 15 77 16 78 17 79 18 80 19 81 35 82 20 83 21 84 22 85
REMARK SMILES IDX 23 86 24 88 25 89 34 90 26 91 33 92 27 93 28 94 29 95 32 96
REMARK SMILES IDX 30 97 31 98
REMARK H PARENT 89 28 59 39 23 87
REMARK Flexibility Score: inf
ROOT
ATOM      1  C   UNL     1       4.018   2.464   2.517  1.00  0.00     0.188 C 
ENDROOT
BRANCH   1   2
ATOM      2  O   UNL     1       2.713   1.941   2.627  1.00  0.00    -0.377 OA
BRANCH   2   3
ATOM      3  C   UNL     1       2.293   1.149   1.530  1.00  0.00     0.188 C 
BRANCH   3   4
ATOM      4  C   UNL     1       2.948  -0.233   1.433  1.00  0.00     0.188 C 
BRANCH   4   5
ATOM      5  O   UNL     1       4.265  -0.458   0.962  1.00  0.00    -0.376 OA
BRANCH   5   6
ATOM      6  C   UNL     1       4.995   0.313   0.036  1.00  0.00     0.202 C 
BRANCH   6   7
ATOM      7  C   UNL     1       4.460   0.846  -1.293  1.00  0.00     0.261 C 
BRANCH   7   8
ATOM      8  O   UNL     1       3.087   1.214  -1.366  1.00  0.00    -0.460 OA
BRANCH   8   9
ATOM      9  C   UNL     1       1.993   0.474  -1.636  1.00  0.00     0.338 C 
ATOM     10  O   UNL     1       0.907   1.049  -1.696  1.00  0.00    -0.246 OA
BRANCH   9  11
ATOM     11  C   UNL     1       2.003  -1.010  -1.723  1.00  0.00     0.060 A 
ATOM     12  C   UNL     1       3.095  -1.794  -2.088  1.00  0.00     0.016 A 
ATOM     13  C   UNL     1       0.772  -1.644  -1.452  1.00  0.00     0.016 A 
ATOM     14  C   UNL     1       2.948  -3.159  -2.272  1.00  0.00     0.010 A 
ATOM     15  C   UNL     1       0.620  -3.012  -1.630  1.00  0.00     0.010 A 
ATOM     16  C   UNL     1       1.697  -3.749  -2.112  1.00  0.00    -0.014 A 
BRANCH  16  17
ATOM     17  C   UNL     1       1.557  -5.100  -2.634  1.00  0.00     0.031 A 
ATOM     18  C   UNL     1       2.314  -6.189  -1.968  1.00  0.00     0.074 A 
ATOM     19  C   UNL     1       0.797  -5.344  -3.718  1.00  0.00     0.049 A 
ATOM     20  N   UNL     1       3.257  -6.926  -2.463  1.00  0.00    -0.248 NA
ATOM     21  C   UNL     1       2.011  -6.459  -0.558  1.00  0.00     0.031 C 
ATOM     22  C   UNL     1      -0.191  -4.456  -4.339  1.00  0.00     0.029 A 
ATOM     23  N   UNL     1       0.680  -6.497  -4.432  1.00  0.00    -0.354 N 
ATOM     24  C   UNL     1       3.551  -7.876  -1.489  1.00  0.00     0.074 A 
ATOM     25  C   UNL     1       2.830  -7.480  -0.303  1.00  0.00     0.031 C 
ATOM     26  C   UNL     1      -0.970  -5.181  -5.169  1.00  0.00     0.029 A 
ATOM     27  C   UNL     1      -0.439  -6.530  -5.245  1.00  0.00     0.049 A 
ATOM     28  H   UNL     1       1.329  -7.236  -4.375  1.00  0.00     0.167 HD
ATOM     29  C   UNL     1       4.224  -9.028  -1.760  1.00  0.00     0.031 A 
ATOM     30  C   UNL     1      -0.953  -7.614  -5.869  1.00  0.00     0.031 A 
ATOM     31  C   UNL     1       4.919  -8.987  -3.017  1.00  0.00     0.049 A 
ATOM     32  C   UNL     1       0.125  -8.620  -6.001  1.00  0.00     0.074 A 
ATOM     33  C   UNL     1       5.951  -8.237  -3.542  1.00  0.00     0.029 A 
ATOM     34  N   UNL     1       4.355  -9.654  -4.077  1.00  0.00    -0.354 N 
ATOM     35  N   UNL     1       1.176  -8.462  -6.758  1.00  0.00    -0.248 NA
ATOM     36  C   UNL     1       0.232  -9.677  -5.007  1.00  0.00     0.031 C 
ATOM     37  C   UNL     1       5.682  -8.153  -4.938  1.00  0.00     0.029 A 
ATOM     38  C   UNL     1       4.504  -8.863  -5.186  1.00  0.00     0.049 A 
ATOM     39  H   UNL     1       3.922 -10.538  -4.045  1.00  0.00     0.167 HD
ATOM     40  C   UNL     1       2.203  -9.113  -6.092  1.00  0.00     0.074 A 
ATOM     41  C   UNL     1       1.537  -9.946  -5.098  1.00  0.00     0.031 C 
ATOM     42  C   UNL     1       3.502  -8.712  -6.223  1.00  0.00     0.031 A 
BRANCH  29  43
ATOM     43  C   UNL     1       3.980 -10.327  -1.032  1.00  0.00    -0.014 A 
ATOM     44  C   UNL     1       4.830 -11.427  -1.270  1.00  0.00     0.010 A 
ATOM     45  C   UNL     1       2.778 -10.582  -0.339  1.00  0.00     0.010 A 
ATOM     46  C   UNL     1       4.461 -12.726  -0.890  1.00  0.00     0.020 A 
ATOM     47  C   UNL     1       2.423 -11.864   0.083  1.00  0.00     0.020 A 
ATOM     48  C   UNL     1       3.248 -12.935  -0.232  1.00  0.00     0.054 A 
BRANCH  48  49
ATOM     49  S   UNL     1       2.711 -14.627   0.129  1.00  0.00     0.124 S 
ATOM     50  O   UNL     1       2.413 -15.136  -1.206  1.00  0.00    -0.237 OA
ATOM     51  O   UNL     1       3.888 -15.198   0.778  1.00  0.00    -0.237 OA
ATOM     52  O   UNL     1       1.555 -14.438   1.002  1.00  0.00    -0.744 OA
ENDBRANCH  48  49
ENDBRANCH  29  43
BRANCH  30  53
ATOM     53  C   UNL     1      -2.395  -7.915  -6.018  1.00  0.00    -0.014 A 
ATOM     54  C   UNL     1      -2.846  -8.909  -6.901  1.00  0.00     0.010 A 
ATOM     55  C   UNL     1      -3.323  -7.380  -5.097  1.00  0.00     0.010 A 
ATOM     56  C   UNL     1      -4.167  -9.380  -6.835  1.00  0.00     0.020 A 
ATOM     57  C   UNL     1      -4.643  -7.833  -5.034  1.00  0.00     0.020 A 
ATOM     58  C   UNL     1      -5.053  -8.848  -5.891  1.00  0.00     0.054 A 
BRANCH  58  59
ATOM     59  S   UNL     1      -6.706  -9.572  -5.705  1.00  0.00     0.124 S 
ATOM     60  O   UNL     1      -7.378  -9.126  -6.921  1.00  0.00    -0.237 OA
ATOM     61  O   UNL     1      -6.418 -11.002  -5.627  1.00  0.00    -0.237 OA
ATOM     62  O   UNL     1      -7.205  -8.977  -4.466  1.00  0.00    -0.744 OA
ENDBRANCH  58  59
ENDBRANCH  30  53
BRANCH  42  63
ATOM     63  C   UNL     1       3.858  -7.779  -7.358  1.00  0.00    -0.014 A 
ATOM     64  C   UNL     1       3.346  -6.471  -7.458  1.00  0.00     0.010 A 
ATOM     65  C   UNL     1       4.883  -8.168  -8.241  1.00  0.00     0.010 A 
ATOM     66  C   UNL     1       3.841  -5.578  -8.418  1.00  0.00     0.020 A 
ATOM     67  C   UNL     1       5.393  -7.276  -9.190  1.00  0.00     0.020 A 
ATOM     68  C   UNL     1       4.869  -5.985  -9.274  1.00  0.00     0.054 A 
BRANCH  68  69
ATOM     69  S   UNL     1       5.580  -4.785 -10.437  1.00  0.00     0.124 S 
ATOM     70  O   UNL     1       4.528  -4.652 -11.440  1.00  0.00    -0.237 OA
ATOM     71  O   UNL     1       5.802  -3.610  -9.597  1.00  0.00    -0.237 OA
ATOM     72  O   UNL     1       6.803  -5.438 -10.905  1.00  0.00    -0.744 OA
ENDBRANCH  68  69
ENDBRANCH  42  63
ENDBRANCH  16  17
ENDBRANCH   9  11
ENDBRANCH   8   9
ENDBRANCH   7   8
ENDBRANCH   6   7
ENDBRANCH   5   6
ENDBRANCH   4   5
ENDBRANCH   3   4
ENDBRANCH   2   3
ENDBRANCH   1   2
BRANCH   1  73
ATOM     73  C   UNL     1       5.080   1.718   3.345  1.00  0.00     0.188 C 
BRANCH  73  74
ATOM     74  O   UNL     1       4.807   1.089   4.594  1.00  0.00    -0.376 OA
BRANCH  74  75
ATOM     75  C   UNL     1       3.509   1.106   5.157  1.00  0.00     0.202 C 
BRANCH  75  76
ATOM     76  C   UNL     1       3.179   2.372   5.957  1.00  0.00     0.261 C 
BRANCH  76  77
ATOM     77  O   UNL     1       3.488   3.600   5.283  1.00  0.00    -0.460 OA
BRANCH  77  78
ATOM     78  C   UNL     1       4.728   4.119   5.520  1.00  0.00     0.339 C 
ATOM     79  O   UNL     1       5.529   3.697   6.347  1.00  0.00    -0.246 OA
BRANCH  78  80
ATOM     80  C   UNL     1       5.069   5.165   4.562  1.00  0.00     0.071 A 
ATOM     81  C   UNL     1       4.212   6.172   4.161  1.00  0.00     0.080 A 
ATOM     82  C   UNL     1       6.311   5.240   3.842  1.00  0.00     0.033 A 
ATOM     83  S   UNL     1       4.887   7.160   2.941  1.00  0.00    -0.146 S 
ATOM     84  C   UNL     1       6.312   6.209   2.857  1.00  0.00     0.025 A 
BRANCH  84  85
ATOM     85  C   UNL     1       7.383   6.466   1.823  1.00  0.00     0.159 C 
BRANCH  85  86
ATOM     86  N   UNL     1       6.929   7.142   0.614  1.00  0.00    -0.379 N 
ATOM     87  H   UNL     1       6.242   6.728   0.043  1.00  0.00     0.160 HD
BRANCH  86  88
ATOM     88  C   UNL     1       7.471   8.371   0.273  1.00  0.00     0.053 A 
ATOM     89  C   UNL     1       8.843   8.566   0.137  1.00  0.00     0.031 A 
ATOM     90  C   UNL     1       6.672   9.505   0.138  1.00  0.00     0.139 A 
ATOM     91  C   UNL     1       9.354   9.831  -0.163  1.00  0.00     0.051 A 
ATOM     92  N   UNL     1       7.132  10.756  -0.102  1.00  0.00    -0.235 NA
ATOM     93  C   UNL     1       8.470  10.905  -0.270  1.00  0.00     0.153 A 
BRANCH  93  94
ATOM     94  N   UNL     1       8.981  12.212  -0.550  1.00  0.00    -0.223 N 
ATOM     95  C   UNL     1      10.199  12.536  -1.123  1.00  0.00     0.117 A 
ATOM     96  N   UNL     1       8.274  13.337  -0.249  1.00  0.00    -0.175 NA
ATOM     97  C   UNL     1      10.283  13.907  -1.150  1.00  0.00     0.042 A 
ATOM     98  C   UNL     1       9.082  14.344  -0.576  1.00  0.00     0.135 A 
ENDBRANCH  93  94
ENDBRANCH  86  88
ENDBRANCH  85  86
ENDBRANCH  84  85
ENDBRANCH  78  80
ENDBRANCH  77  78
ENDBRANCH  76  77
ENDBRANCH  75  76
ENDBRANCH  74  75
ENDBRANCH  73  74
ENDBRANCH   1  73
TORSDOF 27
