REMARK SMILES CC(C)(O)C#Cc1ccc(C(=O)N[C@@H](CCC(N)=O)C(=O)OCCOCCOCCOCCOC(=O)c2ccc(-c3c4nc(c(-c5ccc(S(=O)(=O)[O-])cc5)c5ccc([nH]5)c(-c5ccc(S(=O)(=O)[O-])cc5)c5nc(c(-c6ccc(S(=O)(=O)[O-])cc6)c6ccc3[nH]6)C=C5)C=C4)cc2)s1
REMARK SMILES IDX 27 1 26 2 25 3 24 4 23 5 22 6 20 7 21 8 14 9 13 10 11 11
REMARK SMILES IDX 12 12 10 14 7 15 8 16 97 17 9 18 6 19 5 20 2 21 1 22 3 23
REMARK SMILES IDX 4 24 15 26 16 27 17 28 18 29 19 30 28 33 29 34 30 35 31 36
REMARK SMILES IDX 32 37 33 38 34 39 35 40 36 41 37 42 38 43 96 44 39 45 95 46
REMARK SMILES IDX 40 47 41 48 42 49 89 50 43 51 94 52 88 53 90 54 44 55 93 56
REMARK SMILES IDX 87 57 86 58 45 60 75 61 56 62 74 63 57 64 60 65 73 66 91 67
REMARK SMILES IDX 58 68 59 69 72 71 92 72 61 73 46 74 47 75 55 76 48 77 54 78
REMARK SMILES IDX 49 79 50 80 51 81 52 82 53 83 76 84 77 85 85 86 78 87 84 88
REMARK SMILES IDX 79 89 80 90 81 91 82 92 83 93 62 94 63 95 71 96 64 97 70 98
REMARK SMILES IDX 65 99 66 100 67 101 68 102 69 103
REMARK H PARENT 13 13 4 25 18 31 18 32 90 59 60 70
REMARK Flexibility Score: inf
ROOT
ATOM      1  C   UNL     1      -1.341  -6.480   4.983  1.00  0.00     0.188 C 
ENDROOT
BRANCH   1   2
ATOM      2  C   UNL     1      -1.995  -5.383   4.116  1.00  0.00     0.188 C 
BRANCH   2   3
ATOM      3  O   UNL     1      -3.257  -5.586   3.492  1.00  0.00    -0.376 OA
BRANCH   3   4
ATOM      4  C   UNL     1      -3.538  -6.806   2.826  1.00  0.00     0.202 C 
BRANCH   4   5
ATOM      5  C   UNL     1      -2.504  -7.448   1.893  1.00  0.00     0.261 C 
BRANCH   5   6
ATOM      6  O   UNL     1      -1.137  -7.373   2.335  1.00  0.00    -0.462 OA
BRANCH   6   7
ATOM      7  C   UNL     1      -0.286  -6.645   1.583  1.00  0.00     0.328 C 
ATOM      8  O   UNL     1      -0.599  -6.086   0.535  1.00  0.00    -0.250 OA
BRANCH   7   9
ATOM      9  C   UNL     1       1.187  -6.722   2.055  1.00  0.00     0.193 C 
BRANCH   9  10
ATOM     10  N   UNL     1       1.578  -7.009   3.449  1.00  0.00    -0.338 N 
ATOM     11  C   UNL     1       2.123  -6.252   4.478  1.00  0.00     0.262 C 
ATOM     12  O   UNL     1       2.476  -6.900   5.468  1.00  0.00    -0.268 OA
ATOM     13  H   UNL     1       1.418  -7.946   3.706  1.00  0.00     0.164 HD
BRANCH  11  14
ATOM     14  C   UNL     1       2.220  -4.789   4.484  1.00  0.00     0.093 A 
ATOM     15  C   UNL     1       2.020  -2.351   4.037  1.00  0.00     0.078 A 
ATOM     16  C   UNL     1       2.566  -2.582   5.275  1.00  0.00     0.030 A 
ATOM     17  S   UNL     1       1.680  -3.794   3.223  1.00  0.00    -0.121 S 
ATOM     18  C   UNL     1       2.682  -3.993   5.532  1.00  0.00     0.027 A 
BRANCH  15  19
ATOM     19  C   UNL     1       1.694  -1.128   3.400  1.00  0.00    -0.053 C 
ATOM     20  C   UNL     1       1.286  -0.289   2.637  1.00  0.00    -0.063 C 
BRANCH  20  21
ATOM     21  C   UNL     1       0.712   0.558   1.588  1.00  0.00     0.120 C 
ATOM     22  C   UNL     1       1.159   0.070   0.207  1.00  0.00     0.056 C 
ATOM     23  C   UNL     1       1.103   2.012   1.815  1.00  0.00     0.056 C 
BRANCH  21  24
ATOM     24  O   UNL     1      -0.709   0.456   1.659  1.00  0.00    -0.378 OA
ATOM     25  H   UNL     1      -1.108   1.012   0.971  1.00  0.00     0.212 HD
ENDBRANCH  21  24
ENDBRANCH  20  21
ENDBRANCH  15  19
ENDBRANCH  11  14
ENDBRANCH   9  10
BRANCH   9  26
ATOM     26  C   UNL     1       1.953  -7.636   1.087  1.00  0.00     0.047 C 
BRANCH  26  27
ATOM     27  C   UNL     1       1.817  -9.139   1.313  1.00  0.00     0.102 C 
BRANCH  27  28
ATOM     28  C   UNL     1       0.413  -9.688   1.242  1.00  0.00     0.217 C 
ATOM     29  N   UNL     1      -0.243  -9.508   0.064  1.00  0.00    -0.370 N 
ATOM     30  O   UNL     1      -0.116 -10.287   2.170  1.00  0.00    -0.275 OA
ATOM     31  H   UNL     1       0.194  -9.024  -0.674  1.00  0.00     0.159 HD
ATOM     32  H   UNL     1      -1.155  -9.861  -0.051  1.00  0.00     0.159 HD
ENDBRANCH  27  28
ENDBRANCH  26  27
ENDBRANCH   9  26
ENDBRANCH   7   9
ENDBRANCH   6   7
ENDBRANCH   5   6
ENDBRANCH   4   5
ENDBRANCH   3   4
ENDBRANCH   2   3
ENDBRANCH   1   2
BRANCH   1  33
ATOM     33  O   UNL     1      -1.814  -7.795   4.786  1.00  0.00    -0.377 OA
BRANCH  33  34
ATOM     34  C   UNL     1      -2.773  -8.281   5.713  1.00  0.00     0.188 C 
BRANCH  34  35
ATOM     35  C   UNL     1      -3.849  -7.300   6.246  1.00  0.00     0.188 C 
BRANCH  35  36
ATOM     36  O   UNL     1      -3.425  -5.956   6.429  1.00  0.00    -0.376 OA
BRANCH  36  37
ATOM     37  C   UNL     1      -3.007  -5.415   7.674  1.00  0.00     0.202 C 
BRANCH  37  38
ATOM     38  C   UNL     1      -1.892  -6.081   8.484  1.00  0.00     0.261 C 
BRANCH  38  39
ATOM     39  O   UNL     1      -1.927  -7.489   8.443  1.00  0.00    -0.460 OA
BRANCH  39  40
ATOM     40  C   UNL     1      -3.012  -8.027   9.030  1.00  0.00     0.338 C 
ATOM     41  O   UNL     1      -3.982  -7.435   9.469  1.00  0.00    -0.246 OA
BRANCH  40  42
ATOM     42  C   UNL     1      -2.797  -9.471   9.139  1.00  0.00     0.060 A 
ATOM     43  C   UNL     1      -3.869 -10.169   9.687  1.00  0.00     0.016 A 
ATOM     44  C   UNL     1      -1.466  -9.882   9.274  1.00  0.00     0.016 A 
ATOM     45  C   UNL     1      -3.581 -11.024  10.717  1.00  0.00     0.010 A 
ATOM     46  C   UNL     1      -1.182 -10.704  10.324  1.00  0.00     0.010 A 
ATOM     47  C   UNL     1      -2.243 -11.161  11.102  1.00  0.00    -0.014 A 
BRANCH  47  48
ATOM     48  C   UNL     1      -1.935 -11.971  12.252  1.00  0.00     0.031 A 
ATOM     49  C   UNL     1      -1.978 -13.393  11.860  1.00  0.00     0.074 A 
ATOM     50  C   UNL     1      -1.544 -11.453  13.432  1.00  0.00     0.049 A 
ATOM     51  N   UNL     1      -2.992 -14.187  11.981  1.00  0.00    -0.248 NA
ATOM     52  C   UNL     1      -0.947 -13.877  10.918  1.00  0.00     0.031 C 
ATOM     53  C   UNL     1      -1.255 -10.059  13.778  1.00  0.00     0.029 A 
ATOM     54  N   UNL     1      -1.230 -12.105  14.578  1.00  0.00    -0.354 N 
ATOM     55  C   UNL     1      -2.554 -15.375  11.417  1.00  0.00     0.074 A 
ATOM     56  C   UNL     1      -1.512 -15.010  10.496  1.00  0.00     0.031 C 
ATOM     57  C   UNL     1      -0.568 -10.022  14.948  1.00  0.00     0.029 A 
ATOM     58  C   UNL     1      -0.480 -11.368  15.490  1.00  0.00     0.049 A 
ATOM     59  H   UNL     1      -1.512 -13.032  14.753  1.00  0.00     0.167 HD
ATOM     60  C   UNL     1      -2.722 -16.546  12.092  1.00  0.00     0.031 A 
ATOM     61  C   UNL     1       0.209 -11.868  16.555  1.00  0.00     0.031 A 
ATOM     62  C   UNL     1      -3.710 -16.405  13.138  1.00  0.00     0.049 A 
ATOM     63  C   UNL     1      -0.350 -13.221  16.828  1.00  0.00     0.074 A 
ATOM     64  C   UNL     1      -5.027 -15.989  13.191  1.00  0.00     0.029 A 
ATOM     65  N   UNL     1      -3.224 -16.305  14.421  1.00  0.00    -0.354 N 
ATOM     66  N   UNL     1      -1.569 -13.410  17.251  1.00  0.00    -0.248 NA
ATOM     67  C   UNL     1       0.250 -14.349  16.130  1.00  0.00     0.031 C 
ATOM     68  C   UNL     1      -5.136 -15.252  14.406  1.00  0.00     0.029 A 
ATOM     69  C   UNL     1      -3.918 -15.330  15.083  1.00  0.00     0.049 A 
ATOM     70  H   UNL     1      -2.495 -16.847  14.801  1.00  0.00     0.167 HD
ATOM     71  C   UNL     1      -2.046 -14.472  16.492  1.00  0.00     0.074 A 
ATOM     72  C   UNL     1      -0.855 -15.055  15.868  1.00  0.00     0.031 C 
ATOM     73  C   UNL     1      -3.376 -14.577  16.194  1.00  0.00     0.031 A 
BRANCH  60  74
ATOM     74  C   UNL     1      -1.632 -17.596  12.166  1.00  0.00    -0.014 A 
ATOM     75  C   UNL     1      -1.890 -18.763  12.909  1.00  0.00     0.010 A 
ATOM     76  C   UNL     1      -0.288 -17.367  11.794  1.00  0.00     0.010 A 
ATOM     77  C   UNL     1      -0.849 -19.602  13.325  1.00  0.00     0.020 A 
ATOM     78  C   UNL     1       0.750 -18.216  12.166  1.00  0.00     0.020 A 
ATOM     79  C   UNL     1       0.465 -19.315  12.956  1.00  0.00     0.054 A 
BRANCH  79  80
ATOM     80  S   UNL     1       1.806 -20.369  13.546  1.00  0.00     0.124 S 
ATOM     81  O   UNL     1       1.760 -20.134  14.985  1.00  0.00    -0.237 OA
ATOM     82  O   UNL     1       1.370 -21.689  13.101  1.00  0.00    -0.237 OA
ATOM     83  O   UNL     1       2.983 -19.841  12.859  1.00  0.00    -0.744 OA
ENDBRANCH  79  80
ENDBRANCH  60  74
BRANCH  61  84
ATOM     84  C   UNL     1       1.540 -11.443  17.081  1.00  0.00    -0.014 A 
ATOM     85  C   UNL     1       2.064 -11.980  18.277  1.00  0.00     0.010 A 
ATOM     86  C   UNL     1       2.430 -10.730  16.254  1.00  0.00     0.010 A 
ATOM     87  C   UNL     1       3.434 -11.863  18.596  1.00  0.00     0.020 A 
ATOM     88  C   UNL     1       3.792 -10.606  16.565  1.00  0.00     0.020 A 
ATOM     89  C   UNL     1       4.295 -11.193  17.723  1.00  0.00     0.054 A 
BRANCH  89  90
ATOM     90  S   UNL     1       6.089 -11.196  18.036  1.00  0.00     0.124 S 
ATOM     91  O   UNL     1       6.206 -10.327  19.204  1.00  0.00    -0.237 OA
ATOM     92  O   UNL     1       6.372 -12.609  18.271  1.00  0.00    -0.237 OA
ATOM     93  O   UNL     1       6.655 -10.652  16.802  1.00  0.00    -0.744 OA
ENDBRANCH  89  90
ENDBRANCH  61  84
BRANCH  73  94
ATOM     94  C   UNL     1      -4.358 -13.726  16.963  1.00  0.00    -0.014 A 
ATOM     95  C   UNL     1      -4.397 -12.317  16.944  1.00  0.00     0.010 A 
ATOM     96  C   UNL     1      -5.384 -14.416  17.632  1.00  0.00     0.010 A 
ATOM     97  C   UNL     1      -5.423 -11.623  17.609  1.00  0.00     0.020 A 
ATOM     98  C   UNL     1      -6.414 -13.734  18.277  1.00  0.00     0.020 A 
ATOM     99  C   UNL     1      -6.423 -12.340  18.276  1.00  0.00     0.054 A 
BRANCH  99 100
ATOM    100  S   UNL     1      -7.755 -11.453  19.133  1.00  0.00     0.124 S 
ATOM    101  O   UNL     1      -7.045 -10.795  20.227  1.00  0.00    -0.237 OA
ATOM    102  O   UNL     1      -8.274 -10.566  18.095  1.00  0.00    -0.237 OA
ATOM    103  O   UNL     1      -8.673 -12.514  19.544  1.00  0.00    -0.744 OA
ENDBRANCH  99 100
ENDBRANCH  73  94
ENDBRANCH  47  48
ENDBRANCH  40  42
ENDBRANCH  39  40
ENDBRANCH  38  39
ENDBRANCH  37  38
ENDBRANCH  36  37
ENDBRANCH  35  36
ENDBRANCH  34  35
ENDBRANCH  33  34
ENDBRANCH   1  33
TORSDOF 31
