REMARK SMILES Cc1cccc(O[C@H](C)C(=O)NNC(=O)[C@H]2[C@@H]3CC[C@@H](C3)[C@@H]2C(=O)OCCOCCOCCOCCOC(=O)c2ccc(-c3c4nc(c(-c5ccc(S(=O)(=O)[O-])cc5)c5ccc([nH]5)c(-c5ccc(S(=O)(=O)[O-])cc5)c5nc(c(-c6ccc(S(=O)(=O)[O-])cc6)c6ccc3[nH]6)C=C5)C=C4)cc2)c1
REMARK SMILES IDX 30 1 29 2 28 3 27 4 26 5 25 6 23 7 24 8 22 9 16 10 17 11
REMARK SMILES IDX 18 12 21 13 20 14 19 15 14 16 13 17 15 19 12 20 10 21 11 22
REMARK SMILES IDX 8 24 9 25 7 26 6 27 1 28 2 29 3 30 100 31 4 32 5 33 31 34
REMARK SMILES IDX 32 35 33 36 34 37 35 38 36 39 37 40 38 41 39 42 40 43 41 44
REMARK SMILES IDX 99 45 42 46 98 47 43 48 44 49 45 50 92 51 46 52 97 53 91 54
REMARK SMILES IDX 93 55 47 56 96 57 90 58 89 59 48 61 78 62 59 63 77 64 60 65
REMARK SMILES IDX 63 66 76 67 94 68 61 69 62 70 75 72 95 73 64 74 49 75 50 76
REMARK SMILES IDX 58 77 51 78 57 79 52 80 53 81 54 82 55 83 56 84 79 85 80 86
REMARK SMILES IDX 88 87 81 88 87 89 82 90 83 91 84 92 85 93 86 94 65 95 66 96
REMARK SMILES IDX 74 97 67 98 73 99 68 100 69 101 70 102 71 103 72 104
REMARK H PARENT 13 18 12 23 93 60 63 71
REMARK Flexibility Score: inf
ROOT
ATOM      1  C   UNL     1       4.461   2.087   0.748  1.00  0.00     0.188 C 
ENDROOT
BRANCH   1   2
ATOM      2  C   UNL     1       6.163   2.202   0.833  1.00  0.00     0.188 C 
BRANCH   2   3
ATOM      3  O   UNL     1       7.473   2.469  -0.305  1.00  0.00    -0.376 OA
BRANCH   3   4
ATOM      4  C   UNL     1       7.734   3.465  -1.746  1.00  0.00     0.202 C 
BRANCH   4   5
ATOM      5  C   UNL     1       6.675   3.740  -3.311  1.00  0.00     0.261 C 
BRANCH   5   6
ATOM      6  O   UNL     1       5.162   2.911  -3.775  1.00  0.00    -0.463 OA
BRANCH   6   7
ATOM      7  C   UNL     1       4.577   1.638  -4.047  1.00  0.00     0.310 C 
ATOM      8  O   UNL     1       5.144   0.562  -4.244  1.00  0.00    -0.252 OA
BRANCH   7   9
ATOM      9  C   UNL     1       3.042   1.382  -3.863  1.00  0.00     0.115 C 
ATOM     10  C   UNL     1       2.736   0.199  -2.849  1.00  0.00     0.098 C 
ATOM     11  C   UNL     1       1.805  -0.739  -3.661  1.00  0.00     0.003 C 
ATOM     12  C   UNL     1       2.642  -1.470  -4.729  1.00  0.00     0.005 C 
ATOM     13  C   UNL     1       1.022   0.240  -4.529  1.00  0.00     0.009 C 
ATOM     14  C   UNL     1       2.285   0.879  -5.131  1.00  0.00     0.004 C 
ATOM     15  C   UNL     1       2.895  -0.373  -5.771  1.00  0.00     0.005 C 
BRANCH  10  16
ATOM     16  C   UNL     1       2.197   0.384  -1.413  1.00  0.00     0.242 C 
ATOM     17  N   UNL     1       1.251   1.278  -0.998  1.00  0.00    -0.267 N 
ATOM     18  H   UNL     1       1.059   1.287  -0.033  1.00  0.00     0.191 HD
ATOM     19  O   UNL     1       2.597  -0.399  -0.533  1.00  0.00    -0.273 OA
BRANCH  17  20
ATOM     20  N   UNL     1       0.535   2.164  -1.760  1.00  0.00    -0.264 N 
ATOM     21  C   UNL     1      -0.316   3.138  -1.337  1.00  0.00     0.279 C 
ATOM     22  O   UNL     1      -0.632   3.970  -2.205  1.00  0.00    -0.269 OA
ATOM     23  H   UNL     1       0.650   2.086  -2.734  1.00  0.00     0.191 HD
BRANCH  21  24
ATOM     24  C   UNL     1      -1.006   3.212   0.058  1.00  0.00     0.260 C 
ATOM     25  C   UNL     1      -2.448   2.691  -0.038  1.00  0.00     0.064 C 
BRANCH  24  26
ATOM     26  O   UNL     1      -0.410   3.075   1.330  1.00  0.00    -0.481 OA
BRANCH  26  27
ATOM     27  C   UNL     1      -0.177   1.915   1.990  1.00  0.00     0.120 A 
ATOM     28  C   UNL     1       1.679   1.185   5.252  1.00  0.00     0.044 C 
ATOM     29  C   UNL     1       0.922   0.994   3.973  1.00  0.00    -0.047 A 
ATOM     30  C   UNL     1       0.727  -0.290   3.464  1.00  0.00     0.003 A 
ATOM     31  C   UNL     1       0.449   2.084   3.233  1.00  0.00     0.049 A 
ATOM     32  C   UNL     1       0.039  -0.471   2.265  1.00  0.00     0.004 A 
ATOM     33  C   UNL     1      -0.424   0.627   1.536  1.00  0.00     0.046 A 
ENDBRANCH  26  27
ENDBRANCH  24  26
ENDBRANCH  21  24
ENDBRANCH  17  20
ENDBRANCH  10  16
ENDBRANCH   7   9
ENDBRANCH   6   7
ENDBRANCH   5   6
ENDBRANCH   4   5
ENDBRANCH   3   4
ENDBRANCH   2   3
ENDBRANCH   1   2
BRANCH   1  34
ATOM     34  O   UNL     1       3.381   3.015   0.469  1.00  0.00    -0.377 OA
BRANCH  34  35
ATOM     35  C   UNL     1       3.126   4.314   1.015  1.00  0.00     0.188 C 
BRANCH  35  36
ATOM     36  C   UNL     1       3.256   4.478   2.501  1.00  0.00     0.188 C 
BRANCH  36  37
ATOM     37  O   UNL     1       4.463   3.841   2.871  1.00  0.00    -0.376 OA
BRANCH  37  38
ATOM     38  C   UNL     1       4.514   3.430   4.215  1.00  0.00     0.202 C 
BRANCH  38  39
ATOM     39  C   UNL     1       4.758   4.612   5.142  1.00  0.00     0.261 C 
BRANCH  39  40
ATOM     40  O   UNL     1       6.083   5.134   4.899  1.00  0.00    -0.460 OA
BRANCH  40  41
ATOM     41  C   UNL     1       6.115   6.292   4.165  1.00  0.00     0.338 C 
ATOM     42  O   UNL     1       5.850   7.381   4.624  1.00  0.00    -0.246 OA
BRANCH  41  43
ATOM     43  C   UNL     1       6.484   5.986   2.751  1.00  0.00     0.060 A 
ATOM     44  C   UNL     1       5.935   6.638   1.666  1.00  0.00     0.016 A 
ATOM     45  C   UNL     1       7.327   4.954   2.446  1.00  0.00     0.016 A 
ATOM     46  C   UNL     1       5.894   6.006   0.378  1.00  0.00     0.010 A 
ATOM     47  C   UNL     1       7.346   4.441   1.126  1.00  0.00     0.010 A 
ATOM     48  C   UNL     1       6.334   4.691   0.123  1.00  0.00    -0.014 A 
BRANCH  48  49
ATOM     49  C   UNL     1       5.532   3.541  -1.085  1.00  0.00     0.031 A 
ATOM     50  C   UNL     1       6.113   1.780  -1.755  1.00  0.00     0.074 A 
ATOM     51  C   UNL     1       4.511   4.270  -1.656  1.00  0.00     0.049 A 
ATOM     52  N   UNL     1       6.811   1.658  -2.927  1.00  0.00    -0.248 NA
ATOM     53  C   UNL     1       6.597   0.406  -1.151  1.00  0.00     0.031 C 
ATOM     54  C   UNL     1       3.311   3.813  -2.285  1.00  0.00     0.029 A 
ATOM     55  N   UNL     1       4.503   5.612  -2.063  1.00  0.00    -0.354 N 
ATOM     56  C   UNL     1       7.563   0.551  -3.220  1.00  0.00     0.074 A 
ATOM     57  C   UNL     1       7.529  -0.135  -1.978  1.00  0.00     0.031 C 
ATOM     58  C   UNL     1       2.985   4.585  -3.337  1.00  0.00     0.029 A 
ATOM     59  C   UNL     1       3.914   5.679  -3.326  1.00  0.00     0.049 A 
ATOM     60  H   UNL     1       4.852   6.374  -1.547  1.00  0.00     0.167 HD
ATOM     61  C   UNL     1       8.106   0.258  -4.459  1.00  0.00     0.031 A 
ATOM     62  C   UNL     1       3.949   6.651  -4.252  1.00  0.00     0.031 A 
ATOM     63  C   UNL     1       7.494   0.950  -5.620  1.00  0.00     0.049 A 
ATOM     64  C   UNL     1       4.567   6.151  -5.536  1.00  0.00     0.074 A 
ATOM     65  C   UNL     1       6.501   0.494  -6.481  1.00  0.00     0.029 A 
ATOM     66  N   UNL     1       7.682   2.283  -5.977  1.00  0.00    -0.354 N 
ATOM     67  N   UNL     1       5.209   5.017  -5.703  1.00  0.00    -0.248 NA
ATOM     68  C   UNL     1       4.469   6.926  -6.768  1.00  0.00     0.031 C 
ATOM     69  C   UNL     1       5.888   1.602  -7.103  1.00  0.00     0.029 A 
ATOM     70  C   UNL     1       6.636   2.724  -6.798  1.00  0.00     0.049 A 
ATOM     71  H   UNL     1       8.444   2.837  -5.693  1.00  0.00     0.167 HD
ATOM     72  C   UNL     1       5.725   4.973  -6.990  1.00  0.00     0.074 A 
ATOM     73  C   UNL     1       5.153   6.152  -7.625  1.00  0.00     0.031 C 
ATOM     74  C   UNL     1       6.595   4.022  -7.473  1.00  0.00     0.031 A 
BRANCH  61  75
ATOM     75  C   UNL     1       8.899  -1.038  -4.654  1.00  0.00    -0.014 A 
ATOM     76  C   UNL     1       8.579  -1.941  -5.692  1.00  0.00     0.010 A 
ATOM     77  C   UNL     1       9.950  -1.425  -3.799  1.00  0.00     0.010 A 
ATOM     78  C   UNL     1       9.143  -3.223  -5.776  1.00  0.00     0.020 A 
ATOM     79  C   UNL     1      10.522  -2.715  -3.868  1.00  0.00     0.020 A 
ATOM     80  C   UNL     1      10.080  -3.622  -4.832  1.00  0.00     0.054 A 
BRANCH  80  81
ATOM     81  S   UNL     1      10.644  -5.349  -4.849  1.00  0.00     0.124 S 
ATOM     82  O   UNL     1       9.395  -6.091  -4.689  1.00  0.00    -0.237 OA
ATOM     83  O   UNL     1      11.278  -5.470  -6.159  1.00  0.00    -0.237 OA
ATOM     84  O   UNL     1      11.555  -5.430  -3.709  1.00  0.00    -0.744 OA
ENDBRANCH  80  81
ENDBRANCH  61  75
BRANCH  62  85
ATOM     85  C   UNL     1       3.917   7.995  -3.611  1.00  0.00    -0.014 A 
ATOM     86  C   UNL     1       2.635   8.315  -3.089  1.00  0.00     0.010 A 
ATOM     87  C   UNL     1       5.052   8.520  -2.969  1.00  0.00     0.010 A 
ATOM     88  C   UNL     1       2.503   8.897  -1.827  1.00  0.00     0.020 A 
ATOM     89  C   UNL     1       4.918   9.132  -1.708  1.00  0.00     0.020 A 
ATOM     90  C   UNL     1       3.651   9.236  -1.117  1.00  0.00     0.054 A 
BRANCH  90  91
ATOM     91  S   UNL     1       3.466   9.540   0.668  1.00  0.00     0.124 S 
ATOM     92  O   UNL     1       2.482  10.615   0.711  1.00  0.00    -0.237 OA
ATOM     93  O   UNL     1       2.997   8.232   1.131  1.00  0.00    -0.237 OA
ATOM     94  O   UNL     1       4.815   9.900   1.089  1.00  0.00    -0.744 OA
ENDBRANCH  90  91
ENDBRANCH  62  85
BRANCH  74  95
ATOM     95  C   UNL     1       7.380   4.086  -8.789  1.00  0.00    -0.014 A 
ATOM     96  C   UNL     1       7.478   5.198  -9.637  1.00  0.00     0.010 A 
ATOM     97  C   UNL     1       8.157   2.956  -9.169  1.00  0.00     0.010 A 
ATOM     98  C   UNL     1       8.254   5.166 -10.809  1.00  0.00     0.020 A 
ATOM     99  C   UNL     1       8.963   2.922 -10.309  1.00  0.00     0.020 A 
ATOM    100  C   UNL     1       8.993   4.030 -11.136  1.00  0.00     0.054 A 
BRANCH 100 101
ATOM    101  S   UNL     1      10.056   4.046 -12.597  1.00  0.00     0.124 S 
ATOM    102  O   UNL     1       9.089   3.871 -13.677  1.00  0.00    -0.237 OA
ATOM    103  O   UNL     1      10.679   5.367 -12.521  1.00  0.00    -0.237 OA
ATOM    104  O   UNL     1      10.966   2.924 -12.380  1.00  0.00    -0.744 OA
ENDBRANCH 100 101
ENDBRANCH  74  95
ENDBRANCH  48  49
ENDBRANCH  41  43
ENDBRANCH  40  41
ENDBRANCH  39  40
ENDBRANCH  38  39
ENDBRANCH  37  38
ENDBRANCH  36  37
ENDBRANCH  35  36
ENDBRANCH  34  35
ENDBRANCH   1  34
TORSDOF 28
