REMARK SMILES C[C@@H](C(=O)OCCOCCOCCOCCOC(=O)c1ccc(-c2c3nc(c(-c4ccc(S(=O)(=O)[O-])cc4)c4ccc([nH]4)c(-c4ccc(S(=O)(=O)[O-])cc4)c4nc(c(-c5ccc(S(=O)(=O)[O-])cc5)c5ccc2[nH]5)C=C4)C=C3)cc1)c1ccc(-c2cccc(OC(=O)NCCCc3ccccc3)c2)c(F)c1
REMARK SMILES IDX 9 1 8 2 7 3 6 4 5 5 3 6 4 7 2 8 1 9 80 10 81 11 105 12 82 13
REMARK SMILES IDX 103 14 83 15 104 16 84 17 85 18 102 19 86 20 88 21 87 22
REMARK SMILES IDX 89 23 90 24 91 25 92 26 93 28 94 29 95 30 96 31 97 32 101 33
REMARK SMILES IDX 98 34 100 35 99 36 10 37 11 38 12 39 13 40 14 41 15 42 16 43
REMARK SMILES IDX 17 44 18 45 19 46 20 47 21 48 79 49 22 50 78 51 23 52 24 53
REMARK SMILES IDX 25 54 72 55 26 56 77 57 71 58 73 59 27 60 76 61 70 62 69 63
REMARK SMILES IDX 28 65 58 66 39 67 57 68 40 69 43 70 56 71 74 72 41 73 42 74
REMARK SMILES IDX 55 76 75 77 44 78 29 79 30 80 38 81 31 82 37 83 32 84 33 85
REMARK SMILES IDX 34 86 35 87 36 88 59 89 60 90 68 91 61 92 67 93 62 94 63 95
REMARK SMILES IDX 64 96 65 97 66 98 45 99 46 100 54 101 47 102 53 103 48 104
REMARK SMILES IDX 49 105 50 106 51 107 52 108
REMARK H PARENT 92 27 73 64 43 75
REMARK Flexibility Score: inf
ROOT
ATOM      1  C   UNL     1       0.520  -3.372  -2.103  1.00  0.00     0.188 C 
ENDROOT
BRANCH   1   2
ATOM      2  O   UNL     1       1.435  -4.097  -2.888  1.00  0.00    -0.376 OA
BRANCH   2   3
ATOM      3  C   UNL     1       2.389  -3.408  -3.676  1.00  0.00     0.202 C 
BRANCH   3   4
ATOM      4  C   UNL     1       2.643  -1.880  -3.711  1.00  0.00     0.261 C 
BRANCH   4   5
ATOM      5  O   UNL     1       2.076  -1.027  -2.704  1.00  0.00    -0.463 OA
BRANCH   5   6
ATOM      6  C   UNL     1       1.037  -0.233  -3.072  1.00  0.00     0.313 C 
ATOM      7  O   UNL     1       0.505  -0.282  -4.177  1.00  0.00    -0.252 OA
BRANCH   6   8
ATOM      8  C   UNL     1       0.567   0.738  -1.968  1.00  0.00     0.126 C 
ATOM      9  C   UNL     1       1.323   0.734  -0.632  1.00  0.00     0.025 C 
BRANCH   8  10
ATOM     10  C   UNL     1      -0.945   0.662  -1.746  1.00  0.00    -0.031 A 
ATOM     11  C   UNL     1      -1.727   1.821  -1.709  1.00  0.00     0.005 A 
ATOM     12  C   UNL     1      -1.605  -0.559  -1.587  1.00  0.00     0.044 A 
ATOM     13  C   UNL     1      -3.124   1.741  -1.575  1.00  0.00     0.012 A 
ATOM     14  C   UNL     1      -2.984  -0.640  -1.476  1.00  0.00     0.131 A 
ATOM     15  C   UNL     1      -3.778   0.503  -1.472  1.00  0.00     0.018 A 
ATOM     16  F   UNL     1      -3.533  -1.863  -1.380  1.00  0.00    -0.206 F 
BRANCH  15  17
ATOM     17  C   UNL     1      -5.232   0.391  -1.326  1.00  0.00    -0.012 A 
ATOM     18  C   UNL     1      -6.114   0.984  -2.241  1.00  0.00     0.009 A 
ATOM     19  C   UNL     1      -5.768  -0.361  -0.267  1.00  0.00     0.056 A 
ATOM     20  C   UNL     1      -7.496   0.837  -2.096  1.00  0.00     0.004 A 
ATOM     21  C   UNL     1      -7.141  -0.505  -0.123  1.00  0.00     0.133 A 
ATOM     22  C   UNL     1      -8.011   0.094  -1.034  1.00  0.00     0.047 A 
BRANCH  21  23
ATOM     23  O   UNL     1      -7.754  -1.255   0.907  1.00  0.00    -0.410 OA
BRANCH  23  24
ATOM     24  C   UNL     1      -7.110  -1.901   1.958  1.00  0.00     0.412 C 
ATOM     25  O   UNL     1      -5.901  -1.922   2.182  1.00  0.00    -0.224 OA
ATOM     26  N   UNL     1      -7.971  -2.541   2.800  1.00  0.00    -0.321 N 
ATOM     27  H   UNL     1      -7.579  -3.101   3.508  1.00  0.00     0.167 HD
BRANCH  26  28
ATOM     28  C   UNL     1      -9.410  -2.463   2.737  1.00  0.00     0.120 C 
BRANCH  28  29
ATOM     29  C   UNL     1     -10.129  -3.707   3.257  1.00  0.00     0.026 C 
BRANCH  29  30
ATOM     30  C   UNL     1      -9.598  -4.377   4.530  1.00  0.00     0.037 C 
BRANCH  30  31
ATOM     31  C   UNL     1      -9.752  -3.709   5.878  1.00  0.00    -0.048 A 
ATOM     32  C   UNL     1      -9.956  -2.339   6.071  1.00  0.00     0.004 A 
ATOM     33  C   UNL     1      -9.611  -4.517   7.020  1.00  0.00     0.004 A 
ATOM     34  C   UNL     1      -9.999  -1.792   7.358  1.00  0.00     0.000 A 
ATOM     35  C   UNL     1      -9.667  -3.975   8.306  1.00  0.00     0.000 A 
ATOM     36  C   UNL     1      -9.853  -2.608   8.474  1.00  0.00     0.000 A 
ENDBRANCH  30  31
ENDBRANCH  29  30
ENDBRANCH  28  29
ENDBRANCH  26  28
ENDBRANCH  23  24
ENDBRANCH  21  23
ENDBRANCH  15  17
ENDBRANCH   8  10
ENDBRANCH   6   8
ENDBRANCH   5   6
ENDBRANCH   4   5
ENDBRANCH   3   4
ENDBRANCH   2   3
ENDBRANCH   1   2
BRANCH   1  37
ATOM     37  C   UNL     1       1.077  -2.811  -0.782  1.00  0.00     0.188 C 
BRANCH  37  38
ATOM     38  O   UNL     1       2.482  -2.846  -0.653  1.00  0.00    -0.377 OA
BRANCH  38  39
ATOM     39  C   UNL     1       3.095  -4.098  -0.379  1.00  0.00     0.188 C 
BRANCH  39  40
ATOM     40  C   UNL     1       2.276  -5.409  -0.374  1.00  0.00     0.188 C 
BRANCH  40  41
ATOM     41  O   UNL     1       0.947  -5.291   0.113  1.00  0.00    -0.376 OA
BRANCH  41  42
ATOM     42  C   UNL     1       0.672  -5.654   1.456  1.00  0.00     0.202 C 
BRANCH  42  43
ATOM     43  C   UNL     1       1.342  -4.835   2.570  1.00  0.00     0.261 C 
BRANCH  43  44
ATOM     44  O   UNL     1       2.776  -4.784   2.554  1.00  0.00    -0.460 OA
BRANCH  44  45
ATOM     45  C   UNL     1       3.453  -5.953   2.610  1.00  0.00     0.338 C 
ATOM     46  O   UNL     1       2.985  -7.068   2.731  1.00  0.00    -0.246 OA
BRANCH  45  47
ATOM     47  C   UNL     1       4.864  -5.657   2.279  1.00  0.00     0.060 A 
ATOM     48  C   UNL     1       5.441  -6.259   1.152  1.00  0.00     0.016 A 
ATOM     49  C   UNL     1       5.601  -4.763   3.059  1.00  0.00     0.016 A 
ATOM     50  C   UNL     1       6.768  -5.992   0.819  1.00  0.00     0.010 A 
ATOM     51  C   UNL     1       6.939  -4.519   2.742  1.00  0.00     0.010 A 
ATOM     52  C   UNL     1       7.537  -5.160   1.642  1.00  0.00    -0.014 A 
BRANCH  52  53
ATOM     53  C   UNL     1       9.011  -5.143   1.491  1.00  0.00     0.031 A 
ATOM     54  C   UNL     1       9.820  -6.036   2.393  1.00  0.00     0.074 A 
ATOM     55  C   UNL     1       9.618  -4.376   0.568  1.00  0.00     0.049 A 
ATOM     56  N   UNL     1      11.117  -6.165   2.487  1.00  0.00    -0.248 NA
ATOM     57  C   UNL     1       9.060  -6.898   3.315  1.00  0.00     0.031 C 
ATOM     58  C   UNL     1       8.940  -3.517  -0.401  1.00  0.00     0.029 A 
ATOM     59  N   UNL     1      10.953  -4.199   0.301  1.00  0.00    -0.354 N 
ATOM     60  C   UNL     1      11.329  -7.106   3.488  1.00  0.00     0.074 A 
ATOM     61  C   UNL     1      10.030  -7.497   3.987  1.00  0.00     0.031 C 
ATOM     62  C   UNL     1       9.866  -2.896  -1.154  1.00  0.00     0.029 A 
ATOM     63  C   UNL     1      11.200  -3.283  -0.695  1.00  0.00     0.049 A 
ATOM     64  H   UNL     1      11.666  -4.681   0.778  1.00  0.00     0.167 HD
ATOM     65  C   UNL     1      12.501  -7.602   3.949  1.00  0.00     0.031 A 
ATOM     66  C   UNL     1      12.368  -2.799  -1.162  1.00  0.00     0.031 A 
ATOM     67  C   UNL     1      13.790  -7.197   3.457  1.00  0.00     0.049 A 
ATOM     68  C   UNL     1      13.662  -3.303  -0.573  1.00  0.00     0.074 A 
ATOM     69  C   UNL     1      15.038  -7.651   3.845  1.00  0.00     0.029 A 
ATOM     70  N   UNL     1      13.999  -6.235   2.481  1.00  0.00    -0.354 N 
ATOM     71  N   UNL     1      13.849  -4.211   0.356  1.00  0.00    -0.248 NA
ATOM     72  C   UNL     1      14.904  -2.719  -1.100  1.00  0.00     0.031 C 
ATOM     73  C   UNL     1      16.003  -6.912   3.155  1.00  0.00     0.029 A 
ATOM     74  C   UNL     1      15.356  -6.054   2.278  1.00  0.00     0.049 A 
ATOM     75  H   UNL     1      13.287  -5.752   2.002  1.00  0.00     0.167 HD
ATOM     76  C   UNL     1      15.229  -4.333   0.497  1.00  0.00     0.074 A 
ATOM     77  C   UNL     1      15.827  -3.414  -0.449  1.00  0.00     0.031 C 
ATOM     78  C   UNL     1      15.937  -5.136   1.331  1.00  0.00     0.031 A 
BRANCH  65  79
ATOM     79  C   UNL     1      12.441  -8.600   5.076  1.00  0.00    -0.014 A 
ATOM     80  C   UNL     1      11.937  -9.899   4.883  1.00  0.00     0.010 A 
ATOM     81  C   UNL     1      12.929  -8.238   6.344  1.00  0.00     0.010 A 
ATOM     82  C   UNL     1      11.890 -10.804   5.947  1.00  0.00     0.020 A 
ATOM     83  C   UNL     1      12.914  -9.150   7.403  1.00  0.00     0.020 A 
ATOM     84  C   UNL     1      12.379 -10.423   7.201  1.00  0.00     0.054 A 
BRANCH  84  85
ATOM     85  S   UNL     1      12.332 -11.628   8.556  1.00  0.00     0.124 S 
ATOM     86  O   UNL     1      10.900 -11.711   8.835  1.00  0.00    -0.237 OA
ATOM     87  O   UNL     1      12.923 -12.816   7.946  1.00  0.00    -0.237 OA
ATOM     88  O   UNL     1      13.135 -11.004   9.604  1.00  0.00    -0.744 OA
ENDBRANCH  84  85
ENDBRANCH  65  79
BRANCH  66  89
ATOM     89  C   UNL     1      12.374  -1.765  -2.236  1.00  0.00    -0.014 A 
ATOM     90  C   UNL     1      12.879  -2.059  -3.514  1.00  0.00     0.010 A 
ATOM     91  C   UNL     1      11.881  -0.471  -1.979  1.00  0.00     0.010 A 
ATOM     92  C   UNL     1      12.906  -1.077  -4.510  1.00  0.00     0.020 A 
ATOM     93  C   UNL     1      11.877   0.504  -2.981  1.00  0.00     0.020 A 
ATOM     94  C   UNL     1      12.399   0.197  -4.238  1.00  0.00     0.054 A 
BRANCH  94  95
ATOM     95  S   UNL     1      12.396   1.438  -5.563  1.00  0.00     0.124 S 
ATOM     96  O   UNL     1      13.817   1.743  -5.697  1.00  0.00    -0.237 OA
ATOM     97  O   UNL     1      11.797   0.705  -6.676  1.00  0.00    -0.237 OA
ATOM     98  O   UNL     1      11.572   2.515  -5.020  1.00  0.00    -0.744 OA
ENDBRANCH  94  95
ENDBRANCH  66  89
BRANCH  78  99
ATOM     99  C   UNL     1      17.441  -5.097   1.231  1.00  0.00    -0.014 A 
ATOM    100  C   UNL     1      18.180  -3.982   1.665  1.00  0.00     0.010 A 
ATOM    101  C   UNL     1      18.130  -6.228   0.750  1.00  0.00     0.010 A 
ATOM    102  C   UNL     1      19.576  -3.986   1.589  1.00  0.00     0.020 A 
ATOM    103  C   UNL     1      19.525  -6.249   0.705  1.00  0.00     0.020 A 
ATOM    104  C   UNL     1      20.240  -5.121   1.111  1.00  0.00     0.054 A 
BRANCH 104 105
ATOM    105  S   UNL     1      22.053  -5.116   1.065  1.00  0.00     0.124 S 
ATOM    106  O   UNL     1      22.327  -4.186  -0.027  1.00  0.00    -0.237 OA
ATOM    107  O   UNL     1      22.405  -4.640   2.400  1.00  0.00    -0.237 OA
ATOM    108  O   UNL     1      22.398  -6.510   0.795  1.00  0.00    -0.744 OA
ENDBRANCH 104 105
ENDBRANCH  78  99
ENDBRANCH  52  53
ENDBRANCH  45  47
ENDBRANCH  44  45
ENDBRANCH  43  44
ENDBRANCH  42  43
ENDBRANCH  41  42
ENDBRANCH  40  41
ENDBRANCH  39  40
ENDBRANCH  38  39
ENDBRANCH  37  38
ENDBRANCH   1  37
TORSDOF 31
