REMARK SMILES CN(C)C(=O)CNC(=O)NCCOCC(=O)OCCOCCOCCOCCOC(=O)c1ccc(-c2c3nc(c(-c4ccc(S(=O)(=O)[O-])cc4)c4ccc([nH]4)c(-c4ccc(S(=O)(=O)[O-])cc4)c4nc(c(-c5ccc(S(=O)(=O)[O-])cc5)c5ccc2[nH]5)C=C4)C=C3)cc1
REMARK SMILES IDX 21 1 20 2 19 3 18 4 17 5 15 6 16 7 14 8 13 9 12 10 11 11
REMARK SMILES IDX 10 12 7 13 8 14 9 16 6 18 4 19 1 20 2 21 3 22 5 23 22 24
REMARK SMILES IDX 23 25 24 26 25 27 26 28 27 29 28 30 29 31 30 32 31 33 32 34
REMARK SMILES IDX 33 35 91 36 34 37 90 38 35 39 36 40 37 41 84 42 38 43 89 44
REMARK SMILES IDX 83 45 85 46 39 47 88 48 82 49 81 50 40 52 70 53 51 54 69 55
REMARK SMILES IDX 52 56 55 57 68 58 86 59 53 60 54 61 67 63 87 64 56 65 41 66
REMARK SMILES IDX 42 67 50 68 43 69 49 70 44 71 45 72 46 73 47 74 48 75 71 76
REMARK SMILES IDX 72 77 80 78 73 79 79 80 74 81 75 82 76 83 77 84 78 85 57 86
REMARK SMILES IDX 58 87 66 88 59 89 65 90 60 91 61 92 62 93 63 94 64 95
REMARK H PARENT 7 15 10 17 85 51 55 62
REMARK Flexibility Score: inf
ROOT
ATOM      1  C   UNL     1      -0.464  -5.219  -5.834  1.00  0.00     0.188 C 
ENDROOT
BRANCH   1   2
ATOM      2  O   UNL     1      -0.364  -6.133  -6.924  1.00  0.00    -0.376 OA
BRANCH   2   3
ATOM      3  C   UNL     1      -1.386  -6.081  -7.918  1.00  0.00     0.202 C 
BRANCH   3   4
ATOM      4  C   UNL     1      -2.828  -6.406  -7.484  1.00  0.00     0.261 C 
BRANCH   4   5
ATOM      5  O   UNL     1      -3.401  -5.550  -6.465  1.00  0.00    -0.462 OA
BRANCH   5   6
ATOM      6  C   UNL     1      -3.637  -6.144  -5.267  1.00  0.00     0.332 C 
ATOM      7  O   UNL     1      -3.337  -7.305  -4.996  1.00  0.00    -0.250 OA
BRANCH   6   8
ATOM      8  C   UNL     1      -4.341  -5.255  -4.216  1.00  0.00     0.282 C 
BRANCH   8   9
ATOM      9  O   UNL     1      -4.668  -3.887  -4.238  1.00  0.00    -0.368 OA
BRANCH   9  10
ATOM     10  C   UNL     1      -3.621  -2.925  -4.295  1.00  0.00     0.182 C 
BRANCH  10  11
ATOM     11  C   UNL     1      -2.760  -2.743  -3.029  1.00  0.00     0.146 C 
BRANCH  11  12
ATOM     12  N   UNL     1      -1.776  -3.796  -2.801  1.00  0.00    -0.336 N 
ATOM     13  N   UNL     1       0.445  -2.963  -2.911  1.00  0.00    -0.329 N 
ATOM     14  C   UNL     1      -0.454  -3.925  -2.733  1.00  0.00     0.315 C 
ATOM     15  H   UNL     1       1.363  -3.313  -2.847  1.00  0.00     0.165 HD
ATOM     16  O   UNL     1      -0.018  -5.049  -2.472  1.00  0.00    -0.249 OA
ATOM     17  H   UNL     1      -2.220  -4.663  -2.655  1.00  0.00     0.165 HD
BRANCH  13  18
ATOM     18  C   UNL     1       0.440  -1.537  -3.173  1.00  0.00     0.218 C 
BRANCH  18  19
ATOM     19  C   UNL     1       0.933  -0.603  -2.050  1.00  0.00     0.241 C 
ATOM     20  C   UNL     1       1.089   0.100   0.268  1.00  0.00     0.146 C 
ATOM     21  N   UNL     1       0.597  -0.839  -0.725  1.00  0.00    -0.347 N 
ATOM     22  C   UNL     1      -0.245  -1.923  -0.256  1.00  0.00     0.146 C 
ATOM     23  O   UNL     1       1.524   0.436  -2.369  1.00  0.00    -0.273 OA
ENDBRANCH  18  19
ENDBRANCH  13  18
ENDBRANCH  11  12
ENDBRANCH  10  11
ENDBRANCH   9  10
ENDBRANCH   8   9
ENDBRANCH   6   8
ENDBRANCH   5   6
ENDBRANCH   4   5
ENDBRANCH   3   4
ENDBRANCH   2   3
ENDBRANCH   1   2
BRANCH   1  24
ATOM     24  C   UNL     1      -0.536  -3.742  -6.216  1.00  0.00     0.188 C 
BRANCH  24  25
ATOM     25  O   UNL     1      -1.676  -3.467  -7.018  1.00  0.00    -0.377 OA
BRANCH  25  26
ATOM     26  C   UNL     1      -1.575  -2.530  -8.084  1.00  0.00     0.188 C 
BRANCH  26  27
ATOM     27  C   UNL     1      -0.166  -2.120  -8.517  1.00  0.00     0.188 C 
BRANCH  27  28
ATOM     28  O   UNL     1       0.586  -1.278  -7.635  1.00  0.00    -0.376 OA
BRANCH  28  29
ATOM     29  C   UNL     1      -0.104  -0.468  -6.690  1.00  0.00     0.202 C 
BRANCH  29  30
ATOM     30  C   UNL     1      -0.671   0.861  -7.190  1.00  0.00     0.261 C 
BRANCH  30  31
ATOM     31  O   UNL     1      -1.603   0.693  -8.260  1.00  0.00    -0.460 OA
BRANCH  31  32
ATOM     32  C   UNL     1      -1.052   0.791  -9.495  1.00  0.00     0.338 C 
ATOM     33  O   UNL     1       0.104   1.037  -9.774  1.00  0.00    -0.246 OA
BRANCH  32  34
ATOM     34  C   UNL     1      -2.057   0.370 -10.484  1.00  0.00     0.060 A 
ATOM     35  C   UNL     1      -1.681  -0.572 -11.451  1.00  0.00     0.016 A 
ATOM     36  C   UNL     1      -3.333   0.936 -10.488  1.00  0.00     0.016 A 
ATOM     37  C   UNL     1      -2.573  -0.934 -12.448  1.00  0.00     0.010 A 
ATOM     38  C   UNL     1      -4.217   0.600 -11.510  1.00  0.00     0.010 A 
ATOM     39  C   UNL     1      -3.819  -0.303 -12.510  1.00  0.00    -0.014 A 
BRANCH  39  40
ATOM     40  C   UNL     1      -4.604  -0.411 -13.752  1.00  0.00     0.031 A 
ATOM     41  C   UNL     1      -4.457   0.684 -14.769  1.00  0.00     0.074 A 
ATOM     42  C   UNL     1      -5.401  -1.470 -13.967  1.00  0.00     0.049 A 
ATOM     43  N   UNL     1      -5.079   0.844 -15.905  1.00  0.00    -0.248 NA
ATOM     44  C   UNL     1      -3.478   1.743 -14.462  1.00  0.00     0.031 C 
ATOM     45  C   UNL     1      -5.560  -2.607 -13.060  1.00  0.00     0.029 A 
ATOM     46  N   UNL     1      -6.232  -1.753 -15.016  1.00  0.00    -0.354 N 
ATOM     47  C   UNL     1      -4.586   2.030 -16.436  1.00  0.00     0.074 A 
ATOM     48  C   UNL     1      -3.626   2.559 -15.494  1.00  0.00     0.031 C 
ATOM     49  C   UNL     1      -6.457  -3.458 -13.586  1.00  0.00     0.029 A 
ATOM     50  C   UNL     1      -6.959  -2.905 -14.842  1.00  0.00     0.049 A 
ATOM     51  H   UNL     1      -6.303  -1.186 -15.818  1.00  0.00     0.167 HD
ATOM     52  C   UNL     1      -4.913   2.624 -17.606  1.00  0.00     0.031 A 
ATOM     53  C   UNL     1      -7.942  -3.427 -15.599  1.00  0.00     0.031 A 
ATOM     54  C   UNL     1      -5.880   2.083 -18.523  1.00  0.00     0.049 A 
ATOM     55  C   UNL     1      -8.335  -2.712 -16.866  1.00  0.00     0.074 A 
ATOM     56  C   UNL     1      -6.273   2.584 -19.749  1.00  0.00     0.029 A 
ATOM     57  N   UNL     1      -6.612   0.925 -18.305  1.00  0.00    -0.354 N 
ATOM     58  N   UNL     1      -7.841  -1.607 -17.376  1.00  0.00    -0.248 NA
ATOM     59  C   UNL     1      -9.408  -3.317 -17.664  1.00  0.00     0.031 C 
ATOM     60  C   UNL     1      -7.297   1.768 -20.240  1.00  0.00     0.029 A 
ATOM     61  C   UNL     1      -7.484   0.715 -19.358  1.00  0.00     0.049 A 
ATOM     62  H   UNL     1      -6.525   0.341 -17.518  1.00  0.00     0.167 HD
ATOM     63  C   UNL     1      -8.523  -1.403 -18.571  1.00  0.00     0.074 A 
ATOM     64  C   UNL     1      -9.450  -2.507 -18.713  1.00  0.00     0.031 C 
ATOM     65  C   UNL     1      -8.396  -0.397 -19.472  1.00  0.00     0.031 A 
BRANCH  52  66
ATOM     66  C   UNL     1      -4.268   3.944 -17.930  1.00  0.00    -0.014 A 
ATOM     67  C   UNL     1      -2.903   4.039 -18.257  1.00  0.00     0.010 A 
ATOM     68  C   UNL     1      -5.059   5.107 -17.952  1.00  0.00     0.010 A 
ATOM     69  C   UNL     1      -2.337   5.277 -18.576  1.00  0.00     0.020 A 
ATOM     70  C   UNL     1      -4.504   6.341 -18.299  1.00  0.00     0.020 A 
ATOM     71  C   UNL     1      -3.143   6.420 -18.599  1.00  0.00     0.054 A 
BRANCH  71  72
ATOM     72  S   UNL     1      -2.393   8.004 -19.066  1.00  0.00     0.124 S 
ATOM     73  O   UNL     1      -1.546   8.289 -17.910  1.00  0.00    -0.237 OA
ATOM     74  O   UNL     1      -1.683   7.669 -20.297  1.00  0.00    -0.237 OA
ATOM     75  O   UNL     1      -3.538   8.895 -19.232  1.00  0.00    -0.744 OA
ENDBRANCH  71  72
ENDBRANCH  52  66
BRANCH  53  76
ATOM     76  C   UNL     1      -8.645  -4.663 -15.159  1.00  0.00    -0.014 A 
ATOM     77  C   UNL     1      -8.526  -5.861 -15.884  1.00  0.00     0.010 A 
ATOM     78  C   UNL     1      -9.447  -4.642 -14.002  1.00  0.00     0.010 A 
ATOM     79  C   UNL     1      -9.216  -7.007 -15.475  1.00  0.00     0.020 A 
ATOM     80  C   UNL     1     -10.111  -5.793 -13.572  1.00  0.00     0.020 A 
ATOM     81  C   UNL     1     -10.002  -6.966 -14.320  1.00  0.00     0.054 A 
BRANCH  81  82
ATOM     82  S   UNL     1     -10.859  -8.474 -13.790  1.00  0.00     0.124 S 
ATOM     83  O   UNL     1     -11.902  -8.603 -14.803  1.00  0.00    -0.237 OA
ATOM     84  O   UNL     1      -9.795  -9.474 -13.846  1.00  0.00    -0.237 OA
ATOM     85  O   UNL     1     -11.327  -8.147 -12.446  1.00  0.00    -0.744 OA
ENDBRANCH  81  82
ENDBRANCH  53  76
BRANCH  65  86
ATOM     86  C   UNL     1      -9.246  -0.466 -20.713  1.00  0.00    -0.014 A 
ATOM     87  C   UNL     1     -10.635  -0.254 -20.663  1.00  0.00     0.010 A 
ATOM     88  C   UNL     1      -8.629  -0.683 -21.959  1.00  0.00     0.010 A 
ATOM     89  C   UNL     1     -11.396  -0.295 -21.834  1.00  0.00     0.020 A 
ATOM     90  C   UNL     1      -9.381  -0.689 -23.135  1.00  0.00     0.020 A 
ATOM     91  C   UNL     1     -10.763  -0.510 -23.063  1.00  0.00     0.054 A 
BRANCH  91  92
ATOM     92  S   UNL     1     -11.768  -0.514 -24.571  1.00  0.00     0.124 S 
ATOM     93  O   UNL     1     -12.498  -1.773 -24.447  1.00  0.00    -0.237 OA
ATOM     94  O   UNL     1     -12.572   0.697 -24.422  1.00  0.00    -0.237 OA
ATOM     95  O   UNL     1     -10.780  -0.470 -25.647  1.00  0.00    -0.744 OA
ENDBRANCH  91  92
ENDBRANCH  65  86
ENDBRANCH  39  40
ENDBRANCH  32  34
ENDBRANCH  31  32
ENDBRANCH  30  31
ENDBRANCH  29  30
ENDBRANCH  28  29
ENDBRANCH  27  28
ENDBRANCH  26  27
ENDBRANCH  25  26
ENDBRANCH  24  25
ENDBRANCH   1  24
TORSDOF 29
