REMARK SMILES COc1ccc2[nH]c(C(=O)c3cc(C)ccn3)c(CC(=O)OCCOCCOCCOCCOC(=O)c3ccc(-c4c5nc(c(-c6ccc(S(=O)(=O)[O-])cc6)c6ccc([nH]6)c(-c6ccc(S(=O)(=O)[O-])cc6)c6nc(c(-c7ccc(S(=O)(=O)[O-])cc7)c7ccc4[nH]7)C=C6)C=C5)cc3)c2c1
REMARK SMILES IDX 28 1 27 2 26 3 25 4 24 5 23 6 22 7 20 8 21 9 19 10 18 11
REMARK SMILES IDX 3 12 4 13 98 14 5 15 97 16 6 17 7 18 8 19 2 21 1 22 9 23
REMARK SMILES IDX 10 24 11 25 12 26 17 27 13 28 16 29 14 30 15 31 29 32 30 33
REMARK SMILES IDX 31 34 32 35 33 36 34 37 35 38 36 39 37 40 38 41 96 42 39 43
REMARK SMILES IDX 95 44 40 45 41 46 42 47 89 48 43 49 94 50 88 51 90 52 44 53
REMARK SMILES IDX 93 54 87 55 86 56 45 58 75 59 56 60 74 61 57 62 60 63 73 64
REMARK SMILES IDX 91 65 58 66 59 67 72 69 92 70 61 71 46 72 47 73 55 74 48 75
REMARK SMILES IDX 54 76 49 77 50 78 51 79 52 80 53 81 76 82 77 83 85 84 78 85
REMARK SMILES IDX 84 86 79 87 80 88 81 89 82 90 83 91 62 92 63 93 71 94 64 95
REMARK SMILES IDX 70 96 65 97 66 98 67 99 68 100 69 101
REMARK H PARENT 7 20 90 57 60 68
REMARK Flexibility Score: inf
ROOT
ATOM      1  O   UNL     1      -0.246  -6.524   4.835  1.00  0.00    -0.377 OA
ENDROOT
BRANCH   1   2
ATOM      2  C   UNL     1      -0.988  -5.500   5.464  1.00  0.00     0.188 C 
BRANCH   2   3
ATOM      3  C   UNL     1      -2.268  -5.710   6.301  1.00  0.00     0.188 C 
BRANCH   3   4
ATOM      4  O   UNL     1      -3.307  -6.471   5.728  1.00  0.00    -0.376 OA
BRANCH   4   5
ATOM      5  C   UNL     1      -4.085  -6.006   4.644  1.00  0.00     0.202 C 
BRANCH   5   6
ATOM      6  C   UNL     1      -3.937  -4.638   3.941  1.00  0.00     0.261 C 
BRANCH   6   7
ATOM      7  O   UNL     1      -2.891  -3.751   4.379  1.00  0.00    -0.463 OA
BRANCH   7   8
ATOM      8  C   UNL     1      -3.229  -2.697   5.154  1.00  0.00     0.310 C 
ATOM      9  O   UNL     1      -4.396  -2.432   5.439  1.00  0.00    -0.252 OA
BRANCH   8  10
ATOM     10  C   UNL     1      -2.078  -1.845   5.692  1.00  0.00     0.161 C 
BRANCH  10  11
ATOM     11  C   UNL     1      -0.614  -2.173   5.424  1.00  0.00     0.000 A 
ATOM     12  C   UNL     1       0.786  -0.647   2.186  1.00  0.00     0.119 A 
ATOM     13  C   UNL     1       2.090  -1.106   2.353  1.00  0.00     0.048 A 
ATOM     14  C   UNL     1      -0.210  -0.976   3.117  1.00  0.00     0.057 A 
ATOM     15  C   UNL     1       2.429  -1.913   3.443  1.00  0.00     0.030 A 
ATOM     16  C   UNL     1       0.114  -1.750   4.252  1.00  0.00     0.008 A 
ATOM     17  C   UNL     1       1.426  -2.193   4.379  1.00  0.00     0.046 A 
ATOM     18  N   UNL     1       1.492  -2.903   5.548  1.00  0.00    -0.352 N 
ATOM     19  C   UNL     1       0.348  -2.725   6.303  1.00  0.00     0.093 A 
ATOM     20  H   UNL     1       2.253  -3.466   5.816  1.00  0.00     0.167 HD
BRANCH  12  21
ATOM     21  O   UNL     1       0.399   0.218   1.196  1.00  0.00    -0.497 OA
ATOM     22  C   UNL     1       0.962  -0.048  -0.085  1.00  0.00     0.278 C 
ENDBRANCH  12  21
BRANCH  19  23
ATOM     23  C   UNL     1       0.204  -3.137   7.709  1.00  0.00     0.227 C 
ATOM     24  O   UNL     1      -0.791  -2.842   8.370  1.00  0.00    -0.285 OA
BRANCH  23  25
ATOM     25  C   UNL     1       1.237  -4.015   8.384  1.00  0.00     0.113 A 
ATOM     26  C   UNL     1       2.598  -3.712   8.431  1.00  0.00     0.036 A 
ATOM     27  N   UNL     1       0.723  -5.127   8.976  1.00  0.00    -0.253 NA
ATOM     28  C   UNL     1       3.469  -4.607   9.080  1.00  0.00    -0.047 A 
ATOM     29  C   UNL     1       1.578  -5.962   9.604  1.00  0.00     0.112 A 
ATOM     30  C   UNL     1       4.948  -4.367   9.173  1.00  0.00     0.044 C 
ATOM     31  C   UNL     1       2.943  -5.766   9.654  1.00  0.00     0.023 A 
ENDBRANCH  23  25
ENDBRANCH  19  23
ENDBRANCH  10  11
ENDBRANCH   8  10
ENDBRANCH   7   8
ENDBRANCH   6   7
ENDBRANCH   5   6
ENDBRANCH   4   5
ENDBRANCH   3   4
ENDBRANCH   2   3
ENDBRANCH   1   2
BRANCH   1  32
ATOM     32  C   UNL     1      -0.976  -7.581   4.263  1.00  0.00     0.188 C 
BRANCH  32  33
ATOM     33  C   UNL     1      -1.156  -8.717   5.269  1.00  0.00     0.188 C 
BRANCH  33  34
ATOM     34  O   UNL     1      -1.066  -8.287   6.616  1.00  0.00    -0.376 OA
BRANCH  34  35
ATOM     35  C   UNL     1       0.199  -8.273   7.269  1.00  0.00     0.202 C 
BRANCH  35  36
ATOM     36  C   UNL     1       1.503  -7.719   6.648  1.00  0.00     0.261 C 
BRANCH  36  37
ATOM     37  O   UNL     1       1.837  -8.119   5.319  1.00  0.00    -0.460 OA
BRANCH  37  38
ATOM     38  C   UNL     1       2.111  -9.420   5.093  1.00  0.00     0.338 C 
ATOM     39  O   UNL     1       2.187 -10.312   5.896  1.00  0.00    -0.246 OA
BRANCH  38  40
ATOM     40  C   UNL     1       2.064  -9.551   3.619  1.00  0.00     0.060 A 
ATOM     41  C   UNL     1       1.060 -10.350   3.061  1.00  0.00     0.016 A 
ATOM     42  C   UNL     1       2.918  -8.796   2.808  1.00  0.00     0.016 A 
ATOM     43  C   UNL     1       0.889 -10.379   1.683  1.00  0.00     0.010 A 
ATOM     44  C   UNL     1       2.780  -8.866   1.423  1.00  0.00     0.010 A 
ATOM     45  C   UNL     1       1.774  -9.670   0.863  1.00  0.00    -0.014 A 
BRANCH  45  46
ATOM     46  C   UNL     1       1.804  -9.987  -0.576  1.00  0.00     0.031 A 
ATOM     47  C   UNL     1       2.725 -11.090  -1.010  1.00  0.00     0.074 A 
ATOM     48  C   UNL     1       1.010  -9.343  -1.448  1.00  0.00     0.049 A 
ATOM     49  N   UNL     1       2.960 -11.550  -2.207  1.00  0.00    -0.248 NA
ATOM     50  C   UNL     1       3.483 -11.768   0.059  1.00  0.00     0.031 C 
ATOM     51  C   UNL     1       0.038  -8.306  -1.103  1.00  0.00     0.029 A 
ATOM     52  N   UNL     1       0.899  -9.473  -2.807  1.00  0.00    -0.354 N 
ATOM     53  C   UNL     1       3.892 -12.567  -2.037  1.00  0.00     0.074 A 
ATOM     54  C   UNL     1       4.202 -12.639  -0.628  1.00  0.00     0.031 C 
ATOM     55  C   UNL     1      -0.567  -7.886  -2.229  1.00  0.00     0.029 A 
ATOM     56  C   UNL     1       0.003  -8.598  -3.371  1.00  0.00     0.049 A 
ATOM     57  H   UNL     1       1.412 -10.131  -3.329  1.00  0.00     0.167 HD
ATOM     58  C   UNL     1       4.438 -13.369  -2.977  1.00  0.00     0.031 A 
ATOM     59  C   UNL     1      -0.295  -8.386  -4.668  1.00  0.00     0.031 A 
ATOM     60  C   UNL     1       4.140 -13.253  -4.377  1.00  0.00     0.049 A 
ATOM     61  C   UNL     1       0.406  -9.222  -5.710  1.00  0.00     0.074 A 
ATOM     62  C   UNL     1       4.639 -13.996  -5.429  1.00  0.00     0.029 A 
ATOM     63  N   UNL     1       3.270 -12.317  -4.919  1.00  0.00    -0.354 N 
ATOM     64  N   UNL     1       1.276 -10.191  -5.539  1.00  0.00    -0.248 NA
ATOM     65  C   UNL     1       0.088  -8.937  -7.115  1.00  0.00     0.031 C 
ATOM     66  C   UNL     1       4.119 -13.467  -6.614  1.00  0.00     0.029 A 
ATOM     67  C   UNL     1       3.241 -12.441  -6.295  1.00  0.00     0.049 A 
ATOM     68  H   UNL     1       2.750 -11.661  -4.399  1.00  0.00     0.167 HD
ATOM     69  C   UNL     1       1.589 -10.651  -6.814  1.00  0.00     0.074 A 
ATOM     70  C   UNL     1       0.804  -9.861  -7.743  1.00  0.00     0.031 C 
ATOM     71  C   UNL     1       2.445 -11.635  -7.188  1.00  0.00     0.031 A 
BRANCH  58  72
ATOM     72  C   UNL     1       5.443 -14.390  -2.517  1.00  0.00    -0.014 A 
ATOM     73  C   UNL     1       5.058 -15.499  -1.740  1.00  0.00     0.010 A 
ATOM     74  C   UNL     1       6.796 -14.239  -2.868  1.00  0.00     0.010 A 
ATOM     75  C   UNL     1       6.013 -16.415  -1.291  1.00  0.00     0.020 A 
ATOM     76  C   UNL     1       7.750 -15.169  -2.446  1.00  0.00     0.020 A 
ATOM     77  C   UNL     1       7.354 -16.242  -1.647  1.00  0.00     0.054 A 
BRANCH  77  78
ATOM     78  S   UNL     1       8.570 -17.457  -1.067  1.00  0.00     0.124 S 
ATOM     79  O   UNL     1       8.633 -17.163   0.362  1.00  0.00    -0.237 OA
ATOM     80  O   UNL     1       7.942 -18.728  -1.419  1.00  0.00    -0.237 OA
ATOM     81  O   UNL     1       9.776 -17.130  -1.823  1.00  0.00    -0.744 OA
ENDBRANCH  77  78
ENDBRANCH  58  72
BRANCH  59  82
ATOM     82  C   UNL     1      -1.274  -7.331  -5.051  1.00  0.00    -0.014 A 
ATOM     83  C   UNL     1      -2.509  -7.668  -5.631  1.00  0.00     0.010 A 
ATOM     84  C   UNL     1      -0.974  -5.973  -4.832  1.00  0.00     0.010 A 
ATOM     85  C   UNL     1      -3.418  -6.670  -5.997  1.00  0.00     0.020 A 
ATOM     86  C   UNL     1      -1.892  -4.973  -5.168  1.00  0.00     0.020 A 
ATOM     87  C   UNL     1      -3.105  -5.328  -5.758  1.00  0.00     0.054 A 
BRANCH  87  88
ATOM     88  S   UNL     1      -4.322  -4.055  -6.195  1.00  0.00     0.124 S 
ATOM     89  O   UNL     1      -4.279  -4.080  -7.654  1.00  0.00    -0.237 OA
ATOM     90  O   UNL     1      -5.546  -4.570  -5.588  1.00  0.00    -0.237 OA
ATOM     91  O   UNL     1      -3.788  -2.844  -5.574  1.00  0.00    -0.744 OA
ENDBRANCH  87  88
ENDBRANCH  59  82
BRANCH  71  92
ATOM     92  C   UNL     1       2.555 -11.935  -8.658  1.00  0.00    -0.014 A 
ATOM     93  C   UNL     1       3.219 -11.058  -9.532  1.00  0.00     0.010 A 
ATOM     94  C   UNL     1       2.064 -13.159  -9.150  1.00  0.00     0.010 A 
ATOM     95  C   UNL     1       3.372 -11.390 -10.880  1.00  0.00     0.020 A 
ATOM     96  C   UNL     1       2.244 -13.509 -10.489  1.00  0.00     0.020 A 
ATOM     97  C   UNL     1       2.889 -12.617 -11.348  1.00  0.00     0.054 A 
BRANCH  97  98
ATOM     98  S   UNL     1       3.164 -13.053 -13.086  1.00  0.00     0.124 S 
ATOM     99  O   UNL     1       2.247 -12.148 -13.775  1.00  0.00    -0.237 OA
ATOM    100  O   UNL     1       4.585 -12.765 -13.265  1.00  0.00    -0.237 OA
ATOM    101  O   UNL     1       2.807 -14.468 -13.150  1.00  0.00    -0.744 OA
ENDBRANCH  97  98
ENDBRANCH  71  92
ENDBRANCH  45  46
ENDBRANCH  38  40
ENDBRANCH  37  38
ENDBRANCH  36  37
ENDBRANCH  35  36
ENDBRANCH  34  35
ENDBRANCH  33  34
ENDBRANCH  32  33
ENDBRANCH   1  32
TORSDOF 27
