REMARK SMILES O=C(OCCOCCOCCOCCOC(=O)[C@H]1CC=CC[C@@H]1C(=O)NC1CCCCC1)c1ccc(-c2c3nc(c(-c4ccc(S(=O)(=O)[O-])cc4)c4ccc([nH]4)c(-c4ccc(S(=O)(=O)[O-])cc4)c4nc(c(-c5ccc(S(=O)(=O)[O-])cc5)c5ccc2[nH]5)C=C4)C=C3)cc1
REMARK SMILES IDX 8 1 7 2 6 3 5 4 4 5 3 6 2 7 1 8 33 9 34 10 92 11 35 12 91 13
REMARK SMILES IDX 36 14 37 15 38 16 85 17 39 18 90 19 84 20 86 21 40 22 89 23
REMARK SMILES IDX 83 24 82 25 41 27 71 28 52 29 70 30 53 31 56 32 69 33 87 34
REMARK SMILES IDX 54 35 55 36 68 38 88 39 57 40 42 41 43 42 51 43 44 44 50 45
REMARK SMILES IDX 45 46 46 47 47 48 48 49 49 50 72 51 73 52 81 53 74 54 80 55
REMARK SMILES IDX 75 56 76 57 77 58 78 59 79 60 58 61 59 62 67 63 60 64 66 65
REMARK SMILES IDX 61 66 62 67 63 68 64 69 65 70 9 71 10 72 11 73 12 74 13 75
REMARK SMILES IDX 14 76 15 77 16 78 17 79 18 80 19 81 23 82 20 83 22 84 21 85
REMARK SMILES IDX 24 86 25 87 26 88 27 90 28 91 32 92 29 93 31 94 30 95
REMARK H PARENT 86 26 56 37 26 89
REMARK Flexibility Score: inf
ROOT
ATOM      1  C   UNL     1       1.455  -2.313   0.108  1.00  0.00     0.188 C 
ENDROOT
BRANCH   1   2
ATOM      2  C   UNL     1       2.083  -0.960   0.432  1.00  0.00     0.188 C 
BRANCH   2   3
ATOM      3  O   UNL     1       3.482  -0.898   0.144  1.00  0.00    -0.376 OA
BRANCH   3   4
ATOM      4  C   UNL     1       4.323  -0.444   1.206  1.00  0.00     0.202 C 
BRANCH   4   5
ATOM      5  C   UNL     1       4.382   1.073   1.383  1.00  0.00     0.261 C 
BRANCH   5   6
ATOM      6  O   UNL     1       3.123   1.710   1.147  1.00  0.00    -0.460 OA
BRANCH   6   7
ATOM      7  C   UNL     1       2.559   2.043  -0.040  1.00  0.00     0.338 C 
ATOM      8  O   UNL     1       1.423   2.519  -0.008  1.00  0.00    -0.246 OA
BRANCH   7   9
ATOM      9  C   UNL     1       3.191   1.836  -1.391  1.00  0.00     0.060 A 
ATOM     10  C   UNL     1       4.350   1.103  -1.669  1.00  0.00     0.016 A 
ATOM     11  C   UNL     1       2.510   2.405  -2.484  1.00  0.00     0.016 A 
ATOM     12  C   UNL     1       4.837   0.955  -2.959  1.00  0.00     0.010 A 
ATOM     13  C   UNL     1       3.004   2.291  -3.786  1.00  0.00     0.010 A 
ATOM     14  C   UNL     1       4.193   1.592  -4.010  1.00  0.00    -0.014 A 
BRANCH  14  15
ATOM     15  C   UNL     1       4.954   1.752  -5.255  1.00  0.00     0.031 A 
ATOM     16  C   UNL     1       5.726   3.027  -5.409  1.00  0.00     0.074 A 
ATOM     17  C   UNL     1       5.060   0.737  -6.125  1.00  0.00     0.049 A 
ATOM     18  N   UNL     1       6.433   3.452  -6.417  1.00  0.00    -0.248 NA
ATOM     19  C   UNL     1       5.711   3.945  -4.253  1.00  0.00     0.031 C 
ATOM     20  C   UNL     1       4.467  -0.591  -5.952  1.00  0.00     0.029 A 
ATOM     21  N   UNL     1       5.719   0.661  -7.321  1.00  0.00    -0.354 N 
ATOM     22  C   UNL     1       6.911   4.699  -6.033  1.00  0.00     0.074 A 
ATOM     23  C   UNL     1       6.424   4.963  -4.702  1.00  0.00     0.031 C 
ATOM     24  C   UNL     1       4.776  -1.346  -7.019  1.00  0.00     0.029 A 
ATOM     25  C   UNL     1       5.529  -0.535  -7.970  1.00  0.00     0.049 A 
ATOM     26  H   UNL     1       6.274   1.390  -7.680  1.00  0.00     0.167 HD
ATOM     27  C   UNL     1       7.673   5.554  -6.750  1.00  0.00     0.031 A 
ATOM     28  C   UNL     1       5.883  -0.895  -9.218  1.00  0.00     0.031 A 
ATOM     29  C   UNL     1       8.104   5.262  -8.088  1.00  0.00     0.049 A 
ATOM     30  C   UNL     1       6.631   0.114 -10.049  1.00  0.00     0.074 A 
ATOM     31  C   UNL     1       8.820   6.055  -8.961  1.00  0.00     0.029 A 
ATOM     32  N   UNL     1       7.835   4.068  -8.748  1.00  0.00    -0.354 N 
ATOM     33  N   UNL     1       7.033   1.320  -9.711  1.00  0.00    -0.248 NA
ATOM     34  C   UNL     1       6.968  -0.272 -11.423  1.00  0.00     0.031 C 
ATOM     35  C   UNL     1       8.928   5.364 -10.173  1.00  0.00     0.029 A 
ATOM     36  C   UNL     1       8.346   4.110 -10.029  1.00  0.00     0.049 A 
ATOM     37  H   UNL     1       7.352   3.304  -8.358  1.00  0.00     0.167 HD
ATOM     38  C   UNL     1       7.684   1.833 -10.825  1.00  0.00     0.074 A 
ATOM     39  C   UNL     1       7.635   0.796 -11.841  1.00  0.00     0.031 C 
ATOM     40  C   UNL     1       8.270   3.045 -11.001  1.00  0.00     0.031 A 
BRANCH  27  41
ATOM     41  C   UNL     1       7.960   6.896  -6.132  1.00  0.00    -0.014 A 
ATOM     42  C   UNL     1       8.801   7.036  -5.012  1.00  0.00     0.010 A 
ATOM     43  C   UNL     1       7.310   8.034  -6.643  1.00  0.00     0.010 A 
ATOM     44  C   UNL     1       8.936   8.276  -4.379  1.00  0.00     0.020 A 
ATOM     45  C   UNL     1       7.466   9.281  -6.032  1.00  0.00     0.020 A 
ATOM     46  C   UNL     1       8.259   9.389  -4.888  1.00  0.00     0.054 A 
BRANCH  46  47
ATOM     47  S   UNL     1       8.427  10.980  -4.033  1.00  0.00     0.124 S 
ATOM     48  O   UNL     1       7.644  10.754  -2.820  1.00  0.00    -0.237 OA
ATOM     49  O   UNL     1       9.871  11.085  -3.836  1.00  0.00    -0.237 OA
ATOM     50  O   UNL     1       7.857  11.942  -4.973  1.00  0.00    -0.744 OA
ENDBRANCH  46  47
ENDBRANCH  27  41
BRANCH  28  51
ATOM     51  C   UNL     1       5.458  -2.217  -9.757  1.00  0.00    -0.014 A 
ATOM     52  C   UNL     1       6.391  -3.223 -10.059  1.00  0.00     0.010 A 
ATOM     53  C   UNL     1       4.087  -2.490  -9.935  1.00  0.00     0.010 A 
ATOM     54  C   UNL     1       5.962  -4.471 -10.528  1.00  0.00     0.020 A 
ATOM     55  C   UNL     1       3.652  -3.743 -10.375  1.00  0.00     0.020 A 
ATOM     56  C   UNL     1       4.595  -4.725 -10.676  1.00  0.00     0.054 A 
BRANCH  56  57
ATOM     57  S   UNL     1       4.059  -6.371 -11.223  1.00  0.00     0.124 S 
ATOM     58  O   UNL     1       4.468  -6.375 -12.624  1.00  0.00    -0.237 OA
ATOM     59  O   UNL     1       4.815  -7.257 -10.341  1.00  0.00    -0.237 OA
ATOM     60  O   UNL     1       2.616  -6.358 -10.992  1.00  0.00    -0.744 OA
ENDBRANCH  56  57
ENDBRANCH  28  51
BRANCH  40  61
ATOM     61  C   UNL     1       8.935   3.298 -12.324  1.00  0.00    -0.014 A 
ATOM     62  C   UNL     1       8.180   3.545 -13.482  1.00  0.00     0.010 A 
ATOM     63  C   UNL     1      10.338   3.391 -12.376  1.00  0.00     0.010 A 
ATOM     64  C   UNL     1       8.822   3.869 -14.679  1.00  0.00     0.020 A 
ATOM     65  C   UNL     1      10.979   3.744 -13.562  1.00  0.00     0.020 A 
ATOM     66  C   UNL     1      10.217   3.973 -14.708  1.00  0.00     0.054 A 
BRANCH  66  67
ATOM     67  S   UNL     1      11.020   4.472 -16.254  1.00  0.00     0.124 S 
ATOM     68  O   UNL     1      10.870   3.273 -17.074  1.00  0.00    -0.237 OA
ATOM     69  O   UNL     1      10.223   5.623 -16.671  1.00  0.00    -0.237 OA
ATOM     70  O   UNL     1      12.389   4.783 -15.849  1.00  0.00    -0.744 OA
ENDBRANCH  66  67
ENDBRANCH  40  61
ENDBRANCH  14  15
ENDBRANCH   7   9
ENDBRANCH   6   7
ENDBRANCH   5   6
ENDBRANCH   4   5
ENDBRANCH   3   4
ENDBRANCH   2   3
ENDBRANCH   1   2
BRANCH   1  71
ATOM     71  O   UNL     1       1.957  -3.408   0.858  1.00  0.00    -0.377 OA
BRANCH  71  72
ATOM     72  C   UNL     1       3.365  -3.592   0.850  1.00  0.00     0.188 C 
BRANCH  72  73
ATOM     73  C   UNL     1       4.134  -3.550  -0.498  1.00  0.00     0.188 C 
BRANCH  73  74
ATOM     74  O   UNL     1       3.331  -3.570  -1.664  1.00  0.00    -0.376 OA
BRANCH  74  75
ATOM     75  C   UNL     1       3.219  -4.848  -2.285  1.00  0.00     0.202 C 
BRANCH  75  76
ATOM     76  C   UNL     1       2.485  -5.896  -1.431  1.00  0.00     0.261 C 
BRANCH  76  77
ATOM     77  O   UNL     1       3.127  -6.194  -0.165  1.00  0.00    -0.463 OA
BRANCH  77  78
ATOM     78  C   UNL     1       4.346  -6.787  -0.212  1.00  0.00     0.310 C 
ATOM     79  O   UNL     1       4.822  -7.228  -1.253  1.00  0.00    -0.252 OA
BRANCH  78  80
ATOM     80  C   UNL     1       5.053  -6.777   1.168  1.00  0.00     0.115 C 
ATOM     81  C   UNL     1       5.710  -8.157   1.347  1.00  0.00     0.043 C 
ATOM     82  C   UNL     1       6.160  -5.673   1.351  1.00  0.00     0.096 C 
ATOM     83  C   UNL     1       6.976  -8.277   0.540  1.00  0.00    -0.030 C 
ATOM     84  C   UNL     1       7.151  -5.801   0.210  1.00  0.00     0.041 C 
ATOM     85  C   UNL     1       7.592  -7.218  -0.013  1.00  0.00    -0.030 C 
BRANCH  82  86
ATOM     86  C   UNL     1       6.728  -5.716   2.783  1.00  0.00     0.224 C 
ATOM     87  O   UNL     1       5.959  -6.027   3.708  1.00  0.00    -0.275 OA
ATOM     88  N   UNL     1       7.959  -5.351   3.209  1.00  0.00    -0.353 N 
ATOM     89  H   UNL     1       8.031  -5.513   4.177  1.00  0.00     0.163 HD
BRANCH  88  90
ATOM     90  C   UNL     1       9.233  -4.791   2.710  1.00  0.00     0.082 C 
ATOM     91  C   UNL     1      10.031  -5.659   1.721  1.00  0.00     0.025 C 
ATOM     92  C   UNL     1       9.162  -3.287   2.438  1.00  0.00     0.025 C 
ATOM     93  C   UNL     1      10.483  -5.029   0.390  1.00  0.00     0.002 C 
ATOM     94  C   UNL     1      10.303  -2.807   1.552  1.00  0.00     0.002 C 
ATOM     95  C   UNL     1      10.234  -3.534   0.224  1.00  0.00     0.000 C 
ENDBRANCH  88  90
ENDBRANCH  82  86
ENDBRANCH  78  80
ENDBRANCH  77  78
ENDBRANCH  76  77
ENDBRANCH  75  76
ENDBRANCH  74  75
ENDBRANCH  73  74
ENDBRANCH  72  73
ENDBRANCH  71  72
ENDBRANCH   1  71
TORSDOF 25
