REMARK SMILES Cc1ccc(Nc2c(Cl)cc(Cl)cc2Cl)c(CC(=O)OCCOCCOCCOCCOC(=O)c2ccc(-c3c4nc(c(-c5ccc(S(=O)(=O)[O-])cc5)c5ccc([nH]5)c(-c5ccc(S(=O)(=O)[O-])cc5)c5nc(c(-c6ccc(S(=O)(=O)[O-])cc6)c6ccc3[nH]6)C=C5)C=C4)cc2)c1
REMARK SMILES IDX 26 1 25 2 24 3 23 4 22 5 21 6 20 7 18 8 19 9 17 10 16 11
REMARK SMILES IDX 1 12 2 13 3 14 95 15 4 16 5 17 6 18 7 20 8 21 14 22 9 23
REMARK SMILES IDX 10 24 13 25 15 26 11 27 12 28 27 29 28 30 29 31 30 32 31 33
REMARK SMILES IDX 32 34 33 35 34 36 35 37 36 38 94 39 37 40 93 41 38 42 39 43
REMARK SMILES IDX 40 44 87 45 41 46 92 47 86 48 88 49 42 50 91 51 85 52 84 53
REMARK SMILES IDX 43 55 73 56 54 57 72 58 55 59 58 60 71 61 89 62 56 63 57 64
REMARK SMILES IDX 70 66 90 67 59 68 44 69 45 70 53 71 46 72 52 73 47 74 48 75
REMARK SMILES IDX 49 76 50 77 51 78 74 79 75 80 83 81 76 82 82 83 77 84 78 85
REMARK SMILES IDX 79 86 80 87 81 88 60 89 61 90 69 91 62 92 68 93 63 94 64 95
REMARK SMILES IDX 65 96 66 97 67 98
REMARK H PARENT 6 19 88 54 58 65
REMARK Flexibility Score: inf
ROOT
ATOM      1  O   UNL     1      -2.614   0.387  -2.761  1.00  0.00    -0.377 OA
ENDROOT
BRANCH   1   2
ATOM      2  C   UNL     1      -2.488   0.436  -1.355  1.00  0.00     0.188 C 
BRANCH   2   3
ATOM      3  C   UNL     1      -3.881   0.501  -0.714  1.00  0.00     0.188 C 
BRANCH   3   4
ATOM      4  O   UNL     1      -4.483   1.711  -0.266  1.00  0.00    -0.376 OA
BRANCH   4   5
ATOM      5  C   UNL     1      -4.198   2.868  -1.009  1.00  0.00     0.202 C 
BRANCH   5   6
ATOM      6  C   UNL     1      -3.346   3.856  -0.224  1.00  0.00     0.261 C 
BRANCH   6   7
ATOM      7  O   UNL     1      -2.312   3.201   0.514  1.00  0.00    -0.463 OA
BRANCH   7   8
ATOM      8  C   UNL     1      -2.676   2.855   1.774  1.00  0.00     0.310 C 
ATOM      9  O   UNL     1      -3.743   3.105   2.321  1.00  0.00    -0.252 OA
BRANCH   8  10
ATOM     10  C   UNL     1      -1.553   2.172   2.491  1.00  0.00     0.160 C 
BRANCH  10  11
ATOM     11  C   UNL     1      -1.053   0.900   1.847  1.00  0.00    -0.013 A 
ATOM     12  C   UNL     1       2.187  -0.013  -0.015  1.00  0.00     0.044 C 
ATOM     13  C   UNL     1       0.824  -0.109   0.604  1.00  0.00    -0.051 A 
ATOM     14  C   UNL     1       0.138  -1.315   0.617  1.00  0.00     0.005 A 
ATOM     15  C   UNL     1       0.218   0.991   1.212  1.00  0.00     0.009 A 
ATOM     16  C   UNL     1      -1.138  -1.405   1.197  1.00  0.00     0.026 A 
ATOM     17  C   UNL     1      -1.778  -0.319   1.830  1.00  0.00     0.042 A 
BRANCH  17  18
ATOM     18  N   UNL     1      -3.096  -0.444   2.396  1.00  0.00    -0.353 N 
ATOM     19  H   UNL     1      -3.400   0.324   2.932  1.00  0.00     0.167 HD
BRANCH  18  20
ATOM     20  C   UNL     1      -4.036  -1.534   2.288  1.00  0.00     0.076 A 
ATOM     21  C   UNL     1      -3.689  -2.875   2.525  1.00  0.00     0.067 A 
ATOM     22  C   UNL     1      -5.337  -1.324   1.753  1.00  0.00     0.067 A 
ATOM     23  Cl  UNL     1      -2.356  -3.303   3.548  1.00  0.00    -0.082 Cl
ATOM     24  C   UNL     1      -4.472  -3.934   2.041  1.00  0.00     0.043 A 
ATOM     25  C   UNL     1      -6.109  -2.374   1.232  1.00  0.00     0.043 A 
ATOM     26  Cl  UNL     1      -6.098   0.228   1.795  1.00  0.00    -0.082 Cl
ATOM     27  C   UNL     1      -5.652  -3.677   1.354  1.00  0.00     0.044 A 
ATOM     28  Cl  UNL     1      -6.546  -4.979   0.671  1.00  0.00    -0.084 Cl
ENDBRANCH  18  20
ENDBRANCH  17  18
ENDBRANCH  10  11
ENDBRANCH   8  10
ENDBRANCH   7   8
ENDBRANCH   6   7
ENDBRANCH   5   6
ENDBRANCH   4   5
ENDBRANCH   3   4
ENDBRANCH   2   3
ENDBRANCH   1   2
BRANCH   1  29
ATOM     29  C   UNL     1      -1.943  -0.660  -3.460  1.00  0.00     0.188 C 
BRANCH  29  30
ATOM     30  C   UNL     1      -2.260  -2.088  -3.045  1.00  0.00     0.188 C 
BRANCH  30  31
ATOM     31  O   UNL     1      -3.389  -2.098  -2.187  1.00  0.00    -0.376 OA
BRANCH  31  32
ATOM     32  C   UNL     1      -3.714  -3.367  -1.667  1.00  0.00     0.202 C 
BRANCH  32  33
ATOM     33  C   UNL     1      -4.341  -4.286  -2.711  1.00  0.00     0.261 C 
BRANCH  33  34
ATOM     34  O   UNL     1      -5.538  -3.658  -3.213  1.00  0.00    -0.460 OA
BRANCH  34  35
ATOM     35  C   UNL     1      -5.500  -3.340  -4.534  1.00  0.00     0.338 C 
ATOM     36  O   UNL     1      -5.470  -4.181  -5.435  1.00  0.00    -0.246 OA
BRANCH  35  37
ATOM     37  C   UNL     1      -5.464  -1.865  -4.728  1.00  0.00     0.060 A 
ATOM     38  C   UNL     1      -4.975  -1.291  -5.913  1.00  0.00     0.016 A 
ATOM     39  C   UNL     1      -5.779  -1.032  -3.664  1.00  0.00     0.016 A 
ATOM     40  C   UNL     1      -4.667   0.087  -5.989  1.00  0.00     0.010 A 
ATOM     41  C   UNL     1      -5.456   0.314  -3.740  1.00  0.00     0.010 A 
ATOM     42  C   UNL     1      -4.857   0.896  -4.874  1.00  0.00    -0.014 A 
BRANCH  42  43
ATOM     43  C   UNL     1      -4.423   2.306  -4.676  1.00  0.00     0.031 A 
ATOM     44  C   UNL     1      -5.452   3.266  -4.146  1.00  0.00     0.074 A 
ATOM     45  C   UNL     1      -3.095   2.574  -4.534  1.00  0.00     0.049 A 
ATOM     46  N   UNL     1      -5.216   4.455  -3.706  1.00  0.00    -0.248 NA
ATOM     47  C   UNL     1      -6.881   2.935  -4.053  1.00  0.00     0.031 C 
ATOM     48  C   UNL     1      -2.460   3.490  -3.573  1.00  0.00     0.029 A 
ATOM     49  N   UNL     1      -1.987   1.975  -5.090  1.00  0.00    -0.354 N 
ATOM     50  C   UNL     1      -6.316   4.873  -2.973  1.00  0.00     0.074 A 
ATOM     51  C   UNL     1      -7.362   3.945  -3.318  1.00  0.00     0.031 C 
ATOM     52  C   UNL     1      -1.121   3.352  -3.583  1.00  0.00     0.029 A 
ATOM     53  C   UNL     1      -0.816   2.690  -4.824  1.00  0.00     0.049 A 
ATOM     54  H   UNL     1      -2.017   1.142  -5.614  1.00  0.00     0.167 HD
ATOM     55  C   UNL     1      -6.165   5.853  -2.029  1.00  0.00     0.031 A 
ATOM     56  C   UNL     1      -0.221   3.356  -5.864  1.00  0.00     0.031 A 
ATOM     57  C   UNL     1      -4.817   6.478  -2.071  1.00  0.00     0.049 A 
ATOM     58  C   UNL     1      -0.529   4.870  -5.831  1.00  0.00     0.074 A 
ATOM     59  C   UNL     1      -3.912   6.935  -1.127  1.00  0.00     0.029 A 
ATOM     60  N   UNL     1      -4.155   6.619  -3.295  1.00  0.00    -0.354 N 
ATOM     61  N   UNL     1      -1.350   5.436  -4.974  1.00  0.00    -0.248 NA
ATOM     62  C   UNL     1       0.073   5.878  -6.696  1.00  0.00     0.031 C 
ATOM     63  C   UNL     1      -2.697   7.285  -1.794  1.00  0.00     0.029 A 
ATOM     64  C   UNL     1      -2.874   7.104  -3.156  1.00  0.00     0.049 A 
ATOM     65  H   UNL     1      -4.562   6.396  -4.163  1.00  0.00     0.167 HD
ATOM     66  C   UNL     1      -1.411   6.787  -5.130  1.00  0.00     0.074 A 
ATOM     67  C   UNL     1      -0.518   7.011  -6.259  1.00  0.00     0.031 C 
ATOM     68  C   UNL     1      -2.171   7.610  -4.336  1.00  0.00     0.031 A 
BRANCH  55  69
ATOM     69  C   UNL     1      -7.171   6.158  -0.900  1.00  0.00    -0.014 A 
ATOM     70  C   UNL     1      -6.962   7.293  -0.083  1.00  0.00     0.010 A 
ATOM     71  C   UNL     1      -8.261   5.343  -0.510  1.00  0.00     0.010 A 
ATOM     72  C   UNL     1      -7.727   7.569   1.067  1.00  0.00     0.020 A 
ATOM     73  C   UNL     1      -9.076   5.638   0.613  1.00  0.00     0.020 A 
ATOM     74  C   UNL     1      -8.786   6.739   1.412  1.00  0.00     0.054 A 
BRANCH  74  75
ATOM     75  S   UNL     1      -9.781   7.148   2.880  1.00  0.00     0.124 S 
ATOM     76  O   UNL     1      -8.869   6.842   3.979  1.00  0.00    -0.237 OA
ATOM     77  O   UNL     1     -10.070   8.567   2.687  1.00  0.00    -0.237 OA
ATOM     78  O   UNL     1     -10.942   6.267   2.772  1.00  0.00    -0.744 OA
ENDBRANCH  74  75
ENDBRANCH  55  69
BRANCH  56  79
ATOM     79  C   UNL     1       0.005   2.372  -6.995  1.00  0.00    -0.014 A 
ATOM     80  C   UNL     1       0.968   1.369  -6.688  1.00  0.00     0.010 A 
ATOM     81  C   UNL     1      -1.087   1.992  -7.809  1.00  0.00     0.010 A 
ATOM     82  C   UNL     1       0.693   0.010  -6.910  1.00  0.00     0.020 A 
ATOM     83  C   UNL     1      -1.357   0.623  -8.040  1.00  0.00     0.020 A 
ATOM     84  C   UNL     1      -0.502  -0.358  -7.525  1.00  0.00     0.054 A 
BRANCH  84  85
ATOM     85  S   UNL     1      -1.040  -2.099  -7.378  1.00  0.00     0.124 S 
ATOM     86  O   UNL     1      -0.190  -2.774  -8.351  1.00  0.00    -0.237 OA
ATOM     87  O   UNL     1      -0.754  -2.398  -5.974  1.00  0.00    -0.237 OA
ATOM     88  O   UNL     1      -2.459  -2.042  -7.712  1.00  0.00    -0.744 OA
ENDBRANCH  84  85
ENDBRANCH  56  79
BRANCH  68  89
ATOM     89  C   UNL     1      -2.430   9.065  -4.629  1.00  0.00    -0.014 A 
ATOM     90  C   UNL     1      -1.494   9.931  -5.190  1.00  0.00     0.010 A 
ATOM     91  C   UNL     1      -3.698   9.607  -4.285  1.00  0.00     0.010 A 
ATOM     92  C   UNL     1      -1.863  11.231  -5.551  1.00  0.00     0.020 A 
ATOM     93  C   UNL     1      -4.061  10.913  -4.593  1.00  0.00     0.020 A 
ATOM     94  C   UNL     1      -3.152  11.700  -5.279  1.00  0.00     0.054 A 
BRANCH  94  95
ATOM     95  S   UNL     1      -3.624  13.349  -5.833  1.00  0.00     0.124 S 
ATOM     96  O   UNL     1      -2.473  14.157  -5.437  1.00  0.00    -0.237 OA
ATOM     97  O   UNL     1      -3.783  13.145  -7.271  1.00  0.00    -0.237 OA
ATOM     98  O   UNL     1      -4.857  13.627  -5.102  1.00  0.00    -0.744 OA
ENDBRANCH  94  95
ENDBRANCH  68  89
ENDBRANCH  42  43
ENDBRANCH  35  37
ENDBRANCH  34  35
ENDBRANCH  33  34
ENDBRANCH  32  33
ENDBRANCH  31  32
ENDBRANCH  30  31
ENDBRANCH  29  30
ENDBRANCH   1  29
TORSDOF 26
