REMARK SMILES CS(=O)(=O)c1ccc(/C=C(/C(=O)OCCOCCOCCOCCOC(=O)c2ccc(-c3c4nc(c(-c5ccc(S(=O)(=O)[O-])cc5)c5ccc([nH]5)c(-c5ccc(S(=O)(=O)[O-])cc5)c5nc(c(-c6ccc(S(=O)(=O)[O-])cc6)c6ccc3[nH]6)C=C5)C=C4)cc2)c2ccc(F)cc2)cc1
REMARK SMILES IDX 20 1 19 2 18 3 17 4 16 5 15 6 14 7 13 8 11 9 12 10 10 11
REMARK SMILES IDX 9 12 8 13 5 14 6 15 96 16 7 17 95 18 2 19 1 20 3 21 4 22
REMARK SMILES IDX 88 23 89 24 94 25 90 26 93 27 91 28 92 29 21 30 22 31 23 32
REMARK SMILES IDX 24 33 25 34 26 35 27 36 28 37 29 38 87 39 30 40 86 41 31 42
REMARK SMILES IDX 32 43 33 44 80 45 34 46 85 47 79 48 81 49 35 50 84 51 78 52
REMARK SMILES IDX 77 53 36 55 66 56 47 57 65 58 48 59 51 60 64 61 82 62 49 63
REMARK SMILES IDX 50 64 63 66 83 67 52 68 37 69 38 70 46 71 39 72 45 73 40 74
REMARK SMILES IDX 41 75 42 76 43 77 44 78 67 79 68 80 76 81 69 82 75 83 70 84
REMARK SMILES IDX 71 85 72 86 73 87 74 88 53 89 54 90 62 91 55 92 61 93 56 94
REMARK SMILES IDX 57 95 58 96 59 97 60 98
REMARK H PARENT 81 54 51 65
REMARK Flexibility Score: inf
ROOT
ATOM      1  C   UNL     1       5.828   3.700  -9.357  1.00  0.00     0.188 C 
ENDROOT
BRANCH   1   2
ATOM      2  O   UNL     1       5.148   2.942  -8.363  1.00  0.00    -0.377 OA
BRANCH   2   3
ATOM      3  C   UNL     1       5.220   1.527  -8.399  1.00  0.00     0.188 C 
BRANCH   3   4
ATOM      4  C   UNL     1       5.045   0.794  -9.748  1.00  0.00     0.188 C 
BRANCH   4   5
ATOM      5  O   UNL     1       4.876   1.659 -10.857  1.00  0.00    -0.376 OA
BRANCH   5   6
ATOM      6  C   UNL     1       3.581   1.750 -11.424  1.00  0.00     0.202 C 
BRANCH   6   7
ATOM      7  C   UNL     1       2.437   2.261 -10.534  1.00  0.00     0.261 C 
BRANCH   7   8
ATOM      8  O   UNL     1       2.376   1.712  -9.208  1.00  0.00    -0.460 OA
BRANCH   8   9
ATOM      9  C   UNL     1       1.923   0.443  -9.073  1.00  0.00     0.338 C 
ATOM     10  O   UNL     1       1.534  -0.269  -9.986  1.00  0.00    -0.246 OA
BRANCH   9  11
ATOM     11  C   UNL     1       2.115  -0.038  -7.658  1.00  0.00     0.067 C 
ATOM     12  C   UNL     1       1.909   0.831  -6.638  1.00  0.00     0.024 C 
BRANCH  12  13
ATOM     13  C   UNL     1       1.821   0.555  -5.183  1.00  0.00    -0.025 A 
ATOM     14  C   UNL     1       1.086  -0.203  -2.588  1.00  0.00     0.067 A 
ATOM     15  C   UNL     1       2.077  -0.914  -3.260  1.00  0.00     0.021 A 
ATOM     16  C   UNL     1       0.553   0.960  -3.142  1.00  0.00     0.021 A 
ATOM     17  C   UNL     1       2.471  -0.502  -4.534  1.00  0.00     0.009 A 
ATOM     18  C   UNL     1       0.930   1.340  -4.433  1.00  0.00     0.009 A 
BRANCH  14  19
ATOM     19  S   UNL     1       0.385  -0.867  -1.099  1.00  0.00     0.175 S 
ATOM     20  C   UNL     1       1.055   0.150   0.182  1.00  0.00     0.163 C 
ATOM     21  O   UNL     1       0.910  -2.208  -0.921  1.00  0.00    -0.224 OA
ATOM     22  O   UNL     1      -1.047  -0.639  -1.161  1.00  0.00    -0.224 OA
ENDBRANCH  14  19
ENDBRANCH  12  13
BRANCH  11  23
ATOM     23  C   UNL     1       2.501  -1.453  -7.466  1.00  0.00    -0.011 A 
ATOM     24  C   UNL     1       3.856  -1.830  -7.551  1.00  0.00     0.012 A 
ATOM     25  C   UNL     1       1.553  -2.417  -7.106  1.00  0.00     0.012 A 
ATOM     26  C   UNL     1       4.257  -3.139  -7.284  1.00  0.00     0.040 A 
ATOM     27  C   UNL     1       1.959  -3.725  -6.823  1.00  0.00     0.040 A 
ATOM     28  C   UNL     1       3.303  -4.073  -6.917  1.00  0.00     0.123 A 
ATOM     29  F   UNL     1       3.687  -5.324  -6.629  1.00  0.00    -0.207 F 
ENDBRANCH  11  23
ENDBRANCH   9  11
ENDBRANCH   8   9
ENDBRANCH   7   8
ENDBRANCH   6   7
ENDBRANCH   5   6
ENDBRANCH   4   5
ENDBRANCH   3   4
ENDBRANCH   2   3
ENDBRANCH   1   2
BRANCH   1  30
ATOM     30  C   UNL     1       7.106   3.147 -10.031  1.00  0.00     0.188 C 
BRANCH  30  31
ATOM     31  O   UNL     1       7.624   1.959  -9.449  1.00  0.00    -0.376 OA
BRANCH  31  32
ATOM     32  C   UNL     1       8.790   2.073  -8.652  1.00  0.00     0.202 C 
BRANCH  32  33
ATOM     33  C   UNL     1       8.666   2.886  -7.356  1.00  0.00     0.261 C 
BRANCH  33  34
ATOM     34  O   UNL     1       8.195   4.233  -7.498  1.00  0.00    -0.460 OA
BRANCH  34  35
ATOM     35  C   UNL     1       8.951   5.085  -8.224  1.00  0.00     0.338 C 
ATOM     36  O   UNL     1      10.012   4.841  -8.774  1.00  0.00    -0.246 OA
BRANCH  35  37
ATOM     37  C   UNL     1       8.166   6.322  -8.407  1.00  0.00     0.060 A 
ATOM     38  C   UNL     1       7.816   6.730  -9.703  1.00  0.00     0.016 A 
ATOM     39  C   UNL     1       7.747   7.055  -7.295  1.00  0.00     0.016 A 
ATOM     40  C   UNL     1       7.067   7.892  -9.888  1.00  0.00     0.010 A 
ATOM     41  C   UNL     1       7.021   8.231  -7.484  1.00  0.00     0.010 A 
ATOM     42  C   UNL     1       6.706   8.672  -8.782  1.00  0.00    -0.014 A 
BRANCH  42  43
ATOM     43  C   UNL     1       6.191  10.046  -8.984  1.00  0.00     0.031 A 
ATOM     44  C   UNL     1       7.167  11.187  -8.882  1.00  0.00     0.074 A 
ATOM     45  C   UNL     1       4.896  10.281  -9.258  1.00  0.00     0.049 A 
ATOM     46  N   UNL     1       6.951  12.473  -8.959  1.00  0.00    -0.248 NA
ATOM     47  C   UNL     1       8.578  10.824  -8.658  1.00  0.00     0.031 C 
ATOM     48  C   UNL     1       3.865   9.259  -9.429  1.00  0.00     0.029 A 
ATOM     49  N   UNL     1       4.226  11.467  -9.430  1.00  0.00    -0.354 N 
ATOM     50  C   UNL     1       8.192  13.073  -8.781  1.00  0.00     0.074 A 
ATOM     51  C   UNL     1       9.151  12.014  -8.562  1.00  0.00     0.031 C 
ATOM     52  C   UNL     1       2.689   9.864  -9.674  1.00  0.00     0.029 A 
ATOM     53  C   UNL     1       2.876  11.314  -9.637  1.00  0.00     0.049 A 
ATOM     54  H   UNL     1       4.672  12.345  -9.408  1.00  0.00     0.167 HD
ATOM     55  C   UNL     1       8.507  14.390  -8.801  1.00  0.00     0.031 A 
ATOM     56  C   UNL     1       1.902  12.239  -9.757  1.00  0.00     0.031 A 
ATOM     57  C   UNL     1       7.545  15.441  -8.999  1.00  0.00     0.049 A 
ATOM     58  C   UNL     1       2.263  13.702  -9.694  1.00  0.00     0.074 A 
ATOM     59  C   UNL     1       7.763  16.806  -9.049  1.00  0.00     0.029 A 
ATOM     60  N   UNL     1       6.183  15.246  -9.171  1.00  0.00    -0.354 N 
ATOM     61  N   UNL     1       3.444  14.256  -9.548  1.00  0.00    -0.248 NA
ATOM     62  C   UNL     1       1.159  14.665  -9.819  1.00  0.00     0.031 C 
ATOM     63  C   UNL     1       6.524  17.440  -9.183  1.00  0.00     0.029 A 
ATOM     64  C   UNL     1       5.543  16.467  -9.296  1.00  0.00     0.049 A 
ATOM     65  H   UNL     1       5.737  14.368  -9.199  1.00  0.00     0.167 HD
ATOM     66  C   UNL     1       3.228  15.631  -9.601  1.00  0.00     0.074 A 
ATOM     67  C   UNL     1       1.807  15.823  -9.802  1.00  0.00     0.031 C 
ATOM     68  C   UNL     1       4.127  16.643  -9.499  1.00  0.00     0.031 A 
BRANCH  55  69
ATOM     69  C   UNL     1       9.945  14.766  -8.559  1.00  0.00    -0.014 A 
ATOM     70  C   UNL     1      10.945  14.483  -9.508  1.00  0.00     0.010 A 
ATOM     71  C   UNL     1      10.295  15.442  -7.377  1.00  0.00     0.010 A 
ATOM     72  C   UNL     1      12.274  14.838  -9.260  1.00  0.00     0.020 A 
ATOM     73  C   UNL     1      11.617  15.826  -7.139  1.00  0.00     0.020 A 
ATOM     74  C   UNL     1      12.601  15.507  -8.076  1.00  0.00     0.054 A 
BRANCH  74  75
ATOM     75  S   UNL     1      14.330  15.978  -7.794  1.00  0.00     0.124 S 
ATOM     76  O   UNL     1      14.959  14.682  -7.551  1.00  0.00    -0.237 OA
ATOM     77  O   UNL     1      14.693  16.626  -9.051  1.00  0.00    -0.237 OA
ATOM     78  O   UNL     1      14.264  16.864  -6.634  1.00  0.00    -0.744 OA
ENDBRANCH  74  75
ENDBRANCH  55  69
BRANCH  56  79
ATOM     79  C   UNL     1       0.485  11.812  -9.928  1.00  0.00    -0.014 A 
ATOM     80  C   UNL     1      -0.200  12.052 -11.132  1.00  0.00     0.010 A 
ATOM     81  C   UNL     1      -0.192  11.165  -8.877  1.00  0.00     0.010 A 
ATOM     82  C   UNL     1      -1.537  11.667 -11.277  1.00  0.00     0.020 A 
ATOM     83  C   UNL     1      -1.518  10.751  -9.028  1.00  0.00     0.020 A 
ATOM     84  C   UNL     1      -2.186  11.014 -10.225  1.00  0.00     0.054 A 
BRANCH  84  85
ATOM     85  S   UNL     1      -3.903  10.475 -10.457  1.00  0.00     0.124 S 
ATOM     86  O   UNL     1      -4.625  11.743 -10.447  1.00  0.00    -0.237 OA
ATOM     87  O   UNL     1      -3.844   9.789 -11.745  1.00  0.00    -0.237 OA
ATOM     88  O   UNL     1      -4.146   9.606  -9.308  1.00  0.00    -0.744 OA
ENDBRANCH  84  85
ENDBRANCH  56  79
BRANCH  68  89
ATOM     89  C   UNL     1       3.615  18.053  -9.650  1.00  0.00    -0.014 A 
ATOM     90  C   UNL     1       2.823  18.660  -8.661  1.00  0.00     0.010 A 
ATOM     91  C   UNL     1       3.995  18.805 -10.779  1.00  0.00     0.010 A 
ATOM     92  C   UNL     1       2.393  19.982  -8.812  1.00  0.00     0.020 A 
ATOM     93  C   UNL     1       3.596  20.136 -10.918  1.00  0.00     0.020 A 
ATOM     94  C   UNL     1       2.785  20.712  -9.939  1.00  0.00     0.054 A 
BRANCH  94  95
ATOM     95  S   UNL     1       2.253  22.440 -10.088  1.00  0.00     0.124 S 
ATOM     96  O   UNL     1       0.828  22.296 -10.373  1.00  0.00    -0.237 OA
ATOM     97  O   UNL     1       2.579  22.989  -8.774  1.00  0.00    -0.237 OA
ATOM     98  O   UNL     1       3.059  22.958 -11.191  1.00  0.00    -0.744 OA
ENDBRANCH  94  95
ENDBRANCH  68  89
ENDBRANCH  42  43
ENDBRANCH  35  37
ENDBRANCH  34  35
ENDBRANCH  33  34
ENDBRANCH  32  33
ENDBRANCH  31  32
ENDBRANCH  30  31
ENDBRANCH   1  30
TORSDOF 26
