REMARK SMILES CO[C@H]1C[C@H](C(=O)OCCOCCOCCOCCOC(=O)c2ccc(-c3c4nc(c(-c5ccc(S(=O)(=O)[O-])cc5)c5ccc([nH]5)c(-c5ccc(S(=O)(=O)[O-])cc5)c5nc(c(-c6ccc(S(=O)(=O)[O-])cc6)c6ccc3[nH]6)C=C5)C=C4)cc2)N(C(=O)CCSCC(N)=O)C1
REMARK SMILES IDX 12 1 11 2 10 3 9 4 8 5 6 6 7 7 5 8 3 9 4 10 93 11 83 12 2 13
REMARK SMILES IDX 1 14 84 15 85 16 86 17 87 18 88 19 89 20 90 21 91 22 92 23
REMARK SMILES IDX 13 26 14 27 15 28 16 29 17 30 18 31 19 32 20 33 21 34 22 35
REMARK SMILES IDX 23 36 24 37 82 38 25 39 81 40 26 41 27 42 28 43 75 44 29 45
REMARK SMILES IDX 80 46 74 47 76 48 30 49 79 50 73 51 72 52 31 54 61 55 42 56
REMARK SMILES IDX 60 57 43 58 46 59 59 60 77 61 44 62 45 63 58 65 78 66 47 67
REMARK SMILES IDX 32 68 33 69 41 70 34 71 40 72 35 73 36 74 37 75 38 76 39 77
REMARK SMILES IDX 62 78 63 79 71 80 64 81 70 82 65 83 66 84 67 85 68 86 69 87
REMARK SMILES IDX 48 88 49 89 57 90 50 91 56 92 51 93 52 94 53 95 54 96 55 97
REMARK H PARENT 91 24 91 25 76 53 46 64
REMARK Flexibility Score: inf
ROOT
ATOM      1  C   UNL     1      -0.764   5.943  -1.373  1.00  0.00     0.188 C 
ENDROOT
BRANCH   1   2
ATOM      2  O   UNL     1      -0.417   5.622  -2.703  1.00  0.00    -0.376 OA
BRANCH   2   3
ATOM      3  C   UNL     1       0.463   4.562  -3.045  1.00  0.00     0.202 C 
BRANCH   3   4
ATOM      4  C   UNL     1       1.624   4.062  -2.168  1.00  0.00     0.261 C 
BRANCH   4   5
ATOM      5  O   UNL     1       1.343   3.642  -0.816  1.00  0.00    -0.462 OA
BRANCH   5   6
ATOM      6  C   UNL     1       1.663   4.551   0.134  1.00  0.00     0.329 C 
ATOM      7  O   UNL     1       2.060   5.686  -0.114  1.00  0.00    -0.250 OA
BRANCH   6   8
ATOM      8  C   UNL     1       1.612   4.050   1.585  1.00  0.00     0.197 C 
ATOM      9  C   UNL     1       1.167   1.688   1.895  1.00  0.00     0.140 C 
ATOM     10  C   UNL     1       0.531   3.071   2.018  1.00  0.00     0.071 C 
ATOM     11  C   UNL     1       2.660   1.960   2.131  1.00  0.00     0.152 C 
ATOM     12  N   UNL     1       2.857   3.397   1.976  1.00  0.00    -0.326 N 
BRANCH   9  13
ATOM     13  O   UNL     1       0.730   0.677   2.804  1.00  0.00    -0.380 OA
ATOM     14  C   UNL     1      -0.465   0.912   3.529  1.00  0.00     0.195 C 
ENDBRANCH   9  13
BRANCH  12  15
ATOM     15  C   UNL     1       4.075   3.979   2.241  1.00  0.00     0.224 C 
ATOM     16  O   UNL     1       5.031   3.305   2.629  1.00  0.00    -0.275 OA
BRANCH  15  17
ATOM     17  C   UNL     1       4.250   5.466   2.005  1.00  0.00     0.111 C 
BRANCH  17  18
ATOM     18  C   UNL     1       5.352   5.804   0.995  1.00  0.00     0.080 C 
BRANCH  18  19
ATOM     19  S   UNL     1       5.178   5.329  -0.771  1.00  0.00    -0.152 SA
BRANCH  19  20
ATOM     20  C   UNL     1       4.993   3.536  -0.627  1.00  0.00     0.169 C 
BRANCH  20  21
ATOM     21  C   UNL     1       5.085   2.771  -1.931  1.00  0.00     0.227 C 
ATOM     22  N   UNL     1       5.321   1.432  -1.749  1.00  0.00    -0.369 N 
ATOM     23  O   UNL     1       4.887   3.228  -3.049  1.00  0.00    -0.274 OA
ATOM     24  H   UNL     1       5.479   1.079  -0.843  1.00  0.00     0.159 HD
ATOM     25  H   UNL     1       5.332   0.825  -2.523  1.00  0.00     0.159 HD
ENDBRANCH  20  21
ENDBRANCH  19  20
ENDBRANCH  18  19
ENDBRANCH  17  18
ENDBRANCH  15  17
ENDBRANCH  12  15
ENDBRANCH   6   8
ENDBRANCH   5   6
ENDBRANCH   4   5
ENDBRANCH   3   4
ENDBRANCH   2   3
ENDBRANCH   1   2
BRANCH   1  26
ATOM     26  C   UNL     1      -1.365   4.880  -0.444  1.00  0.00     0.188 C 
BRANCH  26  27
ATOM     27  O   UNL     1      -1.283   3.541  -0.889  1.00  0.00    -0.377 OA
BRANCH  27  28
ATOM     28  C   UNL     1      -2.219   3.082  -1.862  1.00  0.00     0.188 C 
BRANCH  28  29
ATOM     29  C   UNL     1      -3.100   4.095  -2.621  1.00  0.00     0.188 C 
BRANCH  29  30
ATOM     30  O   UNL     1      -3.604   5.154  -1.822  1.00  0.00    -0.376 OA
BRANCH  30  31
ATOM     31  C   UNL     1      -4.875   5.017  -1.205  1.00  0.00     0.202 C 
BRANCH  31  32
ATOM     32  C   UNL     1      -5.105   3.829  -0.256  1.00  0.00     0.261 C 
BRANCH  32  33
ATOM     33  O   UNL     1      -4.974   2.516  -0.821  1.00  0.00    -0.460 OA
BRANCH  33  34
ATOM     34  C   UNL     1      -5.690   2.227  -1.931  1.00  0.00     0.338 C 
ATOM     35  O   UNL     1      -6.520   2.925  -2.472  1.00  0.00    -0.246 OA
BRANCH  34  36
ATOM     36  C   UNL     1      -5.124   0.986  -2.505  1.00  0.00     0.060 A 
ATOM     37  C   UNL     1      -4.620   1.012  -3.812  1.00  0.00     0.016 A 
ATOM     38  C   UNL     1      -5.098  -0.193  -1.757  1.00  0.00     0.016 A 
ATOM     39  C   UNL     1      -4.128  -0.155  -4.394  1.00  0.00     0.010 A 
ATOM     40  C   UNL     1      -4.635  -1.368  -2.351  1.00  0.00     0.010 A 
ATOM     41  C   UNL     1      -4.191  -1.360  -3.685  1.00  0.00    -0.014 A 
BRANCH  41  42
ATOM     42  C   UNL     1      -4.048  -2.639  -4.417  1.00  0.00     0.031 A 
ATOM     43  C   UNL     1      -5.307  -3.317  -4.888  1.00  0.00     0.074 A 
ATOM     44  C   UNL     1      -2.844  -3.175  -4.680  1.00  0.00     0.049 A 
ATOM     45  N   UNL     1      -5.456  -4.468  -5.489  1.00  0.00    -0.248 NA
ATOM     46  C   UNL     1      -6.570  -2.596  -4.644  1.00  0.00     0.031 C 
ATOM     47  C   UNL     1      -1.555  -2.579  -4.333  1.00  0.00     0.029 A 
ATOM     48  N   UNL     1      -2.516  -4.354  -5.299  1.00  0.00    -0.354 N 
ATOM     49  C   UNL     1      -6.825  -4.615  -5.681  1.00  0.00     0.074 A 
ATOM     50  C   UNL     1      -7.465  -3.452  -5.111  1.00  0.00     0.031 C 
ATOM     51  C   UNL     1      -0.573  -3.406  -4.734  1.00  0.00     0.029 A 
ATOM     52  C   UNL     1      -1.165  -4.604  -5.328  1.00  0.00     0.049 A 
ATOM     53  H   UNL     1      -3.185  -4.964  -5.687  1.00  0.00     0.167 HD
ATOM     54  C   UNL     1      -7.490  -5.629  -6.282  1.00  0.00     0.031 A 
ATOM     55  C   UNL     1      -0.490  -5.689  -5.759  1.00  0.00     0.031 A 
ATOM     56  C   UNL     1      -6.848  -6.792  -6.831  1.00  0.00     0.049 A 
ATOM     57  C   UNL     1      -1.258  -6.848  -6.343  1.00  0.00     0.074 A 
ATOM     58  C   UNL     1      -7.427  -7.875  -7.466  1.00  0.00     0.029 A 
ATOM     59  N   UNL     1      -5.481  -7.027  -6.803  1.00  0.00    -0.354 N 
ATOM     60  N   UNL     1      -2.552  -6.971  -6.530  1.00  0.00    -0.248 NA
ATOM     61  C   UNL     1      -0.474  -8.012  -6.779  1.00  0.00     0.031 C 
ATOM     62  C   UNL     1      -6.418  -8.796  -7.762  1.00  0.00     0.029 A 
ATOM     63  C   UNL     1      -5.201  -8.252  -7.380  1.00  0.00     0.049 A 
ATOM     64  H   UNL     1      -4.810  -6.412  -6.427  1.00  0.00     0.167 HD
ATOM     65  C   UNL     1      -2.732  -8.212  -7.136  1.00  0.00     0.074 A 
ATOM     66  C   UNL     1      -1.414  -8.793  -7.294  1.00  0.00     0.031 C 
ATOM     67  C   UNL     1      -3.882  -8.815  -7.529  1.00  0.00     0.031 A 
BRANCH  54  68
ATOM     68  C   UNL     1      -8.993  -5.544  -6.329  1.00  0.00    -0.014 A 
ATOM     69  C   UNL     1      -9.650  -4.601  -7.139  1.00  0.00     0.010 A 
ATOM     70  C   UNL     1      -9.761  -6.444  -5.567  1.00  0.00     0.010 A 
ATOM     71  C   UNL     1     -11.046  -4.535  -7.158  1.00  0.00     0.020 A 
ATOM     72  C   UNL     1     -11.157  -6.403  -5.608  1.00  0.00     0.020 A 
ATOM     73  C   UNL     1     -11.791  -5.438  -6.393  1.00  0.00     0.054 A 
BRANCH  73  74
ATOM     74  S   UNL     1     -13.601  -5.348  -6.458  1.00  0.00     0.124 S 
ATOM     75  O   UNL     1     -13.867  -4.105  -5.739  1.00  0.00    -0.237 OA
ATOM     76  O   UNL     1     -13.866  -5.313  -7.894  1.00  0.00    -0.237 OA
ATOM     77  O   UNL     1     -14.034  -6.565  -5.777  1.00  0.00    -0.744 OA
ENDBRANCH  73  74
ENDBRANCH  54  68
BRANCH  55  78
ATOM     78  C   UNL     1       0.993  -5.745  -5.628  1.00  0.00    -0.014 A 
ATOM     79  C   UNL     1       1.819  -5.739  -6.766  1.00  0.00     0.010 A 
ATOM     80  C   UNL     1       1.589  -5.812  -4.355  1.00  0.00     0.010 A 
ATOM     81  C   UNL     1       3.209  -5.814  -6.634  1.00  0.00     0.020 A 
ATOM     82  C   UNL     1       2.979  -5.856  -4.217  1.00  0.00     0.020 A 
ATOM     83  C   UNL     1       3.781  -5.867  -5.360  1.00  0.00     0.054 A 
BRANCH  83  84
ATOM     84  S   UNL     1       5.589  -5.905  -5.211  1.00  0.00     0.124 S 
ATOM     85  O   UNL     1       5.903  -7.254  -5.670  1.00  0.00    -0.237 OA
ATOM     86  O   UNL     1       5.999  -4.820  -6.098  1.00  0.00    -0.237 OA
ATOM     87  O   UNL     1       5.819  -5.657  -3.789  1.00  0.00    -0.744 OA
ENDBRANCH  83  84
ENDBRANCH  55  78
BRANCH  67  88
ATOM     88  C   UNL     1      -3.771 -10.156  -8.210  1.00  0.00    -0.014 A 
ATOM     89  C   UNL     1      -3.406 -11.312  -7.499  1.00  0.00     0.010 A 
ATOM     90  C   UNL     1      -4.103 -10.267  -9.573  1.00  0.00     0.010 A 
ATOM     91  C   UNL     1      -3.341 -12.549  -8.148  1.00  0.00     0.020 A 
ATOM     92  C   UNL     1      -4.072 -11.506 -10.217  1.00  0.00     0.020 A 
ATOM     93  C   UNL     1      -3.677 -12.638  -9.503  1.00  0.00     0.054 A 
BRANCH  93  94
ATOM     94  S   UNL     1      -3.627 -14.261 -10.309  1.00  0.00     0.124 S 
ATOM     95  O   UNL     1      -2.192 -14.514 -10.396  1.00  0.00    -0.237 OA
ATOM     96  O   UNL     1      -4.359 -15.107  -9.369  1.00  0.00    -0.237 OA
ATOM     97  O   UNL     1      -4.298 -14.036 -11.588  1.00  0.00    -0.744 OA
ENDBRANCH  93  94
ENDBRANCH  67  88
ENDBRANCH  41  42
ENDBRANCH  34  36
ENDBRANCH  33  34
ENDBRANCH  32  33
ENDBRANCH  31  32
ENDBRANCH  30  31
ENDBRANCH  29  30
ENDBRANCH  28  29
ENDBRANCH  27  28
ENDBRANCH  26  27
ENDBRANCH   1  26
TORSDOF 30
