REMARK SMILES N#CCC[NH+]1CCN(c2cc(C(=O)OCCOCCOCCOCCOC(=O)c3ccc(-c4c5nc(c(-c6ccc(S(=O)(=O)[O-])cc6)c6ccc([nH]6)c(-c6ccc(S(=O)(=O)[O-])cc6)c6nc(c(-c7ccc(S(=O)(=O)[O-])cc7)c7ccc4[nH]7)C=C6)C=C5)cc3)c3cc(NS(=O)(=O)c4ccccc4Cl)ccc3n2)CC1
REMARK SMILES IDX 19 1 18 2 17 3 16 4 15 5 14 6 12 7 13 8 11 9 9 10 10 11
REMARK SMILES IDX 106 12 105 13 89 14 104 15 90 16 103 17 91 18 8 19 5 20 6 21
REMARK SMILES IDX 108 22 7 24 107 25 4 26 3 27 2 28 1 29 92 30 93 32 94 33
REMARK SMILES IDX 95 34 96 35 97 36 101 37 98 38 100 39 102 40 99 41 20 42
REMARK SMILES IDX 21 43 22 44 23 45 24 46 25 47 26 48 27 49 28 50 29 51 30 52
REMARK SMILES IDX 88 53 31 54 87 55 32 56 33 57 34 58 81 59 35 60 86 61 80 62
REMARK SMILES IDX 82 63 36 64 85 65 79 66 78 67 37 69 67 70 48 71 66 72 49 73
REMARK SMILES IDX 52 74 65 75 83 76 50 77 51 78 64 80 84 81 53 82 38 83 39 84
REMARK SMILES IDX 47 85 40 86 46 87 41 88 42 89 43 90 44 91 45 92 68 93 69 94
REMARK SMILES IDX 77 95 70 96 76 97 71 98 72 99 73 100 74 101 75 102 54 103
REMARK SMILES IDX 55 104 63 105 56 106 62 107 57 108 58 109 59 110 60 111
REMARK SMILES IDX 61 112
REMARK H PARENT 5 23 92 31 82 68 52 79
REMARK Flexibility Score: inf
ROOT
ATOM      1  C   UNL     1       2.593  -4.428  -5.874  1.00  0.00     0.188 C 
ENDROOT
BRANCH   1   2
ATOM      2  C   UNL     1       3.900  -4.850  -6.575  1.00  0.00     0.188 C 
BRANCH   2   3
ATOM      3  O   UNL     1       3.879  -6.224  -6.928  1.00  0.00    -0.376 OA
BRANCH   3   4
ATOM      4  C   UNL     1       5.099  -6.948  -6.815  1.00  0.00     0.202 C 
BRANCH   4   5
ATOM      5  C   UNL     1       5.027  -8.129  -5.657  1.00  0.00     0.261 C 
BRANCH   5   6
ATOM      6  O   UNL     1       5.606  -8.080  -3.718  1.00  0.00    -0.460 OA
BRANCH   6   7
ATOM      7  C   UNL     1       6.457  -7.995  -2.552  1.00  0.00     0.339 C 
ATOM      8  O   UNL     1       7.680  -8.026  -2.483  1.00  0.00    -0.246 OA
BRANCH   7   9
ATOM      9  C   UNL     1       5.682  -7.565  -1.363  1.00  0.00     0.073 A 
ATOM     10  C   UNL     1       4.709  -5.693  -0.242  1.00  0.00     0.130 A 
ATOM     11  C   UNL     1       5.725  -6.215  -1.026  1.00  0.00     0.063 A 
ATOM     12  N   UNL     1       3.705  -6.478   0.214  1.00  0.00    -0.231 NA
ATOM     13  C   UNL     1       3.689  -7.795  -0.093  1.00  0.00     0.074 A 
ATOM     14  C   UNL     1       4.720  -8.402  -0.823  1.00  0.00     0.017 A 
ATOM     15  C   UNL     1       2.575  -8.586   0.176  1.00  0.00     0.031 A 
ATOM     16  C   UNL     1       4.681  -9.751  -1.172  1.00  0.00     0.038 A 
ATOM     17  C   UNL     1       2.417  -9.845  -0.432  1.00  0.00     0.029 A 
ATOM     18  C   UNL     1       3.451 -10.363  -1.203  1.00  0.00     0.050 A 
BRANCH  10  19
ATOM     19  N   UNL     1       4.655  -4.325  -0.050  1.00  0.00    -0.345 N 
ATOM     20  N   UNL     1       3.995  -2.139   1.783  1.00  0.00    -0.331 N 
ATOM     21  C   UNL     1       2.949  -2.931   1.108  1.00  0.00     0.284 C 
ATOM     22  C   UNL     1       5.161  -3.025   2.003  1.00  0.00     0.284 C 
ATOM     23  H   UNL     1       3.542  -1.837   2.645  1.00  0.00     0.348 HD
ATOM     24  C   UNL     1       3.377  -3.625  -0.201  1.00  0.00     0.179 C 
ATOM     25  C   UNL     1       5.718  -3.665   0.707  1.00  0.00     0.179 C 
BRANCH  20  26
ATOM     26  C   UNL     1       4.359  -0.783   1.325  1.00  0.00     0.277 C 
BRANCH  26  27
ATOM     27  C   UNL     1       3.800  -0.067   0.072  1.00  0.00     0.181 C 
BRANCH  27  28
ATOM     28  C   UNL     1       2.280  -0.067   0.072  1.00  0.00     0.068 C 
ATOM     29  N   UNL     1       1.020  -0.067   0.072  1.00  0.00    -0.198 NA
ENDBRANCH  27  28
ENDBRANCH  26  27
ENDBRANCH  20  26
ENDBRANCH  10  19
BRANCH  18  30
ATOM     30  N   UNL     1       3.258 -11.437  -2.121  1.00  0.00    -0.280 N 
ATOM     31  H   UNL     1       2.933 -12.312  -1.809  1.00  0.00     0.180 HD
BRANCH  30  32
ATOM     32  S   UNL     1       3.605 -11.167  -3.793  1.00  0.00     0.263 S 
ATOM     33  O   UNL     1       4.516 -12.216  -4.194  1.00  0.00    -0.201 OA
ATOM     34  O   UNL     1       2.328 -11.018  -4.458  1.00  0.00    -0.201 OA
BRANCH  32  35
ATOM     35  C   UNL     1       4.488  -9.645  -4.034  1.00  0.00     0.106 A 
ATOM     36  C   UNL     1       6.202  -9.722  -4.590  1.00  0.00     0.024 A 
ATOM     37  C   UNL     1       3.673  -8.063  -3.808  1.00  0.00     0.061 A 
ATOM     38  C   UNL     1       7.096  -8.188  -4.977  1.00  0.00     0.002 A 
ATOM     39  C   UNL     1       4.571  -6.534  -4.124  1.00  0.00     0.022 A 
ATOM     40  Cl  UNL     1       2.021  -7.948  -3.348  1.00  0.00    -0.083 Cl
ATOM     41  C   UNL     1       6.297  -6.583  -4.686  1.00  0.00     0.002 A 
ENDBRANCH  32  35
ENDBRANCH  30  32
ENDBRANCH  18  30
ENDBRANCH   7   9
ENDBRANCH   6   7
ENDBRANCH   5   6
ENDBRANCH   4   5
ENDBRANCH   3   4
ENDBRANCH   2   3
ENDBRANCH   1   2
BRANCH   1  42
ATOM     42  O   UNL     1       1.658  -5.455  -5.566  1.00  0.00    -0.377 OA
BRANCH  42  43
ATOM     43  C   UNL     1       1.169  -6.257  -6.645  1.00  0.00     0.188 C 
BRANCH  43  44
ATOM     44  C   UNL     1       1.000  -5.570  -8.012  1.00  0.00     0.188 C 
BRANCH  44  45
ATOM     45  O   UNL     1       0.112  -4.458  -8.145  1.00  0.00    -0.376 OA
BRANCH  45  46
ATOM     46  C   UNL     1      -0.785  -4.155  -7.086  1.00  0.00     0.202 C 
BRANCH  46  47
ATOM     47  C   UNL     1      -2.114  -4.917  -7.086  1.00  0.00     0.261 C 
BRANCH  47  48
ATOM     48  O   UNL     1      -1.958  -6.341  -7.086  1.00  0.00    -0.460 OA
BRANCH  48  49
ATOM     49  C   UNL     1      -1.915  -6.904  -8.318  1.00  0.00     0.338 C 
ATOM     50  O   UNL     1      -2.051  -6.335  -9.388  1.00  0.00    -0.246 OA
BRANCH  49  51
ATOM     51  C   UNL     1      -1.556  -8.335  -8.212  1.00  0.00     0.060 A 
ATOM     52  C   UNL     1      -0.705  -8.871  -9.188  1.00  0.00     0.016 A 
ATOM     53  C   UNL     1      -2.127  -9.162  -7.240  1.00  0.00     0.016 A 
ATOM     54  C   UNL     1      -0.492 -10.246  -9.252  1.00  0.00     0.010 A 
ATOM     55  C   UNL     1      -1.930 -10.543  -7.316  1.00  0.00     0.010 A 
ATOM     56  C   UNL     1      -1.164 -11.091  -8.360  1.00  0.00    -0.014 A 
BRANCH  56  57
ATOM     57  C   UNL     1      -1.319 -12.526  -8.700  1.00  0.00     0.031 A 
ATOM     58  C   UNL     1      -2.518 -12.919  -9.527  1.00  0.00     0.074 A 
ATOM     59  C   UNL     1      -0.430 -13.453  -8.306  1.00  0.00     0.049 A 
ATOM     60  N   UNL     1      -2.918 -14.107  -9.899  1.00  0.00    -0.248 NA
ATOM     61  C   UNL     1      -3.381 -11.820  -9.996  1.00  0.00     0.031 C 
ATOM     62  C   UNL     1       0.794 -13.193  -7.551  1.00  0.00     0.029 A 
ATOM     63  N   UNL     1      -0.432 -14.813  -8.492  1.00  0.00    -0.354 N 
ATOM     64  C   UNL     1      -4.080 -13.898 -10.633  1.00  0.00     0.074 A 
ATOM     65  C   UNL     1      -4.331 -12.475 -10.645  1.00  0.00     0.031 C 
ATOM     66  C   UNL     1       1.424 -14.361  -7.331  1.00  0.00     0.029 A 
ATOM     67  C   UNL     1       0.629 -15.451  -7.897  1.00  0.00     0.049 A 
ATOM     68  H   UNL     1      -1.128 -15.286  -9.002  1.00  0.00     0.167 HD
ATOM     69  C   UNL     1      -4.875 -14.809 -11.241  1.00  0.00     0.031 A 
ATOM     70  C   UNL     1       0.907 -16.767  -7.801  1.00  0.00     0.031 A 
ATOM     71  C   UNL     1      -4.644 -16.225 -11.210  1.00  0.00     0.049 A 
ATOM     72  C   UNL     1      -0.035 -17.771  -8.421  1.00  0.00     0.074 A 
ATOM     73  C   UNL     1      -5.402 -17.235 -11.775  1.00  0.00     0.029 A 
ATOM     74  N   UNL     1      -3.574 -16.832 -10.572  1.00  0.00    -0.354 N 
ATOM     75  N   UNL     1      -1.133 -17.560  -9.108  1.00  0.00    -0.248 NA
ATOM     76  C   UNL     1       0.301 -19.192  -8.249  1.00  0.00     0.031 C 
ATOM     77  C   UNL     1      -4.809 -18.458 -11.446  1.00  0.00     0.029 A 
ATOM     78  C   UNL     1      -3.657 -18.205 -10.717  1.00  0.00     0.049 A 
ATOM     79  H   UNL     1      -2.861 -16.357 -10.087  1.00  0.00     0.167 HD
ATOM     80  C   UNL     1      -1.602 -18.820  -9.472  1.00  0.00     0.074 A 
ATOM     81  C   UNL     1      -0.666 -19.786  -8.936  1.00  0.00     0.031 C 
ATOM     82  C   UNL     1      -2.707 -19.148 -10.187  1.00  0.00     0.031 A 
BRANCH  69  83
ATOM     83  C   UNL     1      -6.092 -14.290 -11.954  1.00  0.00    -0.014 A 
ATOM     84  C   UNL     1      -5.982 -13.631 -13.192  1.00  0.00     0.010 A 
ATOM     85  C   UNL     1      -7.364 -14.470 -11.382  1.00  0.00     0.010 A 
ATOM     86  C   UNL     1      -7.121 -13.130 -13.828  1.00  0.00     0.020 A 
ATOM     87  C   UNL     1      -8.507 -13.989 -12.025  1.00  0.00     0.020 A 
ATOM     88  C   UNL     1      -8.376 -13.306 -13.236  1.00  0.00     0.054 A 
BRANCH  88  89
ATOM     89  S   UNL     1      -9.842 -12.659 -14.086  1.00  0.00     0.124 S 
ATOM     90  O   UNL     1      -9.743 -11.228 -13.808  1.00  0.00    -0.237 OA
ATOM     91  O   UNL     1      -9.607 -13.045 -15.475  1.00  0.00    -0.237 OA
ATOM     92  O   UNL     1     -10.953 -13.345 -13.431  1.00  0.00    -0.744 OA
ENDBRANCH  88  89
ENDBRANCH  69  83
BRANCH  70  93
ATOM     93  C   UNL     1       2.116 -17.225  -7.063  1.00  0.00    -0.014 A 
ATOM     94  C   UNL     1       3.201 -17.796  -7.750  1.00  0.00     0.010 A 
ATOM     95  C   UNL     1       2.179 -17.111  -5.662  1.00  0.00     0.010 A 
ATOM     96  C   UNL     1       4.316 -18.267  -7.049  1.00  0.00     0.020 A 
ATOM     97  C   UNL     1       3.302 -17.558  -4.960  1.00  0.00     0.020 A 
ATOM     98  C   UNL     1       4.358 -18.147  -5.657  1.00  0.00     0.054 A 
BRANCH  98  99
ATOM     99  S   UNL     1       5.824 -18.744  -4.768  1.00  0.00     0.124 S 
ATOM    100  O   UNL     1       5.636 -20.191  -4.812  1.00  0.00    -0.237 OA
ATOM    101  O   UNL     1       6.922 -18.225  -5.580  1.00  0.00    -0.237 OA
ATOM    102  O   UNL     1       5.695 -18.137  -3.446  1.00  0.00    -0.744 OA
ENDBRANCH  98  99
ENDBRANCH  70  93
BRANCH  82 103
ATOM    103  C   UNL     1      -2.946 -20.605 -10.478  1.00  0.00    -0.014 A 
ATOM    104  C   UNL     1      -3.441 -21.473  -9.490  1.00  0.00     0.010 A 
ATOM    105  C   UNL     1      -2.748 -21.089 -11.784  1.00  0.00     0.010 A 
ATOM    106  C   UNL     1      -3.717 -22.808  -9.800  1.00  0.00     0.020 A 
ATOM    107  C   UNL     1      -3.043 -22.416 -12.102  1.00  0.00     0.020 A 
ATOM    108  C   UNL     1      -3.516 -23.271 -11.105  1.00  0.00     0.054 A 
BRANCH 108 109
ATOM    109  S   UNL     1      -3.937 -24.991 -11.501  1.00  0.00     0.124 S 
ATOM    110  O   UNL     1      -2.802 -25.719 -10.940  1.00  0.00    -0.237 OA
ATOM    111  O   UNL     1      -5.209 -25.181 -10.807  1.00  0.00    -0.237 OA
ATOM    112  O   UNL     1      -4.024 -24.999 -12.959  1.00  0.00    -0.744 OA
ENDBRANCH 108 109
ENDBRANCH  82 103
ENDBRANCH  56  57
ENDBRANCH  49  51
ENDBRANCH  48  49
ENDBRANCH  47  48
ENDBRANCH  46  47
ENDBRANCH  45  46
ENDBRANCH  44  45
ENDBRANCH  43  44
ENDBRANCH  42  43
ENDBRANCH   1  42
TORSDOF 30
