REMARK SMILES O=C(OCCOCCOCCOCCOC(=O)[C@@H]1CN(Cc2ccccc2)c2ccccc2O1)c1ccc(-c2c3nc(c(-c4ccc(S(=O)(=O)[O-])cc4)c4ccc([nH]4)c(-c4ccc(S(=O)(=O)[O-])cc4)c4nc(c(-c5ccc(S(=O)(=O)[O-])cc5)c5ccc2[nH]5)C=C4)C=C3)cc1
REMARK SMILES IDX 8 1 7 2 6 3 5 4 4 5 3 6 2 7 1 8 35 9 36 10 94 11 37 12 93 13
REMARK SMILES IDX 38 14 39 15 40 16 87 17 41 18 92 19 86 20 88 21 42 22 91 23
REMARK SMILES IDX 85 24 84 25 43 27 73 28 54 29 72 30 55 31 58 32 71 33 89 34
REMARK SMILES IDX 56 35 57 36 70 38 90 39 59 40 44 41 45 42 53 43 46 44 52 45
REMARK SMILES IDX 47 46 48 47 49 48 50 49 51 50 74 51 75 52 83 53 76 54 82 55
REMARK SMILES IDX 77 56 78 57 79 58 80 59 81 60 60 61 61 62 69 63 62 64 68 65
REMARK SMILES IDX 63 66 64 67 65 68 66 69 67 70 9 71 10 72 11 73 12 74 13 75
REMARK SMILES IDX 14 76 15 77 16 78 17 79 18 80 19 81 34 82 20 83 33 84 28 85
REMARK SMILES IDX 32 86 29 87 31 88 30 89 21 90 22 91 23 92 27 93 24 94 26 95
REMARK SMILES IDX 25 96
REMARK H PARENT 88 26 58 37
REMARK Flexibility Score: inf
ROOT
ATOM      1  C   UNL     1       1.548   2.387   0.926  1.00  0.00     0.188 C 
ENDROOT
BRANCH   1   2
ATOM      2  C   UNL     1       2.077   1.360  -0.072  1.00  0.00     0.188 C 
BRANCH   2   3
ATOM      3  O   UNL     1       3.449   1.035   0.158  1.00  0.00    -0.376 OA
BRANCH   3   4
ATOM      4  C   UNL     1       4.289   0.979  -0.998  1.00  0.00     0.202 C 
BRANCH   4   5
ATOM      5  C   UNL     1       4.137  -0.291  -1.837  1.00  0.00     0.261 C 
BRANCH   5   6
ATOM      6  O   UNL     1       2.811  -0.839  -1.785  1.00  0.00    -0.460 OA
BRANCH   6   7
ATOM      7  C   UNL     1       2.289  -1.679  -0.854  1.00  0.00     0.338 C 
ATOM      8  O   UNL     1       1.109  -2.010  -0.974  1.00  0.00    -0.246 OA
BRANCH   7   9
ATOM      9  C   UNL     1       3.051  -2.222   0.316  1.00  0.00     0.060 A 
ATOM     10  C   UNL     1       4.212  -1.667   0.850  1.00  0.00     0.016 A 
ATOM     11  C   UNL     1       2.527  -3.361   0.953  1.00  0.00     0.016 A 
ATOM     12  C   UNL     1       4.886  -2.245   1.904  1.00  0.00     0.010 A 
ATOM     13  C   UNL     1       3.188  -3.949   2.038  1.00  0.00     0.010 A 
ATOM     14  C   UNL     1       4.395  -3.404   2.485  1.00  0.00    -0.014 A 
BRANCH  14  15
ATOM     15  C   UNL     1       5.323  -4.097   3.389  1.00  0.00     0.031 A 
ATOM     16  C   UNL     1       6.088  -5.257   2.826  1.00  0.00     0.074 A 
ATOM     17  C   UNL     1       5.651  -3.521   4.560  1.00  0.00     0.049 A 
ATOM     18  N   UNL     1       7.002  -5.994   3.392  1.00  0.00    -0.248 NA
ATOM     19  C   UNL     1       5.810  -5.616   1.421  1.00  0.00     0.031 C 
ATOM     20  C   UNL     1       5.077  -2.270   5.076  1.00  0.00     0.029 A 
ATOM     21  N   UNL     1       6.585  -3.867   5.495  1.00  0.00    -0.354 N 
ATOM     22  C   UNL     1       7.390  -6.912   2.423  1.00  0.00     0.074 A 
ATOM     23  C   UNL     1       6.611  -6.652   1.237  1.00  0.00     0.031 C 
ATOM     24  C   UNL     1       5.691  -1.948   6.225  1.00  0.00     0.029 A 
ATOM     25  C   UNL     1       6.639  -3.002   6.562  1.00  0.00     0.049 A 
ATOM     26  H   UNL     1       7.163  -4.659   5.413  1.00  0.00     0.167 HD
ATOM     27  C   UNL     1       8.319  -7.886   2.527  1.00  0.00     0.031 A 
ATOM     28  C   UNL     1       7.349  -3.090   7.702  1.00  0.00     0.031 A 
ATOM     29  C   UNL     1       9.061  -8.122   3.733  1.00  0.00     0.049 A 
ATOM     30  C   UNL     1       8.264  -4.276   7.852  1.00  0.00     0.074 A 
ATOM     31  C   UNL     1       9.944  -9.142   4.023  1.00  0.00     0.029 A 
ATOM     32  N   UNL     1       8.999  -7.304   4.855  1.00  0.00    -0.354 N 
ATOM     33  N   UNL     1       8.543  -5.214   6.974  1.00  0.00    -0.248 NA
ATOM     34  C   UNL     1       8.950  -4.425   9.139  1.00  0.00     0.031 C 
ATOM     35  C   UNL     1      10.377  -8.970   5.343  1.00  0.00     0.029 A 
ATOM     36  C   UNL     1       9.816  -7.806   5.849  1.00  0.00     0.049 A 
ATOM     37  H   UNL     1       8.454  -6.488   4.930  1.00  0.00     0.167 HD
ATOM     38  C   UNL     1       9.447  -6.062   7.600  1.00  0.00     0.074 A 
ATOM     39  C   UNL     1       9.693  -5.500   8.916  1.00  0.00     0.031 C 
ATOM     40  C   UNL     1      10.019  -7.205   7.144  1.00  0.00     0.031 A 
BRANCH  27  41
ATOM     41  C   UNL     1       8.499  -8.795   1.343  1.00  0.00    -0.014 A 
ATOM     42  C   UNL     1       9.134  -8.355   0.168  1.00  0.00     0.010 A 
ATOM     43  C   UNL     1       7.996 -10.107   1.400  1.00  0.00     0.010 A 
ATOM     44  C   UNL     1       9.239  -9.205  -0.938  1.00  0.00     0.020 A 
ATOM     45  C   UNL     1       8.121 -10.967   0.306  1.00  0.00     0.020 A 
ATOM     46  C   UNL     1       8.732 -10.506  -0.861  1.00  0.00     0.054 A 
BRANCH  46  47
ATOM     47  S   UNL     1       8.908 -11.596  -2.301  1.00  0.00     0.124 S 
ATOM     48  O   UNL     1       7.970 -10.999  -3.248  1.00  0.00    -0.237 OA
ATOM     49  O   UNL     1      10.321 -11.448  -2.640  1.00  0.00    -0.237 OA
ATOM     50  O   UNL     1       8.526 -12.910  -1.790  1.00  0.00    -0.744 OA
ENDBRANCH  46  47
ENDBRANCH  27  41
BRANCH  28  51
ATOM     51  C   UNL     1       7.138  -2.111   8.808  1.00  0.00    -0.014 A 
ATOM     52  C   UNL     1       8.182  -1.305   9.293  1.00  0.00     0.010 A 
ATOM     53  C   UNL     1       5.871  -2.013   9.418  1.00  0.00     0.010 A 
ATOM     54  C   UNL     1       7.974  -0.454  10.385  1.00  0.00     0.020 A 
ATOM     55  C   UNL     1       5.649  -1.139  10.484  1.00  0.00     0.020 A 
ATOM     56  C   UNL     1       6.709  -0.381  10.977  1.00  0.00     0.054 A 
BRANCH  56  57
ATOM     57  S   UNL     1       6.459   0.723  12.396  1.00  0.00     0.124 S 
ATOM     58  O   UNL     1       7.168   0.015  13.458  1.00  0.00    -0.237 OA
ATOM     59  O   UNL     1       7.076   1.966  11.942  1.00  0.00    -0.237 OA
ATOM     60  O   UNL     1       5.005   0.772  12.539  1.00  0.00    -0.744 OA
ENDBRANCH  56  57
ENDBRANCH  28  51
BRANCH  40  61
ATOM     61  C   UNL     1      10.982  -7.890   8.071  1.00  0.00    -0.014 A 
ATOM     62  C   UNL     1      10.532  -8.553   9.225  1.00  0.00     0.010 A 
ATOM     63  C   UNL     1      12.352  -7.898   7.755  1.00  0.00     0.010 A 
ATOM     64  C   UNL     1      11.446  -9.176  10.075  1.00  0.00     0.020 A 
ATOM     65  C   UNL     1      13.263  -8.551   8.583  1.00  0.00     0.020 A 
ATOM     66  C   UNL     1      12.806  -9.169   9.749  1.00  0.00     0.054 A 
BRANCH  66  67
ATOM     67  S   UNL     1      13.970 -10.007  10.855  1.00  0.00     0.124 S 
ATOM     68  O   UNL     1      14.030  -9.084  11.985  1.00  0.00    -0.237 OA
ATOM     69  O   UNL     1      13.303 -11.280  11.116  1.00  0.00    -0.237 OA
ATOM     70  O   UNL     1      15.193 -10.102  10.062  1.00  0.00    -0.744 OA
ENDBRANCH  66  67
ENDBRANCH  40  61
ENDBRANCH  14  15
ENDBRANCH   7   9
ENDBRANCH   6   7
ENDBRANCH   5   6
ENDBRANCH   4   5
ENDBRANCH   3   4
ENDBRANCH   2   3
ENDBRANCH   1   2
BRANCH   1  71
ATOM     71  O   UNL     1       2.187   3.655   0.872  1.00  0.00    -0.377 OA
BRANCH  71  72
ATOM     72  C   UNL     1       3.606   3.635   0.890  1.00  0.00     0.188 C 
BRANCH  72  73
ATOM     73  C   UNL     1       4.347   2.917   2.049  1.00  0.00     0.188 C 
BRANCH  73  74
ATOM     74  O   UNL     1       3.502   2.306   3.007  1.00  0.00    -0.376 OA
BRANCH  74  75
ATOM     75  C   UNL     1       3.361   3.018   4.235  1.00  0.00     0.202 C 
BRANCH  75  76
ATOM     76  C   UNL     1       2.676   4.391   4.129  1.00  0.00     0.261 C 
BRANCH  76  77
ATOM     77  O   UNL     1       3.246   5.276   3.142  1.00  0.00    -0.460 OA
BRANCH  77  78
ATOM     78  C   UNL     1       4.468   5.823   3.409  1.00  0.00     0.349 C 
ATOM     79  O   UNL     1       5.027   5.696   4.484  1.00  0.00    -0.248 OA
BRANCH  78  80
ATOM     80  C   UNL     1       5.013   6.556   2.147  1.00  0.00     0.301 C 
ATOM     81  C   UNL     1       6.218   5.891   1.445  1.00  0.00     0.174 C 
ATOM     82  O   UNL     1       5.339   7.910   2.417  1.00  0.00    -0.475 OA
ATOM     83  N   UNL     1       7.407   5.823   2.307  1.00  0.00    -0.360 N 
ATOM     84  C   UNL     1       6.501   7.971   3.150  1.00  0.00     0.144 A 
ATOM     85  C   UNL     1       7.517   6.976   3.114  1.00  0.00     0.080 A 
ATOM     86  C   UNL     1       6.539   9.074   4.002  1.00  0.00     0.049 A 
ATOM     87  C   UNL     1       8.609   7.221   3.941  1.00  0.00     0.030 A 
ATOM     88  C   UNL     1       7.591   9.210   4.887  1.00  0.00     0.004 A 
ATOM     89  C   UNL     1       8.632   8.293   4.846  1.00  0.00     0.002 A 
BRANCH  83  90
ATOM     90  C   UNL     1       7.774   4.471   2.810  1.00  0.00     0.152 C 
BRANCH  90  91
ATOM     91  C   UNL     1       9.250   4.144   2.906  1.00  0.00    -0.029 A 
ATOM     92  C   UNL     1       9.987   3.695   1.800  1.00  0.00     0.005 A 
ATOM     93  C   UNL     1       9.902   4.226   4.147  1.00  0.00     0.005 A 
ATOM     94  C   UNL     1      11.353   3.410   1.923  1.00  0.00     0.000 A 
ATOM     95  C   UNL     1      11.274   3.998   4.258  1.00  0.00     0.000 A 
ATOM     96  C   UNL     1      12.001   3.594   3.143  1.00  0.00     0.000 A 
ENDBRANCH  90  91
ENDBRANCH  83  90
ENDBRANCH  78  80
ENDBRANCH  77  78
ENDBRANCH  76  77
ENDBRANCH  75  76
ENDBRANCH  74  75
ENDBRANCH  73  74
ENDBRANCH  72  73
ENDBRANCH  71  72
ENDBRANCH   1  71
TORSDOF 25
