REMARK SMILES CC(C)CCn1nc(C(=O)OCCOCCOCCOCCOC(=O)c2ccc(-c3c4nc(c(-c5ccc(S(=O)(=O)[O-])cc5)c5ccc([nH]5)c(-c5ccc(S(=O)(=O)[O-])cc5)c5nc(c(-c6ccc(S(=O)(=O)[O-])cc6)c6ccc3[nH]6)C=C5)C=C4)cc2)c2c1CCN(C(=O)[C@@H]1CCc3nn(C)c(=O)n3C1)C2
REMARK SMILES IDX 17 1 16 2 15 3 14 4 13 5 12 6 11 7 9 8 10 9 8 10 6 11 7 12
REMARK SMILES IDX 87 13 86 14 88 15 104 16 89 17 90 18 5 19 4 20 2 21 1 22
REMARK SMILES IDX 3 23 91 24 92 25 93 26 94 27 103 28 95 29 102 30 96 31
REMARK SMILES IDX 100 32 97 33 98 34 101 35 99 36 18 37 19 38 20 39 21 40
REMARK SMILES IDX 22 41 23 42 24 43 25 44 26 45 27 46 85 47 28 48 84 49 29 50
REMARK SMILES IDX 30 51 31 52 78 53 32 54 83 55 77 56 79 57 33 58 82 59 76 60
REMARK SMILES IDX 75 61 34 63 64 64 45 65 63 66 46 67 49 68 62 69 80 70 47 71
REMARK SMILES IDX 48 72 61 74 81 75 50 76 35 77 36 78 44 79 37 80 43 81 38 82
REMARK SMILES IDX 39 83 40 84 41 85 42 86 65 87 66 88 74 89 67 90 73 91 68 92
REMARK SMILES IDX 69 93 70 94 71 95 72 96 51 97 52 98 60 99 53 100 59 101
REMARK SMILES IDX 54 102 55 103 56 104 57 105 58 106
REMARK H PARENT 79 62 49 73
REMARK Flexibility Score: inf
ROOT
ATOM      1  O   UNL     1       2.599  -2.435   6.505  1.00  0.00    -0.377 OA
ENDROOT
BRANCH   1   2
ATOM      2  C   UNL     1       2.369  -1.272   5.737  1.00  0.00     0.188 C 
BRANCH   2   3
ATOM      3  C   UNL     1       1.918   0.026   6.439  1.00  0.00     0.188 C 
BRANCH   3   4
ATOM      4  O   UNL     1       2.164   0.119   7.825  1.00  0.00    -0.376 OA
BRANCH   4   5
ATOM      5  C   UNL     1       1.255  -0.200   8.851  1.00  0.00     0.202 C 
BRANCH   5   6
ATOM      6  C   UNL     1       0.019  -1.090   8.710  1.00  0.00     0.261 C 
BRANCH   6   7
ATOM      7  O   UNL     1      -0.344  -1.453   7.392  1.00  0.00    -0.458 OA
BRANCH   7   8
ATOM      8  C   UNL     1      -1.107  -0.583   6.679  1.00  0.00     0.359 C 
ATOM      9  O   UNL     1      -1.581   0.458   7.131  1.00  0.00    -0.244 OA
BRANCH   8  10
ATOM     10  C   UNL     1      -1.182  -1.029   5.282  1.00  0.00     0.175 A 
ATOM     11  N   UNL     1      -1.435  -1.018   3.156  1.00  0.00    -0.268 N 
ATOM     12  N   UNL     1      -1.470  -0.211   4.240  1.00  0.00    -0.165 NA
ATOM     13  C   UNL     1      -1.324  -2.321   3.517  1.00  0.00     0.046 A 
ATOM     14  C   UNL     1      -0.932  -2.356   4.834  1.00  0.00     0.028 A 
ATOM     15  C   UNL     1      -1.678  -3.531   2.756  1.00  0.00     0.078 C 
ATOM     16  C   UNL     1      -0.557  -3.617   5.577  1.00  0.00     0.159 C 
ATOM     17  C   UNL     1      -1.971  -4.593   3.833  1.00  0.00     0.126 C 
ATOM     18  N   UNL     1      -0.835  -4.794   4.721  1.00  0.00    -0.338 N 
BRANCH  11  19
ATOM     19  C   UNL     1      -1.699  -0.523   1.817  1.00  0.00     0.145 C 
BRANCH  19  20
ATOM     20  C   UNL     1      -1.030   0.796   1.415  1.00  0.00     0.027 C 
BRANCH  20  21
ATOM     21  C   UNL     1       0.503   0.766   1.239  1.00  0.00    -0.016 C 
ATOM     22  C   UNL     1       0.958  -0.141   0.093  1.00  0.00     0.007 C 
ATOM     23  C   UNL     1       1.006   2.191   0.969  1.00  0.00     0.007 C 
ENDBRANCH  20  21
ENDBRANCH  19  20
ENDBRANCH  11  19
BRANCH  18  24
ATOM     24  C   UNL     1      -0.056  -5.926   4.877  1.00  0.00     0.227 C 
ATOM     25  O   UNL     1       0.868  -5.914   5.703  1.00  0.00    -0.274 OA
BRANCH  24  26
ATOM     26  C   UNL     1      -0.245  -7.252   4.087  1.00  0.00     0.099 C 
ATOM     27  C   UNL     1       0.281  -7.303   2.647  1.00  0.00     0.023 C 
ATOM     28  C   UNL     1      -1.585  -7.969   4.228  1.00  0.00     0.142 C 
ATOM     29  C   UNL     1      -0.722  -6.947   1.557  1.00  0.00     0.078 C 
ATOM     30  N   UNL     1      -2.492  -7.691   3.135  1.00  0.00    -0.278 N 
ATOM     31  C   UNL     1      -2.158  -7.155   1.942  1.00  0.00     0.133 A 
ATOM     32  C   UNL     1      -3.838  -7.457   3.300  1.00  0.00     0.345 A 
ATOM     33  N   UNL     1      -3.151  -6.622   1.286  1.00  0.00    -0.155 NA
ATOM     34  N   UNL     1      -4.232  -6.785   2.131  1.00  0.00    -0.216 N 
ATOM     35  O   UNL     1      -4.495  -7.607   4.318  1.00  0.00    -0.246 OA
ATOM     36  C   UNL     1      -5.369  -5.902   2.080  1.00  0.00     0.179 C 
ENDBRANCH  24  26
ENDBRANCH  18  24
ENDBRANCH   8  10
ENDBRANCH   7   8
ENDBRANCH   6   7
ENDBRANCH   5   6
ENDBRANCH   4   5
ENDBRANCH   3   4
ENDBRANCH   2   3
ENDBRANCH   1   2
BRANCH   1  37
ATOM     37  C   UNL     1       3.523  -2.418   7.587  1.00  0.00     0.188 C 
BRANCH  37  38
ATOM     38  C   UNL     1       4.573  -1.294   7.798  1.00  0.00     0.188 C 
BRANCH  38  39
ATOM     39  O   UNL     1       4.553  -0.240   6.850  1.00  0.00    -0.376 OA
BRANCH  39  40
ATOM     40  C   UNL     1       5.601  -0.021   5.928  1.00  0.00     0.202 C 
BRANCH  40  41
ATOM     41  C   UNL     1       5.865  -1.098   4.880  1.00  0.00     0.261 C 
BRANCH  41  42
ATOM     42  O   UNL     1       5.748  -2.411   5.388  1.00  0.00    -0.460 OA
BRANCH  42  43
ATOM     43  C   UNL     1       6.712  -2.744   6.261  1.00  0.00     0.338 C 
ATOM     44  O   UNL     1       7.565  -1.999   6.735  1.00  0.00    -0.246 OA
BRANCH  43  45
ATOM     45  C   UNL     1       6.659  -4.186   6.486  1.00  0.00     0.060 A 
ATOM     46  C   UNL     1       7.647  -4.671   7.339  1.00  0.00     0.016 A 
ATOM     47  C   UNL     1       6.048  -4.973   5.496  1.00  0.00     0.016 A 
ATOM     48  C   UNL     1       8.295  -5.809   6.942  1.00  0.00     0.010 A 
ATOM     49  C   UNL     1       6.711  -6.096   5.088  1.00  0.00     0.010 A 
ATOM     50  C   UNL     1       7.891  -6.415   5.746  1.00  0.00    -0.014 A 
BRANCH  50  51
ATOM     51  C   UNL     1       8.748  -7.438   5.215  1.00  0.00     0.031 A 
ATOM     52  C   UNL     1       8.595  -8.710   5.929  1.00  0.00     0.074 A 
ATOM     53  C   UNL     1       9.575  -7.238   4.177  1.00  0.00     0.049 A 
ATOM     54  N   UNL     1       9.376  -9.177   6.842  1.00  0.00    -0.248 NA
ATOM     55  C   UNL     1       7.316  -9.418   5.788  1.00  0.00     0.031 C 
ATOM     56  C   UNL     1       9.626  -6.123   3.230  1.00  0.00     0.029 A 
ATOM     57  N   UNL     1      10.504  -8.095   3.695  1.00  0.00    -0.354 N 
ATOM     58  C   UNL     1       8.793 -10.367   7.241  1.00  0.00     0.074 A 
ATOM     59  C   UNL     1       7.442 -10.345   6.737  1.00  0.00     0.031 C 
ATOM     60  C   UNL     1      10.359  -6.500   2.154  1.00  0.00     0.029 A 
ATOM     61  C   UNL     1      10.928  -7.817   2.407  1.00  0.00     0.049 A 
ATOM     62  H   UNL     1      10.850  -8.855   4.217  1.00  0.00     0.167 HD
ATOM     63  C   UNL     1       9.547 -11.392   7.718  1.00  0.00     0.031 A 
ATOM     64  C   UNL     1      11.601  -8.677   1.600  1.00  0.00     0.031 A 
ATOM     65  C   UNL     1      10.888 -10.967   8.035  1.00  0.00     0.049 A 
ATOM     66  C   UNL     1      12.235  -9.696   2.485  1.00  0.00     0.074 A 
ATOM     67  C   UNL     1      11.427 -10.038   8.903  1.00  0.00     0.029 A 
ATOM     68  N   UNL     1      11.865 -11.233   7.101  1.00  0.00    -0.354 N 
ATOM     69  N   UNL     1      13.189  -9.412   3.328  1.00  0.00    -0.248 NA
ATOM     70  C   UNL     1      11.489 -10.912   2.788  1.00  0.00     0.031 C 
ATOM     71  C   UNL     1      12.511  -9.451   8.188  1.00  0.00     0.029 A 
ATOM     72  C   UNL     1      12.617 -10.095   6.952  1.00  0.00     0.049 A 
ATOM     73  H   UNL     1      12.000 -12.085   6.626  1.00  0.00     0.167 HD
ATOM     74  C   UNL     1      12.888 -10.137   4.474  1.00  0.00     0.074 A 
ATOM     75  C   UNL     1      11.888 -11.116   4.049  1.00  0.00     0.031 C 
ATOM     76  C   UNL     1      13.256  -9.694   5.714  1.00  0.00     0.031 A 
BRANCH  63  77
ATOM     77  C   UNL     1       9.192 -12.835   7.490  1.00  0.00    -0.014 A 
ATOM     78  C   UNL     1      10.003 -13.826   8.072  1.00  0.00     0.010 A 
ATOM     79  C   UNL     1       8.266 -13.252   6.510  1.00  0.00     0.010 A 
ATOM     80  C   UNL     1       9.940 -15.155   7.636  1.00  0.00     0.020 A 
ATOM     81  C   UNL     1       8.161 -14.579   6.104  1.00  0.00     0.020 A 
ATOM     82  C   UNL     1       9.029 -15.516   6.643  1.00  0.00     0.054 A 
BRANCH  82  83
ATOM     83  S   UNL     1       9.038 -17.204   6.001  1.00  0.00     0.124 S 
ATOM     84  O   UNL     1      10.336 -17.264   5.338  1.00  0.00    -0.237 OA
ATOM     85  O   UNL     1       8.908 -17.997   7.220  1.00  0.00    -0.237 OA
ATOM     86  O   UNL     1       7.877 -17.239   5.114  1.00  0.00    -0.744 OA
ENDBRANCH  82  83
ENDBRANCH  63  77
BRANCH  64  87
ATOM     87  C   UNL     1      11.383  -8.884   0.144  1.00  0.00    -0.014 A 
ATOM     88  C   UNL     1      12.227  -9.727  -0.602  1.00  0.00     0.010 A 
ATOM     89  C   UNL     1      10.176  -8.472  -0.460  1.00  0.00     0.010 A 
ATOM     90  C   UNL     1      11.842 -10.200  -1.870  1.00  0.00     0.020 A 
ATOM     91  C   UNL     1       9.791  -8.929  -1.725  1.00  0.00     0.020 A 
ATOM     92  C   UNL     1      10.613  -9.815  -2.413  1.00  0.00     0.054 A 
BRANCH  92  93
ATOM     93  S   UNL     1      10.026 -10.585  -3.951  1.00  0.00     0.124 S 
ATOM     94  O   UNL     1      10.891  -9.974  -4.955  1.00  0.00    -0.237 OA
ATOM     95  O   UNL     1      10.251 -12.006  -3.701  1.00  0.00    -0.237 OA
ATOM     96  O   UNL     1       8.620 -10.188  -4.019  1.00  0.00    -0.744 OA
ENDBRANCH  92  93
ENDBRANCH  64  87
BRANCH  76  97
ATOM     97  C   UNL     1      14.223  -8.534   5.809  1.00  0.00    -0.014 A 
ATOM     98  C   UNL     1      13.959  -7.251   5.289  1.00  0.00     0.010 A 
ATOM     99  C   UNL     1      15.371  -8.710   6.601  1.00  0.00     0.010 A 
ATOM    100  C   UNL     1      14.837  -6.183   5.533  1.00  0.00     0.020 A 
ATOM    101  C   UNL     1      16.238  -7.647   6.864  1.00  0.00     0.020 A 
ATOM    102  C   UNL     1      15.974  -6.390   6.320  1.00  0.00     0.054 A 
BRANCH 102 103
ATOM    103  S   UNL     1      17.085  -4.999   6.670  1.00  0.00     0.124 S 
ATOM    104  O   UNL     1      17.693  -4.743   5.367  1.00  0.00    -0.237 OA
ATOM    105  O   UNL     1      16.172  -3.965   7.152  1.00  0.00    -0.237 OA
ATOM    106  O   UNL     1      17.998  -5.528   7.683  1.00  0.00    -0.744 OA
ENDBRANCH 102 103
ENDBRANCH  76  97
ENDBRANCH  50  51
ENDBRANCH  43  45
ENDBRANCH  42  43
ENDBRANCH  41  42
ENDBRANCH  40  41
ENDBRANCH  39  40
ENDBRANCH  38  39
ENDBRANCH  37  38
ENDBRANCH   1  37
TORSDOF 28
