REMARK SMILES Cc1cccc(-c2ncc(C[NH+]3CCC4(CC3)NC(=O)C[C@H]4C(=O)OCCOCCOCCOCCOC(=O)c3ccc(-c4c5nc(c(-c6ccc(S(=O)(=O)[O-])cc6)c6ccc([nH]6)c(-c6ccc(S(=O)(=O)[O-])cc6)c6nc(c(-c7ccc(S(=O)(=O)[O-])cc7)c7ccc4[nH]7)C=C6)C=C5)cc3)cn2)c1
REMARK SMILES IDX 31 1 30 2 29 3 28 4 27 5 26 6 25 7 23 8 24 9 22 10 12 11
REMARK SMILES IDX 13 12 17 13 14 15 16 16 15 17 18 18 19 19 21 21 20 22 11 23
REMARK SMILES IDX 10 24 7 25 8 26 101 27 9 28 100 29 6 30 1 31 2 32 3 33
REMARK SMILES IDX 102 34 4 35 5 36 32 37 33 38 34 39 35 40 36 41 37 42 38 43
REMARK SMILES IDX 39 44 40 45 41 46 99 47 42 48 98 49 43 50 44 51 45 52 92 53
REMARK SMILES IDX 46 54 97 55 91 56 93 57 47 58 96 59 90 60 89 61 48 63 78 64
REMARK SMILES IDX 59 65 77 66 60 67 63 68 76 69 94 70 61 71 62 72 75 74 95 75
REMARK SMILES IDX 64 76 49 77 50 78 58 79 51 80 57 81 52 82 53 83 54 84 55 85
REMARK SMILES IDX 56 86 79 87 80 88 88 89 81 90 87 91 82 92 83 93 84 94 85 95
REMARK SMILES IDX 86 96 65 97 66 98 74 99 67 100 73 101 68 102 69 103 70 104
REMARK SMILES IDX 71 105 72 106
REMARK H PARENT 12 14 18 20 93 62 63 73
REMARK Flexibility Score: inf
ROOT
ATOM      1  O   UNL     1      -2.590   6.851  -3.312  1.00  0.00    -0.377 OA
ENDROOT
BRANCH   1   2
ATOM      2  C   UNL     1      -2.396   7.656  -2.168  1.00  0.00     0.188 C 
BRANCH   2   3
ATOM      3  C   UNL     1      -2.289   9.168  -2.336  1.00  0.00     0.188 C 
BRANCH   3   4
ATOM      4  O   UNL     1      -0.972   9.692  -2.404  1.00  0.00    -0.376 OA
BRANCH   4   5
ATOM      5  C   UNL     1      -0.082   8.948  -3.204  1.00  0.00     0.202 C 
BRANCH   5   6
ATOM      6  C   UNL     1       1.157   8.578  -2.401  1.00  0.00     0.261 C 
BRANCH   6   7
ATOM      7  O   UNL     1       0.977   7.571  -1.384  1.00  0.00    -0.463 OA
BRANCH   7   8
ATOM      8  C   UNL     1       0.908   8.000  -0.110  1.00  0.00     0.311 C 
ATOM      9  O   UNL     1       0.630   9.150   0.233  1.00  0.00    -0.252 OA
BRANCH   8  10
ATOM     10  C   UNL     1       1.269   6.931   0.907  1.00  0.00     0.134 C 
ATOM     11  N   UNL     1      -2.720   6.637   1.722  1.00  0.00    -0.331 N 
ATOM     12  C   UNL     1      -1.741   6.997   2.723  1.00  0.00     0.264 C 
ATOM     13  C   UNL     1      -2.099   6.536   0.427  1.00  0.00     0.264 C 
ATOM     14  H   UNL     1      -3.344   7.441   1.792  1.00  0.00     0.348 HD
ATOM     15  C   UNL     1      -0.460   6.157   2.702  1.00  0.00     0.091 C 
ATOM     16  C   UNL     1      -0.889   5.626   0.272  1.00  0.00     0.091 C 
ATOM     17  C   UNL     1       0.185   5.896   1.314  1.00  0.00     0.064 C 
ATOM     18  N   UNL     1       0.961   4.669   1.430  1.00  0.00    -0.349 N 
ATOM     19  C   UNL     1       2.212   4.713   0.886  1.00  0.00     0.221 C 
ATOM     20  H   UNL     1       0.607   3.862   1.871  1.00  0.00     0.164 HD
ATOM     21  C   UNL     1       2.520   6.123   0.492  1.00  0.00     0.117 C 
ATOM     22  O   UNL     1       2.952   3.748   0.789  1.00  0.00    -0.275 OA
BRANCH  11  23
ATOM     23  C   UNL     1      -3.820   5.704   1.966  1.00  0.00     0.302 C 
BRANCH  23  24
ATOM     24  C   UNL     1      -3.507   4.267   1.682  1.00  0.00     0.043 A 
ATOM     25  C   UNL     1      -2.354   1.923   0.994  1.00  0.00     0.159 A 
ATOM     26  N   UNL     1      -2.232   2.326   2.276  1.00  0.00    -0.236 NA
ATOM     27  N   UNL     1      -3.099   2.531   0.066  1.00  0.00    -0.236 NA
ATOM     28  C   UNL     1      -2.843   3.481   2.592  1.00  0.00     0.124 A 
ATOM     29  C   UNL     1      -3.671   3.689   0.436  1.00  0.00     0.124 A 
BRANCH  25  30
ATOM     30  C   UNL     1      -1.526   0.801   0.566  1.00  0.00     0.019 A 
ATOM     31  C   UNL     1       2.180  -0.014   0.101  1.00  0.00     0.044 C 
ATOM     32  C   UNL     1       0.687  -0.159   0.146  1.00  0.00    -0.050 A 
ATOM     33  C   UNL     1       0.087  -1.398  -0.098  1.00  0.00     0.003 A 
ATOM     34  C   UNL     1      -0.127   0.930   0.479  1.00  0.00     0.015 A 
ATOM     35  C   UNL     1      -1.302  -1.530  -0.062  1.00  0.00     0.001 A 
ATOM     36  C   UNL     1      -2.104  -0.434   0.255  1.00  0.00     0.012 A 
ENDBRANCH  25  30
ENDBRANCH  23  24
ENDBRANCH  11  23
ENDBRANCH   8  10
ENDBRANCH   7   8
ENDBRANCH   6   7
ENDBRANCH   5   6
ENDBRANCH   4   5
ENDBRANCH   3   4
ENDBRANCH   2   3
ENDBRANCH   1   2
BRANCH   1  37
ATOM     37  C   UNL     1      -3.173   5.561  -3.034  1.00  0.00     0.188 C 
BRANCH  37  38
ATOM     38  C   UNL     1      -4.680   5.632  -2.840  1.00  0.00     0.188 C 
BRANCH  38  39
ATOM     39  O   UNL     1      -5.016   6.994  -2.620  1.00  0.00    -0.376 OA
BRANCH  39  40
ATOM     40  C   UNL     1      -6.332   7.256  -2.214  1.00  0.00     0.202 C 
BRANCH  40  41
ATOM     41  C   UNL     1      -7.329   6.911  -3.314  1.00  0.00     0.261 C 
BRANCH  41  42
ATOM     42  O   UNL     1      -6.901   7.569  -4.528  1.00  0.00    -0.460 OA
BRANCH  42  43
ATOM     43  C   UNL     1      -6.708   6.739  -5.594  1.00  0.00     0.338 C 
ATOM     44  O   UNL     1      -7.583   6.043  -6.080  1.00  0.00    -0.246 OA
BRANCH  43  45
ATOM     45  C   UNL     1      -5.275   6.755  -6.030  1.00  0.00     0.060 A 
ATOM     46  C   UNL     1      -4.702   5.634  -6.660  1.00  0.00     0.016 A 
ATOM     47  C   UNL     1      -4.448   7.802  -5.651  1.00  0.00     0.016 A 
ATOM     48  C   UNL     1      -3.299   5.492  -6.777  1.00  0.00     0.010 A 
ATOM     49  C   UNL     1      -3.071   7.662  -5.787  1.00  0.00     0.010 A 
ATOM     50  C   UNL     1      -2.460   6.484  -6.279  1.00  0.00    -0.014 A 
BRANCH  50  51
ATOM     51  C   UNL     1      -0.992   6.383  -6.001  1.00  0.00     0.031 A 
ATOM     52  C   UNL     1      -0.130   7.576  -6.350  1.00  0.00     0.074 A 
ATOM     53  C   UNL     1      -0.549   5.476  -5.088  1.00  0.00     0.049 A 
ATOM     54  N   UNL     1       1.081   7.805  -5.956  1.00  0.00    -0.248 NA
ATOM     55  C   UNL     1      -0.620   8.656  -7.212  1.00  0.00     0.031 C 
ATOM     56  C   UNL     1       0.464   5.699  -4.053  1.00  0.00     0.029 A 
ATOM     57  N   UNL     1      -0.956   4.204  -4.759  1.00  0.00    -0.354 N 
ATOM     58  C   UNL     1       1.394   9.136  -6.221  1.00  0.00     0.074 A 
ATOM     59  C   UNL     1       0.320   9.597  -7.064  1.00  0.00     0.031 C 
ATOM     60  C   UNL     1       0.656   4.607  -3.299  1.00  0.00     0.029 A 
ATOM     61  C   UNL     1       0.009   3.538  -3.996  1.00  0.00     0.049 A 
ATOM     62  H   UNL     1      -1.818   3.811  -5.028  1.00  0.00     0.167 HD
ATOM     63  C   UNL     1       2.442   9.738  -5.570  1.00  0.00     0.031 A 
ATOM     64  C   UNL     1       0.714   2.507  -4.547  1.00  0.00     0.031 A 
ATOM     65  C   UNL     1       3.339   8.745  -4.923  1.00  0.00     0.049 A 
ATOM     66  C   UNL     1       2.159   2.918  -4.941  1.00  0.00     0.074 A 
ATOM     67  C   UNL     1       4.046   8.646  -3.731  1.00  0.00     0.029 A 
ATOM     68  N   UNL     1       3.503   7.496  -5.531  1.00  0.00    -0.354 N 
ATOM     69  N   UNL     1       2.637   4.149  -4.877  1.00  0.00    -0.248 NA
ATOM     70  C   UNL     1       3.200   1.992  -5.375  1.00  0.00     0.031 C 
ATOM     71  C   UNL     1       4.493   7.293  -3.579  1.00  0.00     0.029 A 
ATOM     72  C   UNL     1       4.176   6.598  -4.734  1.00  0.00     0.049 A 
ATOM     73  H   UNL     1       3.171   7.282  -6.433  1.00  0.00     0.167 HD
ATOM     74  C   UNL     1       3.955   4.208  -5.268  1.00  0.00     0.074 A 
ATOM     75  C   UNL     1       4.255   2.813  -5.555  1.00  0.00     0.031 C 
ATOM     76  C   UNL     1       4.694   5.372  -5.344  1.00  0.00     0.031 A 
BRANCH  63  77
ATOM     77  C   UNL     1       2.567  11.268  -5.343  1.00  0.00    -0.014 A 
ATOM     78  C   UNL     1       3.662  11.786  -4.611  1.00  0.00     0.010 A 
ATOM     79  C   UNL     1       1.608  12.242  -5.712  1.00  0.00     0.010 A 
ATOM     80  C   UNL     1       3.789  13.147  -4.257  1.00  0.00     0.020 A 
ATOM     81  C   UNL     1       1.744  13.621  -5.410  1.00  0.00     0.020 A 
ATOM     82  C   UNL     1       2.835  14.067  -4.673  1.00  0.00     0.054 A 
BRANCH  82  83
ATOM     83  S   UNL     1       3.078  15.828  -4.287  1.00  0.00     0.124 S 
ATOM     84  O   UNL     1       2.944  15.860  -2.833  1.00  0.00    -0.237 OA
ATOM     85  O   UNL     1       4.423  16.083  -4.797  1.00  0.00    -0.237 OA
ATOM     86  O   UNL     1       2.007  16.499  -5.022  1.00  0.00    -0.744 OA
ENDBRANCH  82  83
ENDBRANCH  63  77
BRANCH  64  87
ATOM     87  C   UNL     1      -0.277   1.444  -4.997  1.00  0.00    -0.014 A 
ATOM     88  C   UNL     1      -0.941   0.822  -3.899  1.00  0.00     0.010 A 
ATOM     89  C   UNL     1      -1.060   1.689  -6.151  1.00  0.00     0.010 A 
ATOM     90  C   UNL     1      -2.347   0.801  -3.815  1.00  0.00     0.020 A 
ATOM     91  C   UNL     1      -2.477   1.647  -6.075  1.00  0.00     0.020 A 
ATOM     92  C   UNL     1      -3.107   1.285  -4.877  1.00  0.00     0.054 A 
BRANCH  92  93
ATOM     93  S   UNL     1      -4.861   1.726  -4.572  1.00  0.00     0.124 S 
ATOM     94  O   UNL     1      -5.529   0.431  -4.633  1.00  0.00    -0.237 OA
ATOM     95  O   UNL     1      -4.822   2.364  -3.256  1.00  0.00    -0.237 OA
ATOM     96  O   UNL     1      -5.165   2.645  -5.664  1.00  0.00    -0.744 OA
ENDBRANCH  92  93
ENDBRANCH  64  87
BRANCH  76  97
ATOM     97  C   UNL     1       6.009   5.584  -6.107  1.00  0.00    -0.014 A 
ATOM     98  C   UNL     1       6.853   4.579  -6.577  1.00  0.00     0.010 A 
ATOM     99  C   UNL     1       6.395   6.917  -6.448  1.00  0.00     0.010 A 
ATOM    100  C   UNL     1       7.933   4.869  -7.426  1.00  0.00     0.020 A 
ATOM    101  C   UNL     1       7.461   7.224  -7.293  1.00  0.00     0.020 A 
ATOM    102  C   UNL     1       8.209   6.184  -7.805  1.00  0.00     0.054 A 
BRANCH 102 103
ATOM    103  S   UNL     1       9.541   6.500  -8.979  1.00  0.00     0.124 S 
ATOM    104  O   UNL     1      10.693   5.911  -8.302  1.00  0.00    -0.237 OA
ATOM    105  O   UNL     1       9.076   5.786 -10.165  1.00  0.00    -0.237 OA
ATOM    106  O   UNL     1       9.568   7.955  -9.101  1.00  0.00    -0.744 OA
ENDBRANCH 102 103
ENDBRANCH  76  97
ENDBRANCH  50  51
ENDBRANCH  43  45
ENDBRANCH  42  43
ENDBRANCH  41  42
ENDBRANCH  40  41
ENDBRANCH  39  40
ENDBRANCH  38  39
ENDBRANCH  37  38
ENDBRANCH   1  37
TORSDOF 26
