REMARK SMILES Cc1nn(C)c(=O)c(C(=O)N2CCCC[C@H]2C(=O)OCCOCCOCCOCCOC(=O)c2ccc(-c3c4nc(c(-c5ccc(S(=O)(=O)[O-])cc5)c5ccc([nH]5)c(-c5ccc(S(=O)(=O)[O-])cc5)c5nc(c(-c6ccc(S(=O)(=O)[O-])cc6)c6ccc3[nH]6)C=C5)C=C4)cc2)c1C
REMARK SMILES IDX 26 1 25 2 24 3 23 4 22 5 21 6 20 7 19 8 17 9 18 10 16 11
REMARK SMILES IDX 11 12 12 13 13 14 15 15 14 16 9 17 10 18 8 19 1 20 2 21 3 22
REMARK SMILES IDX 94 23 4 24 95 25 5 26 6 27 7 28 27 29 28 30 29 31 30 32
REMARK SMILES IDX 31 33 32 34 33 35 34 36 35 37 93 38 36 39 92 40 37 41 38 42
REMARK SMILES IDX 39 43 86 44 40 45 91 46 85 47 87 48 41 49 90 50 84 51 83 52
REMARK SMILES IDX 42 54 72 55 53 56 71 57 54 58 57 59 70 60 88 61 55 62 56 63
REMARK SMILES IDX 69 65 89 66 58 67 43 68 44 69 52 70 45 71 51 72 46 73 47 74
REMARK SMILES IDX 48 75 49 76 50 77 73 78 74 79 82 80 75 81 81 82 76 83 77 84
REMARK SMILES IDX 78 85 79 86 80 87 59 88 60 89 68 90 61 91 67 92 62 93 63 94
REMARK SMILES IDX 64 95 65 96 66 97
REMARK H PARENT 87 53 57 64
REMARK Flexibility Score: inf
ROOT
ATOM      1  C   UNL     1       1.343   1.266  -2.674  1.00  0.00     0.188 C 
ENDROOT
BRANCH   1   2
ATOM      2  O   UNL     1       1.309   2.197  -1.610  1.00  0.00    -0.377 OA
BRANCH   2   3
ATOM      3  C   UNL     1       0.289   3.164  -1.572  1.00  0.00     0.188 C 
BRANCH   3   4
ATOM      4  C   UNL     1       0.493   4.375  -2.491  1.00  0.00     0.188 C 
BRANCH   4   5
ATOM      5  O   UNL     1       1.779   4.709  -3.009  1.00  0.00    -0.376 OA
BRANCH   5   6
ATOM      6  C   UNL     1       2.993   4.354  -2.360  1.00  0.00     0.202 C 
BRANCH   6   7
ATOM      7  C   UNL     1       3.419   5.165  -1.136  1.00  0.00     0.261 C 
BRANCH   7   8
ATOM      8  O   UNL     1       2.581   4.959   0.012  1.00  0.00    -0.462 OA
BRANCH   8   9
ATOM      9  C   UNL     1       1.551   5.829   0.149  1.00  0.00     0.328 C 
ATOM     10  O   UNL     1       1.312   6.726  -0.653  1.00  0.00    -0.250 OA
BRANCH   9  11
ATOM     11  C   UNL     1       0.622   5.476   1.348  1.00  0.00     0.195 C 
ATOM     12  N   UNL     1       1.291   5.010   2.580  1.00  0.00    -0.325 N 
ATOM     13  C   UNL     1       2.209   5.999   3.148  1.00  0.00     0.121 C 
ATOM     14  C   UNL     1       1.527   7.347   3.406  1.00  0.00     0.022 C 
ATOM     15  C   UNL     1      -0.192   6.746   1.664  1.00  0.00     0.037 C 
ATOM     16  C   UNL     1       0.725   7.847   2.206  1.00  0.00     0.005 C 
BRANCH  12  17
ATOM     17  C   UNL     1       0.696   4.130   3.494  1.00  0.00     0.260 C 
ATOM     18  O   UNL     1       0.534   4.492   4.661  1.00  0.00    -0.269 OA
BRANCH  17  19
ATOM     19  C   UNL     1       0.369   2.700   3.110  1.00  0.00     0.111 A 
ATOM     20  C   UNL     1       1.050  -0.164   0.756  1.00  0.00     0.069 C 
ATOM     21  C   UNL     1       0.686   0.556   2.031  1.00  0.00     0.062 A 
ATOM     22  N   UNL     1      -0.054  -0.115   2.849  1.00  0.00    -0.175 NA
ATOM     23  C   UNL     1       1.106   1.972   2.243  1.00  0.00    -0.010 A 
ATOM     24  N   UNL     1      -0.568   0.554   3.912  1.00  0.00    -0.232 N 
ATOM     25  C   UNL     1       2.377   2.381   1.579  1.00  0.00     0.047 C 
ATOM     26  C   UNL     1      -1.237  -0.289   4.889  1.00  0.00     0.178 C 
ATOM     27  C   UNL     1      -0.624   1.946   3.976  1.00  0.00     0.279 A 
ATOM     28  O   UNL     1      -1.410   2.533   4.718  1.00  0.00    -0.267 OA
ENDBRANCH  17  19
ENDBRANCH  12  17
ENDBRANCH   9  11
ENDBRANCH   8   9
ENDBRANCH   7   8
ENDBRANCH   6   7
ENDBRANCH   5   6
ENDBRANCH   4   5
ENDBRANCH   3   4
ENDBRANCH   2   3
ENDBRANCH   1   2
BRANCH   1  29
ATOM     29  C   UNL     1       0.584   1.530  -3.975  1.00  0.00     0.188 C 
BRANCH  29  30
ATOM     30  O   UNL     1      -0.783   1.879  -3.766  1.00  0.00    -0.376 OA
BRANCH  30  31
ATOM     31  C   UNL     1      -1.744   0.850  -3.970  1.00  0.00     0.202 C 
BRANCH  31  32
ATOM     32  C   UNL     1      -1.994  -0.054  -2.754  1.00  0.00     0.261 C 
BRANCH  32  33
ATOM     33  O   UNL     1      -0.896  -0.861  -2.296  1.00  0.00    -0.460 OA
BRANCH  33  34
ATOM     34  C   UNL     1      -0.300  -1.709  -3.173  1.00  0.00     0.338 C 
ATOM     35  O   UNL     1      -0.574  -1.872  -4.334  1.00  0.00    -0.246 OA
BRANCH  34  36
ATOM     36  C   UNL     1       0.891  -2.274  -2.485  1.00  0.00     0.060 A 
ATOM     37  C   UNL     1       2.166  -2.021  -3.009  1.00  0.00     0.016 A 
ATOM     38  C   UNL     1       0.748  -3.002  -1.302  1.00  0.00     0.016 A 
ATOM     39  C   UNL     1       3.302  -2.503  -2.350  1.00  0.00     0.010 A 
ATOM     40  C   UNL     1       1.885  -3.498  -0.655  1.00  0.00     0.010 A 
ATOM     41  C   UNL     1       3.167  -3.276  -1.189  1.00  0.00    -0.014 A 
BRANCH  41  42
ATOM     42  C   UNL     1       4.323  -4.062  -0.682  1.00  0.00     0.031 A 
ATOM     43  C   UNL     1       4.427  -5.502  -1.112  1.00  0.00     0.074 A 
ATOM     44  C   UNL     1       5.269  -3.535   0.118  1.00  0.00     0.049 A 
ATOM     45  N   UNL     1       5.329  -6.398  -0.808  1.00  0.00    -0.248 NA
ATOM     46  C   UNL     1       3.364  -5.995  -2.005  1.00  0.00     0.031 C 
ATOM     47  C   UNL     1       5.316  -2.151   0.585  1.00  0.00     0.029 A 
ATOM     48  N   UNL     1       6.381  -4.117   0.680  1.00  0.00    -0.354 N 
ATOM     49  C   UNL     1       4.941  -7.558  -1.468  1.00  0.00     0.074 A 
ATOM     50  C   UNL     1       3.702  -7.265  -2.153  1.00  0.00     0.031 C 
ATOM     51  C   UNL     1       6.404  -1.990   1.361  1.00  0.00     0.029 A 
ATOM     52  C   UNL     1       7.118  -3.264   1.469  1.00  0.00     0.049 A 
ATOM     53  H   UNL     1       6.628  -5.058   0.530  1.00  0.00     0.167 HD
ATOM     54  C   UNL     1       5.562  -8.758  -1.517  1.00  0.00     0.031 A 
ATOM     55  C   UNL     1       8.232  -3.487   2.200  1.00  0.00     0.031 A 
ATOM     56  C   UNL     1       6.782  -9.065  -0.825  1.00  0.00     0.049 A 
ATOM     57  C   UNL     1       8.867  -4.856   2.199  1.00  0.00     0.074 A 
ATOM     58  C   UNL     1       7.494 -10.251  -0.828  1.00  0.00     0.029 A 
ATOM     59  N   UNL     1       7.465  -8.187   0.002  1.00  0.00    -0.354 N 
ATOM     60  N   UNL     1       8.508  -5.932   1.539  1.00  0.00    -0.248 NA
ATOM     61  C   UNL     1      10.061  -5.040   3.039  1.00  0.00     0.031 C 
ATOM     62  C   UNL     1       8.574 -10.111   0.048  1.00  0.00     0.029 A 
ATOM     63  C   UNL     1       8.573  -8.816   0.543  1.00  0.00     0.049 A 
ATOM     64  H   UNL     1       7.201  -7.255   0.178  1.00  0.00     0.167 HD
ATOM     65  C   UNL     1       9.442  -6.911   1.867  1.00  0.00     0.074 A 
ATOM     66  C   UNL     1      10.390  -6.298   2.774  1.00  0.00     0.031 C 
ATOM     67  C   UNL     1       9.508  -8.201   1.451  1.00  0.00     0.031 A 
BRANCH  54  68
ATOM     68  C   UNL     1       4.902  -9.839  -2.329  1.00  0.00    -0.014 A 
ATOM     69  C   UNL     1       4.865  -9.771  -3.734  1.00  0.00     0.010 A 
ATOM     70  C   UNL     1       4.324 -10.944  -1.679  1.00  0.00     0.010 A 
ATOM     71  C   UNL     1       4.220 -10.766  -4.472  1.00  0.00     0.020 A 
ATOM     72  C   UNL     1       3.705 -11.957  -2.416  1.00  0.00     0.020 A 
ATOM     73  C   UNL     1       3.642 -11.851  -3.807  1.00  0.00     0.054 A 
BRANCH  73  74
ATOM     74  S   UNL     1       2.820 -13.131  -4.793  1.00  0.00     0.124 S 
ATOM     75  O   UNL     1       1.634 -12.426  -5.273  1.00  0.00    -0.237 OA
ATOM     76  O   UNL     1       3.821 -13.440  -5.810  1.00  0.00    -0.237 OA
ATOM     77  O   UNL     1       2.561 -14.200  -3.831  1.00  0.00    -0.744 OA
ENDBRANCH  73  74
ENDBRANCH  54  68
BRANCH  55  78
ATOM     78  C   UNL     1       8.828  -2.376   2.995  1.00  0.00    -0.014 A 
ATOM     79  C   UNL     1      10.047  -1.791   2.607  1.00  0.00     0.010 A 
ATOM     80  C   UNL     1       8.166  -1.879   4.134  1.00  0.00     0.010 A 
ATOM     81  C   UNL     1      10.585  -0.724   3.334  1.00  0.00     0.020 A 
ATOM     82  C   UNL     1       8.689  -0.797   4.849  1.00  0.00     0.020 A 
ATOM     83  C   UNL     1       9.896  -0.225   4.443  1.00  0.00     0.054 A 
BRANCH  83  84
ATOM     84  S   UNL     1      10.565   1.226   5.305  1.00  0.00     0.124 S 
ATOM     85  O   UNL     1      11.766   0.683   5.932  1.00  0.00    -0.237 OA
ATOM     86  O   UNL     1      10.791   2.162   4.206  1.00  0.00    -0.237 OA
ATOM     87  O   UNL     1       9.493   1.604   6.223  1.00  0.00    -0.744 OA
ENDBRANCH  83  84
ENDBRANCH  55  78
BRANCH  67  88
ATOM     88  C   UNL     1      10.646  -9.054   1.952  1.00  0.00    -0.014 A 
ATOM     89  C   UNL     1      10.676  -9.522   3.277  1.00  0.00     0.010 A 
ATOM     90  C   UNL     1      11.642  -9.482   1.053  1.00  0.00     0.010 A 
ATOM     91  C   UNL     1      11.688 -10.391   3.697  1.00  0.00     0.020 A 
ATOM     92  C   UNL     1      12.639 -10.372   1.462  1.00  0.00     0.020 A 
ATOM     93  C   UNL     1      12.660 -10.815   2.785  1.00  0.00     0.054 A 
BRANCH  93  94
ATOM     94  S   UNL     1      13.921 -11.995   3.341  1.00  0.00     0.124 S 
ATOM     95  O   UNL     1      14.728 -11.177   4.242  1.00  0.00    -0.237 OA
ATOM     96  O   UNL     1      13.123 -13.036   3.983  1.00  0.00    -0.237 OA
ATOM     97  O   UNL     1      14.588 -12.401   2.106  1.00  0.00    -0.744 OA
ENDBRANCH  93  94
ENDBRANCH  67  88
ENDBRANCH  41  42
ENDBRANCH  34  36
ENDBRANCH  33  34
ENDBRANCH  32  33
ENDBRANCH  31  32
ENDBRANCH  30  31
ENDBRANCH  29  30
ENDBRANCH   1  29
TORSDOF 25
