REMARK SMILES CC(C)[C@H](NC(=O)OCc1ccccc1)C(=O)NCC(=O)OCCOCCOCCOCCOC(=O)c1ccc(-c2c3nc(c(-c4ccc(S(=O)(=O)[O-])cc4)c4ccc([nH]4)c(-c4ccc(S(=O)(=O)[O-])cc4)c4nc(c(-c5ccc(S(=O)(=O)[O-])cc5)c5ccc2[nH]5)C=C4)C=C3)cc1
REMARK SMILES IDX 26 1 25 2 24 3 23 4 22 5 20 6 21 7 19 8 18 9 16 10 17 11
REMARK SMILES IDX 4 13 2 14 1 15 3 16 5 17 6 18 7 20 8 21 9 22 10 23 11 24
REMARK SMILES IDX 15 25 12 26 14 27 13 28 27 29 28 30 29 31 30 32 31 33 32 34
REMARK SMILES IDX 33 35 34 36 35 37 36 38 37 39 38 40 96 41 39 42 95 43 40 44
REMARK SMILES IDX 41 45 42 46 89 47 43 48 94 49 88 50 90 51 44 52 93 53 87 54
REMARK SMILES IDX 86 55 45 57 75 58 56 59 74 60 57 61 60 62 73 63 91 64 58 65
REMARK SMILES IDX 59 66 72 68 92 69 61 70 46 71 47 72 55 73 48 74 54 75 49 76
REMARK SMILES IDX 50 77 51 78 52 79 53 80 76 81 77 82 85 83 78 84 84 85 79 86
REMARK SMILES IDX 80 87 81 88 82 89 83 90 62 91 63 92 71 93 64 94 70 95 65 96
REMARK SMILES IDX 66 97 67 98 68 99 69 100
REMARK H PARENT 18 12 5 19 90 56 60 67
REMARK Flexibility Score: inf
ROOT
ATOM      1  C   UNL     1       1.952   1.774  -7.159  1.00  0.00     0.188 C 
ENDROOT
BRANCH   1   2
ATOM      2  O   UNL     1       3.099   1.261  -6.421  1.00  0.00    -0.376 OA
BRANCH   2   3
ATOM      3  C   UNL     1       3.098   0.450  -5.210  1.00  0.00     0.202 C 
BRANCH   3   4
ATOM      4  C   UNL     1       3.583   0.968  -3.698  1.00  0.00     0.261 C 
BRANCH   4   5
ATOM      5  O   UNL     1       2.785   1.761  -2.506  1.00  0.00    -0.462 OA
BRANCH   5   6
ATOM      6  C   UNL     1       1.871   2.367  -1.689  1.00  0.00     0.325 C 
ATOM      7  O   UNL     1       2.316   2.963  -0.695  1.00  0.00    -0.250 OA
BRANCH   6   8
ATOM      8  C   UNL     1       0.197   2.546  -1.888  1.00  0.00     0.238 C 
BRANCH   8   9
ATOM      9  N   UNL     1      -0.950   1.908  -2.667  1.00  0.00    -0.343 N 
ATOM     10  C   UNL     1      -1.523   0.678  -2.429  1.00  0.00     0.243 C 
ATOM     11  O   UNL     1      -2.490   0.267  -3.061  1.00  0.00    -0.273 OA
ATOM     12  H   UNL     1      -1.318   2.429  -3.417  1.00  0.00     0.164 HD
BRANCH  10  13
ATOM     13  C   UNL     1      -0.930  -0.043  -1.252  1.00  0.00     0.177 C 
BRANCH  13  14
ATOM     14  C   UNL     1      -1.531   0.598   0.074  1.00  0.00     0.015 C 
ATOM     15  C   UNL     1      -0.514   0.908   1.178  1.00  0.00     0.010 C 
ATOM     16  C   UNL     1      -2.491   1.820  -0.097  1.00  0.00     0.010 C 
ENDBRANCH  13  14
BRANCH  13  17
ATOM     17  N   UNL     1       0.528   0.045  -1.525  1.00  0.00    -0.309 N 
ATOM     18  C   UNL     1       1.011  -0.139  -2.836  1.00  0.00     0.408 C 
ATOM     19  H   UNL     1       1.156   0.232  -0.790  1.00  0.00     0.167 HD
ATOM     20  O   UNL     1       1.558  -1.214  -3.078  1.00  0.00    -0.225 OA
BRANCH  18  21
ATOM     21  O   UNL     1       0.992   0.887  -3.808  1.00  0.00    -0.445 OA
BRANCH  21  22
ATOM     22  C   UNL     1       1.085   2.486  -4.310  1.00  0.00     0.270 C 
BRANCH  22  23
ATOM     23  C   UNL     1       2.124   3.681  -4.181  1.00  0.00    -0.011 A 
ATOM     24  C   UNL     1       3.411   3.705  -4.771  1.00  0.00     0.007 A 
ATOM     25  C   UNL     1       1.793   4.847  -3.486  1.00  0.00     0.007 A 
ATOM     26  C   UNL     1       4.377   4.676  -4.492  1.00  0.00     0.000 A 
ATOM     27  C   UNL     1       2.756   5.821  -3.179  1.00  0.00     0.000 A 
ATOM     28  C   UNL     1       4.060   5.716  -3.646  1.00  0.00     0.000 A 
ENDBRANCH  22  23
ENDBRANCH  21  22
ENDBRANCH  18  21
ENDBRANCH  13  17
ENDBRANCH  10  13
ENDBRANCH   8   9
ENDBRANCH   6   8
ENDBRANCH   5   6
ENDBRANCH   4   5
ENDBRANCH   3   4
ENDBRANCH   2   3
ENDBRANCH   1   2
BRANCH   1  29
ATOM     29  C   UNL     1       0.513   1.182  -7.046  1.00  0.00     0.188 C 
BRANCH  29  30
ATOM     30  O   UNL     1       0.414  -0.210  -6.869  1.00  0.00    -0.377 OA
BRANCH  30  31
ATOM     31  C   UNL     1       1.201  -1.014  -7.730  1.00  0.00     0.188 C 
BRANCH  31  32
ATOM     32  C   UNL     1       1.476  -0.464  -9.142  1.00  0.00     0.188 C 
BRANCH  32  33
ATOM     33  O   UNL     1       0.497   0.440  -9.634  1.00  0.00    -0.376 OA
BRANCH  33  34
ATOM     34  C   UNL     1      -0.610  -0.082 -10.356  1.00  0.00     0.202 C 
BRANCH  34  35
ATOM     35  C   UNL     1      -1.472  -1.166  -9.690  1.00  0.00     0.261 C 
BRANCH  35  36
ATOM     36  O   UNL     1      -0.838  -2.422  -9.381  1.00  0.00    -0.460 OA
BRANCH  36  37
ATOM     37  C   UNL     1       0.004  -2.994 -10.275  1.00  0.00     0.338 C 
ATOM     38  O   UNL     1       0.184  -2.667 -11.426  1.00  0.00    -0.246 OA
BRANCH  37  39
ATOM     39  C   UNL     1       0.887  -3.918  -9.513  1.00  0.00     0.060 A 
ATOM     40  C   UNL     1       2.279  -3.783  -9.645  1.00  0.00     0.016 A 
ATOM     41  C   UNL     1       0.355  -4.858  -8.630  1.00  0.00     0.016 A 
ATOM     42  C   UNL     1       3.138  -4.613  -8.929  1.00  0.00     0.010 A 
ATOM     43  C   UNL     1       1.214  -5.724  -7.949  1.00  0.00     0.010 A 
ATOM     44  C   UNL     1       2.605  -5.633  -8.133  1.00  0.00    -0.014 A 
BRANCH  44  45
ATOM     45  C   UNL     1       3.477  -6.773  -7.768  1.00  0.00     0.031 A 
ATOM     46  C   UNL     1       3.513  -7.939  -8.722  1.00  0.00     0.074 A 
ATOM     47  C   UNL     1       4.242  -6.766  -6.662  1.00  0.00     0.049 A 
ATOM     48  N   UNL     1       4.170  -9.064  -8.632  1.00  0.00    -0.248 NA
ATOM     49  C   UNL     1       2.697  -7.816  -9.945  1.00  0.00     0.031 C 
ATOM     50  C   UNL     1       4.335  -5.674  -5.695  1.00  0.00     0.029 A 
ATOM     51  N   UNL     1       5.091  -7.726  -6.169  1.00  0.00    -0.354 N 
ATOM     52  C   UNL     1       3.838  -9.784  -9.774  1.00  0.00     0.074 A 
ATOM     53  C   UNL     1       2.910  -8.981 -10.535  1.00  0.00     0.031 C 
ATOM     54  C   UNL     1       5.182  -6.035  -4.713  1.00  0.00     0.029 A 
ATOM     55  C   UNL     1       5.666  -7.391  -4.967  1.00  0.00     0.049 A 
ATOM     56  H   UNL     1       5.270  -8.576  -6.634  1.00  0.00     0.167 HD
ATOM     57  C   UNL     1       4.269 -11.006 -10.156  1.00  0.00     0.031 A 
ATOM     58  C   UNL     1       6.468  -8.111  -4.156  1.00  0.00     0.031 A 
ATOM     59  C   UNL     1       5.187 -11.806  -9.395  1.00  0.00     0.049 A 
ATOM     60  C   UNL     1       6.874  -9.506  -4.573  1.00  0.00     0.074 A 
ATOM     61  C   UNL     1       5.700 -13.052  -9.708  1.00  0.00     0.029 A 
ATOM     62  N   UNL     1       5.721 -11.445  -8.169  1.00  0.00    -0.354 N 
ATOM     63  N   UNL     1       6.582 -10.159  -5.674  1.00  0.00    -0.248 NA
ATOM     64  C   UNL     1       7.726 -10.258  -3.639  1.00  0.00     0.031 C 
ATOM     65  C   UNL     1       6.496 -13.473  -8.639  1.00  0.00     0.029 A 
ATOM     66  C   UNL     1       6.533 -12.459  -7.695  1.00  0.00     0.049 A 
ATOM     67  H   UNL     1       5.548 -10.594  -7.705  1.00  0.00     0.167 HD
ATOM     68  C   UNL     1       7.240 -11.383  -5.577  1.00  0.00     0.074 A 
ATOM     69  C   UNL     1       7.959 -11.372  -4.320  1.00  0.00     0.031 C 
ATOM     70  C   UNL     1       7.250 -12.424  -6.446  1.00  0.00     0.031 A 
BRANCH  57  71
ATOM     71  C   UNL     1       3.723 -11.575 -11.437  1.00  0.00    -0.014 A 
ATOM     72  C   UNL     1       4.136 -11.086 -12.688  1.00  0.00     0.010 A 
ATOM     73  C   UNL     1       2.837 -12.666 -11.383  1.00  0.00     0.010 A 
ATOM     74  C   UNL     1       3.665 -11.675 -13.865  1.00  0.00     0.020 A 
ATOM     75  C   UNL     1       2.384 -13.274 -12.556  1.00  0.00     0.020 A 
ATOM     76  C   UNL     1       2.798 -12.770 -13.790  1.00  0.00     0.054 A 
BRANCH  76  77
ATOM     77  S   UNL     1       2.262 -13.560 -15.332  1.00  0.00     0.124 S 
ATOM     78  O   UNL     1       1.358 -12.557 -15.888  1.00  0.00    -0.237 OA
ATOM     79  O   UNL     1       3.521 -13.739 -16.052  1.00  0.00    -0.237 OA
ATOM     80  O   UNL     1       1.622 -14.795 -14.886  1.00  0.00    -0.744 OA
ENDBRANCH  76  77
ENDBRANCH  57  71
BRANCH  58  81
ATOM     81  C   UNL     1       6.911  -7.561  -2.843  1.00  0.00    -0.014 A 
ATOM     82  C   UNL     1       8.269  -7.299  -2.586  1.00  0.00     0.010 A 
ATOM     83  C   UNL     1       5.972  -7.350  -1.815  1.00  0.00     0.010 A 
ATOM     84  C   UNL     1       8.683  -6.877  -1.317  1.00  0.00     0.020 A 
ATOM     85  C   UNL     1       6.378  -6.898  -0.556  1.00  0.00     0.020 A 
ATOM     86  C   UNL     1       7.735  -6.684  -0.309  1.00  0.00     0.054 A 
BRANCH  86  87
ATOM     87  S   UNL     1       8.292  -6.133   1.328  1.00  0.00     0.124 S 
ATOM     88  O   UNL     1       8.922  -7.340   1.855  1.00  0.00    -0.237 OA
ATOM     89  O   UNL     1       9.199  -5.037   1.000  1.00  0.00    -0.237 OA
ATOM     90  O   UNL     1       7.054  -5.731   1.993  1.00  0.00    -0.744 OA
ENDBRANCH  86  87
ENDBRANCH  58  81
BRANCH  70  91
ATOM     91  C   UNL     1       8.098 -13.619  -6.099  1.00  0.00    -0.014 A 
ATOM     92  C   UNL     1       7.737 -14.499  -5.064  1.00  0.00     0.010 A 
ATOM     93  C   UNL     1       9.243 -13.901  -6.870  1.00  0.00     0.010 A 
ATOM     94  C   UNL     1       8.526 -15.618  -4.781  1.00  0.00     0.020 A 
ATOM     95  C   UNL     1      10.015 -15.036  -6.611  1.00  0.00     0.020 A 
ATOM     96  C   UNL     1       9.660 -15.879  -5.557  1.00  0.00     0.054 A 
BRANCH  96  97
ATOM     97  S   UNL     1      10.645 -17.358  -5.194  1.00  0.00     0.124 S 
ATOM     98  O   UNL     1      11.316 -16.980  -3.954  1.00  0.00    -0.237 OA
ATOM     99  O   UNL     1       9.626 -18.398  -5.067  1.00  0.00    -0.237 OA
ATOM    100  O   UNL     1      11.517 -17.489  -6.359  1.00  0.00    -0.744 OA
ENDBRANCH  96  97
ENDBRANCH  70  91
ENDBRANCH  44  45
ENDBRANCH  37  39
ENDBRANCH  36  37
ENDBRANCH  35  36
ENDBRANCH  34  35
ENDBRANCH  33  34
ENDBRANCH  32  33
ENDBRANCH  31  32
ENDBRANCH  30  31
ENDBRANCH  29  30
ENDBRANCH   1  29
TORSDOF 30
