REMARK SMILES COc1cc(S(=O)(=O)Nc2cccc(C(=O)OCCOCCOCCOCCOC(=O)c3ccc(-c4c5nc(c(-c6ccc(S(=O)(=O)[O-])cc6)c6ccc([nH]6)c(-c6ccc(S(=O)(=O)[O-])cc6)c6nc(c(-c7ccc(S(=O)(=O)[O-])cc7)c7ccc4[nH]7)C=C6)C=C5)cc3)c2)c(OC)cc1C
REMARK SMILES IDX 22 1 21 2 20 3 19 4 18 5 17 6 15 7 16 8 14 9 10 10 11 11
REMARK SMILES IDX 92 12 12 13 13 14 9 15 6 17 7 18 8 19 5 20 3 21 4 22 97 23
REMARK SMILES IDX 96 24 98 25 93 26 2 27 1 28 94 29 95 30 23 31 24 32 25 33
REMARK SMILES IDX 26 34 27 35 28 36 29 37 30 38 31 39 32 40 33 41 91 42 34 43
REMARK SMILES IDX 90 44 35 45 36 46 37 47 84 48 38 49 89 50 83 51 85 52 39 53
REMARK SMILES IDX 88 54 82 55 81 56 40 58 70 59 51 60 69 61 52 62 55 63 68 64
REMARK SMILES IDX 86 65 53 66 54 67 67 69 87 70 56 71 41 72 42 73 50 74 43 75
REMARK SMILES IDX 49 76 44 77 45 78 46 79 47 80 48 81 71 82 72 83 80 84 73 85
REMARK SMILES IDX 79 86 74 87 75 88 76 89 77 90 78 91 57 92 58 93 66 94 59 95
REMARK SMILES IDX 65 96 60 97 61 98 62 99 63 100 64 101
REMARK H PARENT 9 16 85 57 55 68
REMARK Flexibility Score: inf
ROOT
ATOM      1  C   UNL     1       2.003   8.871   7.001  1.00  0.00     0.188 C 
ENDROOT
BRANCH   1   2
ATOM      2  C   UNL     1       0.792   8.232   7.723  1.00  0.00     0.188 C 
BRANCH   2   3
ATOM      3  O   UNL     1       0.800   7.840   9.082  1.00  0.00    -0.376 OA
BRANCH   3   4
ATOM      4  C   UNL     1       1.558   6.685   9.410  1.00  0.00     0.202 C 
BRANCH   4   5
ATOM      5  C   UNL     1       1.147   5.323   8.897  1.00  0.00     0.261 C 
BRANCH   5   6
ATOM      6  O   UNL     1       1.611   5.202   7.572  1.00  0.00    -0.460 OA
BRANCH   6   7
ATOM      7  C   UNL     1       0.597   5.008   6.730  1.00  0.00     0.338 C 
ATOM      8  O   UNL     1      -0.469   4.489   6.958  1.00  0.00    -0.246 OA
BRANCH   7   9
ATOM      9  C   UNL     1       0.917   5.823   5.546  1.00  0.00     0.062 A 
ATOM     10  C   UNL     1       0.011   6.505   3.495  1.00  0.00     0.050 A 
ATOM     11  C   UNL     1       1.256   6.941   3.046  1.00  0.00     0.027 A 
ATOM     12  C   UNL     1      -0.194   6.116   4.795  1.00  0.00     0.042 A 
ATOM     13  C   UNL     1       2.353   6.863   3.901  1.00  0.00     0.003 A 
ATOM     14  C   UNL     1       2.193   6.253   5.144  1.00  0.00     0.016 A 
BRANCH  10  15
ATOM     15  N   UNL     1      -1.026   6.198   2.579  1.00  0.00    -0.279 N 
ATOM     16  H   UNL     1      -1.509   6.882   2.062  1.00  0.00     0.180 HD
BRANCH  15  17
ATOM     17  S   UNL     1      -1.364   4.493   2.455  1.00  0.00     0.265 S 
ATOM     18  O   UNL     1      -2.321   4.462   1.360  1.00  0.00    -0.201 OA
ATOM     19  O   UNL     1      -1.779   3.978   3.739  1.00  0.00    -0.201 OA
BRANCH  17  20
ATOM     20  C   UNL     1       0.098   3.613   1.920  1.00  0.00     0.133 A 
ATOM     21  C   UNL     1       0.948   2.127   0.202  1.00  0.00     0.123 A 
ATOM     22  C   UNL     1      -0.089   2.876   0.744  1.00  0.00     0.073 A 
ATOM     23  C   UNL     1       2.243   2.256   0.685  1.00  0.00    -0.005 A 
ATOM     24  C   UNL     1       2.418   2.943   1.878  1.00  0.00     0.055 A 
ATOM     25  C   UNL     1       3.425   1.572   0.077  1.00  0.00     0.048 C 
ATOM     26  C   UNL     1       1.331   3.479   2.584  1.00  0.00     0.139 A 
BRANCH  21  27
ATOM     27  O   UNL     1       0.627   1.245  -0.792  1.00  0.00    -0.496 OA
ATOM     28  C   UNL     1       0.664  -0.089  -0.268  1.00  0.00     0.278 C 
ENDBRANCH  21  27
BRANCH  26  29
ATOM     29  O   UNL     1       1.474   3.719   3.921  1.00  0.00    -0.495 OA
ATOM     30  C   UNL     1       2.707   3.300   4.547  1.00  0.00     0.278 C 
ENDBRANCH  26  29
ENDBRANCH  17  20
ENDBRANCH  15  17
ENDBRANCH  10  15
ENDBRANCH   7   9
ENDBRANCH   6   7
ENDBRANCH   5   6
ENDBRANCH   4   5
ENDBRANCH   3   4
ENDBRANCH   2   3
ENDBRANCH   1   2
BRANCH   1  31
ATOM     31  O   UNL     1       3.290   8.300   7.139  1.00  0.00    -0.377 OA
BRANCH  31  32
ATOM     32  C   UNL     1       4.221   8.950   8.016  1.00  0.00     0.188 C 
BRANCH  32  33
ATOM     33  C   UNL     1       3.863  10.308   8.593  1.00  0.00     0.188 C 
BRANCH  33  34
ATOM     34  O   UNL     1       2.693  10.100   9.384  1.00  0.00    -0.376 OA
BRANCH  34  35
ATOM     35  C   UNL     1       1.832  11.204   9.561  1.00  0.00     0.202 C 
BRANCH  35  36
ATOM     36  C   UNL     1       2.550  12.434  10.101  1.00  0.00     0.261 C 
BRANCH  36  37
ATOM     37  O   UNL     1       2.812  12.333  11.530  1.00  0.00    -0.460 OA
BRANCH  37  38
ATOM     38  C   UNL     1       4.029  11.923  12.008  1.00  0.00     0.338 C 
ATOM     39  O   UNL     1       4.797  12.687  12.576  1.00  0.00    -0.246 OA
BRANCH  38  40
ATOM     40  C   UNL     1       4.205  10.441  12.069  1.00  0.00     0.060 A 
ATOM     41  C   UNL     1       5.462   9.815  12.103  1.00  0.00     0.016 A 
ATOM     42  C   UNL     1       3.090   9.637  12.056  1.00  0.00     0.016 A 
ATOM     43  C   UNL     1       5.606   8.422  11.862  1.00  0.00     0.010 A 
ATOM     44  C   UNL     1       3.242   8.290  11.768  1.00  0.00     0.010 A 
ATOM     45  C   UNL     1       4.484   7.647  11.598  1.00  0.00    -0.014 A 
BRANCH  45  46
ATOM     46  C   UNL     1       4.433   6.242  11.070  1.00  0.00     0.031 A 
ATOM     47  C   UNL     1       3.447   5.282  11.722  1.00  0.00     0.074 A 
ATOM     48  C   UNL     1       4.932   5.968   9.825  1.00  0.00     0.049 A 
ATOM     49  N   UNL     1       3.107   4.118  11.281  1.00  0.00    -0.248 NA
ATOM     50  C   UNL     1       2.691   5.609  12.939  1.00  0.00     0.031 C 
ATOM     51  C   UNL     1       4.390   5.026   8.828  1.00  0.00     0.029 A 
ATOM     52  N   UNL     1       5.951   6.547   9.089  1.00  0.00    -0.354 N 
ATOM     53  C   UNL     1       1.912   3.726  11.889  1.00  0.00     0.074 A 
ATOM     54  C   UNL     1       1.725   4.679  12.950  1.00  0.00     0.031 C 
ATOM     55  C   UNL     1       5.092   5.052   7.684  1.00  0.00     0.029 A 
ATOM     56  C   UNL     1       6.302   5.765   7.980  1.00  0.00     0.049 A 
ATOM     57  H   UNL     1       6.378   7.404   9.317  1.00  0.00     0.167 HD
ATOM     58  C   UNL     1       1.160   2.723  11.326  1.00  0.00     0.031 A 
ATOM     59  C   UNL     1       7.520   5.144   7.925  1.00  0.00     0.031 A 
ATOM     60  C   UNL     1       1.889   2.111  10.195  1.00  0.00     0.049 A 
ATOM     61  C   UNL     1       7.362   3.641   8.232  1.00  0.00     0.074 A 
ATOM     62  C   UNL     1       1.639   1.943   8.842  1.00  0.00     0.029 A 
ATOM     63  N   UNL     1       3.227   1.764  10.376  1.00  0.00    -0.354 N 
ATOM     64  N   UNL     1       6.366   3.156   8.947  1.00  0.00    -0.248 NA
ATOM     65  C   UNL     1       8.124   2.562   7.594  1.00  0.00     0.031 C 
ATOM     66  C   UNL     1       2.870   1.617   8.206  1.00  0.00     0.029 A 
ATOM     67  C   UNL     1       3.862   1.544   9.173  1.00  0.00     0.049 A 
ATOM     68  H   UNL     1       3.665   1.686  11.254  1.00  0.00     0.167 HD
ATOM     69  C   UNL     1       6.263   1.802   8.767  1.00  0.00     0.074 A 
ATOM     70  C   UNL     1       7.422   1.469   7.956  1.00  0.00     0.031 C 
ATOM     71  C   UNL     1       5.215   1.013   9.162  1.00  0.00     0.031 A 
BRANCH  58  72
ATOM     72  C   UNL     1      -0.312   2.364  11.630  1.00  0.00    -0.014 A 
ATOM     73  C   UNL     1      -1.008   1.506  10.741  1.00  0.00     0.010 A 
ATOM     74  C   UNL     1      -1.081   2.808  12.727  1.00  0.00     0.010 A 
ATOM     75  C   UNL     1      -2.354   1.125  10.907  1.00  0.00     0.020 A 
ATOM     76  C   UNL     1      -2.437   2.420  12.920  1.00  0.00     0.020 A 
ATOM     77  C   UNL     1      -3.065   1.575  12.007  1.00  0.00     0.054 A 
BRANCH  77  78
ATOM     78  S   UNL     1      -4.769   0.979  12.240  1.00  0.00     0.124 S 
ATOM     79  O   UNL     1      -5.462   1.514  11.071  1.00  0.00    -0.237 OA
ATOM     80  O   UNL     1      -4.600  -0.472  12.256  1.00  0.00    -0.237 OA
ATOM     81  O   UNL     1      -5.173   1.565  13.517  1.00  0.00    -0.744 OA
ENDBRANCH  77  78
ENDBRANCH  58  72
BRANCH  59  82
ATOM     82  C   UNL     1       8.599   6.174   8.160  1.00  0.00    -0.014 A 
ATOM     83  C   UNL     1       8.698   7.112   7.093  1.00  0.00     0.010 A 
ATOM     84  C   UNL     1       8.806   6.663   9.469  1.00  0.00     0.010 A 
ATOM     85  C   UNL     1       8.656   8.495   7.338  1.00  0.00     0.020 A 
ATOM     86  C   UNL     1       8.780   8.058   9.714  1.00  0.00     0.020 A 
ATOM     87  C   UNL     1       8.633   8.959   8.650  1.00  0.00     0.054 A 
BRANCH  87  88
ATOM     88  S   UNL     1       8.131  10.693   8.939  1.00  0.00     0.124 S 
ATOM     89  O   UNL     1       9.359  11.426   8.664  1.00  0.00    -0.237 OA
ATOM     90  O   UNL     1       7.047  10.882   7.975  1.00  0.00    -0.237 OA
ATOM     91  O   UNL     1       7.700  10.685  10.330  1.00  0.00    -0.744 OA
ENDBRANCH  87  88
ENDBRANCH  59  82
BRANCH  71  92
ATOM     92  C   UNL     1       5.368  -0.430   9.590  1.00  0.00    -0.014 A 
ATOM     93  C   UNL     1       6.616  -1.022   9.813  1.00  0.00     0.010 A 
ATOM     94  C   UNL     1       4.223  -1.165  10.004  1.00  0.00     0.010 A 
ATOM     95  C   UNL     1       6.718  -2.299  10.367  1.00  0.00     0.020 A 
ATOM     96  C   UNL     1       4.317  -2.414  10.616  1.00  0.00     0.020 A 
ATOM     97  C   UNL     1       5.571  -2.985  10.769  1.00  0.00     0.054 A 
BRANCH  97  98
ATOM     98  S   UNL     1       5.759  -4.611  11.525  1.00  0.00     0.124 S 
ATOM     99  O   UNL     1       6.072  -5.440  10.364  1.00  0.00    -0.237 OA
ATOM    100  O   UNL     1       6.862  -4.400  12.460  1.00  0.00    -0.237 OA
ATOM    101  O   UNL     1       4.462  -4.863  12.145  1.00  0.00    -0.744 OA
ENDBRANCH  97  98
ENDBRANCH  71  92
ENDBRANCH  45  46
ENDBRANCH  38  40
ENDBRANCH  37  38
ENDBRANCH  36  37
ENDBRANCH  35  36
ENDBRANCH  34  35
ENDBRANCH  33  34
ENDBRANCH  32  33
ENDBRANCH  31  32
ENDBRANCH   1  31
TORSDOF 28
