REMARK SMILES N#Cc1ccc(C[N@H+]2CCCC[C@H]2C(=O)OCCOCCOCCOCCOC(=O)c2ccc(-c3c4nc(c(-c5ccc(S(=O)(=O)[O-])cc5)c5ccc([nH]5)c(-c5ccc(S(=O)(=O)[O-])cc5)c5nc(c(-c6ccc(S(=O)(=O)[O-])cc6)c6ccc3[nH]6)C=C5)C=C4)cc2)c(F)c1
REMARK SMILES IDX 22 1 21 2 20 3 19 4 18 5 17 6 16 7 14 8 15 9 13 10 8 11 9 12
REMARK SMILES IDX 10 14 12 15 11 16 7 17 6 18 3 19 4 20 93 21 5 22 91 23 92 24
REMARK SMILES IDX 2 25 1 26 23 27 24 28 25 29 26 30 27 31 28 32 29 33 30 34
REMARK SMILES IDX 31 35 32 36 90 37 33 38 89 39 34 40 35 41 36 42 83 43 37 44
REMARK SMILES IDX 88 45 82 46 84 47 38 48 87 49 81 50 80 51 39 53 69 54 50 55
REMARK SMILES IDX 68 56 51 57 54 58 67 59 85 60 52 61 53 62 66 64 86 65 55 66
REMARK SMILES IDX 40 67 41 68 49 69 42 70 48 71 43 72 44 73 45 74 46 75 47 76
REMARK SMILES IDX 70 77 71 78 79 79 72 80 78 81 73 82 74 83 75 84 76 85 77 86
REMARK SMILES IDX 56 87 57 88 65 89 58 90 64 91 59 92 60 93 61 94 62 95 63 96
REMARK H PARENT 8 13 84 52 54 63
REMARK Flexibility Score: inf
ROOT
ATOM      1  O   UNL     1       1.725  -1.791   3.954  1.00  0.00    -0.377 OA
ENDROOT
BRANCH   1   2
ATOM      2  C   UNL     1       1.266  -0.545   3.464  1.00  0.00     0.188 C 
BRANCH   2   3
ATOM      3  C   UNL     1      -0.043  -0.523   2.701  1.00  0.00     0.188 C 
BRANCH   3   4
ATOM      4  O   UNL     1      -0.633  -1.803   2.627  1.00  0.00    -0.376 OA
BRANCH   4   5
ATOM      5  C   UNL     1      -0.384  -2.634   1.508  1.00  0.00     0.202 C 
BRANCH   5   6
ATOM      6  C   UNL     1       1.000  -3.253   1.096  1.00  0.00     0.261 C 
BRANCH   6   7
ATOM      7  O   UNL     1       2.290  -2.669   1.417  1.00  0.00    -0.459 OA
BRANCH   7   8
ATOM      8  C   UNL     1       2.462  -1.452   0.863  1.00  0.00     0.364 C 
ATOM      9  O   UNL     1       1.493  -0.924   0.346  1.00  0.00    -0.245 OA
BRANCH   8  10
ATOM     10  C   UNL     1       3.876  -0.817   0.857  1.00  0.00     0.295 C 
ATOM     11  N   UNL     1       3.896   0.680   0.753  1.00  0.00    -0.319 N 
ATOM     12  C   UNL     1       3.713   1.439   1.980  1.00  0.00     0.263 C 
ATOM     13  H   UNL     1       4.900   0.748   0.584  1.00  0.00     0.349 HD
ATOM     14  C   UNL     1       4.566   0.958   3.162  1.00  0.00     0.062 C 
ATOM     15  C   UNL     1       4.833  -1.288   1.971  1.00  0.00     0.078 C 
ATOM     16  C   UNL     1       4.734  -0.549   3.302  1.00  0.00     0.013 C 
BRANCH  11  17
ATOM     17  C   UNL     1       3.413   1.339  -0.486  1.00  0.00     0.302 C 
BRANCH  17  18
ATOM     18  C   UNL     1       1.925   1.360  -0.810  1.00  0.00     0.042 A 
ATOM     19  C   UNL     1      -0.841   0.816  -0.943  1.00  0.00     0.055 A 
ATOM     20  C   UNL     1      -0.367   1.885  -0.169  1.00  0.00     0.020 A 
ATOM     21  C   UNL     1       0.040   0.136  -1.785  1.00  0.00     0.059 A 
ATOM     22  C   UNL     1       1.011   2.152  -0.097  1.00  0.00     0.014 A 
ATOM     23  C   UNL     1       1.405   0.440  -1.743  1.00  0.00     0.133 A 
ATOM     24  F   UNL     1       2.245  -0.340  -2.441  1.00  0.00    -0.206 F 
BRANCH  19  25
ATOM     25  C   UNL     1      -2.179   0.338  -0.761  1.00  0.00     0.099 C 
ATOM     26  N   UNL     1      -3.256  -0.068  -0.571  1.00  0.00    -0.192 NA
ENDBRANCH  19  25
ENDBRANCH  17  18
ENDBRANCH  11  17
ENDBRANCH   8  10
ENDBRANCH   7   8
ENDBRANCH   6   7
ENDBRANCH   5   6
ENDBRANCH   4   5
ENDBRANCH   3   4
ENDBRANCH   2   3
ENDBRANCH   1   2
BRANCH   1  27
ATOM     27  C   UNL     1       0.837  -2.541   4.764  1.00  0.00     0.188 C 
BRANCH  27  28
ATOM     28  C   UNL     1      -0.153  -1.731   5.614  1.00  0.00     0.188 C 
BRANCH  28  29
ATOM     29  O   UNL     1       0.309  -0.583   6.324  1.00  0.00    -0.376 OA
BRANCH  29  30
ATOM     30  C   UNL     1       1.662  -0.513   6.747  1.00  0.00     0.202 C 
BRANCH  30  31
ATOM     31  C   UNL     1       2.108  -1.431   7.883  1.00  0.00     0.261 C 
BRANCH  31  32
ATOM     32  O   UNL     1       1.935  -2.824   7.605  1.00  0.00    -0.460 OA
BRANCH  32  33
ATOM     33  C   UNL     1       0.789  -3.371   8.080  1.00  0.00     0.338 C 
ATOM     34  O   UNL     1      -0.071  -2.822   8.744  1.00  0.00    -0.246 OA
BRANCH  33  35
ATOM     35  C   UNL     1       0.646  -4.728   7.518  1.00  0.00     0.060 A 
ATOM     36  C   UNL     1      -0.531  -5.072   6.833  1.00  0.00     0.016 A 
ATOM     37  C   UNL     1       1.656  -5.668   7.714  1.00  0.00     0.016 A 
ATOM     38  C   UNL     1      -0.724  -6.375   6.391  1.00  0.00     0.010 A 
ATOM     39  C   UNL     1       1.450  -6.980   7.298  1.00  0.00     0.010 A 
ATOM     40  C   UNL     1       0.240  -7.345   6.681  1.00  0.00    -0.014 A 
BRANCH  40  41
ATOM     41  C   UNL     1      -0.106  -8.775   6.564  1.00  0.00     0.031 A 
ATOM     42  C   UNL     1      -0.497  -9.509   7.816  1.00  0.00     0.074 A 
ATOM     43  C   UNL     1      -0.073  -9.399   5.376  1.00  0.00     0.049 A 
ATOM     44  N   UNL     1      -0.750 -10.778   7.988  1.00  0.00    -0.248 NA
ATOM     45  C   UNL     1      -0.606  -8.700   9.043  1.00  0.00     0.031 C 
ATOM     46  C   UNL     1       0.228  -8.766   4.093  1.00  0.00     0.029 A 
ATOM     47  N   UNL     1      -0.290 -10.715   5.063  1.00  0.00    -0.354 N 
ATOM     48  C   UNL     1      -1.030 -10.924   9.342  1.00  0.00     0.074 A 
ATOM     49  C   UNL     1      -0.877  -9.622   9.952  1.00  0.00     0.031 C 
ATOM     50  C   UNL     1       0.184  -9.700   3.128  1.00  0.00     0.029 A 
ATOM     51  C   UNL     1      -0.102 -11.000   3.733  1.00  0.00     0.049 A 
ATOM     52  H   UNL     1      -0.555 -11.392   5.728  1.00  0.00     0.167 HD
ATOM     53  C   UNL     1      -1.387 -12.043  10.014  1.00  0.00     0.031 A 
ATOM     54  C   UNL     1      -0.133 -12.182   3.090  1.00  0.00     0.031 A 
ATOM     55  C   UNL     1      -1.511 -13.335   9.393  1.00  0.00     0.049 A 
ATOM     56  C   UNL     1      -0.431 -13.432   3.877  1.00  0.00     0.074 A 
ATOM     57  C   UNL     1      -1.871 -14.538   9.974  1.00  0.00     0.029 A 
ATOM     58  N   UNL     1      -1.268 -13.594   8.052  1.00  0.00    -0.354 N 
ATOM     59  N   UNL     1      -0.709 -13.560   5.153  1.00  0.00    -0.248 NA
ATOM     60  C   UNL     1      -0.427 -14.698   3.132  1.00  0.00     0.031 C 
ATOM     61  C   UNL     1      -1.772 -15.536   9.000  1.00  0.00     0.029 A 
ATOM     62  C   UNL     1      -1.436 -14.943   7.792  1.00  0.00     0.049 A 
ATOM     63  H   UNL     1      -1.014 -12.918   7.383  1.00  0.00     0.167 HD
ATOM     64  C   UNL     1      -0.953 -14.915   5.356  1.00  0.00     0.074 A 
ATOM     65  C   UNL     1      -0.801 -15.560   4.067  1.00  0.00     0.031 C 
ATOM     66  C   UNL     1      -1.280 -15.567   6.500  1.00  0.00     0.031 A 
BRANCH  53  67
ATOM     67  C   UNL     1      -1.619 -11.920  11.498  1.00  0.00    -0.014 A 
ATOM     68  C   UNL     1      -2.697 -11.177  12.015  1.00  0.00     0.010 A 
ATOM     69  C   UNL     1      -0.751 -12.572  12.393  1.00  0.00     0.010 A 
ATOM     70  C   UNL     1      -2.873 -11.048  13.395  1.00  0.00     0.020 A 
ATOM     71  C   UNL     1      -0.945 -12.477  13.774  1.00  0.00     0.020 A 
ATOM     72  C   UNL     1      -1.994 -11.699  14.266  1.00  0.00     0.054 A 
BRANCH  72  73
ATOM     73  S   UNL     1      -2.256 -11.526  16.052  1.00  0.00     0.124 S 
ATOM     74  O   UNL     1      -1.912 -10.123  16.273  1.00  0.00    -0.237 OA
ATOM     75  O   UNL     1      -3.671 -11.856  16.200  1.00  0.00    -0.237 OA
ATOM     76  O   UNL     1      -1.329 -12.492  16.636  1.00  0.00    -0.744 OA
ENDBRANCH  72  73
ENDBRANCH  53  67
BRANCH  54  77
ATOM     77  C   UNL     1       0.128 -12.241   1.625  1.00  0.00    -0.014 A 
ATOM     78  C   UNL     1      -0.895 -12.609   0.735  1.00  0.00     0.010 A 
ATOM     79  C   UNL     1       1.400 -11.927   1.111  1.00  0.00     0.010 A 
ATOM     80  C   UNL     1      -0.648 -12.679  -0.639  1.00  0.00     0.020 A 
ATOM     81  C   UNL     1       1.642 -11.962  -0.265  1.00  0.00     0.020 A 
ATOM     82  C   UNL     1       0.618 -12.348  -1.130  1.00  0.00     0.054 A 
BRANCH  82  83
ATOM     83  S   UNL     1       0.895 -12.396  -2.922  1.00  0.00     0.124 S 
ATOM     84  O   UNL     1       0.829 -13.826  -3.203  1.00  0.00    -0.237 OA
ATOM     85  O   UNL     1      -0.217 -11.597  -3.430  1.00  0.00    -0.237 OA
ATOM     86  O   UNL     1       2.214 -11.786  -3.081  1.00  0.00    -0.744 OA
ENDBRANCH  82  83
ENDBRANCH  54  77
BRANCH  66  87
ATOM     87  C   UNL     1      -1.544 -17.049   6.406  1.00  0.00    -0.014 A 
ATOM     88  C   UNL     1      -0.512 -17.967   6.141  1.00  0.00     0.010 A 
ATOM     89  C   UNL     1      -2.844 -17.532   6.647  1.00  0.00     0.010 A 
ATOM     90  C   UNL     1      -0.784 -19.337   6.082  1.00  0.00     0.020 A 
ATOM     91  C   UNL     1      -3.112 -18.903   6.628  1.00  0.00     0.020 A 
ATOM     92  C   UNL     1      -2.082 -19.796   6.330  1.00  0.00     0.054 A 
BRANCH  92  93
ATOM     93  S   UNL     1      -2.395 -21.581   6.295  1.00  0.00     0.124 S 
ATOM     94  O   UNL     1      -2.252 -21.888   4.874  1.00  0.00    -0.237 OA
ATOM     95  O   UNL     1      -1.341 -22.106   7.160  1.00  0.00    -0.237 OA
ATOM     96  O   UNL     1      -3.750 -21.708   6.825  1.00  0.00    -0.744 OA
ENDBRANCH  92  93
ENDBRANCH  66  87
ENDBRANCH  40  41
ENDBRANCH  33  35
ENDBRANCH  32  33
ENDBRANCH  31  32
ENDBRANCH  30  31
ENDBRANCH  29  30
ENDBRANCH  28  29
ENDBRANCH  27  28
ENDBRANCH   1  27
TORSDOF 26
