REMARK SMILES O=C(/C=C/c1ccc(O)c(O)c1)OCCOCCOCCOCCOC(=O)c1ccc(-c2c3nc(c(-c4ccc(S(=O)(=O)[O-])cc4)c4ccc([nH]4)c(-c4ccc(S(=O)(=O)[O-])cc4)c4nc(c(-c5ccc(S(=O)(=O)[O-])cc5)c5ccc2[nH]5)C=C4)C=C3)cc1
REMARK SMILES IDX 20 1 19 2 18 3 17 4 16 5 15 6 14 7 13 8 2 9 1 10 3 11 4 12
REMARK SMILES IDX 5 13 6 14 12 15 7 16 10 17 8 18 11 19 9 21 21 23 22 24 23 25
REMARK SMILES IDX 24 26 25 27 26 28 27 29 28 30 29 31 87 32 30 33 86 34 31 35
REMARK SMILES IDX 32 36 33 37 80 38 34 39 85 40 79 41 81 42 35 43 84 44 78 45
REMARK SMILES IDX 77 46 36 48 66 49 47 50 65 51 48 52 51 53 64 54 82 55 49 56
REMARK SMILES IDX 50 57 63 59 83 60 52 61 37 62 38 63 46 64 39 65 45 66 40 67
REMARK SMILES IDX 41 68 42 69 43 70 44 71 67 72 68 73 76 74 69 75 75 76 70 77
REMARK SMILES IDX 71 78 72 79 73 80 74 81 53 82 54 83 62 84 55 85 61 86 56 87
REMARK SMILES IDX 57 88 58 89 59 90 60 91
REMARK H PARENT 11 20 9 22 81 47 51 58
REMARK Flexibility Score: inf
ROOT
ATOM      1  C   UNL     1       3.943   1.646   3.189  1.00  0.00     0.188 C 
ENDROOT
BRANCH   1   2
ATOM      2  O   UNL     1       2.612   1.168   3.211  1.00  0.00    -0.377 OA
BRANCH   2   3
ATOM      3  C   UNL     1       2.142   0.725   1.950  1.00  0.00     0.188 C 
BRANCH   3   4
ATOM      4  C   UNL     1       2.861  -0.491   1.377  1.00  0.00     0.188 C 
BRANCH   4   5
ATOM      5  O   UNL     1       4.245  -0.442   1.066  1.00  0.00    -0.376 OA
BRANCH   5   6
ATOM      6  C   UNL     1       4.881   0.508   0.236  1.00  0.00     0.202 C 
BRANCH   6   7
ATOM      7  C   UNL     1       4.248   1.058  -1.037  1.00  0.00     0.261 C 
BRANCH   7   8
ATOM      8  O   UNL     1       2.951   0.580  -1.404  1.00  0.00    -0.460 OA
BRANCH   8   9
ATOM      9  C   UNL     1       2.683  -0.599  -2.009  1.00  0.00     0.330 C 
ATOM     10  O   UNL     1       1.663  -0.742  -2.677  1.00  0.00    -0.247 OA
BRANCH   9  11
ATOM     11  C   UNL     1       3.415  -1.802  -1.572  1.00  0.00     0.094 C 
ATOM     12  C   UNL     1       4.737  -2.009  -1.587  1.00  0.00     0.016 C 
BRANCH  12  13
ATOM     13  C   UNL     1       5.332  -3.196  -0.960  1.00  0.00    -0.021 A 
ATOM     14  C   UNL     1       5.000  -4.486  -1.396  1.00  0.00     0.012 A 
ATOM     15  C   UNL     1       6.274  -3.039   0.067  1.00  0.00     0.058 A 
ATOM     16  C   UNL     1       5.641  -5.606  -0.856  1.00  0.00     0.051 A 
ATOM     17  C   UNL     1       6.907  -4.155   0.596  1.00  0.00     0.157 A 
ATOM     18  C   UNL     1       6.611  -5.428   0.125  1.00  0.00     0.157 A 
BRANCH  17  19
ATOM     19  O   UNL     1       7.850  -3.987   1.569  1.00  0.00    -0.504 OA
ATOM     20  H   UNL     1       8.285  -4.732   1.935  1.00  0.00     0.293 HD
ENDBRANCH  17  19
BRANCH  18  21
ATOM     21  O   UNL     1       7.314  -6.480   0.641  1.00  0.00    -0.504 OA
ATOM     22  H   UNL     1       7.139  -7.352   0.345  1.00  0.00     0.293 HD
ENDBRANCH  18  21
ENDBRANCH  12  13
ENDBRANCH   9  11
ENDBRANCH   8   9
ENDBRANCH   7   8
ENDBRANCH   6   7
ENDBRANCH   5   6
ENDBRANCH   4   5
ENDBRANCH   3   4
ENDBRANCH   2   3
ENDBRANCH   1   2
BRANCH   1  23
ATOM     23  C   UNL     1       5.004   0.646   3.698  1.00  0.00     0.188 C 
BRANCH  23  24
ATOM     24  O   UNL     1       4.640  -0.599   4.272  1.00  0.00    -0.376 OA
BRANCH  24  25
ATOM     25  C   UNL     1       3.476  -0.721   5.068  1.00  0.00     0.202 C 
BRANCH  25  26
ATOM     26  C   UNL     1       3.152   0.271   6.203  1.00  0.00     0.261 C 
BRANCH  26  27
ATOM     27  O   UNL     1       3.538   1.636   6.012  1.00  0.00    -0.460 OA
BRANCH  27  28
ATOM     28  C   UNL     1       4.719   2.007   6.563  1.00  0.00     0.338 C 
ATOM     29  O   UNL     1       5.464   1.316   7.239  1.00  0.00    -0.246 OA
BRANCH  28  30
ATOM     30  C   UNL     1       5.087   3.341   6.031  1.00  0.00     0.060 A 
ATOM     31  C   UNL     1       6.317   3.479   5.369  1.00  0.00     0.016 A 
ATOM     32  C   UNL     1       4.219   4.430   6.134  1.00  0.00     0.016 A 
ATOM     33  C   UNL     1       6.692   4.707   4.826  1.00  0.00     0.010 A 
ATOM     34  C   UNL     1       4.613   5.672   5.626  1.00  0.00     0.010 A 
ATOM     35  C   UNL     1       5.866   5.822   5.002  1.00  0.00    -0.014 A 
BRANCH  35  36
ATOM     36  C   UNL     1       6.424   7.177   4.775  1.00  0.00     0.031 A 
ATOM     37  C   UNL     1       7.000   7.899   5.964  1.00  0.00     0.074 A 
ATOM     38  C   UNL     1       6.455   7.742   3.555  1.00  0.00     0.049 A 
ATOM     39  N   UNL     1       7.503   9.103   6.041  1.00  0.00    -0.248 NA
ATOM     40  C   UNL     1       7.006   7.160   7.239  1.00  0.00     0.031 C 
ATOM     41  C   UNL     1       5.988   7.121   2.318  1.00  0.00     0.029 A 
ATOM     42  N   UNL     1       6.900   8.981   3.164  1.00  0.00    -0.354 N 
ATOM     43  C   UNL     1       7.871   9.270   7.371  1.00  0.00     0.074 A 
ATOM     44  C   UNL     1       7.510   8.058   8.070  1.00  0.00     0.031 C 
ATOM     45  C   UNL     1       6.159   7.989   1.304  1.00  0.00     0.029 A 
ATOM     46  C   UNL     1       6.713   9.238   1.827  1.00  0.00     0.049 A 
ATOM     47  H   UNL     1       7.314   9.625   3.783  1.00  0.00     0.167 HD
ATOM     48  C   UNL     1       8.460  10.336   7.960  1.00  0.00     0.031 A 
ATOM     49  C   UNL     1       6.939  10.362   1.115  1.00  0.00     0.031 A 
ATOM     50  C   UNL     1       8.801  11.548   7.265  1.00  0.00     0.049 A 
ATOM     51  C   UNL     1       7.514  11.572   1.810  1.00  0.00     0.074 A 
ATOM     52  C   UNL     1       9.408  12.685   7.768  1.00  0.00     0.029 A 
ATOM     53  N   UNL     1       8.555  11.785   5.921  1.00  0.00    -0.354 N 
ATOM     54  N   UNL     1       7.876  11.710   3.065  1.00  0.00    -0.248 NA
ATOM     55  C   UNL     1       7.716  12.776   0.991  1.00  0.00     0.031 C 
ATOM     56  C   UNL     1       9.468  13.634   6.743  1.00  0.00     0.029 A 
ATOM     57  C   UNL     1       8.968  13.062   5.584  1.00  0.00     0.049 A 
ATOM     58  H   UNL     1       8.147  11.140   5.299  1.00  0.00     0.167 HD
ATOM     59  C   UNL     1       8.376  13.005   3.176  1.00  0.00     0.074 A 
ATOM     60  C   UNL     1       8.284  13.602   1.859  1.00  0.00     0.031 C 
ATOM     61  C   UNL     1       8.870  13.642   4.267  1.00  0.00     0.031 A 
BRANCH  48  62
ATOM     62  C   UNL     1       8.728  10.253   9.439  1.00  0.00    -0.014 A 
ATOM     63  C   UNL     1       9.713   9.392   9.959  1.00  0.00     0.010 A 
ATOM     64  C   UNL     1       8.000  11.071  10.321  1.00  0.00     0.010 A 
ATOM     65  C   UNL     1       9.937   9.326  11.336  1.00  0.00     0.020 A 
ATOM     66  C   UNL     1       8.244  11.031  11.696  1.00  0.00     0.020 A 
ATOM     67  C   UNL     1       9.201  10.146  12.196  1.00  0.00     0.054 A 
BRANCH  67  68
ATOM     68  S   UNL     1       9.535  10.060  13.977  1.00  0.00     0.124 S 
ATOM     69  O   UNL     1       8.985   8.752  14.324  1.00  0.00    -0.237 OA
ATOM     70  O   UNL     1      10.991  10.164  14.033  1.00  0.00    -0.237 OA
ATOM     71  O   UNL     1       8.809  11.205  14.523  1.00  0.00    -0.744 OA
ENDBRANCH  67  68
ENDBRANCH  48  62
BRANCH  49  72
ATOM     72  C   UNL     1       6.599  10.410  -0.335  1.00  0.00    -0.014 A 
ATOM     73  C   UNL     1       7.607  10.520  -1.309  1.00  0.00     0.010 A 
ATOM     74  C   UNL     1       5.255  10.359  -0.750  1.00  0.00     0.010 A 
ATOM     75  C   UNL     1       7.279  10.592  -2.667  1.00  0.00     0.020 A 
ATOM     76  C   UNL     1       4.924  10.399  -2.108  1.00  0.00     0.020 A 
ATOM     77  C   UNL     1       5.938  10.525  -3.057  1.00  0.00     0.054 A 
BRANCH  77  78
ATOM     78  S   UNL     1       5.541  10.563  -4.828  1.00  0.00     0.124 S 
ATOM     79  O   UNL     1       5.837  11.948  -5.178  1.00  0.00    -0.237 OA
ATOM     80  O   UNL     1       6.454   9.562  -5.374  1.00  0.00    -0.237 OA
ATOM     81  O   UNL     1       4.128  10.193  -4.869  1.00  0.00    -0.744 OA
ENDBRANCH  77  78
ENDBRANCH  49  72
BRANCH  61  82
ATOM     82  C   UNL     1       9.390  15.046   4.084  1.00  0.00    -0.014 A 
ATOM     83  C   UNL     1       8.521  16.125   3.845  1.00  0.00     0.010 A 
ATOM     84  C   UNL     1      10.769  15.295   4.219  1.00  0.00     0.010 A 
ATOM     85  C   UNL     1       9.026  17.422   3.710  1.00  0.00     0.020 A 
ATOM     86  C   UNL     1      11.274  16.593   4.118  1.00  0.00     0.020 A 
ATOM     87  C   UNL     1      10.399  17.648   3.849  1.00  0.00     0.054 A 
BRANCH  87  88
ATOM     88  S   UNL     1      11.023  19.346   3.712  1.00  0.00     0.124 S 
ATOM     89  O   UNL     1      10.877  19.609   2.283  1.00  0.00    -0.237 OA
ATOM     90  O   UNL     1      10.117  20.090   4.583  1.00  0.00    -0.237 OA
ATOM     91  O   UNL     1      12.400  19.250   4.190  1.00  0.00    -0.744 OA
ENDBRANCH  87  88
ENDBRANCH  61  82
ENDBRANCH  35  36
ENDBRANCH  28  30
ENDBRANCH  27  28
ENDBRANCH  26  27
ENDBRANCH  25  26
ENDBRANCH  24  25
ENDBRANCH  23  24
ENDBRANCH   1  23
TORSDOF 26
