REMARK SMILES COc1ccc2c(c1)[C@H]([NH2+][C@@H](C(=O)OCCOCCOCCOCCOC(=O)c1ccc(-c3c4nc(c(-c5ccc(S(=O)(=O)[O-])cc5)c5ccc([nH]5)c(-c5ccc(S(=O)(=O)[O-])cc5)c5nc(c(-c6ccc(S(=O)(=O)[O-])cc6)c6ccc3[nH]6)C=C5)C=C4)cc1)C1CC1)CC2
REMARK SMILES IDX 20 1 19 2 18 3 17 4 16 5 15 6 14 7 12 8 13 9 11 10 10 11
REMARK SMILES IDX 9 14 3 15 4 16 8 17 5 18 7 19 6 20 93 21 92 22 2 23 1 24
REMARK SMILES IDX 89 25 90 26 91 27 21 28 22 29 23 30 24 31 25 32 26 33 27 34
REMARK SMILES IDX 28 35 29 36 30 37 88 38 31 39 87 40 32 41 33 42 34 43 81 44
REMARK SMILES IDX 35 45 86 46 80 47 82 48 36 49 85 50 79 51 78 52 37 54 67 55
REMARK SMILES IDX 48 56 66 57 49 58 52 59 65 60 83 61 50 62 51 63 64 65 84 66
REMARK SMILES IDX 53 67 38 68 39 69 47 70 40 71 46 72 41 73 42 74 43 75 44 76
REMARK SMILES IDX 45 77 68 78 69 79 77 80 70 81 76 82 71 83 72 84 73 85 74 86
REMARK SMILES IDX 75 87 54 88 55 89 63 90 56 91 62 92 57 93 58 94 59 95 60 96
REMARK SMILES IDX 61 97
REMARK H PARENT 10 12 10 13 82 53 52 64
REMARK Flexibility Score: inf
ROOT
ATOM      1  O   UNL     1      -3.342  -3.489   5.359  1.00  0.00    -0.377 OA
ENDROOT
BRANCH   1   2
ATOM      2  C   UNL     1      -4.073  -4.091   4.317  1.00  0.00     0.188 C 
BRANCH   2   3
ATOM      3  C   UNL     1      -5.189  -5.055   4.754  1.00  0.00     0.188 C 
BRANCH   3   4
ATOM      4  O   UNL     1      -5.619  -5.081   6.101  1.00  0.00    -0.376 OA
BRANCH   4   5
ATOM      5  C   UNL     1      -4.665  -5.236   7.144  1.00  0.00     0.202 C 
BRANCH   5   6
ATOM      6  C   UNL     1      -3.413  -6.131   7.018  1.00  0.00     0.261 C 
BRANCH   6   7
ATOM      7  O   UNL     1      -2.658  -6.049   5.792  1.00  0.00    -0.459 OA
BRANCH   7   8
ATOM      8  C   UNL     1      -2.659  -7.152   4.998  1.00  0.00     0.365 C 
ATOM      9  O   UNL     1      -3.259  -8.190   5.280  1.00  0.00    -0.245 OA
BRANCH   8  10
ATOM     10  C   UNL     1      -1.889  -7.006   3.649  1.00  0.00     0.297 C 
BRANCH  10  11
ATOM     11  N   UNL     1      -1.068  -5.783   3.506  1.00  0.00    -0.328 N 
ATOM     12  H   UNL     1      -1.696  -4.997   3.336  1.00  0.00     0.347 HD
ATOM     13  H   UNL     1      -0.535  -5.690   4.370  1.00  0.00     0.347 HD
BRANCH  11  14
ATOM     14  C   UNL     1      -0.097  -5.828   2.426  1.00  0.00     0.215 C 
ATOM     15  C   UNL     1       0.891  -2.252   1.323  1.00  0.00     0.119 A 
ATOM     16  C   UNL     1       2.235  -2.529   1.021  1.00  0.00     0.047 A 
ATOM     17  C   UNL     1       0.067  -3.255   1.863  1.00  0.00     0.056 A 
ATOM     18  C   UNL     1       2.756  -3.809   1.208  1.00  0.00     0.008 A 
ATOM     19  C   UNL     1       0.590  -4.531   2.055  1.00  0.00     0.016 A 
ATOM     20  C   UNL     1       1.925  -4.794   1.712  1.00  0.00    -0.038 A 
ATOM     21  C   UNL     1       2.251  -6.245   1.878  1.00  0.00     0.042 C 
ATOM     22  C   UNL     1       1.119  -6.697   2.800  1.00  0.00     0.075 C 
BRANCH  15  23
ATOM     23  O   UNL     1       0.295  -1.030   1.137  1.00  0.00    -0.497 OA
ATOM     24  C   UNL     1       0.864  -0.210   0.118  1.00  0.00     0.278 C 
ENDBRANCH  15  23
ENDBRANCH  11  14
ENDBRANCH  10  11
BRANCH  10  25
ATOM     25  C   UNL     1      -2.773  -7.441   2.485  1.00  0.00     0.059 C 
ATOM     26  C   UNL     1      -4.078  -6.798   2.041  1.00  0.00     0.011 C 
ATOM     27  C   UNL     1      -2.898  -6.770   1.128  1.00  0.00     0.011 C 
ENDBRANCH  10  25
ENDBRANCH   8  10
ENDBRANCH   7   8
ENDBRANCH   6   7
ENDBRANCH   5   6
ENDBRANCH   4   5
ENDBRANCH   3   4
ENDBRANCH   2   3
ENDBRANCH   1   2
BRANCH   1  28
ATOM     28  C   UNL     1      -3.819  -2.246   5.854  1.00  0.00     0.188 C 
BRANCH  28  29
ATOM     29  C   UNL     1      -5.310  -1.896   5.672  1.00  0.00     0.188 C 
BRANCH  29  30
ATOM     30  O   UNL     1      -5.826  -2.125   4.366  1.00  0.00    -0.376 OA
BRANCH  30  31
ATOM     31  C   UNL     1      -5.822  -1.067   3.417  1.00  0.00     0.202 C 
BRANCH  31  32
ATOM     32  C   UNL     1      -4.470  -0.476   2.980  1.00  0.00     0.261 C 
BRANCH  32  33
ATOM     33  O   UNL     1      -3.662   0.113   4.009  1.00  0.00    -0.460 OA
BRANCH  33  34
ATOM     34  C   UNL     1      -4.216   1.065   4.784  1.00  0.00     0.338 C 
ATOM     35  O   UNL     1      -5.323   1.564   4.654  1.00  0.00    -0.246 OA
BRANCH  34  36
ATOM     36  C   UNL     1      -3.345   1.260   5.960  1.00  0.00     0.060 A 
ATOM     37  C   UNL     1      -3.891   1.080   7.238  1.00  0.00     0.016 A 
ATOM     38  C   UNL     1      -2.004   1.620   5.808  1.00  0.00     0.016 A 
ATOM     39  C   UNL     1      -3.114   1.319   8.369  1.00  0.00     0.010 A 
ATOM     40  C   UNL     1      -1.233   1.886   6.943  1.00  0.00     0.010 A 
ATOM     41  C   UNL     1      -1.801   1.784   8.225  1.00  0.00    -0.014 A 
BRANCH  41  42
ATOM     42  C   UNL     1      -1.124   2.397   9.393  1.00  0.00     0.031 A 
ATOM     43  C   UNL     1      -1.174   3.897   9.527  1.00  0.00     0.074 A 
ATOM     44  C   UNL     1      -0.532   1.649  10.341  1.00  0.00     0.049 A 
ATOM     45  N   UNL     1      -0.653   4.667  10.446  1.00  0.00    -0.248 NA
ATOM     46  C   UNL     1      -1.917   4.625   8.483  1.00  0.00     0.031 C 
ATOM     47  C   UNL     1      -0.473   0.188  10.356  1.00  0.00     0.029 A 
ATOM     48  N   UNL     1       0.132   2.026  11.482  1.00  0.00    -0.354 N 
ATOM     49  C   UNL     1      -1.000   5.966  10.088  1.00  0.00     0.074 A 
ATOM     50  C   UNL     1      -1.742   5.885   8.851  1.00  0.00     0.031 C 
ATOM     51  C   UNL     1       0.194  -0.208  11.455  1.00  0.00     0.029 A 
ATOM     52  C   UNL     1       0.640   0.969  12.199  1.00  0.00     0.049 A 
ATOM     53  H   UNL     1       0.235   2.964  11.760  1.00  0.00     0.167 HD
ATOM     54  C   UNL     1      -0.733   7.124  10.737  1.00  0.00     0.031 A 
ATOM     55  C   UNL     1       1.393   0.958  13.318  1.00  0.00     0.031 A 
ATOM     56  C   UNL     1       0.021   7.203  11.960  1.00  0.00     0.049 A 
ATOM     57  C   UNL     1       1.759   2.269  13.971  1.00  0.00     0.074 A 
ATOM     58  C   UNL     1       0.353   8.327  12.694  1.00  0.00     0.029 A 
ATOM     59  N   UNL     1       0.562   6.114  12.626  1.00  0.00    -0.354 N 
ATOM     60  N   UNL     1       1.420   3.489  13.625  1.00  0.00    -0.248 NA
ATOM     61  C   UNL     1       2.600   2.198  15.174  1.00  0.00     0.031 C 
ATOM     62  C   UNL     1       1.148   7.924  13.771  1.00  0.00     0.029 A 
ATOM     63  C   UNL     1       1.246   6.542  13.751  1.00  0.00     0.049 A 
ATOM     64  H   UNL     1       0.474   5.176  12.341  1.00  0.00     0.167 HD
ATOM     65  C   UNL     1       1.972   4.325  14.592  1.00  0.00     0.074 A 
ATOM     66  C   UNL     1       2.655   3.470  15.541  1.00  0.00     0.031 C 
ATOM     67  C   UNL     1       1.914   5.677  14.691  1.00  0.00     0.031 A 
BRANCH  54  68
ATOM     68  C   UNL     1      -1.232   8.402  10.115  1.00  0.00    -0.014 A 
ATOM     69  C   UNL     1      -2.605   8.709  10.077  1.00  0.00     0.010 A 
ATOM     70  C   UNL     1      -0.310   9.328   9.594  1.00  0.00     0.010 A 
ATOM     71  C   UNL     1      -3.047   9.903   9.501  1.00  0.00     0.020 A 
ATOM     72  C   UNL     1      -0.746  10.537   9.046  1.00  0.00     0.020 A 
ATOM     73  C   UNL     1      -2.114  10.810   8.990  1.00  0.00     0.054 A 
BRANCH  73  74
ATOM     74  S   UNL     1      -2.716  12.367   8.280  1.00  0.00     0.124 S 
ATOM     75  O   UNL     1      -3.357  11.910   7.050  1.00  0.00    -0.237 OA
ATOM     76  O   UNL     1      -3.621  12.860   9.315  1.00  0.00    -0.237 OA
ATOM     77  O   UNL     1      -1.501  13.156   8.091  1.00  0.00    -0.744 OA
ENDBRANCH  73  74
ENDBRANCH  54  68
BRANCH  55  78
ATOM     78  C   UNL     1       1.870  -0.333  13.892  1.00  0.00    -0.014 A 
ATOM     79  C   UNL     1       1.421  -0.771  15.150  1.00  0.00     0.010 A 
ATOM     80  C   UNL     1       2.804  -1.118  13.192  1.00  0.00     0.010 A 
ATOM     81  C   UNL     1       1.918  -1.953  15.710  1.00  0.00     0.020 A 
ATOM     82  C   UNL     1       3.279  -2.316  13.732  1.00  0.00     0.020 A 
ATOM     83  C   UNL     1       2.844  -2.719  14.996  1.00  0.00     0.054 A 
BRANCH  83  84
ATOM     84  S   UNL     1       3.453  -4.263  15.729  1.00  0.00     0.124 S 
ATOM     85  O   UNL     1       4.304  -3.772  16.809  1.00  0.00    -0.237 OA
ATOM     86  O   UNL     1       2.217  -4.920  16.146  1.00  0.00    -0.237 OA
ATOM     87  O   UNL     1       4.155  -4.913  14.625  1.00  0.00    -0.744 OA
ENDBRANCH  83  84
ENDBRANCH  55  78
BRANCH  67  88
ATOM     88  C   UNL     1       2.553   6.318  15.898  1.00  0.00    -0.014 A 
ATOM     89  C   UNL     1       3.948   6.346  16.070  1.00  0.00     0.010 A 
ATOM     90  C   UNL     1       1.734   6.946  16.857  1.00  0.00     0.010 A 
ATOM     91  C   UNL     1       4.509   6.950  17.199  1.00  0.00     0.020 A 
ATOM     92  C   UNL     1       2.293   7.581  17.968  1.00  0.00     0.020 A 
ATOM     93  C   UNL     1       3.677   7.563  18.142  1.00  0.00     0.054 A 
BRANCH  93  94
ATOM     94  S   UNL     1       4.432   8.364  19.583  1.00  0.00     0.124 S 
ATOM     95  O   UNL     1       4.882   7.218  20.367  1.00  0.00    -0.237 OA
ATOM     96  O   UNL     1       5.492   9.170  18.982  1.00  0.00    -0.237 OA
ATOM     97  O   UNL     1       3.334   9.128  20.171  1.00  0.00    -0.744 OA
ENDBRANCH  93  94
ENDBRANCH  67  88
ENDBRANCH  41  42
ENDBRANCH  34  36
ENDBRANCH  33  34
ENDBRANCH  32  33
ENDBRANCH  31  32
ENDBRANCH  30  31
ENDBRANCH  29  30
ENDBRANCH  28  29
ENDBRANCH   1  28
TORSDOF 27
