REMARK SMILES C[NH+]1CCC(C[N@H+](C)[C@H]2CC[C@]([NH3+])(C(=O)OCCOCCOCCOCCOC(=O)c3ccc(-c4c5nc(c(-c6ccc(S(=O)(=O)[O-])cc6)c6ccc([nH]6)c(-c6ccc(S(=O)(=O)[O-])cc6)c6nc(c(-c7ccc(S(=O)(=O)[O-])cc7)c7ccc4[nH]7)C=C6)C=C5)cc3)C2)CC1
REMARK SMILES IDX 22 1 21 2 20 3 19 4 18 5 17 6 16 7 14 8 15 9 12 10 9 11
REMARK SMILES IDX 10 12 91 13 11 14 7 15 8 16 6 18 5 19 1 20 2 21 3 22 93 23
REMARK SMILES IDX 4 25 92 26 13 27 23 31 24 32 25 33 26 34 27 35 28 36 29 37
REMARK SMILES IDX 30 38 31 39 32 40 90 41 33 42 89 43 34 44 35 45 36 46 83 47
REMARK SMILES IDX 37 48 88 49 82 50 84 51 38 52 87 53 81 54 80 55 39 57 69 58
REMARK SMILES IDX 50 59 68 60 51 61 54 62 67 63 85 64 52 65 53 66 66 68 86 69
REMARK SMILES IDX 55 70 40 71 41 72 49 73 42 74 48 75 43 76 44 77 45 78 46 79
REMARK SMILES IDX 47 80 70 81 71 82 79 83 72 84 78 85 73 86 74 87 75 88 76 89
REMARK SMILES IDX 77 90 56 91 57 92 65 93 58 94 64 95 59 96 60 97 61 98 62 99
REMARK SMILES IDX 63 100
REMARK H PARENT 7 17 2 24 13 28 13 29 13 30 84 56 54 67
REMARK Flexibility Score: inf
ROOT
ATOM      1  O   UNL     1       4.296  -8.321   2.499  1.00  0.00    -0.377 OA
ENDROOT
BRANCH   1   2
ATOM      2  C   UNL     1       3.314  -7.806   1.629  1.00  0.00     0.188 C 
BRANCH   2   3
ATOM      3  C   UNL     1       3.492  -8.254   0.167  1.00  0.00     0.188 C 
BRANCH   3   4
ATOM      4  O   UNL     1       4.548  -9.139  -0.170  1.00  0.00    -0.376 OA
BRANCH   4   5
ATOM      5  C   UNL     1       5.860  -8.857   0.305  1.00  0.00     0.202 C 
BRANCH   5   6
ATOM      6  C   UNL     1       6.450  -7.423   0.354  1.00  0.00     0.261 C 
BRANCH   6   7
ATOM      7  O   UNL     1       5.514  -6.356   0.572  1.00  0.00    -0.459 OA
BRANCH   7   8
ATOM      8  C   UNL     1       5.583  -5.244  -0.231  1.00  0.00     0.368 C 
ATOM      9  O   UNL     1       6.474  -5.008  -1.035  1.00  0.00    -0.245 OA
BRANCH   8  10
ATOM     10  C   UNL     1       4.284  -4.392  -0.056  1.00  0.00     0.198 C 
ATOM     11  C   UNL     1       3.383  -2.078   0.003  1.00  0.00     0.191 C 
ATOM     12  C   UNL     1       3.545  -2.550   1.451  1.00  0.00     0.072 C 
ATOM     13  C   UNL     1       4.237  -3.066  -0.829  1.00  0.00     0.145 C 
ATOM     14  C   UNL     1       4.149  -3.951   1.417  1.00  0.00     0.087 C 
BRANCH  11  15
ATOM     15  N   UNL     1       1.970  -1.721  -0.306  1.00  0.00    -0.334 N 
ATOM     16  C   UNL     1       1.935  -0.568  -1.216  1.00  0.00     0.332 C 
ATOM     17  H   UNL     1       1.609  -1.532   0.630  1.00  0.00     0.348 HD
BRANCH  15  18
ATOM     18  C   UNL     1       1.029  -2.744  -0.795  1.00  0.00     0.266 C 
BRANCH  18  19
ATOM     19  C   UNL     1       0.601  -3.814   0.222  1.00  0.00     0.055 C 
ATOM     20  C   UNL     1      -0.953  -6.840   2.737  1.00  0.00     0.332 C 
ATOM     21  N   UNL     1      -0.961  -5.735   1.775  1.00  0.00    -0.337 N 
ATOM     22  C   UNL     1      -0.294  -6.149   0.533  1.00  0.00     0.262 C 
ATOM     23  C   UNL     1      -0.354  -4.538   2.385  1.00  0.00     0.262 C 
ATOM     24  H   UNL     1      -1.919  -5.488   1.527  1.00  0.00     0.347 HD
ATOM     25  C   UNL     1      -0.118  -4.994  -0.457  1.00  0.00     0.071 C 
ATOM     26  C   UNL     1      -0.263  -3.362   1.396  1.00  0.00     0.071 C 
ENDBRANCH  18  19
ENDBRANCH  15  18
ENDBRANCH  11  15
BRANCH  10  27
ATOM     27  N   UNL     1       3.194  -5.232  -0.560  1.00  0.00    -0.343 N 
ATOM     28  H   UNL     1       2.311  -4.730  -0.474  1.00  0.00     0.345 HD
ATOM     29  H   UNL     1       3.150  -6.094  -0.016  1.00  0.00     0.345 HD
ATOM     30  H   UNL     1       3.363  -5.457  -1.540  1.00  0.00     0.345 HD
ENDBRANCH  10  27
ENDBRANCH   8  10
ENDBRANCH   7   8
ENDBRANCH   6   7
ENDBRANCH   5   6
ENDBRANCH   4   5
ENDBRANCH   3   4
ENDBRANCH   2   3
ENDBRANCH   1   2
BRANCH   1  31
ATOM     31  C   UNL     1       3.863  -9.448   3.241  1.00  0.00     0.188 C 
BRANCH  31  32
ATOM     32  C   UNL     1       3.291 -10.654   2.462  1.00  0.00     0.188 C 
BRANCH  32  33
ATOM     33  O   UNL     1       2.167 -10.506   1.606  1.00  0.00    -0.376 OA
BRANCH  33  34
ATOM     34  C   UNL     1       0.862 -10.146   2.024  1.00  0.00     0.202 C 
BRANCH  34  35
ATOM     35  C   UNL     1       0.301 -10.425   3.418  1.00  0.00     0.261 C 
BRANCH  35  36
ATOM     36  O   UNL     1       1.190 -10.089   4.482  1.00  0.00    -0.460 OA
BRANCH  36  37
ATOM     37  C   UNL     1       1.530 -11.153   5.253  1.00  0.00     0.338 C 
ATOM     38  O   UNL     1       1.090 -12.283   5.184  1.00  0.00    -0.246 OA
BRANCH  37  39
ATOM     39  C   UNL     1       2.711 -10.822   6.061  1.00  0.00     0.060 A 
ATOM     40  C   UNL     1       3.848 -11.611   5.848  1.00  0.00     0.016 A 
ATOM     41  C   UNL     1       2.683  -9.842   7.055  1.00  0.00     0.016 A 
ATOM     42  C   UNL     1       4.938 -11.489   6.691  1.00  0.00     0.010 A 
ATOM     43  C   UNL     1       3.770  -9.741   7.926  1.00  0.00     0.010 A 
ATOM     44  C   UNL     1       4.859 -10.620   7.784  1.00  0.00    -0.014 A 
BRANCH  44  45
ATOM     45  C   UNL     1       5.761 -10.912   8.918  1.00  0.00     0.031 A 
ATOM     46  C   UNL     1       5.242 -11.825   9.998  1.00  0.00     0.074 A 
ATOM     47  C   UNL     1       7.044 -10.521   8.893  1.00  0.00     0.049 A 
ATOM     48  N   UNL     1       5.872 -12.352  11.014  1.00  0.00    -0.248 NA
ATOM     49  C   UNL     1       3.822 -12.209   9.909  1.00  0.00     0.031 C 
ATOM     50  C   UNL     1       7.662  -9.721   7.836  1.00  0.00     0.029 A 
ATOM     51  N   UNL     1       8.065 -10.784   9.765  1.00  0.00    -0.354 N 
ATOM     52  C   UNL     1       4.926 -13.123  11.683  1.00  0.00     0.074 A 
ATOM     53  C   UNL     1       3.672 -12.962  10.985  1.00  0.00     0.031 C 
ATOM     54  C   UNL     1       8.970  -9.579   8.111  1.00  0.00     0.029 A 
ATOM     55  C   UNL     1       9.268 -10.253   9.374  1.00  0.00     0.049 A 
ATOM     56  H   UNL     1       7.947 -11.303  10.593  1.00  0.00     0.167 HD
ATOM     57  C   UNL     1       5.090 -13.906  12.775  1.00  0.00     0.031 A 
ATOM     58  C   UNL     1      10.473 -10.314   9.971  1.00  0.00     0.031 A 
ATOM     59  C   UNL     1       6.339 -14.033  13.474  1.00  0.00     0.049 A 
ATOM     60  C   UNL     1      10.609 -11.102  11.247  1.00  0.00     0.074 A 
ATOM     61  C   UNL     1       6.625 -14.774  14.606  1.00  0.00     0.029 A 
ATOM     62  N   UNL     1       7.514 -13.389  13.108  1.00  0.00    -0.354 N 
ATOM     63  N   UNL     1       9.707 -11.817  11.878  1.00  0.00    -0.248 NA
ATOM     64  C   UNL     1      11.933 -11.103  11.881  1.00  0.00     0.031 C 
ATOM     65  C   UNL     1       7.955 -14.524  14.962  1.00  0.00     0.029 A 
ATOM     66  C   UNL     1       8.521 -13.693  14.007  1.00  0.00     0.049 A 
ATOM     67  H   UNL     1       7.615 -12.803  12.323  1.00  0.00     0.167 HD
ATOM     68  C   UNL     1      10.365 -12.389  12.962  1.00  0.00     0.074 A 
ATOM     69  C   UNL     1      11.742 -11.938  12.893  1.00  0.00     0.031 C 
ATOM     70  C   UNL     1       9.882 -13.221  13.921  1.00  0.00     0.031 A 
BRANCH  57  71
ATOM     71  C   UNL     1       3.866 -14.610  13.305  1.00  0.00    -0.014 A 
ATOM     72  C   UNL     1       3.228 -15.636  12.580  1.00  0.00     0.010 A 
ATOM     73  C   UNL     1       3.320 -14.211  14.539  1.00  0.00     0.010 A 
ATOM     74  C   UNL     1       2.034 -16.196  13.044  1.00  0.00     0.020 A 
ATOM     75  C   UNL     1       2.146 -14.793  15.024  1.00  0.00     0.020 A 
ATOM     76  C   UNL     1       1.495 -15.763  14.259  1.00  0.00     0.054 A 
BRANCH  76  77
ATOM     77  S   UNL     1      -0.070 -16.482  14.826  1.00  0.00     0.124 S 
ATOM     78  O   UNL     1      -1.030 -15.879  13.904  1.00  0.00    -0.237 OA
ATOM     79  O   UNL     1       0.153 -17.915  14.652  1.00  0.00    -0.237 OA
ATOM     80  O   UNL     1      -0.176 -16.035  16.213  1.00  0.00    -0.744 OA
ENDBRANCH  76  77
ENDBRANCH  57  71
BRANCH  58  81
ATOM     81  C   UNL     1      11.641  -9.629   9.354  1.00  0.00    -0.014 A 
ATOM     82  C   UNL     1      12.702 -10.372   8.808  1.00  0.00     0.010 A 
ATOM     83  C   UNL     1      11.684  -8.224   9.285  1.00  0.00     0.010 A 
ATOM     84  C   UNL     1      13.787  -9.723   8.210  1.00  0.00     0.020 A 
ATOM     85  C   UNL     1      12.753  -7.573   8.663  1.00  0.00     0.020 A 
ATOM     86  C   UNL     1      13.801  -8.327   8.135  1.00  0.00     0.054 A 
BRANCH  86  87
ATOM     87  S   UNL     1      15.187  -7.513   7.294  1.00  0.00     0.124 S 
ATOM     88  O   UNL     1      16.288  -7.751   8.222  1.00  0.00    -0.237 OA
ATOM     89  O   UNL     1      15.255  -8.240   6.029  1.00  0.00    -0.237 OA
ATOM     90  O   UNL     1      14.751  -6.123   7.184  1.00  0.00    -0.744 OA
ENDBRANCH  86  87
ENDBRANCH  58  81
BRANCH  70  91
ATOM     91  C   UNL     1      10.864 -13.738  14.940  1.00  0.00    -0.014 A 
ATOM     92  C   UNL     1      11.437 -12.896  15.910  1.00  0.00     0.010 A 
ATOM     93  C   UNL     1      11.193 -15.107  14.941  1.00  0.00     0.010 A 
ATOM     94  C   UNL     1      12.363 -13.404  16.825  1.00  0.00     0.020 A 
ATOM     95  C   UNL     1      12.089 -15.625  15.877  1.00  0.00     0.020 A 
ATOM     96  C   UNL     1      12.686 -14.765  16.800  1.00  0.00     0.054 A 
BRANCH  96  97
ATOM     97  S   UNL     1      13.880 -15.401  18.006  1.00  0.00     0.124 S 
ATOM     98  O   UNL     1      15.139 -14.859  17.502  1.00  0.00    -0.237 OA
ATOM     99  O   UNL     1      13.405 -14.825  19.261  1.00  0.00    -0.237 OA
ATOM    100  O   UNL     1      13.740 -16.852  17.900  1.00  0.00    -0.744 OA
ENDBRANCH  96  97
ENDBRANCH  70  91
ENDBRANCH  44  45
ENDBRANCH  37  39
ENDBRANCH  36  37
ENDBRANCH  35  36
ENDBRANCH  34  35
ENDBRANCH  33  34
ENDBRANCH  32  33
ENDBRANCH  31  32
ENDBRANCH   1  31
TORSDOF 27
