REMARK SMILES COc1ccc(/C=C(\Sc2nc(C)n[nH]2)C(=O)OCCOCCOCCOCCOC(=O)c2ccc(-c3c4nc(c(-c5ccc(S(=O)(=O)[O-])cc5)c5ccc([nH]5)c(-c5ccc(S(=O)(=O)[O-])cc5)c5nc(c(-c6ccc(S(=O)(=O)[O-])cc6)c6ccc3[nH]6)C=C5)C=C4)cc2)c(OC)c1
REMARK SMILES IDX 25 1 24 2 23 3 22 4 21 5 20 6 19 7 18 8 16 9 17 10 8 11 7 12
REMARK SMILES IDX 6 13 3 14 4 15 96 16 5 17 93 18 2 19 1 20 94 21 95 22 9 23
REMARK SMILES IDX 10 24 11 25 15 26 12 27 14 28 13 30 26 31 27 32 28 33 29 34
REMARK SMILES IDX 30 35 31 36 32 37 33 38 34 39 92 40 35 41 91 42 36 43 37 44
REMARK SMILES IDX 38 45 85 46 39 47 90 48 84 49 86 50 40 51 89 52 83 53 82 54
REMARK SMILES IDX 41 56 71 57 52 58 70 59 53 60 56 61 69 62 87 63 54 64 55 65
REMARK SMILES IDX 68 67 88 68 57 69 42 70 43 71 51 72 44 73 50 74 45 75 46 76
REMARK SMILES IDX 47 77 48 78 49 79 72 80 73 81 81 82 74 83 80 84 75 85 76 86
REMARK SMILES IDX 77 87 78 88 79 89 58 90 59 91 67 92 60 93 66 94 61 95 62 96
REMARK SMILES IDX 63 97 64 98 65 99
REMARK H PARENT 15 29 86 55 56 66
REMARK Flexibility Score: inf
ROOT
ATOM      1  C   UNL     1       0.315   3.222  10.896  1.00  0.00     0.188 C 
ENDROOT
BRANCH   1   2
ATOM      2  O   UNL     1       0.453   3.825   9.612  1.00  0.00    -0.377 OA
BRANCH   2   3
ATOM      3  C   UNL     1       1.161   3.048   8.661  1.00  0.00     0.188 C 
BRANCH   3   4
ATOM      4  C   UNL     1       2.653   3.429   8.505  1.00  0.00     0.188 C 
BRANCH   4   5
ATOM      5  O   UNL     1       3.259   4.470   9.269  1.00  0.00    -0.376 OA
BRANCH   5   6
ATOM      6  C   UNL     1       2.517   5.617   9.655  1.00  0.00     0.202 C 
BRANCH   6   7
ATOM      7  C   UNL     1       1.834   6.471   8.579  1.00  0.00     0.261 C 
BRANCH   7   8
ATOM      8  O   UNL     1       1.214   5.725   7.528  1.00  0.00    -0.459 OA
BRANCH   8   9
ATOM      9  C   UNL     1       1.861   5.678   6.337  1.00  0.00     0.345 C 
ATOM     10  O   UNL     1       2.893   6.274   6.052  1.00  0.00    -0.246 OA
BRANCH   9  11
ATOM     11  C   UNL     1       1.187   4.682   5.423  1.00  0.00     0.101 C 
ATOM     12  C   UNL     1       2.049   3.768   4.921  1.00  0.00     0.035 C 
BRANCH  12  13
ATOM     13  C   UNL     1       1.938   2.644   3.965  1.00  0.00     0.018 A 
ATOM     14  C   UNL     1       1.509   1.128   1.667  1.00  0.00     0.122 A 
ATOM     15  C   UNL     1       0.575   1.103   2.694  1.00  0.00     0.047 A 
ATOM     16  C   UNL     1       2.752   1.703   1.874  1.00  0.00     0.093 A 
ATOM     17  C   UNL     1       0.806   1.839   3.862  1.00  0.00     0.016 A 
ATOM     18  C   UNL     1       2.994   2.392   3.064  1.00  0.00     0.129 A 
BRANCH  14  19
ATOM     19  O   UNL     1       1.142   0.779   0.399  1.00  0.00    -0.497 OA
ATOM     20  C   UNL     1       1.357  -0.599   0.137  1.00  0.00     0.278 C 
ENDBRANCH  14  19
BRANCH  18  21
ATOM     21  O   UNL     1       4.245   2.896   3.334  1.00  0.00    -0.496 OA
ATOM     22  C   UNL     1       5.268   1.903   3.173  1.00  0.00     0.278 C 
ENDBRANCH  18  21
ENDBRANCH  12  13
BRANCH  11  23
ATOM     23  S   UNL     1      -0.522   4.927   5.333  1.00  0.00    -0.043 SA
BRANCH  23  24
ATOM     24  C   UNL     1      -1.062   4.235   3.872  1.00  0.00     0.188 A 
ATOM     25  N   UNL     1      -1.973   3.299   3.763  1.00  0.00    -0.206 NA
ATOM     26  N   UNL     1      -0.706   4.678   2.640  1.00  0.00    -0.254 N 
ATOM     27  C   UNL     1      -2.106   3.156   2.407  1.00  0.00     0.148 A 
ATOM     28  N   UNL     1      -1.369   4.007   1.676  1.00  0.00    -0.158 NA
ATOM     29  H   UNL     1      -0.052   5.394   2.472  1.00  0.00     0.192 HD
ATOM     30  C   UNL     1      -2.939   2.087   1.822  1.00  0.00     0.092 C 
ENDBRANCH  23  24
ENDBRANCH  11  23
ENDBRANCH   9  11
ENDBRANCH   8   9
ENDBRANCH   7   8
ENDBRANCH   6   7
ENDBRANCH   5   6
ENDBRANCH   4   5
ENDBRANCH   3   4
ENDBRANCH   2   3
ENDBRANCH   1   2
BRANCH   1  31
ATOM     31  C   UNL     1       1.601   2.687  11.569  1.00  0.00     0.188 C 
BRANCH  31  32
ATOM     32  O   UNL     1       2.399   1.851  10.730  1.00  0.00    -0.376 OA
BRANCH  32  33
ATOM     33  C   UNL     1       2.491   0.462  11.011  1.00  0.00     0.202 C 
BRANCH  33  34
ATOM     34  C   UNL     1       1.328  -0.358  10.457  1.00  0.00     0.261 C 
BRANCH  34  35
ATOM     35  O   UNL     1       0.062   0.141  10.863  1.00  0.00    -0.460 OA
BRANCH  35  36
ATOM     36  C   UNL     1      -0.159   0.180  12.180  1.00  0.00     0.338 C 
ATOM     37  O   UNL     1       0.640  -0.116  13.082  1.00  0.00    -0.246 OA
BRANCH  36  38
ATOM     38  C   UNL     1      -1.544   0.554  12.420  1.00  0.00     0.060 A 
ATOM     39  C   UNL     1      -1.948   0.585  13.756  1.00  0.00     0.016 A 
ATOM     40  C   UNL     1      -2.454   0.484  11.351  1.00  0.00     0.016 A 
ATOM     41  C   UNL     1      -3.231   0.197  14.034  1.00  0.00     0.010 A 
ATOM     42  C   UNL     1      -3.729   0.081  11.630  1.00  0.00     0.010 A 
ATOM     43  C   UNL     1      -4.044  -0.176  12.962  1.00  0.00    -0.014 A 
BRANCH  43  44
ATOM     44  C   UNL     1      -5.215  -0.959  13.262  1.00  0.00     0.031 A 
ATOM     45  C   UNL     1      -6.374  -0.160  13.689  1.00  0.00     0.074 A 
ATOM     46  C   UNL     1      -5.214  -2.286  13.035  1.00  0.00     0.049 A 
ATOM     47  N   UNL     1      -7.022  -0.222  14.803  1.00  0.00    -0.248 NA
ATOM     48  C   UNL     1      -6.767   0.954  12.810  1.00  0.00     0.031 C 
ATOM     49  C   UNL     1      -4.193  -3.073  12.328  1.00  0.00     0.029 A 
ATOM     50  N   UNL     1      -6.203  -3.187  13.254  1.00  0.00    -0.354 N 
ATOM     51  C   UNL     1      -8.038   0.717  14.680  1.00  0.00     0.074 A 
ATOM     52  C   UNL     1      -7.720   1.531  13.536  1.00  0.00     0.031 C 
ATOM     53  C   UNL     1      -4.731  -4.256  11.958  1.00  0.00     0.029 A 
ATOM     54  C   UNL     1      -6.075  -4.348  12.504  1.00  0.00     0.049 A 
ATOM     55  H   UNL     1      -6.942  -3.033  13.886  1.00  0.00     0.167 HD
ATOM     56  C   UNL     1      -9.211   0.594  15.353  1.00  0.00     0.031 A 
ATOM     57  C   UNL     1      -7.056  -5.249  12.254  1.00  0.00     0.031 A 
ATOM     58  C   UNL     1      -9.103  -0.293  16.479  1.00  0.00     0.049 A 
ATOM     59  C   UNL     1      -8.126  -5.029  13.260  1.00  0.00     0.074 A 
ATOM     60  C   UNL     1      -8.354  -0.291  17.638  1.00  0.00     0.029 A 
ATOM     61  N   UNL     1      -9.568  -1.577  16.319  1.00  0.00    -0.354 N 
ATOM     62  N   UNL     1      -7.973  -5.237  14.539  1.00  0.00    -0.248 NA
ATOM     63  C   UNL     1      -9.243  -4.165  12.907  1.00  0.00     0.031 C 
ATOM     64  C   UNL     1      -8.052  -1.660  17.890  1.00  0.00     0.029 A 
ATOM     65  C   UNL     1      -8.655  -2.429  16.892  1.00  0.00     0.049 A 
ATOM     66  H   UNL     1     -10.405  -1.840  15.874  1.00  0.00     0.167 HD
ATOM     67  C   UNL     1      -8.698  -4.229  15.162  1.00  0.00     0.074 A 
ATOM     68  C   UNL     1      -9.550  -3.677  14.113  1.00  0.00     0.031 C 
ATOM     69  C   UNL     1      -8.340  -3.754  16.392  1.00  0.00     0.031 A 
BRANCH  56  70
ATOM     70  C   UNL     1     -10.527   0.970  14.724  1.00  0.00    -0.014 A 
ATOM     71  C   UNL     1     -11.698   0.918  15.500  1.00  0.00     0.010 A 
ATOM     72  C   UNL     1     -10.687   1.107  13.326  1.00  0.00     0.010 A 
ATOM     73  C   UNL     1     -12.962   0.935  14.897  1.00  0.00     0.020 A 
ATOM     74  C   UNL     1     -11.939   1.178  12.721  1.00  0.00     0.020 A 
ATOM     75  C   UNL     1     -13.070   1.047  13.509  1.00  0.00     0.054 A 
BRANCH  75  76
ATOM     76  S   UNL     1     -14.694   0.921  12.726  1.00  0.00     0.124 S 
ATOM     77  O   UNL     1     -15.033  -0.478  12.971  1.00  0.00    -0.237 OA
ATOM     78  O   UNL     1     -15.475   1.905  13.470  1.00  0.00    -0.237 OA
ATOM     79  O   UNL     1     -14.430   1.268  11.332  1.00  0.00    -0.744 OA
ENDBRANCH  75  76
ENDBRANCH  56  70
BRANCH  57  80
ATOM     80  C   UNL     1      -7.260  -6.002  10.991  1.00  0.00    -0.014 A 
ATOM     81  C   UNL     1      -8.139  -7.096  10.928  1.00  0.00     0.010 A 
ATOM     82  C   UNL     1      -6.765  -5.489   9.771  1.00  0.00     0.010 A 
ATOM     83  C   UNL     1      -8.540  -7.629   9.690  1.00  0.00     0.020 A 
ATOM     84  C   UNL     1      -7.147  -6.022   8.537  1.00  0.00     0.020 A 
ATOM     85  C   UNL     1      -8.051  -7.079   8.501  1.00  0.00     0.054 A 
BRANCH  85  86
ATOM     86  S   UNL     1      -8.687  -7.672   6.907  1.00  0.00     0.124 S 
ATOM     87  O   UNL     1      -8.109  -9.010   6.821  1.00  0.00    -0.237 OA
ATOM     88  O   UNL     1     -10.133  -7.618   7.103  1.00  0.00    -0.237 OA
ATOM     89  O   UNL     1      -8.160  -6.707   5.944  1.00  0.00    -0.744 OA
ENDBRANCH  85  86
ENDBRANCH  57  80
BRANCH  69  90
ATOM     90  C   UNL     1      -7.314  -4.534  17.186  1.00  0.00    -0.014 A 
ATOM     91  C   UNL     1      -5.978  -4.692  16.766  1.00  0.00     0.010 A 
ATOM     92  C   UNL     1      -7.662  -4.960  18.480  1.00  0.00     0.010 A 
ATOM     93  C   UNL     1      -5.020  -5.267  17.615  1.00  0.00     0.020 A 
ATOM     94  C   UNL     1      -6.709  -5.519  19.337  1.00  0.00     0.020 A 
ATOM     95  C   UNL     1      -5.392  -5.672  18.900  1.00  0.00     0.054 A 
BRANCH  95  96
ATOM     96  S   UNL     1      -4.128  -6.329  20.025  1.00  0.00     0.124 S 
ATOM     97  O   UNL     1      -3.838  -7.638  19.448  1.00  0.00    -0.237 OA
ATOM     98  O   UNL     1      -3.054  -5.344  19.921  1.00  0.00    -0.237 OA
ATOM     99  O   UNL     1      -4.801  -6.361  21.324  1.00  0.00    -0.744 OA
ENDBRANCH  95  96
ENDBRANCH  69  90
ENDBRANCH  43  44
ENDBRANCH  36  38
ENDBRANCH  35  36
ENDBRANCH  34  35
ENDBRANCH  33  34
ENDBRANCH  32  33
ENDBRANCH  31  32
ENDBRANCH   1  31
TORSDOF 28
