REMARK SMILES Cc1c(CC(=O)OCCOCCOCCOCCOC(=O)c2ccc(-c3c4nc(c(-c5ccc(S(=O)(=O)[O-])cc5)c5ccc([nH]5)c(-c5ccc(S(=O)(=O)[O-])cc5)c5nc(c(-c6ccc(S(=O)(=O)[O-])cc6)c6ccc3[nH]6)C=C5)C=C4)cc2)cccc1-c1ccn(C(F)F)c(=O)c1
REMARK SMILES IDX 13 1 12 2 11 3 10 4 9 5 8 6 7 7 5 8 6 9 4 10 3 11 1 12 2 13
REMARK SMILES IDX 85 14 82 15 84 16 83 17 86 18 87 19 95 20 88 21 93 22 89 23
REMARK SMILES IDX 94 24 90 25 91 26 92 27 14 28 15 29 16 30 17 31 18 32 19 33
REMARK SMILES IDX 20 34 21 35 22 36 23 37 81 38 24 39 80 40 25 41 26 42 27 43
REMARK SMILES IDX 74 44 28 45 79 46 73 47 75 48 29 49 78 50 72 51 71 52 30 54
REMARK SMILES IDX 60 55 41 56 59 57 42 58 45 59 58 60 76 61 43 62 44 63 57 65
REMARK SMILES IDX 77 66 46 67 31 68 32 69 40 70 33 71 39 72 34 73 35 74 36 75
REMARK SMILES IDX 37 76 38 77 61 78 62 79 70 80 63 81 69 82 64 83 65 84 66 85
REMARK SMILES IDX 67 86 68 87 47 88 48 89 56 90 49 91 55 92 50 93 51 94 52 95
REMARK SMILES IDX 53 96 54 97
REMARK H PARENT 75 53 45 64
REMARK Flexibility Score: inf
ROOT
ATOM      1  O   UNL     1      -2.795  -2.465   1.096  1.00  0.00    -0.377 OA
ENDROOT
BRANCH   1   2
ATOM      2  C   UNL     1      -1.783  -2.761   0.163  1.00  0.00     0.188 C 
BRANCH   2   3
ATOM      3  C   UNL     1      -1.939  -4.010  -0.713  1.00  0.00     0.188 C 
BRANCH   3   4
ATOM      4  O   UNL     1      -1.627  -5.272  -0.125  1.00  0.00    -0.376 OA
BRANCH   4   5
ATOM      5  C   UNL     1      -0.420  -5.341   0.631  1.00  0.00     0.202 C 
BRANCH   5   6
ATOM      6  C   UNL     1       0.891  -5.135  -0.126  1.00  0.00     0.261 C 
BRANCH   6   7
ATOM      7  O   UNL     1       1.141  -3.753  -0.469  1.00  0.00    -0.463 OA
BRANCH   7   8
ATOM      8  C   UNL     1       1.310  -3.480  -1.787  1.00  0.00     0.310 C 
ATOM      9  O   UNL     1       1.120  -4.274  -2.702  1.00  0.00    -0.252 OA
BRANCH   8  10
ATOM     10  C   UNL     1       1.853  -2.092  -2.028  1.00  0.00     0.158 C 
BRANCH  10  11
ATOM     11  C   UNL     1       1.019  -0.920  -1.546  1.00  0.00    -0.033 A 
ATOM     12  C   UNL     1       2.992   0.065  -0.287  1.00  0.00     0.045 C 
ATOM     13  C   UNL     1       1.565   0.136  -0.779  1.00  0.00    -0.039 A 
ATOM     14  C   UNL     1       0.784   1.299  -0.542  1.00  0.00    -0.015 A 
ATOM     15  C   UNL     1      -0.303  -0.800  -2.004  1.00  0.00     0.004 A 
ATOM     16  C   UNL     1      -0.568   1.327  -0.900  1.00  0.00     0.009 A 
ATOM     17  C   UNL     1      -1.108   0.279  -1.631  1.00  0.00     0.001 A 
BRANCH  14  18
ATOM     18  C   UNL     1       1.429   2.590  -0.215  1.00  0.00    -0.011 A 
ATOM     19  C   UNL     1       2.274   3.216  -1.216  1.00  0.00     0.027 A 
ATOM     20  C   UNL     1       1.221   3.219   0.954  1.00  0.00     0.080 A 
ATOM     21  C   UNL     1       2.905   4.363  -0.961  1.00  0.00     0.095 A 
ATOM     22  C   UNL     1       1.919   4.507   1.252  1.00  0.00     0.255 A 
ATOM     23  N   UNL     1       2.755   4.994   0.256  1.00  0.00    -0.258 N 
ATOM     24  O   UNL     1       1.734   5.049   2.337  1.00  0.00    -0.269 OA
BRANCH  23  25
ATOM     25  C   UNL     1       3.478   6.207   0.526  1.00  0.00     0.451 C 
ATOM     26  F   UNL     1       2.640   7.253   0.728  1.00  0.00    -0.185 F 
ATOM     27  F   UNL     1       4.270   6.082   1.618  1.00  0.00    -0.185 F 
ENDBRANCH  23  25
ENDBRANCH  14  18
ENDBRANCH  10  11
ENDBRANCH   8  10
ENDBRANCH   7   8
ENDBRANCH   6   7
ENDBRANCH   5   6
ENDBRANCH   4   5
ENDBRANCH   3   4
ENDBRANCH   2   3
ENDBRANCH   1   2
BRANCH   1  28
ATOM     28  C   UNL     1      -3.271  -3.520   1.890  1.00  0.00     0.188 C 
BRANCH  28  29
ATOM     29  C   UNL     1      -4.654  -3.962   1.428  1.00  0.00     0.188 C 
BRANCH  29  30
ATOM     30  O   UNL     1      -5.543  -2.975   0.918  1.00  0.00    -0.376 OA
BRANCH  30  31
ATOM     31  C   UNL     1      -5.539  -1.650   1.456  1.00  0.00     0.202 C 
BRANCH  31  32
ATOM     32  C   UNL     1      -5.385  -1.426   2.974  1.00  0.00     0.261 C 
BRANCH  32  33
ATOM     33  O   UNL     1      -6.093  -2.426   3.736  1.00  0.00    -0.460 OA
BRANCH  33  34
ATOM     34  C   UNL     1      -5.845  -2.411   5.079  1.00  0.00     0.338 C 
ATOM     35  O   UNL     1      -6.627  -2.003   5.925  1.00  0.00    -0.246 OA
BRANCH  34  36
ATOM     36  C   UNL     1      -4.651  -3.228   5.409  1.00  0.00     0.060 A 
ATOM     37  C   UNL     1      -3.596  -2.687   6.140  1.00  0.00     0.016 A 
ATOM     38  C   UNL     1      -4.524  -4.500   4.854  1.00  0.00     0.016 A 
ATOM     39  C   UNL     1      -2.346  -3.320   6.105  1.00  0.00     0.010 A 
ATOM     40  C   UNL     1      -3.260  -5.083   4.749  1.00  0.00     0.010 A 
ATOM     41  C   UNL     1      -2.133  -4.425   5.261  1.00  0.00    -0.014 A 
BRANCH  41  42
ATOM     42  C   UNL     1      -0.811  -4.657   4.611  1.00  0.00     0.031 A 
ATOM     43  C   UNL     1      -0.214  -6.011   4.350  1.00  0.00     0.074 A 
ATOM     44  C   UNL     1      -0.191  -3.584   4.037  1.00  0.00     0.049 A 
ATOM     45  N   UNL     1       1.009  -6.179   3.958  1.00  0.00    -0.248 NA
ATOM     46  C   UNL     1      -0.896  -7.296   4.506  1.00  0.00     0.031 C 
ATOM     47  C   UNL     1       0.917  -3.589   3.080  1.00  0.00     0.029 A 
ATOM     48  N   UNL     1      -0.418  -2.219   4.217  1.00  0.00    -0.354 N 
ATOM     49  C   UNL     1       1.176  -7.470   3.518  1.00  0.00     0.074 A 
ATOM     50  C   UNL     1      -0.011  -8.152   3.969  1.00  0.00     0.031 C 
ATOM     51  C   UNL     1       1.314  -2.340   2.813  1.00  0.00     0.029 A 
ATOM     52  C   UNL     1       0.691  -1.474   3.785  1.00  0.00     0.049 A 
ATOM     53  H   UNL     1      -1.241  -1.832   4.594  1.00  0.00     0.167 HD
ATOM     54  C   UNL     1       2.253  -7.785   2.736  1.00  0.00     0.031 A 
ATOM     55  C   UNL     1       1.436  -0.781   4.699  1.00  0.00     0.031 A 
ATOM     56  C   UNL     1       3.280  -6.725   2.733  1.00  0.00     0.049 A 
ATOM     57  C   UNL     1       2.758  -1.443   5.066  1.00  0.00     0.074 A 
ATOM     58  C   UNL     1       3.998  -6.036   1.769  1.00  0.00     0.029 A 
ATOM     59  N   UNL     1       3.629  -6.125   3.948  1.00  0.00    -0.354 N 
ATOM     60  N   UNL     1       3.172  -2.573   4.545  1.00  0.00    -0.248 NA
ATOM     61  C   UNL     1       3.718  -0.928   6.040  1.00  0.00     0.031 C 
ATOM     62  C   UNL     1       4.625  -4.917   2.398  1.00  0.00     0.029 A 
ATOM     63  C   UNL     1       4.375  -4.980   3.758  1.00  0.00     0.049 A 
ATOM     64  H   UNL     1       3.373  -6.478   4.831  1.00  0.00     0.167 HD
ATOM     65  C   UNL     1       4.314  -3.000   5.158  1.00  0.00     0.074 A 
ATOM     66  C   UNL     1       4.648  -1.904   6.053  1.00  0.00     0.031 C 
ATOM     67  C   UNL     1       4.862  -4.230   4.917  1.00  0.00     0.031 A 
BRANCH  54  68
ATOM     68  C   UNL     1       2.322  -9.029   1.848  1.00  0.00    -0.014 A 
ATOM     69  C   UNL     1       3.511  -9.364   1.161  1.00  0.00     0.010 A 
ATOM     70  C   UNL     1       1.211  -9.855   1.569  1.00  0.00     0.010 A 
ATOM     71  C   UNL     1       3.587 -10.457   0.271  1.00  0.00     0.020 A 
ATOM     72  C   UNL     1       1.282 -10.973   0.718  1.00  0.00     0.020 A 
ATOM     73  C   UNL     1       2.470 -11.264   0.061  1.00  0.00     0.054 A 
BRANCH  73  74
ATOM     74  S   UNL     1       2.576 -12.686  -1.066  1.00  0.00     0.124 S 
ATOM     75  O   UNL     1       2.708 -12.041  -2.369  1.00  0.00    -0.237 OA
ATOM     76  O   UNL     1       3.762 -13.389  -0.586  1.00  0.00    -0.237 OA
ATOM     77  O   UNL     1       1.313 -13.392  -0.851  1.00  0.00    -0.744 OA
ENDBRANCH  73  74
ENDBRANCH  54  68
BRANCH  55  78
ATOM     78  C   UNL     1       0.625   0.263   5.394  1.00  0.00    -0.014 A 
ATOM     79  C   UNL     1       0.352   1.403   4.605  1.00  0.00     0.010 A 
ATOM     80  C   UNL     1      -0.299  -0.084   6.397  1.00  0.00     0.010 A 
ATOM     81  C   UNL     1      -0.913   2.000   4.621  1.00  0.00     0.020 A 
ATOM     82  C   UNL     1      -1.567   0.526   6.428  1.00  0.00     0.020 A 
ATOM     83  C   UNL     1      -1.891   1.498   5.476  1.00  0.00     0.054 A 
BRANCH  83  84
ATOM     84  S   UNL     1      -3.632   1.911   5.128  1.00  0.00     0.124 S 
ATOM     85  O   UNL     1      -3.705   3.319   5.499  1.00  0.00    -0.237 OA
ATOM     86  O   UNL     1      -3.740   1.622   3.698  1.00  0.00    -0.237 OA
ATOM     87  O   UNL     1      -4.370   0.986   5.983  1.00  0.00    -0.744 OA
ENDBRANCH  83  84
ENDBRANCH  55  78
BRANCH  67  88
ATOM     88  C   UNL     1       5.944  -4.875   5.755  1.00  0.00    -0.014 A 
ATOM     89  C   UNL     1       6.164  -4.577   7.108  1.00  0.00     0.010 A 
ATOM     90  C   UNL     1       6.675  -5.959   5.209  1.00  0.00     0.010 A 
ATOM     91  C   UNL     1       7.108  -5.287   7.865  1.00  0.00     0.020 A 
ATOM     92  C   UNL     1       7.586  -6.701   5.965  1.00  0.00     0.020 A 
ATOM     93  C   UNL     1       7.815  -6.342   7.287  1.00  0.00     0.054 A 
BRANCH  93  94
ATOM     94  S   UNL     1       8.979  -7.296   8.294  1.00  0.00     0.124 S 
ATOM     95  O   UNL     1      10.198  -6.501   8.176  1.00  0.00    -0.237 OA
ATOM     96  O   UNL     1       8.352  -7.290   9.614  1.00  0.00    -0.237 OA
ATOM     97  O   UNL     1       9.013  -8.600   7.636  1.00  0.00    -0.744 OA
ENDBRANCH  93  94
ENDBRANCH  67  88
ENDBRANCH  41  42
ENDBRANCH  34  36
ENDBRANCH  33  34
ENDBRANCH  32  33
ENDBRANCH  31  32
ENDBRANCH  30  31
ENDBRANCH  29  30
ENDBRANCH  28  29
ENDBRANCH   1  28
TORSDOF 26
