REMARK SMILES CC1(C)O[C@](C)([C@H](O)C2CCCCC2)CC[C@H]1C(=O)OCCOCCOCCOCCOC(=O)c1ccc(-c2c3nc(c(-c4ccc(S(=O)(=O)[O-])cc4)c4ccc([nH]4)c(-c4ccc(S(=O)(=O)[O-])cc4)c4nc(c(-c5ccc(S(=O)(=O)[O-])cc5)c5ccc2[nH]5)C=C4)C=C3)cc1
REMARK SMILES IDX 27 1 26 2 25 3 24 4 23 5 22 6 21 7 20 8 18 9 19 10 17 11
REMARK SMILES IDX 1 12 2 13 3 14 4 15 5 16 16 17 6 18 15 19 7 20 9 21 10 22
REMARK SMILES IDX 14 23 11 24 13 25 12 26 8 27 28 29 29 30 30 31 31 32 32 33
REMARK SMILES IDX 33 34 34 35 35 36 36 37 94 38 37 39 93 40 38 41 39 42 40 43
REMARK SMILES IDX 87 44 41 45 92 46 86 47 88 48 42 49 91 50 85 51 84 52 43 54
REMARK SMILES IDX 73 55 54 56 72 57 55 58 58 59 71 60 89 61 56 62 57 63 70 65
REMARK SMILES IDX 90 66 59 67 44 68 45 69 53 70 46 71 52 72 47 73 48 74 49 75
REMARK SMILES IDX 50 76 51 77 74 78 75 79 83 80 76 81 82 82 77 83 78 84 79 85
REMARK SMILES IDX 80 86 81 87 60 88 61 89 69 90 62 91 68 92 63 93 64 94 65 95
REMARK SMILES IDX 66 96 67 97
REMARK H PARENT 8 28 88 53 58 64
REMARK Flexibility Score: inf
ROOT
ATOM      1  C   UNL     1      -0.631   8.287   7.840  1.00  0.00     0.188 C 
ENDROOT
BRANCH   1   2
ATOM      2  O   UNL     1      -1.512   7.767   6.850  1.00  0.00    -0.377 OA
BRANCH   2   3
ATOM      3  C   UNL     1      -2.651   8.497   6.441  1.00  0.00     0.188 C 
BRANCH   3   4
ATOM      4  C   UNL     1      -3.961   8.040   7.077  1.00  0.00     0.188 C 
BRANCH   4   5
ATOM      5  O   UNL     1      -3.948   7.759   8.462  1.00  0.00    -0.376 OA
BRANCH   5   6
ATOM      6  C   UNL     1      -3.289   6.587   8.945  1.00  0.00     0.202 C 
BRANCH   6   7
ATOM      7  C   UNL     1      -3.185   5.286   8.123  1.00  0.00     0.261 C 
BRANCH   7   8
ATOM      8  O   UNL     1      -2.329   5.334   6.953  1.00  0.00    -0.463 OA
BRANCH   8   9
ATOM      9  C   UNL     1      -2.957   5.249   5.764  1.00  0.00     0.311 C 
ATOM     10  O   UNL     1      -4.184   5.145   5.669  1.00  0.00    -0.252 OA
BRANCH   9  11
ATOM     11  C   UNL     1      -2.115   5.211   4.488  1.00  0.00     0.131 C 
ATOM     12  C   UNL     1       0.341   5.197   5.515  1.00  0.00     0.043 C 
ATOM     13  C   UNL     1      -0.590   5.559   4.350  1.00  0.00     0.077 C 
ATOM     14  C   UNL     1      -0.386   7.072   4.064  1.00  0.00     0.043 C 
ATOM     15  O   UNL     1       0.003   5.030   3.135  1.00  0.00    -0.366 OA
ATOM     16  C   UNL     1      -0.347   3.749   2.622  1.00  0.00     0.092 C 
ATOM     17  C   UNL     1      -2.518   3.862   3.870  1.00  0.00     0.021 C 
ATOM     18  C   UNL     1       0.182   2.593   3.490  1.00  0.00     0.045 C 
ATOM     19  C   UNL     1      -1.873   3.646   2.526  1.00  0.00     0.039 C 
BRANCH  16  20
ATOM     20  C   UNL     1       0.192   3.694   1.147  1.00  0.00     0.149 C 
BRANCH  20  21
ATOM     21  C   UNL     1       1.642   4.197   0.859  1.00  0.00     0.021 C 
ATOM     22  C   UNL     1       2.757   3.676   1.769  1.00  0.00     0.006 C 
ATOM     23  C   UNL     1       2.071   3.952  -0.606  1.00  0.00     0.006 C 
ATOM     24  C   UNL     1       3.022   2.192   1.560  1.00  0.00     0.000 C 
ATOM     25  C   UNL     1       2.493   2.511  -0.913  1.00  0.00     0.000 C 
ATOM     26  C   UNL     1       3.445   1.915   0.122  1.00  0.00     0.000 C 
ENDBRANCH  20  21
BRANCH  20  27
ATOM     27  O   UNL     1      -0.068   2.402   0.599  1.00  0.00    -0.390 OA
ATOM     28  H   UNL     1       0.449   1.737   1.080  1.00  0.00     0.211 HD
ENDBRANCH  20  27
ENDBRANCH  16  20
ENDBRANCH   9  11
ENDBRANCH   8   9
ENDBRANCH   7   8
ENDBRANCH   6   7
ENDBRANCH   5   6
ENDBRANCH   4   5
ENDBRANCH   3   4
ENDBRANCH   2   3
ENDBRANCH   1   2
BRANCH   1  29
ATOM     29  C   UNL     1      -0.935   9.663   8.432  1.00  0.00     0.188 C 
BRANCH  29  30
ATOM     30  O   UNL     1      -0.813  10.808   7.582  1.00  0.00    -0.376 OA
BRANCH  30  31
ATOM     31  C   UNL     1      -0.008  10.717   6.411  1.00  0.00     0.202 C 
BRANCH  31  32
ATOM     32  C   UNL     1       1.497  10.911   6.604  1.00  0.00     0.261 C 
BRANCH  32  33
ATOM     33  O   UNL     1       2.092   9.922   7.454  1.00  0.00    -0.460 OA
BRANCH  33  34
ATOM     34  C   UNL     1       2.231  10.290   8.747  1.00  0.00     0.338 C 
ATOM     35  O   UNL     1       1.904  11.354   9.256  1.00  0.00    -0.246 OA
BRANCH  34  36
ATOM     36  C   UNL     1       2.738   9.149   9.524  1.00  0.00     0.060 A 
ATOM     37  C   UNL     1       2.050   8.764  10.681  1.00  0.00     0.016 A 
ATOM     38  C   UNL     1       3.934   8.526   9.161  1.00  0.00     0.016 A 
ATOM     39  C   UNL     1       2.582   7.778  11.508  1.00  0.00     0.010 A 
ATOM     40  C   UNL     1       4.472   7.549   9.997  1.00  0.00     0.010 A 
ATOM     41  C   UNL     1       3.818   7.201  11.192  1.00  0.00    -0.014 A 
BRANCH  41  42
ATOM     42  C   UNL     1       4.519   6.362  12.188  1.00  0.00     0.031 A 
ATOM     43  C   UNL     1       5.622   6.982  13.000  1.00  0.00     0.074 A 
ATOM     44  C   UNL     1       4.181   5.073  12.359  1.00  0.00     0.049 A 
ATOM     45  N   UNL     1       6.430   6.423  13.862  1.00  0.00    -0.248 NA
ATOM     46  C   UNL     1       5.849   8.425  12.808  1.00  0.00     0.031 C 
ATOM     47  C   UNL     1       3.095   4.384  11.663  1.00  0.00     0.029 A 
ATOM     48  N   UNL     1       4.730   4.111  13.166  1.00  0.00    -0.354 N 
ATOM     49  C   UNL     1       7.269   7.440  14.305  1.00  0.00     0.074 A 
ATOM     50  C   UNL     1       6.892   8.642  13.594  1.00  0.00     0.031 C 
ATOM     51  C   UNL     1       3.065   3.102  12.066  1.00  0.00     0.029 A 
ATOM     52  C   UNL     1       4.155   2.873  13.013  1.00  0.00     0.049 A 
ATOM     53  H   UNL     1       5.466   4.290  13.795  1.00  0.00     0.167 HD
ATOM     54  C   UNL     1       8.262   7.375  15.223  1.00  0.00     0.031 A 
ATOM     55  C   UNL     1       4.492   1.686  13.553  1.00  0.00     0.031 A 
ATOM     56  C   UNL     1       8.640   6.168  15.907  1.00  0.00     0.049 A 
ATOM     57  C   UNL     1       5.657   1.620  14.506  1.00  0.00     0.074 A 
ATOM     58  C   UNL     1       9.624   5.992  16.863  1.00  0.00     0.029 A 
ATOM     59  N   UNL     1       8.056   4.926  15.700  1.00  0.00    -0.354 N 
ATOM     60  N   UNL     1       6.431   2.591  14.932  1.00  0.00    -0.248 NA
ATOM     61  C   UNL     1       5.991   0.299  15.055  1.00  0.00     0.031 C 
ATOM     62  C   UNL     1       9.680   4.632  17.185  1.00  0.00     0.029 A 
ATOM     63  C   UNL     1       8.679   3.973  16.487  1.00  0.00     0.049 A 
ATOM     64  H   UNL     1       7.308   4.749  15.085  1.00  0.00     0.167 HD
ATOM     65  C   UNL     1       7.321   2.003  15.825  1.00  0.00     0.074 A 
ATOM     66  C   UNL     1       6.982   0.596  15.885  1.00  0.00     0.031 C 
ATOM     67  C   UNL     1       8.326   2.575  16.534  1.00  0.00     0.031 A 
BRANCH  54  68
ATOM     68  C   UNL     1       9.034   8.638  15.505  1.00  0.00    -0.014 A 
ATOM     69  C   UNL     1       8.441   9.727  16.170  1.00  0.00     0.010 A 
ATOM     70  C   UNL     1      10.386   8.726  15.124  1.00  0.00     0.010 A 
ATOM     71  C   UNL     1       9.173  10.893  16.411  1.00  0.00     0.020 A 
ATOM     72  C   UNL     1      11.130   9.879  15.391  1.00  0.00     0.020 A 
ATOM     73  C   UNL     1      10.513  10.962  16.019  1.00  0.00     0.054 A 
BRANCH  73  74
ATOM     74  S   UNL     1      11.443  12.481  16.363  1.00  0.00     0.124 S 
ATOM     75  O   UNL     1      10.838  13.423  15.424  1.00  0.00    -0.237 OA
ATOM     76  O   UNL     1      11.148  12.723  17.773  1.00  0.00    -0.237 OA
ATOM     77  O   UNL     1      12.827  12.115  16.072  1.00  0.00    -0.744 OA
ENDBRANCH  73  74
ENDBRANCH  54  68
BRANCH  55  78
ATOM     78  C   UNL     1       3.725   0.461  13.194  1.00  0.00    -0.014 A 
ATOM     79  C   UNL     1       2.923  -0.187  14.149  1.00  0.00     0.010 A 
ATOM     80  C   UNL     1       3.789  -0.060  11.888  1.00  0.00     0.010 A 
ATOM     81  C   UNL     1       2.211  -1.342  13.809  1.00  0.00     0.020 A 
ATOM     82  C   UNL     1       3.054  -1.196  11.537  1.00  0.00     0.020 A 
ATOM     83  C   UNL     1       2.278  -1.836  12.504  1.00  0.00     0.054 A 
BRANCH  83  84
ATOM     84  S   UNL     1       1.301  -3.304  12.076  1.00  0.00     0.124 S 
ATOM     85  O   UNL     1       2.012  -4.360  12.789  1.00  0.00    -0.237 OA
ATOM     86  O   UNL     1      -0.020  -2.963  12.598  1.00  0.00    -0.237 OA
ATOM     87  O   UNL     1       1.391  -3.361  10.618  1.00  0.00    -0.744 OA
ENDBRANCH  83  84
ENDBRANCH  55  78
BRANCH  67  88
ATOM     88  C   UNL     1       9.108   1.692  17.473  1.00  0.00    -0.014 A 
ATOM     89  C   UNL     1      10.002   0.719  16.993  1.00  0.00     0.010 A 
ATOM     90  C   UNL     1       8.991   1.888  18.862  1.00  0.00     0.010 A 
ATOM     91  C   UNL     1      10.742  -0.061  17.885  1.00  0.00     0.020 A 
ATOM     92  C   UNL     1       9.753   1.133  19.756  1.00  0.00     0.020 A 
ATOM     93  C   UNL     1      10.615   0.153  19.261  1.00  0.00     0.054 A 
BRANCH  93  94
ATOM     94  S   UNL     1      11.626  -0.838  20.395  1.00  0.00     0.124 S 
ATOM     95  O   UNL     1      11.001  -2.153  20.290  1.00  0.00    -0.237 OA
ATOM     96  O   UNL     1      12.961  -0.728  19.811  1.00  0.00    -0.237 OA
ATOM     97  O   UNL     1      11.460  -0.170  21.684  1.00  0.00    -0.744 OA
ENDBRANCH  93  94
ENDBRANCH  67  88
ENDBRANCH  41  42
ENDBRANCH  34  36
ENDBRANCH  33  34
ENDBRANCH  32  33
ENDBRANCH  31  32
ENDBRANCH  30  31
ENDBRANCH  29  30
ENDBRANCH   1  29
TORSDOF 26
