REMARK SMILES O=C(OCCOCCOCCOCCOC(=O)c1ccc(-c2c3nc(c(-c4ccc(S(=O)(=O)[O-])cc4)c4ccc([nH]4)c(-c4ccc(S(=O)(=O)[O-])cc4)c4nc(c(-c5ccc(S(=O)(=O)[O-])cc5)c5ccc2[nH]5)C=C4)C=C3)cc1)C1=Cc2c(Cl)cc(Cl)cc2O[C@@H]1C(F)(F)F
REMARK SMILES IDX 10 1 9 2 8 3 7 4 6 5 5 6 4 7 3 8 2 9 1 10 78 11 79 12 89 13
REMARK SMILES IDX 80 14 88 15 81 16 87 17 82 18 83 19 86 20 84 21 85 22 90 23
REMARK SMILES IDX 91 24 92 25 93 26 11 27 12 28 13 29 14 30 15 31 16 32 17 33
REMARK SMILES IDX 18 34 19 35 77 36 20 37 76 38 21 39 22 40 23 41 70 42 24 43
REMARK SMILES IDX 75 44 69 45 71 46 25 47 74 48 68 49 67 50 26 52 56 53 37 54
REMARK SMILES IDX 55 55 38 56 41 57 54 58 72 59 39 60 40 61 53 63 73 64 42 65
REMARK SMILES IDX 27 66 28 67 36 68 29 69 35 70 30 71 31 72 32 73 33 74 34 75
REMARK SMILES IDX 57 76 58 77 66 78 59 79 65 80 60 81 61 82 62 83 63 84 64 85
REMARK SMILES IDX 43 86 44 87 52 88 45 89 51 90 46 91 47 92 48 93 49 94 50 95
REMARK H PARENT 71 51 41 62
REMARK Flexibility Score: inf
ROOT
ATOM      1  C   UNL     1       4.088   3.429   1.283  1.00  0.00     0.188 C 
ENDROOT
BRANCH   1   2
ATOM      2  O   UNL     1       2.759   3.722   1.639  1.00  0.00    -0.377 OA
BRANCH   2   3
ATOM      3  C   UNL     1       1.877   2.680   1.291  1.00  0.00     0.188 C 
BRANCH   3   4
ATOM      4  C   UNL     1       2.176   1.320   1.945  1.00  0.00     0.188 C 
BRANCH   4   5
ATOM      5  O   UNL     1       3.486   0.647   1.910  1.00  0.00    -0.376 OA
BRANCH   5   6
ATOM      6  C   UNL     1       4.209  -0.374   0.817  1.00  0.00     0.202 C 
BRANCH   6   7
ATOM      7  C   UNL     1       3.423  -1.003  -1.119  1.00  0.00     0.261 C 
BRANCH   7   8
ATOM      8  O   UNL     1       2.510  -2.181  -1.379  1.00  0.00    -0.460 OA
BRANCH   8   9
ATOM      9  C   UNL     1       2.746  -3.197  -0.542  1.00  0.00     0.338 C 
ATOM     10  O   UNL     1       2.104  -4.207  -0.393  1.00  0.00    -0.246 OA
BRANCH   9  11
ATOM     11  C   UNL     1       3.629  -2.486   0.370  1.00  0.00     0.087 C 
ATOM     12  C   UNL     1       4.993  -2.296  -0.153  1.00  0.00     0.029 C 
ATOM     13  C   UNL     1       2.363  -1.066   0.647  1.00  0.00     0.316 C 
ATOM     14  C   UNL     1       5.632  -0.745  -0.838  1.00  0.00     0.036 A 
ATOM     15  O   UNL     1       2.963   0.588  -0.185  1.00  0.00    -0.475 OA
ATOM     16  C   UNL     1       6.880  -0.666  -1.408  1.00  0.00     0.053 A 
ATOM     17  C   UNL     1       4.634   0.667  -0.947  1.00  0.00     0.130 A 
ATOM     18  Cl  UNL     1       7.970  -1.988  -1.470  1.00  0.00    -0.083 Cl
ATOM     19  C   UNL     1       7.225   0.570  -1.990  1.00  0.00     0.042 A 
ATOM     20  C   UNL     1       5.040   1.834  -1.542  1.00  0.00     0.067 A 
ATOM     21  C   UNL     1       6.362   1.742  -2.042  1.00  0.00     0.046 A 
ATOM     22  Cl  UNL     1       7.046   3.152  -2.787  1.00  0.00    -0.084 Cl
BRANCH  13  23
ATOM     23  C   UNL     1       2.081  -1.468   2.231  1.00  0.00     0.430 C 
ATOM     24  F   UNL     1       1.196  -0.729   2.924  1.00  0.00    -0.167 F 
ATOM     25  F   UNL     1       1.526  -2.720   2.220  1.00  0.00    -0.167 F 
ATOM     26  F   UNL     1       3.192  -1.608   2.996  1.00  0.00    -0.167 F 
ENDBRANCH  13  23
ENDBRANCH   9  11
ENDBRANCH   8   9
ENDBRANCH   7   8
ENDBRANCH   6   7
ENDBRANCH   5   6
ENDBRANCH   4   5
ENDBRANCH   3   4
ENDBRANCH   2   3
ENDBRANCH   1   2
BRANCH   1  27
ATOM     27  C   UNL     1       5.073   3.242   2.442  1.00  0.00     0.188 C 
BRANCH  27  28
ATOM     28  O   UNL     1       4.654   2.973   3.769  1.00  0.00    -0.376 OA
BRANCH  28  29
ATOM     29  C   UNL     1       3.461   3.524   4.298  1.00  0.00     0.202 C 
BRANCH  29  30
ATOM     30  C   UNL     1       3.212   5.038   4.361  1.00  0.00     0.261 C 
BRANCH  30  31
ATOM     31  O   UNL     1       3.435   5.770   3.152  1.00  0.00    -0.460 OA
BRANCH  31  32
ATOM     32  C   UNL     1       4.680   6.271   2.991  1.00  0.00     0.338 C 
ATOM     33  O   UNL     1       5.599   6.220   3.791  1.00  0.00    -0.246 OA
BRANCH  32  34
ATOM     34  C   UNL     1       4.834   6.738   1.596  1.00  0.00     0.060 A 
ATOM     35  C   UNL     1       5.953   6.313   0.858  1.00  0.00     0.016 A 
ATOM     36  C   UNL     1       3.896   7.595   1.022  1.00  0.00     0.016 A 
ATOM     37  C   UNL     1       6.156   6.765  -0.443  1.00  0.00     0.010 A 
ATOM     38  C   UNL     1       4.125   8.090  -0.260  1.00  0.00     0.010 A 
ATOM     39  C   UNL     1       5.277   7.710  -0.976  1.00  0.00    -0.014 A 
BRANCH  39  40
ATOM     40  C   UNL     1       5.679   8.520  -2.146  1.00  0.00     0.031 A 
ATOM     41  C   UNL     1       6.244   9.885  -1.876  1.00  0.00     0.074 A 
ATOM     42  C   UNL     1       5.495   8.088  -3.403  1.00  0.00     0.049 A 
ATOM     43  N   UNL     1       6.480  10.866  -2.705  1.00  0.00    -0.248 NA
ATOM     44  C   UNL     1       6.561  10.189  -0.470  1.00  0.00     0.031 C 
ATOM     45  C   UNL     1       5.016   6.762  -3.781  1.00  0.00     0.029 A 
ATOM     46  N   UNL     1       5.655   8.749  -4.594  1.00  0.00    -0.354 N 
ATOM     47  C   UNL     1       6.931  11.918  -1.917  1.00  0.00     0.074 A 
ATOM     48  C   UNL     1       6.916  11.461  -0.545  1.00  0.00     0.031 C 
ATOM     49  C   UNL     1       4.876   6.720  -5.117  1.00  0.00     0.029 A 
ATOM     50  C   UNL     1       5.205   8.032  -5.675  1.00  0.00     0.049 A 
ATOM     51  H   UNL     1       6.052   9.647  -4.667  1.00  0.00     0.167 HD
ATOM     52  C   UNL     1       7.308  13.159  -2.304  1.00  0.00     0.031 A 
ATOM     53  C   UNL     1       5.025   8.411  -6.957  1.00  0.00     0.031 A 
ATOM     54  C   UNL     1       7.281  13.602  -3.672  1.00  0.00     0.049 A 
ATOM     55  C   UNL     1       5.377   9.817  -7.366  1.00  0.00     0.074 A 
ATOM     56  C   UNL     1       7.666  14.827  -4.186  1.00  0.00     0.029 A 
ATOM     57  N   UNL     1       6.822  12.844  -4.741  1.00  0.00    -0.354 N 
ATOM     58  N   UNL     1       5.825  10.803  -6.624  1.00  0.00    -0.248 NA
ATOM     59  C   UNL     1       5.210  10.161  -8.784  1.00  0.00     0.031 C 
ATOM     60  C   UNL     1       7.357  14.840  -5.549  1.00  0.00     0.029 A 
ATOM     61  C   UNL     1       6.876  13.589  -5.906  1.00  0.00     0.049 A 
ATOM     62  H   UNL     1       6.504  11.914  -4.679  1.00  0.00     0.167 HD
ATOM     63  C   UNL     1       6.028  11.872  -7.491  1.00  0.00     0.074 A 
ATOM     64  C   UNL     1       5.652  11.412  -8.812  1.00  0.00     0.031 C 
ATOM     65  C   UNL     1       6.497  13.116  -7.218  1.00  0.00     0.031 A 
BRANCH  52  66
ATOM     66  C   UNL     1       7.696  14.135  -1.222  1.00  0.00    -0.014 A 
ATOM     67  C   UNL     1       8.824  13.933  -0.406  1.00  0.00     0.010 A 
ATOM     68  C   UNL     1       6.898  15.274  -1.008  1.00  0.00     0.010 A 
ATOM     69  C   UNL     1       9.104  14.809   0.647  1.00  0.00     0.020 A 
ATOM     70  C   UNL     1       7.198  16.177   0.015  1.00  0.00     0.020 A 
ATOM     71  C   UNL     1       8.284  15.923   0.854  1.00  0.00     0.054 A 
BRANCH  71  72
ATOM     72  S   UNL     1       8.658  17.032   2.238  1.00  0.00     0.124 S 
ATOM     73  O   UNL     1       8.323  16.199   3.391  1.00  0.00    -0.237 OA
ATOM     74  O   UNL     1      10.081  17.304   2.052  1.00  0.00    -0.237 OA
ATOM     75  O   UNL     1       7.773  18.174   2.019  1.00  0.00    -0.744 OA
ENDBRANCH  71  72
ENDBRANCH  52  66
BRANCH  53  76
ATOM     76  C   UNL     1       4.448   7.438  -7.924  1.00  0.00    -0.014 A 
ATOM     77  C   UNL     1       5.242   6.870  -8.934  1.00  0.00     0.010 A 
ATOM     78  C   UNL     1       3.110   7.019  -7.788  1.00  0.00     0.010 A 
ATOM     79  C   UNL     1       4.714   5.889  -9.780  1.00  0.00     0.020 A 
ATOM     80  C   UNL     1       2.589   6.018  -8.610  1.00  0.00     0.020 A 
ATOM     81  C   UNL     1       3.396   5.456  -9.600  1.00  0.00     0.054 A 
BRANCH  81  82
ATOM     82  S   UNL     1       2.776   4.098 -10.630  1.00  0.00     0.124 S 
ATOM     83  O   UNL     1       2.709   4.719 -11.948  1.00  0.00    -0.237 OA
ATOM     84  O   UNL     1       3.812   3.082 -10.459  1.00  0.00    -0.237 OA
ATOM     85  O   UNL     1       1.487   3.769 -10.025  1.00  0.00    -0.744 OA
ENDBRANCH  81  82
ENDBRANCH  53  76
BRANCH  65  86
ATOM     86  C   UNL     1       6.699  14.067  -8.371  1.00  0.00    -0.014 A 
ATOM     87  C   UNL     1       5.617  14.650  -9.053  1.00  0.00     0.010 A 
ATOM     88  C   UNL     1       8.009  14.462  -8.704  1.00  0.00     0.010 A 
ATOM     89  C   UNL     1       5.844  15.600 -10.055  1.00  0.00     0.020 A 
ATOM     90  C   UNL     1       8.239  15.435  -9.678  1.00  0.00     0.020 A 
ATOM     91  C   UNL     1       7.153  15.994 -10.353  1.00  0.00     0.054 A 
BRANCH  91  92
ATOM     92  S   UNL     1       7.415  17.286 -11.600  1.00  0.00     0.124 S 
ATOM     93  O   UNL     1       7.024  16.605 -12.831  1.00  0.00    -0.237 OA
ATOM     94  O   UNL     1       6.514  18.345 -11.152  1.00  0.00    -0.237 OA
ATOM     95  O   UNL     1       8.839  17.596 -11.486  1.00  0.00    -0.744 OA
ENDBRANCH  91  92
ENDBRANCH  65  86
ENDBRANCH  39  40
ENDBRANCH  32  34
ENDBRANCH  31  32
ENDBRANCH  30  31
ENDBRANCH  29  30
ENDBRANCH  28  29
ENDBRANCH  27  28
ENDBRANCH   1  27
TORSDOF 24
