REMARK SMILES CC(C)Cc1cc2c(cc1Cl)C=C(C(=O)OCCOCCOCCOCCOC(=O)c1ccc(-c3c4nc(c(-c5ccc(S(=O)(=O)[O-])cc5)c5ccc([nH]5)c(-c5ccc(S(=O)(=O)[O-])cc5)c5nc(c(-c6ccc(S(=O)(=O)[O-])cc6)c6ccc3[nH]6)C=C5)C=C4)cc1)[C@H](C(F)(F)F)O2
REMARK SMILES IDX 23 1 22 2 21 3 20 4 19 5 18 6 17 7 16 8 14 9 15 10 13 11
REMARK SMILES IDX 5 12 6 13 10 14 7 15 9 16 11 17 8 18 96 19 12 20 91 21 4 22
REMARK SMILES IDX 2 23 1 24 3 25 92 26 93 27 94 28 95 29 24 30 25 31 26 32
REMARK SMILES IDX 27 33 28 34 29 35 30 36 31 37 32 38 90 39 33 40 89 41 34 42
REMARK SMILES IDX 35 43 36 44 83 45 37 46 88 47 82 48 84 49 38 50 87 51 81 52
REMARK SMILES IDX 80 53 39 55 69 56 50 57 68 58 51 59 54 60 67 61 85 62 52 63
REMARK SMILES IDX 53 64 66 66 86 67 55 68 40 69 41 70 49 71 42 72 48 73 43 74
REMARK SMILES IDX 44 75 45 76 46 77 47 78 70 79 71 80 79 81 72 82 78 83 73 84
REMARK SMILES IDX 74 85 75 86 76 87 77 88 56 89 57 90 65 91 58 92 64 93 59 94
REMARK SMILES IDX 60 95 61 96 62 97 63 98
REMARK H PARENT 84 54 54 65
REMARK Flexibility Score: inf
ROOT
ATOM      1  C   UNL     1      -1.234   2.165   8.921  1.00  0.00     0.188 C 
ENDROOT
BRANCH   1   2
ATOM      2  O   UNL     1      -1.953   2.521   7.740  1.00  0.00    -0.377 OA
BRANCH   2   3
ATOM      3  C   UNL     1      -1.599   3.700   7.045  1.00  0.00     0.188 C 
BRANCH   3   4
ATOM      4  C   UNL     1      -2.695   4.772   7.041  1.00  0.00     0.188 C 
BRANCH   4   5
ATOM      5  O   UNL     1      -3.402   5.016   8.248  1.00  0.00    -0.376 OA
BRANCH   5   6
ATOM      6  C   UNL     1      -4.187   3.963   8.813  1.00  0.00     0.202 C 
BRANCH   6   7
ATOM      7  C   UNL     1      -5.150   3.160   7.919  1.00  0.00     0.261 C 
BRANCH   7   8
ATOM      8  O   UNL     1      -4.493   2.394   6.887  1.00  0.00    -0.460 OA
BRANCH   8   9
ATOM      9  C   UNL     1      -4.837   2.696   5.619  1.00  0.00     0.338 C 
ATOM     10  O   UNL     1      -5.710   3.478   5.272  1.00  0.00    -0.246 OA
BRANCH   9  11
ATOM     11  C   UNL     1      -3.888   2.111   4.655  1.00  0.00     0.087 C 
ATOM     12  C   UNL     1      -1.534   1.413   0.262  1.00  0.00    -0.025 A 
ATOM     13  C   UNL     1      -2.163   0.567   1.197  1.00  0.00     0.052 A 
ATOM     14  C   UNL     1      -1.453   2.784   0.553  1.00  0.00     0.045 A 
ATOM     15  C   UNL     1      -2.708   1.077   2.377  1.00  0.00     0.128 A 
ATOM     16  C   UNL     1      -1.989   3.292   1.740  1.00  0.00     0.032 A 
ATOM     17  Cl  UNL     1      -0.757   3.919  -0.550  1.00  0.00    -0.084 Cl
ATOM     18  C   UNL     1      -2.632   2.442   2.644  1.00  0.00     0.019 A 
ATOM     19  O   UNL     1      -3.379   0.193   3.179  1.00  0.00    -0.475 OA
ATOM     20  C   UNL     1      -3.356   2.980   3.782  1.00  0.00     0.027 C 
ATOM     21  C   UNL     1      -3.714   0.623   4.538  1.00  0.00     0.316 C 
BRANCH  12  22
ATOM     22  C   UNL     1      -0.999   0.809  -1.018  1.00  0.00     0.040 C 
BRANCH  22  23
ATOM     23  C   UNL     1       0.538   0.698  -1.083  1.00  0.00    -0.013 C 
ATOM     24  C   UNL     1       1.104  -0.183   0.032  1.00  0.00     0.008 C 
ATOM     25  C   UNL     1       0.957   0.144  -2.447  1.00  0.00     0.008 C 
ENDBRANCH  22  23
ENDBRANCH  12  22
BRANCH  21  26
ATOM     26  C   UNL     1      -2.699   0.009   5.518  1.00  0.00     0.430 C 
ATOM     27  F   UNL     1      -1.502   0.640   5.483  1.00  0.00    -0.167 F 
ATOM     28  F   UNL     1      -3.146   0.017   6.792  1.00  0.00    -0.167 F 
ATOM     29  F   UNL     1      -2.462  -1.293   5.207  1.00  0.00    -0.167 F 
ENDBRANCH  21  26
ENDBRANCH   9  11
ENDBRANCH   8   9
ENDBRANCH   7   8
ENDBRANCH   6   7
ENDBRANCH   5   6
ENDBRANCH   4   5
ENDBRANCH   3   4
ENDBRANCH   2   3
ENDBRANCH   1   2
BRANCH   1  30
ATOM     30  C   UNL     1      -0.545   3.287   9.715  1.00  0.00     0.188 C 
BRANCH  30  31
ATOM     31  O   UNL     1       0.668   3.849   9.198  1.00  0.00    -0.376 OA
BRANCH  31  32
ATOM     32  C   UNL     1       1.474   3.078   8.310  1.00  0.00     0.202 C 
BRANCH  32  33
ATOM     33  C   UNL     1       2.433   2.092   8.967  1.00  0.00     0.261 C 
BRANCH  33  34
ATOM     34  O   UNL     1       1.734   1.049   9.652  1.00  0.00    -0.460 OA
BRANCH  34  35
ATOM     35  C   UNL     1       1.595   1.224  10.986  1.00  0.00     0.338 C 
ATOM     36  O   UNL     1       2.015   2.152  11.660  1.00  0.00    -0.246 OA
BRANCH  35  37
ATOM     37  C   UNL     1       0.711   0.167  11.508  1.00  0.00     0.060 A 
ATOM     38  C   UNL     1       0.835  -1.149  11.056  1.00  0.00     0.016 A 
ATOM     39  C   UNL     1      -0.229   0.499  12.492  1.00  0.00     0.016 A 
ATOM     40  C   UNL     1       0.042  -2.142  11.623  1.00  0.00     0.010 A 
ATOM     41  C   UNL     1      -1.012  -0.500  13.070  1.00  0.00     0.010 A 
ATOM     42  C   UNL     1      -0.857  -1.830  12.659  1.00  0.00    -0.014 A 
BRANCH  42  43
ATOM     43  C   UNL     1      -1.500  -2.937  13.402  1.00  0.00     0.031 A 
ATOM     44  C   UNL     1      -2.948  -3.261  13.224  1.00  0.00     0.074 A 
ATOM     45  C   UNL     1      -0.722  -3.677  14.216  1.00  0.00     0.049 A 
ATOM     46  N   UNL     1      -3.607  -4.298  13.669  1.00  0.00    -0.248 NA
ATOM     47  C   UNL     1      -3.764  -2.308  12.457  1.00  0.00     0.031 C 
ATOM     48  C   UNL     1       0.697  -3.415  14.475  1.00  0.00     0.029 A 
ATOM     49  N   UNL     1      -0.990  -4.809  14.942  1.00  0.00    -0.354 N 
ATOM     50  C   UNL     1      -4.909  -4.141  13.214  1.00  0.00     0.074 A 
ATOM     51  C   UNL     1      -4.962  -2.878  12.511  1.00  0.00     0.031 C 
ATOM     52  C   UNL     1       1.189  -4.395  15.245  1.00  0.00     0.029 A 
ATOM     53  C   UNL     1       0.118  -5.332  15.570  1.00  0.00     0.049 A 
ATOM     54  H   UNL     1      -1.887  -5.210  15.007  1.00  0.00     0.167 HD
ATOM     55  C   UNL     1      -5.950  -4.995  13.354  1.00  0.00     0.031 A 
ATOM     56  C   UNL     1       0.265  -6.452  16.305  1.00  0.00     0.031 A 
ATOM     57  C   UNL     1      -5.873  -6.240  14.077  1.00  0.00     0.049 A 
ATOM     58  C   UNL     1      -0.916  -7.367  16.470  1.00  0.00     0.074 A 
ATOM     59  C   UNL     1      -6.867  -7.187  14.256  1.00  0.00     0.029 A 
ATOM     60  N   UNL     1      -4.749  -6.714  14.741  1.00  0.00    -0.354 N 
ATOM     61  N   UNL     1      -2.123  -7.246  15.969  1.00  0.00    -0.248 NA
ATOM     62  C   UNL     1      -0.718  -8.579  17.275  1.00  0.00     0.031 C 
ATOM     63  C   UNL     1      -6.372  -8.187  15.094  1.00  0.00     0.029 A 
ATOM     64  C   UNL     1      -5.036  -7.922  15.355  1.00  0.00     0.049 A 
ATOM     65  H   UNL     1      -3.877  -6.258  14.771  1.00  0.00     0.167 HD
ATOM     66  C   UNL     1      -2.817  -8.382  16.368  1.00  0.00     0.074 A 
ATOM     67  C   UNL     1      -1.892  -9.184  17.141  1.00  0.00     0.031 C 
ATOM     68  C   UNL     1      -4.104  -8.724  16.113  1.00  0.00     0.031 A 
BRANCH  55  69
ATOM     69  C   UNL     1      -7.262  -4.643  12.699  1.00  0.00    -0.014 A 
ATOM     70  C   UNL     1      -8.412  -4.445  13.487  1.00  0.00     0.010 A 
ATOM     71  C   UNL     1      -7.390  -4.655  11.298  1.00  0.00     0.010 A 
ATOM     72  C   UNL     1      -9.668  -4.312  12.890  1.00  0.00     0.020 A 
ATOM     73  C   UNL     1      -8.641  -4.488  10.696  1.00  0.00     0.020 A 
ATOM     74  C   UNL     1      -9.776  -4.346  11.497  1.00  0.00     0.054 A 
BRANCH  74  75
ATOM     75  S   UNL     1     -11.421  -4.226  10.744  1.00  0.00     0.124 S 
ATOM     76  O   UNL     1     -12.008  -5.520  11.075  1.00  0.00    -0.237 OA
ATOM     77  O   UNL     1     -12.000  -3.074  11.431  1.00  0.00    -0.237 OA
ATOM     78  O   UNL     1     -11.134  -4.013   9.326  1.00  0.00    -0.744 OA
ENDBRANCH  74  75
ENDBRANCH  55  69
BRANCH  56  79
ATOM     79  C   UNL     1       1.607  -6.783  16.863  1.00  0.00    -0.014 A 
ATOM     80  C   UNL     1       2.207  -5.942  17.820  1.00  0.00     0.010 A 
ATOM     81  C   UNL     1       2.337  -7.882  16.374  1.00  0.00     0.010 A 
ATOM     82  C   UNL     1       3.526  -6.153  18.229  1.00  0.00     0.020 A 
ATOM     83  C   UNL     1       3.645  -8.120  16.809  1.00  0.00     0.020 A 
ATOM     84  C   UNL     1       4.241  -7.234  17.710  1.00  0.00     0.054 A 
BRANCH  84  85
ATOM     85  S   UNL     1       5.971  -7.449  18.210  1.00  0.00     0.124 S 
ATOM     86  O   UNL     1       6.626  -6.353  17.501  1.00  0.00    -0.237 OA
ATOM     87  O   UNL     1       5.901  -7.306  19.662  1.00  0.00    -0.237 OA
ATOM     88  O   UNL     1       6.303  -8.789  17.733  1.00  0.00    -0.744 OA
ENDBRANCH  84  85
ENDBRANCH  56  79
BRANCH  68  89
ATOM     89  C   UNL     1      -4.617 -10.040  16.647  1.00  0.00    -0.014 A 
ATOM     90  C   UNL     1      -5.040 -11.034  15.742  1.00  0.00     0.010 A 
ATOM     91  C   UNL     1      -4.829 -10.236  18.023  1.00  0.00     0.010 A 
ATOM     92  C   UNL     1      -5.710 -12.172  16.197  1.00  0.00     0.020 A 
ATOM     93  C   UNL     1      -5.465 -11.393  18.485  1.00  0.00     0.020 A 
ATOM     94  C   UNL     1      -5.930 -12.337  17.566  1.00  0.00     0.054 A 
BRANCH  94  95
ATOM     95  S   UNL     1      -6.855 -13.792  18.129  1.00  0.00     0.124 S 
ATOM     96  O   UNL     1      -8.219 -13.466  17.722  1.00  0.00    -0.237 OA
ATOM     97  O   UNL     1      -6.220 -14.880  17.390  1.00  0.00    -0.237 OA
ATOM     98  O   UNL     1      -6.623 -13.809  19.572  1.00  0.00    -0.744 OA
ENDBRANCH  94  95
ENDBRANCH  68  89
ENDBRANCH  42  43
ENDBRANCH  35  37
ENDBRANCH  34  35
ENDBRANCH  33  34
ENDBRANCH  32  33
ENDBRANCH  31  32
ENDBRANCH  30  31
ENDBRANCH   1  30
TORSDOF 26
