REMARK SMILES O=C(OCCOCCOCCOCCOC(=O)c1cc2c(c(S(=O)(=O)Nc3cc(C(F)(F)F)ccc3-n3cccn3)c1)CCC2)c1ccc(-c2c3nc(c(-c4ccc(S(=O)(=O)[O-])cc4)c4ccc([nH]4)c(-c4ccc(S(=O)(=O)[O-])cc4)c4nc(c(-c5ccc(S(=O)(=O)[O-])cc5)c5ccc2[nH]5)C=C4)C=C3)cc1
REMARK SMILES IDX 10 1 9 2 8 3 7 4 6 5 5 6 4 7 3 8 2 9 1 10 46 11 47 12 105 13
REMARK SMILES IDX 48 14 104 15 49 16 50 17 51 18 98 19 52 20 103 21 97 22
REMARK SMILES IDX 99 23 53 24 102 25 96 26 95 27 54 29 84 30 65 31 83 32 66 33
REMARK SMILES IDX 69 34 82 35 100 36 67 37 68 38 81 40 101 41 70 42 55 43
REMARK SMILES IDX 56 44 64 45 57 46 63 47 58 48 59 49 60 50 61 51 62 52 85 53
REMARK SMILES IDX 86 54 94 55 87 56 93 57 88 58 89 59 90 60 91 61 92 62 71 63
REMARK SMILES IDX 72 64 80 65 73 66 79 67 74 68 75 69 76 70 77 71 78 72 11 73
REMARK SMILES IDX 12 74 13 75 14 76 15 77 16 78 17 79 18 80 19 81 42 82 20 83
REMARK SMILES IDX 22 84 21 85 45 86 43 87 44 88 23 89 24 90 25 91 26 92 27 94
REMARK SMILES IDX 28 95 36 96 29 97 35 98 34 99 37 100 38 101 41 102 39 103
REMARK SMILES IDX 40 104 30 105 31 106 32 107 33 108
REMARK H PARENT 99 28 69 39 26 93
REMARK Flexibility Score: inf
ROOT
ATOM      1  C   UNL     1       4.116   2.967   1.502  1.00  0.00     0.188 C 
ENDROOT
BRANCH   1   2
ATOM      2  O   UNL     1       2.788   2.678   1.871  1.00  0.00    -0.377 OA
BRANCH   2   3
ATOM      3  C   UNL     1       2.272   1.513   1.253  1.00  0.00     0.188 C 
BRANCH   3   4
ATOM      4  C   UNL     1       3.017   0.189   1.511  1.00  0.00     0.188 C 
BRANCH   4   5
ATOM      5  O   UNL     1       4.325  -0.148   1.075  1.00  0.00    -0.376 OA
BRANCH   5   6
ATOM      6  C   UNL     1       5.060   0.259  -0.059  1.00  0.00     0.202 C 
BRANCH   6   7
ATOM      7  C   UNL     1       4.501   0.403  -1.472  1.00  0.00     0.261 C 
BRANCH   7   8
ATOM      8  O   UNL     1       3.128   0.742  -1.573  1.00  0.00    -0.460 OA
BRANCH   8   9
ATOM      9  C   UNL     1       2.062  -0.079  -1.516  1.00  0.00     0.338 C 
ATOM     10  O   UNL     1       0.946   0.416  -1.678  1.00  0.00    -0.246 OA
BRANCH   9  11
ATOM     11  C   UNL     1       2.133  -1.521  -1.160  1.00  0.00     0.060 A 
ATOM     12  C   UNL     1       3.257  -2.345  -1.246  1.00  0.00     0.016 A 
ATOM     13  C   UNL     1       0.908  -2.080  -0.741  1.00  0.00     0.016 A 
ATOM     14  C   UNL     1       3.115  -3.711  -1.149  1.00  0.00     0.010 A 
ATOM     15  C   UNL     1       0.766  -3.444  -0.606  1.00  0.00     0.010 A 
ATOM     16  C   UNL     1       1.850  -4.244  -0.929  1.00  0.00    -0.014 A 
BRANCH  16  17
ATOM     17  C   UNL     1       1.708  -5.670  -1.111  1.00  0.00     0.031 A 
ATOM     18  C   UNL     1       2.482  -6.487  -0.150  1.00  0.00     0.074 A 
ATOM     19  C   UNL     1       0.942  -6.154  -2.107  1.00  0.00     0.049 A 
ATOM     20  N   UNL     1       3.520  -7.218  -0.389  1.00  0.00    -0.248 NA
ATOM     21  C   UNL     1       2.175  -6.323   1.279  1.00  0.00     0.031 C 
ATOM     22  C   UNL     1      -0.011  -5.429  -2.956  1.00  0.00     0.029 A 
ATOM     23  N   UNL     1       0.774  -7.441  -2.498  1.00  0.00    -0.354 N 
ATOM     24  C   UNL     1       3.858  -7.796   0.830  1.00  0.00     0.074 A 
ATOM     25  C   UNL     1       3.127  -7.070   1.837  1.00  0.00     0.031 C 
ATOM     26  C   UNL     1      -0.838  -6.318  -3.551  1.00  0.00     0.029 A 
ATOM     27  C   UNL     1      -0.374  -7.660  -3.248  1.00  0.00     0.049 A 
ATOM     28  H   UNL     1       1.410  -8.157  -2.271  1.00  0.00     0.167 HD
ATOM     29  C   UNL     1       4.496  -8.998   0.888  1.00  0.00     0.031 A 
ATOM     30  C   UNL     1      -0.941  -8.864  -3.513  1.00  0.00     0.031 A 
ATOM     31  C   UNL     1       5.136  -9.321  -0.361  1.00  0.00     0.049 A 
ATOM     32  C   UNL     1       0.113  -9.892  -3.311  1.00  0.00     0.074 A 
ATOM     33  C   UNL     1       6.127  -8.734  -1.123  1.00  0.00     0.029 A 
ATOM     34  N   UNL     1       4.480 -10.194  -1.197  1.00  0.00    -0.354 N 
ATOM     35  N   UNL     1       1.176  -9.977  -4.063  1.00  0.00    -0.248 NA
ATOM     36  C   UNL     1       0.236 -10.496  -1.992  1.00  0.00     0.031 C 
ATOM     37  C   UNL     1       5.713  -8.924  -2.473  1.00  0.00     0.029 A 
ATOM     38  C   UNL     1       4.536  -9.678  -2.465  1.00  0.00     0.049 A 
ATOM     39  H   UNL     1       4.048 -11.038  -0.932  1.00  0.00     0.167 HD
ATOM     40  C   UNL     1       2.217 -10.247  -3.185  1.00  0.00     0.074 A 
ATOM     41  C   UNL     1       1.564 -10.643  -1.936  1.00  0.00     0.031 C 
ATOM     42  C   UNL     1       3.497  -9.854  -3.459  1.00  0.00     0.031 A 
BRANCH  29  43
ATOM     43  C   UNL     1       4.135 -10.057   1.905  1.00  0.00    -0.014 A 
ATOM     44  C   UNL     1       4.785 -11.307   1.836  1.00  0.00     0.010 A 
ATOM     45  C   UNL     1       2.981  -9.983   2.713  1.00  0.00     0.010 A 
ATOM     46  C   UNL     1       4.238 -12.443   2.447  1.00  0.00     0.020 A 
ATOM     47  C   UNL     1       2.451 -11.099   3.360  1.00  0.00     0.020 A 
ATOM     48  C   UNL     1       3.060 -12.332   3.186  1.00  0.00     0.054 A 
BRANCH  48  49
ATOM     49  S   UNL     1       2.281 -13.824   3.847  1.00  0.00     0.124 S 
ATOM     50  O   UNL     1       1.897 -14.525   2.626  1.00  0.00    -0.237 OA
ATOM     51  O   UNL     1       3.370 -14.425   4.611  1.00  0.00    -0.237 OA
ATOM     52  O   UNL     1       1.175 -13.305   4.648  1.00  0.00    -0.744 OA
ENDBRANCH  48  49
ENDBRANCH  29  43
BRANCH  30  53
ATOM     53  C   UNL     1      -2.396  -9.170  -3.520  1.00  0.00    -0.014 A 
ATOM     54  C   UNL     1      -2.884 -10.393  -4.015  1.00  0.00     0.010 A 
ATOM     55  C   UNL     1      -3.290  -8.361  -2.786  1.00  0.00     0.010 A 
ATOM     56  C   UNL     1      -4.199 -10.812  -3.741  1.00  0.00     0.020 A 
ATOM     57  C   UNL     1      -4.602  -8.767  -2.515  1.00  0.00     0.020 A 
ATOM     58  C   UNL     1      -5.045 -10.002  -2.976  1.00  0.00     0.054 A 
BRANCH  58  59
ATOM     59  S   UNL     1      -6.682 -10.621  -2.482  1.00  0.00     0.124 S 
ATOM     60  O   UNL     1      -7.413 -10.609  -3.746  1.00  0.00    -0.237 OA
ATOM     61  O   UNL     1      -6.374 -11.942  -1.943  1.00  0.00    -0.237 OA
ATOM     62  O   UNL     1      -7.137  -9.643  -1.495  1.00  0.00    -0.744 OA
ENDBRANCH  58  59
ENDBRANCH  30  53
BRANCH  42  63
ATOM     63  C   UNL     1       3.817  -9.351  -4.848  1.00  0.00    -0.014 A 
ATOM     64  C   UNL     1       3.253  -8.189  -5.413  1.00  0.00     0.010 A 
ATOM     65  C   UNL     1       4.860  -9.992  -5.539  1.00  0.00     0.010 A 
ATOM     66  C   UNL     1       3.710  -7.698  -6.647  1.00  0.00     0.020 A 
ATOM     67  C   UNL     1       5.330  -9.499  -6.758  1.00  0.00     0.020 A 
ATOM     68  C   UNL     1       4.748  -8.359  -7.312  1.00  0.00     0.054 A 
BRANCH  68  69
ATOM     69  S   UNL     1       5.373  -7.697  -8.883  1.00  0.00     0.124 S 
ATOM     70  O   UNL     1       4.256  -7.932  -9.794  1.00  0.00    -0.237 OA
ATOM     71  O   UNL     1       5.641  -6.297  -8.563  1.00  0.00    -0.237 OA
ATOM     72  O   UNL     1       6.566  -8.500  -9.149  1.00  0.00    -0.744 OA
ENDBRANCH  68  69
ENDBRANCH  42  63
ENDBRANCH  16  17
ENDBRANCH   9  11
ENDBRANCH   8   9
ENDBRANCH   7   8
ENDBRANCH   6   7
ENDBRANCH   5   6
ENDBRANCH   4   5
ENDBRANCH   3   4
ENDBRANCH   2   3
ENDBRANCH   1   2
BRANCH   1  73
ATOM     73  C   UNL     1       5.164   2.522   2.543  1.00  0.00     0.188 C 
BRANCH  73  74
ATOM     74  O   UNL     1       4.793   1.911   3.772  1.00  0.00    -0.376 OA
BRANCH  74  75
ATOM     75  C   UNL     1       3.599   2.271   4.443  1.00  0.00     0.202 C 
BRANCH  75  76
ATOM     76  C   UNL     1       3.302   3.740   4.779  1.00  0.00     0.261 C 
BRANCH  76  77
ATOM     77  O   UNL     1       3.644   4.709   3.781  1.00  0.00    -0.460 OA
BRANCH  77  78
ATOM     78  C   UNL     1       4.849   5.316   3.898  1.00  0.00     0.338 C 
ATOM     79  O   UNL     1       5.687   5.158   4.773  1.00  0.00    -0.246 OA
BRANCH  78  80
ATOM     80  C   UNL     1       5.059   6.154   2.698  1.00  0.00     0.061 A 
ATOM     81  C   UNL     1       4.136   7.160   2.440  1.00  0.00     0.019 A 
ATOM     82  C   UNL     1       6.156   5.924   1.826  1.00  0.00     0.038 A 
ATOM     83  C   UNL     1       4.356   7.946   1.330  1.00  0.00    -0.043 A 
ATOM     84  C   UNL     1       6.329   6.687   0.652  1.00  0.00     0.092 A 
ATOM     85  C   UNL     1       5.401   7.690   0.412  1.00  0.00    -0.024 A 
ATOM     86  C   UNL     1       3.592   9.179   0.951  1.00  0.00     0.036 C 
ATOM     87  C   UNL     1       5.260   8.665  -0.713  1.00  0.00     0.037 C 
ATOM     88  C   UNL     1       4.639   9.838   0.055  1.00  0.00     0.010 C 
BRANCH  84  89
ATOM     89  S   UNL     1       7.548   6.175  -0.548  1.00  0.00     0.262 S 
ATOM     90  O   UNL     1       8.158   4.959  -0.044  1.00  0.00    -0.201 OA
ATOM     91  O   UNL     1       6.894   6.157  -1.840  1.00  0.00    -0.201 OA
BRANCH  89  92
ATOM     92  N   UNL     1       8.855   7.271  -0.715  1.00  0.00    -0.277 N 
ATOM     93  H   UNL     1       9.748   6.917  -0.930  1.00  0.00     0.180 HD
BRANCH  92  94
ATOM     94  C   UNL     1       8.688   8.687  -0.552  1.00  0.00     0.075 A 
ATOM     95  C   UNL     1       8.515   9.482  -1.702  1.00  0.00     0.042 A 
ATOM     96  C   UNL     1       8.575   9.279   0.714  1.00  0.00     0.089 A 
ATOM     97  C   UNL     1       8.138  10.837  -1.596  1.00  0.00     0.058 A 
ATOM     98  C   UNL     1       8.214  10.631   0.825  1.00  0.00     0.031 A 
ATOM     99  C   UNL     1       8.002  11.403  -0.320  1.00  0.00     0.015 A 
BRANCH  96 100
ATOM    100  N   UNL     1       8.767   8.531   1.901  1.00  0.00    -0.239 N 
ATOM    101  C   UNL     1       9.588   7.443   2.097  1.00  0.00     0.115 A 
ATOM    102  N   UNL     1       8.012   8.781   3.001  1.00  0.00    -0.177 NA
ATOM    103  C   UNL     1       9.194   6.852   3.271  1.00  0.00     0.042 A 
ATOM    104  C   UNL     1       8.194   7.702   3.768  1.00  0.00     0.135 A 
ENDBRANCH  96 100
BRANCH  97 105
ATOM    105  C   UNL     1       7.806  11.641  -2.834  1.00  0.00     0.416 C 
ATOM    106  F   UNL     1       8.908  11.966  -3.561  1.00  0.00    -0.166 F 
ATOM    107  F   UNL     1       6.978  10.969  -3.681  1.00  0.00    -0.166 F 
ATOM    108  F   UNL     1       7.175  12.818  -2.560  1.00  0.00    -0.166 F 
ENDBRANCH  97 105
ENDBRANCH  92  94
ENDBRANCH  89  92
ENDBRANCH  84  89
ENDBRANCH  78  80
ENDBRANCH  77  78
ENDBRANCH  76  77
ENDBRANCH  75  76
ENDBRANCH  74  75
ENDBRANCH  73  74
ENDBRANCH   1  73
TORSDOF 28
