REMARK SMILES [NH3+][C@H](CCc1c[nH]nc1C(F)(F)F)C(=O)OCCOCCOCCOCCOC(=O)c1ccc(-c2c3nc(c(-c4ccc(S(=O)(=O)[O-])cc4)c4ccc([nH]4)c(-c4ccc(S(=O)(=O)[O-])cc4)c4nc(c(-c5ccc(S(=O)(=O)[O-])cc5)c5ccc2[nH]5)C=C4)C=C3)cc1
REMARK SMILES IDX 21 1 20 2 19 3 18 4 17 5 16 6 14 7 15 8 2 9 1 10 3 14 4 15
REMARK SMILES IDX 5 16 6 17 9 18 7 19 8 20 10 22 11 23 12 24 13 25 22 26 23 27
REMARK SMILES IDX 24 28 25 29 26 30 27 31 28 32 29 33 30 34 31 35 32 36 90 37
REMARK SMILES IDX 33 38 89 39 34 40 35 41 36 42 83 43 37 44 88 45 82 46 84 47
REMARK SMILES IDX 38 48 87 49 81 50 80 51 39 53 69 54 50 55 68 56 51 57 54 58
REMARK SMILES IDX 67 59 85 60 52 61 53 62 66 64 86 65 55 66 40 67 41 68 49 69
REMARK SMILES IDX 42 70 48 71 43 72 44 73 45 74 46 75 47 76 70 77 71 78 79 79
REMARK SMILES IDX 72 80 78 81 73 82 74 83 75 84 76 85 77 86 56 87 57 88 65 89
REMARK SMILES IDX 58 90 64 91 59 92 60 93 61 94 62 95 63 96
REMARK H PARENT 1 11 1 12 1 13 7 21 84 52 54 63
REMARK Flexibility Score: inf
ROOT
ATOM      1  C   UNL     1      -1.345  -1.689   0.823  1.00  0.00     0.188 C 
ENDROOT
BRANCH   1   2
ATOM      2  C   UNL     1      -2.232  -1.206   1.984  1.00  0.00     0.188 C 
BRANCH   2   3
ATOM      3  O   UNL     1      -3.504  -0.760   1.556  1.00  0.00    -0.376 OA
BRANCH   3   4
ATOM      4  C   UNL     1      -3.843   0.604   1.738  1.00  0.00     0.202 C 
BRANCH   4   5
ATOM      5  C   UNL     1      -2.901   1.713   1.239  1.00  0.00     0.261 C 
BRANCH   5   6
ATOM      6  O   UNL     1      -1.532   1.321   1.078  1.00  0.00    -0.459 OA
BRANCH   6   7
ATOM      7  C   UNL     1      -0.618   1.852   1.922  1.00  0.00     0.364 C 
ATOM      8  O   UNL     1      -0.917   2.547   2.888  1.00  0.00    -0.245 OA
BRANCH   7   9
ATOM      9  C   UNL     1       0.827   1.378   1.601  1.00  0.00     0.292 C 
BRANCH   9  10
ATOM     10  N   UNL     1       1.799   2.381   2.106  1.00  0.00    -0.346 N 
ATOM     11  H   UNL     1       1.528   2.674   3.044  1.00  0.00     0.345 HD
ATOM     12  H   UNL     1       1.805   3.190   1.485  1.00  0.00     0.345 HD
ATOM     13  H   UNL     1       2.731   1.967   2.134  1.00  0.00     0.345 HD
ENDBRANCH   9  10
BRANCH   9  14
ATOM     14  C   UNL     1       1.233   0.930   0.178  1.00  0.00     0.082 C 
BRANCH  14  15
ATOM     15  C   UNL     1       0.425   1.334  -1.056  1.00  0.00     0.046 C 
BRANCH  15  16
ATOM     16  C   UNL     1       0.546   2.756  -1.484  1.00  0.00     0.003 A 
ATOM     17  C   UNL     1       0.209   3.887  -0.766  1.00  0.00     0.109 A 
ATOM     18  C   UNL     1       0.936   3.260  -2.774  1.00  0.00     0.169 A 
ATOM     19  N   UNL     1       0.442   4.955  -1.580  1.00  0.00    -0.285 N 
ATOM     20  N   UNL     1       0.930   4.606  -2.774  1.00  0.00    -0.171 NA
ATOM     21  H   UNL     1       0.268   5.887  -1.316  1.00  0.00     0.189 HD
BRANCH  18  22
ATOM     22  C   UNL     1       1.319   2.497  -4.025  1.00  0.00     0.435 C 
ATOM     23  F   UNL     1       0.692   2.960  -5.139  1.00  0.00    -0.164 F 
ATOM     24  F   UNL     1       2.658   2.554  -4.269  1.00  0.00    -0.164 F 
ATOM     25  F   UNL     1       1.012   1.170  -3.956  1.00  0.00    -0.164 F 
ENDBRANCH  18  22
ENDBRANCH  15  16
ENDBRANCH  14  15
ENDBRANCH   9  14
ENDBRANCH   7   9
ENDBRANCH   6   7
ENDBRANCH   5   6
ENDBRANCH   4   5
ENDBRANCH   3   4
ENDBRANCH   2   3
ENDBRANCH   1   2
BRANCH   1  26
ATOM     26  O   UNL     1      -1.574  -1.183  -0.485  1.00  0.00    -0.377 OA
BRANCH  26  27
ATOM     27  C   UNL     1      -2.881  -1.253  -1.059  1.00  0.00     0.188 C 
BRANCH  27  28
ATOM     28  C   UNL     1      -3.841  -2.406  -0.690  1.00  0.00     0.188 C 
BRANCH  28  29
ATOM     29  O   UNL     1      -3.227  -3.511  -0.045  1.00  0.00    -0.376 OA
BRANCH  29  30
ATOM     30  C   UNL     1      -2.912  -4.626  -0.868  1.00  0.00     0.202 C 
BRANCH  30  31
ATOM     31  C   UNL     1      -1.888  -4.365  -1.981  1.00  0.00     0.261 C 
BRANCH  31  32
ATOM     32  O   UNL     1      -2.327  -3.490  -3.035  1.00  0.00    -0.460 OA
BRANCH  32  33
ATOM     33  C   UNL     1      -3.452  -3.815  -3.709  1.00  0.00     0.338 C 
ATOM     34  O   UNL     1      -4.146  -4.806  -3.564  1.00  0.00    -0.246 OA
BRANCH  33  35
ATOM     35  C   UNL     1      -3.802  -2.660  -4.553  1.00  0.00     0.060 A 
ATOM     36  C   UNL     1      -4.970  -1.935  -4.283  1.00  0.00     0.016 A 
ATOM     37  C   UNL     1      -2.959  -2.290  -5.601  1.00  0.00     0.016 A 
ATOM     38  C   UNL     1      -5.302  -0.833  -5.074  1.00  0.00     0.010 A 
ATOM     39  C   UNL     1      -3.304  -1.202  -6.403  1.00  0.00     0.010 A 
ATOM     40  C   UNL     1      -4.484  -0.479  -6.154  1.00  0.00    -0.014 A 
BRANCH  40  41
ATOM     41  C   UNL     1      -4.910   0.560  -7.121  1.00  0.00     0.031 A 
ATOM     42  C   UNL     1      -5.570   0.122  -8.399  1.00  0.00     0.074 A 
ATOM     43  C   UNL     1      -4.661   1.862  -6.891  1.00  0.00     0.049 A 
ATOM     44  N   UNL     1      -5.898   0.834  -9.444  1.00  0.00    -0.248 NA
ATOM     45  C   UNL     1      -5.897  -1.310  -8.516  1.00  0.00     0.031 C 
ATOM     46  C   UNL     1      -4.057   2.407  -5.675  1.00  0.00     0.029 A 
ATOM     47  N   UNL     1      -4.860   2.961  -7.690  1.00  0.00    -0.354 N 
ATOM     48  C   UNL     1      -6.443  -0.064 -10.354  1.00  0.00     0.074 A 
ATOM     49  C   UNL     1      -6.404  -1.372  -9.739  1.00  0.00     0.031 C 
ATOM     50  C   UNL     1      -3.903   3.735  -5.824  1.00  0.00     0.029 A 
ATOM     51  C   UNL     1      -4.355   4.125  -7.159  1.00  0.00     0.049 A 
ATOM     52  H   UNL     1      -5.319   2.919  -8.560  1.00  0.00     0.167 HD
ATOM     53  C   UNL     1      -6.923   0.182 -11.594  1.00  0.00     0.031 A 
ATOM     54  C   UNL     1      -4.229   5.352  -7.705  1.00  0.00     0.031 A 
ATOM     55  C   UNL     1      -6.954   1.485 -12.201  1.00  0.00     0.049 A 
ATOM     56  C   UNL     1      -4.709   5.582  -9.118  1.00  0.00     0.074 A 
ATOM     57  C   UNL     1      -7.471   1.843 -13.434  1.00  0.00     0.029 A 
ATOM     58  N   UNL     1      -6.431   2.636 -11.635  1.00  0.00    -0.354 N 
ATOM     59  N   UNL     1      -5.290   4.739  -9.940  1.00  0.00    -0.248 NA
ATOM     60  C   UNL     1      -4.513   6.927  -9.680  1.00  0.00     0.031 C 
ATOM     61  C   UNL     1      -7.195   3.196 -13.644  1.00  0.00     0.029 A 
ATOM     62  C   UNL     1      -6.568   3.696 -12.514  1.00  0.00     0.049 A 
ATOM     63  H   UNL     1      -6.023   2.692 -10.741  1.00  0.00     0.167 HD
ATOM     64  C   UNL     1      -5.544   5.458 -11.105  1.00  0.00     0.074 A 
ATOM     65  C   UNL     1      -5.077   6.809 -10.875  1.00  0.00     0.031 C 
ATOM     66  C   UNL     1      -6.106   5.038 -12.266  1.00  0.00     0.031 A 
BRANCH  53  67
ATOM     67  C   UNL     1      -7.416  -0.982 -12.408  1.00  0.00    -0.014 A 
ATOM     68  C   UNL     1      -8.644  -1.604 -12.127  1.00  0.00     0.010 A 
ATOM     69  C   UNL     1      -6.676  -1.397 -13.531  1.00  0.00     0.010 A 
ATOM     70  C   UNL     1      -9.120  -2.628 -12.951  1.00  0.00     0.020 A 
ATOM     71  C   UNL     1      -7.159  -2.403 -14.370  1.00  0.00     0.020 A 
ATOM     72  C   UNL     1      -8.377  -3.016 -14.072  1.00  0.00     0.054 A 
BRANCH  72  73
ATOM     73  S   UNL     1      -9.055  -4.296 -15.163  1.00  0.00     0.124 S 
ATOM     74  O   UNL     1      -8.922  -5.496 -14.341  1.00  0.00    -0.237 OA
ATOM     75  O   UNL     1     -10.424  -3.835 -15.383  1.00  0.00    -0.237 OA
ATOM     76  O   UNL     1      -8.188  -4.247 -16.338  1.00  0.00    -0.744 OA
ENDBRANCH  72  73
ENDBRANCH  53  67
BRANCH  54  77
ATOM     77  C   UNL     1      -3.566   6.452  -6.947  1.00  0.00    -0.014 A 
ATOM     78  C   UNL     1      -4.286   7.594  -6.554  1.00  0.00     0.010 A 
ATOM     79  C   UNL     1      -2.192   6.379  -6.648  1.00  0.00     0.010 A 
ATOM     80  C   UNL     1      -3.640   8.653  -5.908  1.00  0.00     0.020 A 
ATOM     81  C   UNL     1      -1.549   7.420  -5.972  1.00  0.00     0.020 A 
ATOM     82  C   UNL     1      -2.274   8.560  -5.622  1.00  0.00     0.054 A 
BRANCH  82  83
ATOM     83  S   UNL     1      -1.466   9.935  -4.756  1.00  0.00     0.124 S 
ATOM     84  O   UNL     1      -1.381  10.947  -5.803  1.00  0.00    -0.237 OA
ATOM     85  O   UNL     1      -2.406  10.220  -3.674  1.00  0.00    -0.237 OA
ATOM     86  O   UNL     1      -0.192   9.368  -4.322  1.00  0.00    -0.744 OA
ENDBRANCH  82  83
ENDBRANCH  54  77
BRANCH  66  87
ATOM     87  C   UNL     1      -6.275   6.046 -13.372  1.00  0.00    -0.014 A 
ATOM     88  C   UNL     1      -5.171   6.505 -14.112  1.00  0.00     0.010 A 
ATOM     89  C   UNL     1      -7.567   6.470 -13.735  1.00  0.00     0.010 A 
ATOM     90  C   UNL     1      -5.355   7.384 -15.183  1.00  0.00     0.020 A 
ATOM     91  C   UNL     1      -7.758   7.325 -14.823  1.00  0.00     0.020 A 
ATOM     92  C   UNL     1      -6.648   7.784 -15.536  1.00  0.00     0.054 A 
BRANCH  92  93
ATOM     93  S   UNL     1      -6.863   8.871 -16.972  1.00  0.00     0.124 S 
ATOM     94  O   UNL     1      -6.359  10.145 -16.469  1.00  0.00    -0.237 OA
ATOM     95  O   UNL     1      -6.037   8.224 -17.989  1.00  0.00    -0.237 OA
ATOM     96  O   UNL     1      -8.302   8.828 -17.228  1.00  0.00    -0.744 OA
ENDBRANCH  92  93
ENDBRANCH  66  87
ENDBRANCH  40  41
ENDBRANCH  33  35
ENDBRANCH  32  33
ENDBRANCH  31  32
ENDBRANCH  30  31
ENDBRANCH  29  30
ENDBRANCH  28  29
ENDBRANCH  27  28
ENDBRANCH  26  27
ENDBRANCH   1  26
TORSDOF 28
