REMARK SMILES O=C(Nc1ccc2c(c1)OCO2)N[C@H]1C=C[C@@H](C(=O)OCCOCCOCCOCCOC(=O)c2ccc(-c3c4nc(c(-c5ccc(S(=O)(=O)[O-])cc5)c5ccc([nH]5)c(-c5ccc(S(=O)(=O)[O-])cc5)c5nc(c(-c6ccc(S(=O)(=O)[O-])cc6)c6ccc3[nH]6)C=C5)C=C4)cc2)C1
REMARK SMILES IDX 27 1 26 2 25 3 24 4 23 5 22 6 21 7 20 8 18 9 19 10 17 11
REMARK SMILES IDX 14 12 15 13 95 14 16 15 13 16 1 17 2 18 3 19 4 22 5 23 9 24
REMARK SMILES IDX 6 25 8 26 7 27 10 28 12 29 11 30 28 31 29 32 30 33 31 34
REMARK SMILES IDX 32 35 33 36 34 37 35 38 36 39 94 40 37 41 93 42 38 43 39 44
REMARK SMILES IDX 40 45 87 46 41 47 92 48 86 49 88 50 42 51 91 52 85 53 84 54
REMARK SMILES IDX 43 56 73 57 54 58 72 59 55 60 58 61 71 62 89 63 56 64 57 65
REMARK SMILES IDX 70 67 90 68 59 69 44 70 45 71 53 72 46 73 52 74 47 75 48 76
REMARK SMILES IDX 49 77 50 78 51 79 74 80 75 81 83 82 76 83 82 84 77 85 78 86
REMARK SMILES IDX 79 87 80 88 81 89 60 90 61 91 69 92 62 93 68 94 63 95 64 96
REMARK SMILES IDX 65 97 66 98 67 99
REMARK H PARENT 3 20 13 21 88 55 58 66
REMARK Flexibility Score: inf
ROOT
ATOM      1  C   UNL     1       5.205   5.858   1.968  1.00  0.00     0.188 C 
ENDROOT
BRANCH   1   2
ATOM      2  O   UNL     1       4.058   5.350   1.298  1.00  0.00    -0.377 OA
BRANCH   2   3
ATOM      3  C   UNL     1       3.656   5.994   0.109  1.00  0.00     0.188 C 
BRANCH   3   4
ATOM      4  C   UNL     1       2.559   7.058   0.271  1.00  0.00     0.188 C 
BRANCH   4   5
ATOM      5  O   UNL     1       2.307   7.660   1.529  1.00  0.00    -0.376 OA
BRANCH   5   6
ATOM      6  C   UNL     1       2.108   6.876   2.699  1.00  0.00     0.202 C 
BRANCH   6   7
ATOM      7  C   UNL     1       1.318   5.555   2.703  1.00  0.00     0.261 C 
BRANCH   7   8
ATOM      8  O   UNL     1       1.489   4.726   1.546  1.00  0.00    -0.463 OA
BRANCH   8   9
ATOM      9  C   UNL     1       0.404   4.551   0.757  1.00  0.00     0.312 C 
ATOM     10  O   UNL     1      -0.702   5.033   0.986  1.00  0.00    -0.252 OA
BRANCH   9  11
ATOM     11  C   UNL     1       0.718   3.808  -0.544  1.00  0.00     0.124 C 
ATOM     12  C   UNL     1       1.738   1.660  -1.224  1.00  0.00     0.107 C 
ATOM     13  C   UNL     1       0.267   1.558  -1.066  1.00  0.00    -0.006 C 
ATOM     14  C   UNL     1       2.051   3.057  -0.685  1.00  0.00     0.048 C 
ATOM     15  C   UNL     1      -0.294   2.723  -0.733  1.00  0.00    -0.014 C 
BRANCH  12  16
ATOM     16  N   UNL     1       2.555   0.664  -0.565  1.00  0.00    -0.332 N 
ATOM     17  O   UNL     1       0.998  -0.775   0.303  1.00  0.00    -0.248 OA
ATOM     18  C   UNL     1       2.164  -0.438   0.123  1.00  0.00     0.319 C 
ATOM     19  N   UNL     1       3.149  -1.298   0.515  1.00  0.00    -0.308 N 
ATOM     20  H   UNL     1       2.812  -2.175   0.809  1.00  0.00     0.171 HD
ATOM     21  H   UNL     1       3.527   0.805  -0.625  1.00  0.00     0.165 HD
BRANCH  19  22
ATOM     22  C   UNL     1       4.546  -1.180   0.583  1.00  0.00     0.046 A 
ATOM     23  C   UNL     1       5.219   0.033   0.837  1.00  0.00     0.030 A 
ATOM     24  C   UNL     1       5.280  -2.362   0.421  1.00  0.00     0.076 A 
ATOM     25  C   UNL     1       6.620   0.079   0.875  1.00  0.00     0.053 A 
ATOM     26  C   UNL     1       6.655  -2.281   0.433  1.00  0.00     0.167 A 
ATOM     27  C   UNL     1       7.309  -1.094   0.650  1.00  0.00     0.165 A 
ATOM     28  O   UNL     1       7.510  -3.318   0.224  1.00  0.00    -0.454 OA
ATOM     29  O   UNL     1       8.661  -1.234   0.613  1.00  0.00    -0.454 OA
ATOM     30  C   UNL     1       8.781  -2.644   0.325  1.00  0.00     0.468 C 
ENDBRANCH  19  22
ENDBRANCH  12  16
ENDBRANCH   9  11
ENDBRANCH   8   9
ENDBRANCH   7   8
ENDBRANCH   6   7
ENDBRANCH   5   6
ENDBRANCH   4   5
ENDBRANCH   3   4
ENDBRANCH   2   3
ENDBRANCH   1   2
BRANCH   1  31
ATOM     31  C   UNL     1       5.554   7.355   1.831  1.00  0.00     0.188 C 
BRANCH  31  32
ATOM     32  O   UNL     1       5.515   7.855   0.500  1.00  0.00    -0.376 OA
BRANCH  32  33
ATOM     33  C   UNL     1       6.726   7.919  -0.240  1.00  0.00     0.202 C 
BRANCH  33  34
ATOM     34  C   UNL     1       7.411   6.588  -0.602  1.00  0.00     0.261 C 
BRANCH  34  35
ATOM     35  O   UNL     1       7.829   5.769   0.501  1.00  0.00    -0.460 OA
BRANCH  35  36
ATOM     36  C   UNL     1       8.687   6.319   1.384  1.00  0.00     0.338 C 
ATOM     37  O   UNL     1       9.213   7.420   1.301  1.00  0.00    -0.246 OA
BRANCH  36  38
ATOM     38  C   UNL     1       8.736   5.466   2.587  1.00  0.00     0.060 A 
ATOM     39  C   UNL     1       8.404   6.039   3.820  1.00  0.00     0.016 A 
ATOM     40  C   UNL     1       9.130   4.127   2.511  1.00  0.00     0.016 A 
ATOM     41  C   UNL     1       8.530   5.295   4.990  1.00  0.00     0.010 A 
ATOM     42  C   UNL     1       9.272   3.386   3.690  1.00  0.00     0.010 A 
ATOM     43  C   UNL     1       9.020   3.984   4.938  1.00  0.00    -0.014 A 
BRANCH  43  44
ATOM     44  C   UNL     1       9.452   3.337   6.202  1.00  0.00     0.031 A 
ATOM     45  C   UNL     1      10.916   3.356   6.558  1.00  0.00     0.074 A 
ATOM     46  C   UNL     1       8.554   2.825   7.064  1.00  0.00     0.049 A 
ATOM     47  N   UNL     1      11.514   2.924   7.638  1.00  0.00    -0.248 NA
ATOM     48  C   UNL     1      11.828   3.947   5.564  1.00  0.00     0.031 C 
ATOM     49  C   UNL     1       7.107   2.788   6.856  1.00  0.00     0.029 A 
ATOM     50  N   UNL     1       8.733   2.248   8.296  1.00  0.00    -0.354 N 
ATOM     51  C   UNL     1      12.867   3.187   7.454  1.00  0.00     0.074 A 
ATOM     52  C   UNL     1      13.008   3.782   6.143  1.00  0.00     0.031 C 
ATOM     53  C   UNL     1       6.528   2.226   7.931  1.00  0.00     0.029 A 
ATOM     54  C   UNL     1       7.562   1.837   8.888  1.00  0.00     0.049 A 
ATOM     55  H   UNL     1       9.616   2.140   8.717  1.00  0.00     0.167 HD
ATOM     56  C   UNL     1      13.899   2.964   8.302  1.00  0.00     0.031 A 
ATOM     57  C   UNL     1       7.350   1.212  10.063  1.00  0.00     0.031 A 
ATOM     58  C   UNL     1      13.759   2.358   9.600  1.00  0.00     0.049 A 
ATOM     59  C   UNL     1       8.524   0.912  10.960  1.00  0.00     0.074 A 
ATOM     60  C   UNL     1      14.742   2.099  10.539  1.00  0.00     0.029 A 
ATOM     61  N   UNL     1      12.564   1.905  10.139  1.00  0.00    -0.354 N 
ATOM     62  N   UNL     1       9.794   1.193  10.783  1.00  0.00    -0.248 NA
ATOM     63  C   UNL     1       8.231   0.224  12.225  1.00  0.00     0.031 C 
ATOM     64  C   UNL     1      14.153   1.429  11.616  1.00  0.00     0.029 A 
ATOM     65  C   UNL     1      12.790   1.340  11.383  1.00  0.00     0.049 A 
ATOM     66  H   UNL     1      11.685   1.975   9.701  1.00  0.00     0.167 HD
ATOM     67  C   UNL     1      10.446   0.743  11.928  1.00  0.00     0.074 A 
ATOM     68  C   UNL     1       9.426   0.193  12.798  1.00  0.00     0.031 C 
ATOM     69  C   UNL     1      11.768   0.783  12.235  1.00  0.00     0.031 A 
BRANCH  56  70
ATOM     70  C   UNL     1      15.281   3.343   7.833  1.00  0.00    -0.014 A 
ATOM     71  C   UNL     1      15.663   4.689   7.681  1.00  0.00     0.010 A 
ATOM     72  C   UNL     1      16.226   2.333   7.576  1.00  0.00     0.010 A 
ATOM     73  C   UNL     1      16.951   5.014   7.245  1.00  0.00     0.020 A 
ATOM     74  C   UNL     1      17.525   2.655   7.171  1.00  0.00     0.020 A 
ATOM     75  C   UNL     1      17.874   3.995   6.994  1.00  0.00     0.054 A 
BRANCH  75  76
ATOM     76  S   UNL     1      19.546   4.448   6.456  1.00  0.00     0.124 S 
ATOM     77  O   UNL     1      19.305   4.937   5.101  1.00  0.00    -0.237 OA
ATOM     78  O   UNL     1      19.930   5.464   7.432  1.00  0.00    -0.237 OA
ATOM     79  O   UNL     1      20.291   3.194   6.541  1.00  0.00    -0.744 OA
ENDBRANCH  75  76
ENDBRANCH  56  70
BRANCH  57  80
ATOM     80  C   UNL     1       5.969   0.815  10.458  1.00  0.00    -0.014 A 
ATOM     81  C   UNL     1       5.328   1.418  11.555  1.00  0.00     0.010 A 
ATOM     82  C   UNL     1       5.290  -0.184   9.736  1.00  0.00     0.010 A 
ATOM     83  C   UNL     1       4.043   1.015  11.933  1.00  0.00     0.020 A 
ATOM     84  C   UNL     1       3.994  -0.566  10.091  1.00  0.00     0.020 A 
ATOM     85  C   UNL     1       3.382   0.028  11.195  1.00  0.00     0.054 A 
BRANCH  85  86
ATOM     86  S   UNL     1       1.697  -0.442  11.675  1.00  0.00     0.124 S 
ATOM     87  O   UNL     1       1.927  -1.169  12.920  1.00  0.00    -0.237 OA
ATOM     88  O   UNL     1       1.037   0.854  11.810  1.00  0.00    -0.237 OA
ATOM     89  O   UNL     1       1.236  -1.255  10.552  1.00  0.00    -0.744 OA
ENDBRANCH  85  86
ENDBRANCH  57  80
BRANCH  69  90
ATOM     90  C   UNL     1      12.182   0.249  13.584  1.00  0.00    -0.014 A 
ATOM     91  C   UNL     1      12.099  -1.121  13.891  1.00  0.00     0.010 A 
ATOM     92  C   UNL     1      12.682   1.136  14.556  1.00  0.00     0.010 A 
ATOM     93  C   UNL     1      12.449  -1.584  15.163  1.00  0.00     0.020 A 
ATOM     94  C   UNL     1      13.068   0.672  15.816  1.00  0.00     0.020 A 
ATOM     95  C   UNL     1      12.926  -0.682  16.119  1.00  0.00     0.054 A 
BRANCH  95  96
ATOM     96  S   UNL     1      13.374  -1.307  17.762  1.00  0.00     0.124 S 
ATOM     97  O   UNL     1      12.066  -1.593  18.345  1.00  0.00    -0.237 OA
ATOM     98  O   UNL     1      14.191  -2.477  17.448  1.00  0.00    -0.237 OA
ATOM     99  O   UNL     1      14.098  -0.194  18.371  1.00  0.00    -0.744 OA
ENDBRANCH  95  96
ENDBRANCH  69  90
ENDBRANCH  43  44
ENDBRANCH  36  38
ENDBRANCH  35  36
ENDBRANCH  34  35
ENDBRANCH  33  34
ENDBRANCH  32  33
ENDBRANCH  31  32
ENDBRANCH   1  31
TORSDOF 25
