REMARK SMILES Cc1cccc(-n2c(C)cc(/C=N\c3ccc(O)c(C(=O)OCCOCCOCCOCCOC(=O)c4ccc(-c5c6nc(c(-c7ccc(S(=O)(=O)[O-])cc7)c7ccc([nH]7)c(-c7ccc(S(=O)(=O)[O-])cc7)c7nc(c(-c8ccc(S(=O)(=O)[O-])cc8)c8ccc5[nH]8)C=C7)C=C6)cc4)c3)c2C)c1
REMARK SMILES IDX 28 1 27 2 26 3 25 4 24 5 23 6 22 7 20 8 21 9 19 10 14 11
REMARK SMILES IDX 15 12 97 13 16 14 17 15 13 16 12 17 11 18 7 19 8 20 98 21
REMARK SMILES IDX 9 22 10 23 99 24 6 25 1 26 2 27 3 28 100 29 4 30 5 31 18 32
REMARK SMILES IDX 29 34 30 35 31 36 32 37 33 38 34 39 35 40 36 41 37 42 38 43
REMARK SMILES IDX 96 44 39 45 95 46 40 47 41 48 42 49 89 50 43 51 94 52 88 53
REMARK SMILES IDX 90 54 44 55 93 56 87 57 86 58 45 60 75 61 56 62 74 63 57 64
REMARK SMILES IDX 60 65 73 66 91 67 58 68 59 69 72 71 92 72 61 73 46 74 47 75
REMARK SMILES IDX 55 76 48 77 54 78 49 79 50 80 51 81 52 82 53 83 76 84 77 85
REMARK SMILES IDX 85 86 78 87 84 88 79 89 80 90 81 91 82 92 83 93 62 94 63 95
REMARK SMILES IDX 71 96 64 97 70 98 65 99 66 100 67 101 68 102 69 103
REMARK H PARENT 18 33 90 59 60 70
REMARK Flexibility Score: inf
ROOT
ATOM      1  O   UNL     1      -5.383   1.268   7.013  1.00  0.00    -0.377 OA
ENDROOT
BRANCH   1   2
ATOM      2  C   UNL     1      -5.531   2.625   6.661  1.00  0.00     0.188 C 
BRANCH   2   3
ATOM      3  C   UNL     1      -6.761   2.980   5.789  1.00  0.00     0.188 C 
BRANCH   3   4
ATOM      4  O   UNL     1      -7.833   2.078   5.530  1.00  0.00    -0.376 OA
BRANCH   4   5
ATOM      5  C   UNL     1      -7.585   0.718   5.220  1.00  0.00     0.202 C 
BRANCH   5   6
ATOM      6  C   UNL     1      -7.601   0.416   3.744  1.00  0.00     0.261 C 
BRANCH   6   7
ATOM      7  O   UNL     1      -6.229   0.394   3.357  1.00  0.00    -0.460 OA
BRANCH   7   8
ATOM      8  C   UNL     1      -5.962   1.446   2.585  1.00  0.00     0.342 C 
ATOM      9  O   UNL     1      -6.598   1.800   1.617  1.00  0.00    -0.246 OA
BRANCH   8  10
ATOM     10  C   UNL     1      -4.877   2.222   3.218  1.00  0.00     0.103 A 
ATOM     11  C   UNL     1      -3.716   4.291   2.940  1.00  0.00     0.064 A 
ATOM     12  C   UNL     1      -2.723   3.895   3.832  1.00  0.00     0.032 A 
ATOM     13  C   UNL     1      -4.853   3.527   2.761  1.00  0.00     0.048 A 
ATOM     14  C   UNL     1      -2.786   2.619   4.395  1.00  0.00     0.049 A 
ATOM     15  C   UNL     1      -3.833   1.760   4.034  1.00  0.00     0.130 A 
BRANCH  11  16
ATOM     16  N   UNL     1      -3.626   5.400   2.128  1.00  0.00    -0.256 NA
ATOM     17  C   UNL     1      -3.284   5.274   0.877  1.00  0.00     0.121 C 
BRANCH  17  18
ATOM     18  C   UNL     1      -2.667   4.207   0.062  1.00  0.00     0.014 A 
ATOM     19  N   UNL     1      -1.566   2.447  -0.887  1.00  0.00    -0.318 N 
ATOM     20  C   UNL     1      -1.360   3.538  -1.698  1.00  0.00     0.021 A 
ATOM     21  C   UNL     1      -2.390   2.836   0.166  1.00  0.00     0.029 A 
ATOM     22  C   UNL     1      -0.499   3.512  -2.898  1.00  0.00     0.065 C 
ATOM     23  C   UNL     1      -2.103   4.580  -1.197  1.00  0.00     0.033 A 
ATOM     24  C   UNL     1      -2.717   1.811   1.175  1.00  0.00     0.065 C 
BRANCH  19  25
ATOM     25  C   UNL     1      -0.863   1.207  -0.936  1.00  0.00     0.046 A 
ATOM     26  C   UNL     1       2.620  -0.003  -0.007  1.00  0.00     0.044 C 
ATOM     27  C   UNL     1       1.161   0.010  -0.349  1.00  0.00    -0.049 A 
ATOM     28  C   UNL     1       0.437  -1.191  -0.362  1.00  0.00     0.003 A 
ATOM     29  C   UNL     1       0.504   1.214  -0.634  1.00  0.00     0.030 A 
ATOM     30  C   UNL     1      -0.921  -1.199  -0.685  1.00  0.00     0.002 A 
ATOM     31  C   UNL     1      -1.570  -0.003  -0.995  1.00  0.00     0.026 A 
ENDBRANCH  19  25
ENDBRANCH  17  18
ENDBRANCH  11  16
BRANCH  15  32
ATOM     32  O   UNL     1      -3.703   0.473   4.451  1.00  0.00    -0.507 OA
ATOM     33  H   UNL     1      -2.981   0.228   4.996  1.00  0.00     0.293 HD
ENDBRANCH  15  32
ENDBRANCH   8  10
ENDBRANCH   7   8
ENDBRANCH   6   7
ENDBRANCH   5   6
ENDBRANCH   4   5
ENDBRANCH   3   4
ENDBRANCH   2   3
ENDBRANCH   1   2
BRANCH   1  34
ATOM     34  C   UNL     1      -6.122   0.868   8.158  1.00  0.00     0.188 C 
BRANCH  34  35
ATOM     35  C   UNL     1      -7.392   1.637   8.489  1.00  0.00     0.188 C 
BRANCH  35  36
ATOM     36  O   UNL     1      -7.207   2.949   8.959  1.00  0.00    -0.376 OA
BRANCH  36  37
ATOM     37  C   UNL     1      -6.761   3.080  10.309  1.00  0.00     0.202 C 
BRANCH  37  38
ATOM     38  C   UNL     1      -6.530   1.843  11.230  1.00  0.00     0.261 C 
BRANCH  38  39
ATOM     39  O   UNL     1      -7.745   1.061  11.383  1.00  0.00    -0.460 OA
BRANCH  39  40
ATOM     40  C   UNL     1      -7.613  -0.239  11.800  1.00  0.00     0.338 C 
ATOM     41  O   UNL     1      -7.257  -0.588  12.909  1.00  0.00    -0.246 OA
BRANCH  40  42
ATOM     42  C   UNL     1      -8.080  -1.172  10.720  1.00  0.00     0.060 A 
ATOM     43  C   UNL     1      -7.412  -2.370  10.446  1.00  0.00     0.016 A 
ATOM     44  C   UNL     1      -9.056  -0.737   9.833  1.00  0.00     0.016 A 
ATOM     45  C   UNL     1      -7.517  -2.957   9.170  1.00  0.00     0.010 A 
ATOM     46  C   UNL     1      -9.046  -1.227   8.535  1.00  0.00     0.010 A 
ATOM     47  C   UNL     1      -8.222  -2.294   8.161  1.00  0.00    -0.014 A 
BRANCH  47  48
ATOM     48  C   UNL     1      -7.991  -2.482   6.709  1.00  0.00     0.031 A 
ATOM     49  C   UNL     1      -9.155  -2.501   5.754  1.00  0.00     0.074 A 
ATOM     50  C   UNL     1      -6.726  -2.311   6.224  1.00  0.00     0.049 A 
ATOM     51  N   UNL     1      -9.038  -2.598   4.477  1.00  0.00    -0.248 NA
ATOM     52  C   UNL     1     -10.557  -2.308   6.124  1.00  0.00     0.031 C 
ATOM     53  C   UNL     1      -6.295  -2.179   4.836  1.00  0.00     0.029 A 
ATOM     54  N   UNL     1      -5.509  -2.250   6.897  1.00  0.00    -0.354 N 
ATOM     55  C   UNL     1     -10.201  -2.190   3.858  1.00  0.00     0.074 A 
ATOM     56  C   UNL     1     -11.136  -2.044   4.943  1.00  0.00     0.031 C 
ATOM     57  C   UNL     1      -4.962  -2.209   4.719  1.00  0.00     0.029 A 
ATOM     58  C   UNL     1      -4.459  -2.553   6.017  1.00  0.00     0.049 A 
ATOM     59  H   UNL     1      -5.402  -2.028   7.851  1.00  0.00     0.167 HD
ATOM     60  C   UNL     1     -10.171  -1.947   2.509  1.00  0.00     0.031 A 
ATOM     61  C   UNL     1      -3.775  -3.703   6.244  1.00  0.00     0.031 A 
ATOM     62  C   UNL     1      -8.888  -2.421   1.926  1.00  0.00     0.049 A 
ATOM     63  C   UNL     1      -4.299  -4.748   5.221  1.00  0.00     0.074 A 
ATOM     64  C   UNL     1      -7.859  -1.856   1.191  1.00  0.00     0.029 A 
ATOM     65  N   UNL     1      -8.406  -3.678   2.322  1.00  0.00    -0.354 N 
ATOM     66  N   UNL     1      -5.521  -4.733   4.703  1.00  0.00    -0.248 NA
ATOM     67  C   UNL     1      -3.409  -5.593   4.424  1.00  0.00     0.031 C 
ATOM     68  C   UNL     1      -6.707  -2.706   1.328  1.00  0.00     0.029 A 
ATOM     69  C   UNL     1      -7.043  -3.814   2.105  1.00  0.00     0.049 A 
ATOM     70  H   UNL     1      -8.972  -4.383   2.711  1.00  0.00     0.167 HD
ATOM     71  C   UNL     1      -5.515  -5.303   3.443  1.00  0.00     0.074 A 
ATOM     72  C   UNL     1      -4.184  -5.905   3.365  1.00  0.00     0.031 C 
ATOM     73  C   UNL     1      -6.380  -5.098   2.383  1.00  0.00     0.031 A 
BRANCH  60  74
ATOM     74  C   UNL     1     -11.236  -1.178   1.714  1.00  0.00    -0.014 A 
ATOM     75  C   UNL     1     -11.061  -0.956   0.329  1.00  0.00     0.010 A 
ATOM     76  C   UNL     1     -12.408  -0.605   2.260  1.00  0.00     0.010 A 
ATOM     77  C   UNL     1     -11.995  -0.249  -0.460  1.00  0.00     0.020 A 
ATOM     78  C   UNL     1     -13.364   0.087   1.481  1.00  0.00     0.020 A 
ATOM     79  C   UNL     1     -13.155   0.256   0.118  1.00  0.00     0.054 A 
BRANCH  79  80
ATOM     80  S   UNL     1     -14.383   1.095  -0.930  1.00  0.00     0.124 S 
ATOM     81  O   UNL     1     -13.646   2.255  -1.423  1.00  0.00    -0.237 OA
ATOM     82  O   UNL     1     -14.695   0.077  -1.931  1.00  0.00    -0.237 OA
ATOM     83  O   UNL     1     -15.476   1.404  -0.009  1.00  0.00    -0.744 OA
ENDBRANCH  79  80
ENDBRANCH  60  74
BRANCH  61  84
ATOM     84  C   UNL     1      -3.203  -3.606   7.649  1.00  0.00    -0.014 A 
ATOM     85  C   UNL     1      -2.187  -2.608   7.785  1.00  0.00     0.010 A 
ATOM     86  C   UNL     1      -3.972  -3.846   8.810  1.00  0.00     0.010 A 
ATOM     87  C   UNL     1      -2.089  -1.764   8.913  1.00  0.00     0.020 A 
ATOM     88  C   UNL     1      -3.862  -3.007   9.958  1.00  0.00     0.020 A 
ATOM     89  C   UNL     1      -2.961  -1.937   9.979  1.00  0.00     0.054 A 
BRANCH  89  90
ATOM     90  S   UNL     1      -3.021  -0.654  11.284  1.00  0.00     0.124 S 
ATOM     91  O   UNL     1      -1.789  -0.900  12.025  1.00  0.00    -0.237 OA
ATOM     92  O   UNL     1      -3.060   0.594  10.523  1.00  0.00    -0.237 OA
ATOM     93  O   UNL     1      -4.259  -0.957  11.993  1.00  0.00    -0.744 OA
ENDBRANCH  89  90
ENDBRANCH  61  84
BRANCH  73  94
ATOM     94  C   UNL     1      -6.763  -6.229   1.435  1.00  0.00    -0.014 A 
ATOM     95  C   UNL     1      -6.333  -7.549   1.599  1.00  0.00     0.010 A 
ATOM     96  C   UNL     1      -7.770  -6.002   0.454  1.00  0.00     0.010 A 
ATOM     97  C   UNL     1      -6.863  -8.582   0.817  1.00  0.00     0.020 A 
ATOM     98  C   UNL     1      -8.352  -7.031  -0.282  1.00  0.00     0.020 A 
ATOM     99  C   UNL     1      -7.877  -8.319  -0.107  1.00  0.00     0.054 A 
BRANCH  99 100
ATOM    100  S   UNL     1      -8.592  -9.687  -1.038  1.00  0.00     0.124 S 
ATOM    101  O   UNL     1      -7.544  -9.955  -2.020  1.00  0.00    -0.237 OA
ATOM    102  O   UNL     1      -8.769 -10.711  -0.011  1.00  0.00    -0.237 OA
ATOM    103  O   UNL     1      -9.831  -9.134  -1.578  1.00  0.00    -0.744 OA
ENDBRANCH  99 100
ENDBRANCH  73  94
ENDBRANCH  47  48
ENDBRANCH  40  42
ENDBRANCH  39  40
ENDBRANCH  38  39
ENDBRANCH  37  38
ENDBRANCH  36  37
ENDBRANCH  35  36
ENDBRANCH  34  35
ENDBRANCH   1  34
TORSDOF 27
