REMARK SMILES CC(=O)Nc1ccc2sc(C(=O)OCCOCCOCCOCCOC(=O)c3ccc(-c4c5nc(c(-c6ccc(S(=O)(=O)[O-])cc6)c6ccc([nH]6)c(-c6ccc(S(=O)(=O)[O-])cc6)c6nc(c(-c7ccc(S(=O)(=O)[O-])cc7)c7ccc4[nH]7)C=C6)C=C5)cc3)cc2c1
REMARK SMILES IDX 20 1 19 2 18 3 17 4 16 5 15 6 14 7 13 8 11 9 12 10 10 11
REMARK SMILES IDX 5 12 6 13 90 14 7 15 89 16 8 17 88 18 9 19 4 20 1 21 2 22
REMARK SMILES IDX 3 23 21 25 22 26 23 27 24 28 25 29 26 30 27 31 28 32 29 33
REMARK SMILES IDX 87 34 30 35 86 36 31 37 32 38 33 39 80 40 34 41 85 42 79 43
REMARK SMILES IDX 81 44 35 45 84 46 78 47 77 48 36 50 66 51 47 52 65 53 48 54
REMARK SMILES IDX 51 55 64 56 82 57 49 58 50 59 63 61 83 62 52 63 37 64 38 65
REMARK SMILES IDX 46 66 39 67 45 68 40 69 41 70 42 71 43 72 44 73 67 74 68 75
REMARK SMILES IDX 76 76 69 77 75 78 70 79 71 80 72 81 73 82 74 83 53 84 54 85
REMARK SMILES IDX 62 86 55 87 61 88 56 89 57 90 58 91 59 92 60 93
REMARK H PARENT 4 24 81 49 51 60
REMARK Flexibility Score: inf
ROOT
ATOM      1  C   UNL     1       5.109 -10.668  -0.695  1.00  0.00     0.188 C 
ENDROOT
BRANCH   1   2
ATOM      2  O   UNL     1       4.697  -9.306  -0.710  1.00  0.00    -0.377 OA
BRANCH   2   3
ATOM      3  C   UNL     1       3.499  -8.925  -0.062  1.00  0.00     0.188 C 
BRANCH   3   4
ATOM      4  C   UNL     1       2.206  -9.648  -0.471  1.00  0.00     0.188 C 
BRANCH   4   5
ATOM      5  O   UNL     1       2.385 -10.666  -1.452  1.00  0.00    -0.376 OA
BRANCH   5   6
ATOM      6  C   UNL     1       1.859 -10.394  -2.745  1.00  0.00     0.202 C 
BRANCH   6   7
ATOM      7  C   UNL     1       2.736  -9.464  -3.593  1.00  0.00     0.261 C 
BRANCH   7   8
ATOM      8  O   UNL     1       2.879  -8.141  -3.057  1.00  0.00    -0.459 OA
BRANCH   8   9
ATOM      9  C   UNL     1       1.749  -7.401  -2.936  1.00  0.00     0.348 C 
ATOM     10  O   UNL     1       0.638  -7.748  -3.321  1.00  0.00    -0.245 OA
BRANCH   9  11
ATOM     11  C   UNL     1       2.005  -6.245  -2.108  1.00  0.00     0.113 A 
ATOM     12  C   UNL     1       1.732  -2.537   0.826  1.00  0.00     0.041 A 
ATOM     13  C   UNL     1       2.941  -2.173   0.243  1.00  0.00     0.027 A 
ATOM     14  C   UNL     1       1.160  -3.778   0.540  1.00  0.00     0.035 A 
ATOM     15  C   UNL     1       3.563  -3.004  -0.692  1.00  0.00     0.022 A 
ATOM     16  C   UNL     1       1.709  -4.583  -0.485  1.00  0.00    -0.005 A 
ATOM     17  C   UNL     1       2.908  -4.186  -1.079  1.00  0.00     0.035 A 
ATOM     18  C   UNL     1       1.200  -5.772  -1.095  1.00  0.00     0.036 A 
ATOM     19  S   UNL     1       3.411  -5.301  -2.289  1.00  0.00    -0.128 S 
BRANCH  12  20
ATOM     20  N   UNL     1       1.027  -1.687   1.687  1.00  0.00    -0.326 N 
ATOM     21  C   UNL     1       1.148   0.327   0.237  1.00  0.00     0.114 C 
ATOM     22  C   UNL     1       0.790  -0.346   1.539  1.00  0.00     0.221 C 
ATOM     23  O   UNL     1       0.214   0.271   2.436  1.00  0.00    -0.275 OA
ATOM     24  H   UNL     1       0.657  -2.104   2.498  1.00  0.00     0.169 HD
ENDBRANCH  12  20
ENDBRANCH   9  11
ENDBRANCH   8   9
ENDBRANCH   7   8
ENDBRANCH   6   7
ENDBRANCH   5   6
ENDBRANCH   4   5
ENDBRANCH   3   4
ENDBRANCH   2   3
ENDBRANCH   1   2
BRANCH   1  25
ATOM     25  C   UNL     1       4.508 -11.692   0.290  1.00  0.00     0.188 C 
BRANCH  25  26
ATOM     26  O   UNL     1       4.013 -11.139   1.506  1.00  0.00    -0.376 OA
BRANCH  26  27
ATOM     27  C   UNL     1       4.767 -11.438   2.674  1.00  0.00     0.202 C 
BRANCH  27  28
ATOM     28  C   UNL     1       6.009 -10.555   2.824  1.00  0.00     0.261 C 
BRANCH  28  29
ATOM     29  O   UNL     1       7.012 -10.760   1.818  1.00  0.00    -0.460 OA
BRANCH  29  30
ATOM     30  C   UNL     1       7.554 -11.996   1.741  1.00  0.00     0.338 C 
ATOM     31  O   UNL     1       7.315 -12.953   2.454  1.00  0.00    -0.246 OA
BRANCH  30  32
ATOM     32  C   UNL     1       8.377 -12.046   0.520  1.00  0.00     0.060 A 
ATOM     33  C   UNL     1       8.121 -13.045  -0.428  1.00  0.00     0.016 A 
ATOM     34  C   UNL     1       9.392 -11.108   0.316  1.00  0.00     0.016 A 
ATOM     35  C   UNL     1       8.914 -13.130  -1.572  1.00  0.00     0.010 A 
ATOM     36  C   UNL     1      10.192 -11.203  -0.821  1.00  0.00     0.010 A 
ATOM     37  C   UNL     1       9.977 -12.234  -1.751  1.00  0.00    -0.014 A 
BRANCH  37  38
ATOM     38  C   UNL     1      10.992 -12.486  -2.798  1.00  0.00     0.031 A 
ATOM     39  C   UNL     1      12.221 -13.265  -2.421  1.00  0.00     0.074 A 
ATOM     40  C   UNL     1      10.834 -12.028  -4.051  1.00  0.00     0.049 A 
ATOM     41  N   UNL     1      13.255 -13.586  -3.151  1.00  0.00    -0.248 NA
ATOM     42  C   UNL     1      12.288 -13.745  -1.030  1.00  0.00     0.031 C 
ATOM     43  C   UNL     1       9.671 -11.294  -4.546  1.00  0.00     0.029 A 
ATOM     44  N   UNL     1      11.669 -12.114  -5.136  1.00  0.00    -0.354 N 
ATOM     45  C   UNL     1      14.096 -14.308  -2.312  1.00  0.00     0.074 A 
ATOM     46  C   UNL     1      13.466 -14.348  -1.010  1.00  0.00     0.031 C 
ATOM     47  C   UNL     1       9.867 -10.996  -5.843  1.00  0.00     0.029 A 
ATOM     48  C   UNL     1      11.180 -11.490  -6.257  1.00  0.00     0.049 A 
ATOM     49  H   UNL     1      12.537 -12.579  -5.113  1.00  0.00     0.167 HD
ATOM     50  C   UNL     1      15.284 -14.891  -2.599  1.00  0.00     0.031 A 
ATOM     51  C   UNL     1      11.737 -11.327  -7.474  1.00  0.00     0.031 A 
ATOM     52  C   UNL     1      15.930 -14.813  -3.879  1.00  0.00     0.049 A 
ATOM     53  C   UNL     1      13.105 -11.897  -7.743  1.00  0.00     0.074 A 
ATOM     54  C   UNL     1      17.137 -15.364  -4.271  1.00  0.00     0.029 A 
ATOM     55  N   UNL     1      15.428 -14.125  -4.974  1.00  0.00    -0.354 N 
ATOM     56  N   UNL     1      13.879 -12.598  -6.949  1.00  0.00    -0.248 NA
ATOM     57  C   UNL     1      13.674 -11.653  -9.077  1.00  0.00     0.031 C 
ATOM     58  C   UNL     1      17.388 -14.966  -5.590  1.00  0.00     0.029 A 
ATOM     59  C   UNL     1      16.312 -14.213  -6.035  1.00  0.00     0.049 A 
ATOM     60  H   UNL     1      14.569 -13.645  -4.993  1.00  0.00     0.167 HD
ATOM     61  C   UNL     1      15.013 -12.903  -7.694  1.00  0.00     0.074 A 
ATOM     62  C   UNL     1      14.822 -12.313  -9.004  1.00  0.00     0.031 C 
ATOM     63  C   UNL     1      16.110 -13.613  -7.330  1.00  0.00     0.031 A 
BRANCH  50  64
ATOM     64  C   UNL     1      15.966 -15.622  -1.475  1.00  0.00    -0.014 A 
ATOM     65  C   UNL     1      15.461 -16.844  -0.994  1.00  0.00     0.010 A 
ATOM     66  C   UNL     1      17.108 -15.065  -0.873  1.00  0.00     0.010 A 
ATOM     67  C   UNL     1      16.050 -17.465   0.110  1.00  0.00     0.020 A 
ATOM     68  C   UNL     1      17.716 -15.697   0.215  1.00  0.00     0.020 A 
ATOM     69  C   UNL     1      17.166 -16.880   0.716  1.00  0.00     0.054 A 
BRANCH  69  70
ATOM     70  S   UNL     1      17.896 -17.688   2.166  1.00  0.00     0.124 S 
ATOM     71  O   UNL     1      16.944 -17.335   3.217  1.00  0.00    -0.237 OA
ATOM     72  O   UNL     1      17.909 -19.096   1.780  1.00  0.00    -0.237 OA
ATOM     73  O   UNL     1      19.213 -17.066   2.283  1.00  0.00    -0.744 OA
ENDBRANCH  69  70
ENDBRANCH  50  64
BRANCH  51  74
ATOM     74  C   UNL     1      10.994 -10.595  -8.534  1.00  0.00    -0.014 A 
ATOM     75  C   UNL     1      10.442 -11.291  -9.623  1.00  0.00     0.010 A 
ATOM     76  C   UNL     1      10.814  -9.203  -8.448  1.00  0.00     0.010 A 
ATOM     77  C   UNL     1       9.723 -10.607 -10.609  1.00  0.00     0.020 A 
ATOM     78  C   UNL     1      10.078  -8.519  -9.420  1.00  0.00     0.020 A 
ATOM     79  C   UNL     1       9.541  -9.226 -10.498  1.00  0.00     0.054 A 
BRANCH  79  80
ATOM     80  S   UNL     1       8.538  -8.373 -11.747  1.00  0.00     0.124 S 
ATOM     81  O   UNL     1       9.438  -8.352 -12.896  1.00  0.00    -0.237 OA
ATOM     82  O   UNL     1       7.375  -9.249 -11.869  1.00  0.00    -0.237 OA
ATOM     83  O   UNL     1       8.267  -7.073 -11.138  1.00  0.00    -0.744 OA
ENDBRANCH  79  80
ENDBRANCH  51  74
BRANCH  63  84
ATOM     84  C   UNL     1      17.181 -13.820  -8.368  1.00  0.00    -0.014 A 
ATOM     85  C   UNL     1      18.048 -12.777  -8.738  1.00  0.00     0.010 A 
ATOM     86  C   UNL     1      17.362 -15.096  -8.931  1.00  0.00     0.010 A 
ATOM     87  C   UNL     1      19.062 -13.002  -9.674  1.00  0.00     0.020 A 
ATOM     88  C   UNL     1      18.390 -15.331  -9.848  1.00  0.00     0.020 A 
ATOM     89  C   UNL     1      19.227 -14.277 -10.223  1.00  0.00     0.054 A 
BRANCH  89  90
ATOM     90  S   UNL     1      20.582 -14.559 -11.396  1.00  0.00     0.124 S 
ATOM     91  O   UNL     1      20.067 -13.934 -12.611  1.00  0.00    -0.237 OA
ATOM     92  O   UNL     1      21.705 -13.871 -10.762  1.00  0.00    -0.237 OA
ATOM     93  O   UNL     1      20.701 -16.014 -11.445  1.00  0.00    -0.744 OA
ENDBRANCH  89  90
ENDBRANCH  63  84
ENDBRANCH  37  38
ENDBRANCH  30  32
ENDBRANCH  29  30
ENDBRANCH  28  29
ENDBRANCH  27  28
ENDBRANCH  26  27
ENDBRANCH  25  26
ENDBRANCH   1  25
TORSDOF 24
