REMARK SMILES Cc1cc(C(=O)OCCOCCOCCOCCOC(=O)c2ccc(-c3c4nc(c(-c5ccc(S(=O)(=O)[O-])cc5)c5ccc([nH]5)c(-c5ccc(S(=O)(=O)[O-])cc5)c5nc(c(-c6ccc(S(=O)(=O)[O-])cc6)c6ccc3[nH]6)C=C5)C=C4)cc2)ccc1NC(=O)c1ccc(=O)n(CCOc2ccccc2)n1
REMARK SMILES IDX 11 1 10 2 9 3 8 4 7 5 5 6 6 7 4 8 1 9 2 10 3 11 84 12 83 13
REMARK SMILES IDX 82 14 85 15 86 16 87 18 88 19 89 20 103 21 90 22 93 23 91 24
REMARK SMILES IDX 92 25 94 26 95 27 96 28 97 29 98 30 102 31 99 32 101 33
REMARK SMILES IDX 100 34 12 35 13 36 14 37 15 38 16 39 17 40 18 41 19 42 20 43
REMARK SMILES IDX 21 44 22 45 23 46 81 47 24 48 80 49 25 50 26 51 27 52 74 53
REMARK SMILES IDX 28 54 79 55 73 56 75 57 29 58 78 59 72 60 71 61 30 63 60 64
REMARK SMILES IDX 41 65 59 66 42 67 45 68 58 69 76 70 43 71 44 72 57 74 77 75
REMARK SMILES IDX 46 76 31 77 32 78 40 79 33 80 39 81 34 82 35 83 36 84 37 85
REMARK SMILES IDX 38 86 61 87 62 88 70 89 63 90 69 91 64 92 65 93 66 94 67 95
REMARK SMILES IDX 68 96 47 97 48 98 56 99 49 100 55 101 50 102 51 103 52 104
REMARK SMILES IDX 53 105 54 106
REMARK H PARENT 85 17 75 62 45 73
REMARK Flexibility Score: inf
ROOT
ATOM      1  C   UNL     1       0.365  -2.183  -2.009  1.00  0.00     0.188 C 
ENDROOT
BRANCH   1   2
ATOM      2  O   UNL     1       0.235  -3.599  -1.991  1.00  0.00    -0.376 OA
BRANCH   2   3
ATOM      3  C   UNL     1      -0.639  -4.107  -0.981  1.00  0.00     0.202 C 
BRANCH   3   4
ATOM      4  C   UNL     1      -0.112  -4.067   0.456  1.00  0.00     0.261 C 
BRANCH   4   5
ATOM      5  O   UNL     1      -0.281  -2.750   0.972  1.00  0.00    -0.460 OA
BRANCH   5   6
ATOM      6  C   UNL     1       0.745  -2.284   1.710  1.00  0.00     0.338 C 
ATOM      7  O   UNL     1       1.581  -2.911   2.324  1.00  0.00    -0.246 OA
BRANCH   6   8
ATOM      8  C   UNL     1       0.880  -0.866   1.338  1.00  0.00     0.060 A 
ATOM      9  C   UNL     1       3.756   1.163   0.005  1.00  0.00     0.046 C 
ATOM     10  C   UNL     1       2.363   0.880   0.497  1.00  0.00    -0.027 A 
ATOM     11  C   UNL     1       2.163  -0.393   1.064  1.00  0.00     0.021 A 
ATOM     12  C   UNL     1       1.249   1.714   0.276  1.00  0.00     0.044 A 
ATOM     13  C   UNL     1      -0.015   1.142   0.415  1.00  0.00     0.027 A 
ATOM     14  C   UNL     1      -0.220  -0.108   0.977  1.00  0.00     0.018 A 
BRANCH  12  15
ATOM     15  N   UNL     1       1.437   3.094   0.017  1.00  0.00    -0.320 N 
ATOM     16  C   UNL     1       0.545   4.158   0.001  1.00  0.00     0.276 C 
ATOM     17  H   UNL     1       2.367   3.344  -0.187  1.00  0.00     0.170 HD
ATOM     18  O   UNL     1       0.937   5.320  -0.059  1.00  0.00    -0.267 OA
BRANCH  16  19
ATOM     19  C   UNL     1      -0.944   3.894  -0.087  1.00  0.00     0.149 A 
ATOM     20  C   UNL     1      -1.434   3.749  -1.470  1.00  0.00     0.042 A 
ATOM     21  N   UNL     1      -1.659   3.722   0.988  1.00  0.00    -0.164 NA
ATOM     22  C   UNL     1      -2.553   3.040  -1.613  1.00  0.00     0.076 A 
ATOM     23  N   UNL     1      -2.913   3.131   0.791  1.00  0.00    -0.226 N 
ATOM     24  C   UNL     1      -3.288   2.550  -0.422  1.00  0.00     0.266 A 
ATOM     25  O   UNL     1      -4.217   1.764  -0.577  1.00  0.00    -0.268 OA
BRANCH  23  26
ATOM     26  C   UNL     1      -3.754   2.918   1.972  1.00  0.00     0.190 C 
BRANCH  26  27
ATOM     27  C   UNL     1      -4.605   4.146   2.337  1.00  0.00     0.253 C 
BRANCH  27  28
ATOM     28  O   UNL     1      -5.827   4.235   1.570  1.00  0.00    -0.492 OA
BRANCH  28  29
ATOM     29  C   UNL     1      -5.761   5.220   0.625  1.00  0.00     0.119 A 
ATOM     30  C   UNL     1      -6.146   6.524   0.912  1.00  0.00     0.046 A 
ATOM     31  C   UNL     1      -5.377   4.890  -0.668  1.00  0.00     0.046 A 
ATOM     32  C   UNL     1      -6.021   7.510  -0.074  1.00  0.00     0.004 A 
ATOM     33  C   UNL     1      -5.170   5.875  -1.627  1.00  0.00     0.004 A 
ATOM     34  C   UNL     1      -5.487   7.194  -1.326  1.00  0.00     0.000 A 
ENDBRANCH  28  29
ENDBRANCH  27  28
ENDBRANCH  26  27
ENDBRANCH  23  26
ENDBRANCH  16  19
ENDBRANCH  12  15
ENDBRANCH   6   8
ENDBRANCH   5   6
ENDBRANCH   4   5
ENDBRANCH   3   4
ENDBRANCH   2   3
ENDBRANCH   1   2
BRANCH   1  35
ATOM     35  C   UNL     1      -0.532  -1.380  -2.959  1.00  0.00     0.188 C 
BRANCH  35  36
ATOM     36  O   UNL     1      -1.873  -1.139  -2.558  1.00  0.00    -0.377 OA
BRANCH  36  37
ATOM     37  C   UNL     1      -2.898  -2.017  -3.049  1.00  0.00     0.188 C 
BRANCH  37  38
ATOM     38  C   UNL     1      -2.751  -2.562  -4.468  1.00  0.00     0.188 C 
BRANCH  38  39
ATOM     39  O   UNL     1      -1.833  -3.664  -4.425  1.00  0.00    -0.376 OA
BRANCH  39  40
ATOM     40  C   UNL     1      -1.146  -3.935  -5.639  1.00  0.00     0.202 C 
BRANCH  40  41
ATOM     41  C   UNL     1      -2.053  -4.355  -6.800  1.00  0.00     0.261 C 
BRANCH  41  42
ATOM     42  O   UNL     1      -2.396  -5.755  -6.732  1.00  0.00    -0.460 OA
BRANCH  42  43
ATOM     43  C   UNL     1      -3.701  -6.026  -6.442  1.00  0.00     0.338 C 
ATOM     44  O   UNL     1      -4.542  -6.277  -7.287  1.00  0.00    -0.246 OA
BRANCH  43  45
ATOM     45  C   UNL     1      -3.908  -6.149  -4.977  1.00  0.00     0.060 A 
ATOM     46  C   UNL     1      -5.151  -5.897  -4.383  1.00  0.00     0.016 A 
ATOM     47  C   UNL     1      -2.815  -6.444  -4.175  1.00  0.00     0.016 A 
ATOM     48  C   UNL     1      -5.262  -5.799  -2.982  1.00  0.00     0.010 A 
ATOM     49  C   UNL     1      -2.920  -6.291  -2.808  1.00  0.00     0.010 A 
ATOM     50  C   UNL     1      -4.124  -5.931  -2.182  1.00  0.00    -0.014 A 
BRANCH  50  51
ATOM     51  C   UNL     1      -4.001  -5.550  -0.755  1.00  0.00     0.031 A 
ATOM     52  C   UNL     1      -3.256  -6.428   0.216  1.00  0.00     0.074 A 
ATOM     53  C   UNL     1      -4.179  -4.239  -0.441  1.00  0.00     0.049 A 
ATOM     54  N   UNL     1      -3.022  -6.125   1.451  1.00  0.00    -0.248 NA
ATOM     55  C   UNL     1      -2.693  -7.740  -0.121  1.00  0.00     0.031 C 
ATOM     56  C   UNL     1      -3.495  -3.494   0.623  1.00  0.00     0.029 A 
ATOM     57  N   UNL     1      -4.981  -3.261  -1.022  1.00  0.00    -0.354 N 
ATOM     58  C   UNL     1      -2.012  -6.942   1.918  1.00  0.00     0.074 A 
ATOM     59  C   UNL     1      -1.931  -8.005   0.948  1.00  0.00     0.031 C 
ATOM     60  C   UNL     1      -3.973  -2.246   0.697  1.00  0.00     0.029 A 
ATOM     61  C   UNL     1      -5.178  -2.229  -0.098  1.00  0.00     0.049 A 
ATOM     62  H   UNL     1      -5.350  -3.290  -1.934  1.00  0.00     0.167 HD
ATOM     63  C   UNL     1      -1.252  -6.540   2.982  1.00  0.00     0.031 A 
ATOM     64  C   UNL     1      -6.397  -1.899   0.420  1.00  0.00     0.031 A 
ATOM     65  C   UNL     1      -1.790  -5.328   3.628  1.00  0.00     0.049 A 
ATOM     66  C   UNL     1      -6.438  -2.203   1.906  1.00  0.00     0.074 A 
ATOM     67  C   UNL     1      -1.253  -4.105   3.992  1.00  0.00     0.029 A 
ATOM     68  N   UNL     1      -3.164  -5.220   3.862  1.00  0.00    -0.354 N 
ATOM     69  N   UNL     1      -5.633  -3.076   2.464  1.00  0.00    -0.248 NA
ATOM     70  C   UNL     1      -7.263  -1.518   2.897  1.00  0.00     0.031 C 
ATOM     71  C   UNL     1      -2.329  -3.223   4.297  1.00  0.00     0.029 A 
ATOM     72  C   UNL     1      -3.515  -3.937   4.220  1.00  0.00     0.049 A 
ATOM     73  H   UNL     1      -3.800  -5.967   3.781  1.00  0.00     0.167 HD
ATOM     74  C   UNL     1      -5.718  -2.990   3.820  1.00  0.00     0.074 A 
ATOM     75  C   UNL     1      -6.806  -2.054   4.048  1.00  0.00     0.031 C 
ATOM     76  C   UNL     1      -4.869  -3.637   4.670  1.00  0.00     0.031 A 
BRANCH  63  77
ATOM     77  C   UNL     1       0.127  -7.110   3.336  1.00  0.00    -0.014 A 
ATOM     78  C   UNL     1       0.777  -6.700   4.523  1.00  0.00     0.010 A 
ATOM     79  C   UNL     1       0.883  -7.964   2.502  1.00  0.00     0.010 A 
ATOM     80  C   UNL     1       2.086  -7.108   4.856  1.00  0.00     0.020 A 
ATOM     81  C   UNL     1       2.176  -8.414   2.841  1.00  0.00     0.020 A 
ATOM     82  C   UNL     1       2.778  -7.972   4.013  1.00  0.00     0.054 A 
BRANCH  82  83
ATOM     83  S   UNL     1       4.450  -8.524   4.466  1.00  0.00     0.124 S 
ATOM     84  O   UNL     1       5.245  -7.312   4.291  1.00  0.00    -0.237 OA
ATOM     85  O   UNL     1       4.280  -8.971   5.846  1.00  0.00    -0.237 OA
ATOM     86  O   UNL     1       4.734  -9.592   3.508  1.00  0.00    -0.744 OA
ENDBRANCH  82  83
ENDBRANCH  63  77
BRANCH  64  87
ATOM     87  C   UNL     1      -7.477  -1.804  -0.608  1.00  0.00    -0.014 A 
ATOM     88  C   UNL     1      -7.379  -0.649  -1.418  1.00  0.00     0.010 A 
ATOM     89  C   UNL     1      -8.010  -2.978  -1.178  1.00  0.00     0.010 A 
ATOM     90  C   UNL     1      -7.502  -0.745  -2.808  1.00  0.00     0.020 A 
ATOM     91  C   UNL     1      -8.135  -3.075  -2.578  1.00  0.00     0.020 A 
ATOM     92  C   UNL     1      -7.791  -1.981  -3.382  1.00  0.00     0.054 A 
BRANCH  92  93
ATOM     93  S   UNL     1      -7.386  -2.213  -5.148  1.00  0.00     0.124 S 
ATOM     94  O   UNL     1      -8.464  -1.493  -5.816  1.00  0.00    -0.237 OA
ATOM     95  O   UNL     1      -6.058  -1.607  -5.252  1.00  0.00    -0.237 OA
ATOM     96  O   UNL     1      -7.404  -3.664  -5.304  1.00  0.00    -0.744 OA
ENDBRANCH  92  93
ENDBRANCH  64  87
BRANCH  76  97
ATOM     97  C   UNL     1      -5.227  -4.032   6.079  1.00  0.00    -0.014 A 
ATOM     98  C   UNL     1      -6.555  -4.158   6.510  1.00  0.00     0.010 A 
ATOM     99  C   UNL     1      -4.215  -4.536   6.934  1.00  0.00     0.010 A 
ATOM    100  C   UNL     1      -6.859  -4.729   7.750  1.00  0.00     0.020 A 
ATOM    101  C   UNL     1      -4.510  -5.144   8.153  1.00  0.00     0.020 A 
ATOM    102  C   UNL     1      -5.835  -5.221   8.561  1.00  0.00     0.054 A 
BRANCH 102 103
ATOM    103  S   UNL     1      -6.261  -6.038  10.115  1.00  0.00     0.124 S 
ATOM    104  O   UNL     1      -6.462  -4.897  11.004  1.00  0.00    -0.237 OA
ATOM    105  O   UNL     1      -7.470  -6.783   9.769  1.00  0.00    -0.237 OA
ATOM    106  O   UNL     1      -5.092  -6.863  10.406  1.00  0.00    -0.744 OA
ENDBRANCH 102 103
ENDBRANCH  76  97
ENDBRANCH  50  51
ENDBRANCH  43  45
ENDBRANCH  42  43
ENDBRANCH  41  42
ENDBRANCH  40  41
ENDBRANCH  39  40
ENDBRANCH  38  39
ENDBRANCH  37  38
ENDBRANCH  36  37
ENDBRANCH  35  36
ENDBRANCH   1  35
TORSDOF 29
