REMARK SMILES O=C(OCCOCCOCCOCCOC(=O)c1ccn(-c2cc(-c3ccncc3)nc(-c3ccccc3F)n2)n1)c1ccc(-c2c3nc(c(-c4ccc(S(=O)(=O)[O-])cc4)c4ccc([nH]4)c(-c4ccc(S(=O)(=O)[O-])cc4)c4nc(c(-c5ccc(S(=O)(=O)[O-])cc5)c5ccc2[nH]5)C=C4)C=C3)cc1
REMARK SMILES IDX 8 1 7 2 6 3 5 4 4 5 3 6 2 7 1 8 42 9 43 10 101 11 44 12
REMARK SMILES IDX 100 13 45 14 46 15 47 16 94 17 48 18 99 19 93 20 95 21 49 22
REMARK SMILES IDX 98 23 92 24 91 25 50 27 80 28 61 29 79 30 62 31 65 32 78 33
REMARK SMILES IDX 96 34 63 35 64 36 77 38 97 39 66 40 51 41 52 42 60 43 53 44
REMARK SMILES IDX 59 45 54 46 55 47 56 48 57 49 58 50 81 51 82 52 90 53 83 54
REMARK SMILES IDX 89 55 84 56 85 57 86 58 87 59 88 60 67 61 68 62 76 63 69 64
REMARK SMILES IDX 75 65 70 66 71 67 72 68 73 69 74 70 9 71 10 72 11 73 12 74
REMARK SMILES IDX 13 75 14 76 15 77 16 78 17 79 18 80 19 81 41 82 20 83 21 84
REMARK SMILES IDX 22 85 23 86 40 87 24 88 32 89 31 90 25 91 26 92 30 93 27 94
REMARK SMILES IDX 29 95 28 96 33 97 34 98 38 99 35 100 37 101 39 102 36 103
REMARK H PARENT 95 26 65 37
REMARK Flexibility Score: inf
ROOT
ATOM      1  C   UNL     1       2.300  -0.783   1.992  1.00  0.00     0.188 C 
ENDROOT
BRANCH   1   2
ATOM      2  C   UNL     1       3.002  -1.421   0.778  1.00  0.00     0.188 C 
BRANCH   2   3
ATOM      3  O   UNL     1       4.405  -1.255   0.743  1.00  0.00    -0.376 OA
BRANCH   3   4
ATOM      4  C   UNL     1       5.099  -0.182   0.139  1.00  0.00     0.202 C 
BRANCH   4   5
ATOM      5  C   UNL     1       4.573   1.253   0.021  1.00  0.00     0.261 C 
BRANCH   5   6
ATOM      6  O   UNL     1       3.177   1.463   0.207  1.00  0.00    -0.460 OA
BRANCH   6   7
ATOM      7  C   UNL     1       2.164   1.394  -0.676  1.00  0.00     0.338 C 
ATOM      8  O   UNL     1       1.078   1.874  -0.355  1.00  0.00    -0.246 OA
BRANCH   7   9
ATOM      9  C   UNL     1       2.241   0.601  -1.931  1.00  0.00     0.060 A 
ATOM     10  C   UNL     1       3.394   0.350  -2.675  1.00  0.00     0.016 A 
ATOM     11  C   UNL     1       1.008   0.097  -2.393  1.00  0.00     0.016 A 
ATOM     12  C   UNL     1       3.306  -0.280  -3.905  1.00  0.00     0.010 A 
ATOM     13  C   UNL     1       0.914  -0.534  -3.623  1.00  0.00     0.010 A 
ATOM     14  C   UNL     1       2.057  -0.642  -4.405  1.00  0.00    -0.014 A 
BRANCH  14  15
ATOM     15  C   UNL     1       2.001  -0.981  -5.817  1.00  0.00     0.031 A 
ATOM     16  C   UNL     1       2.697  -2.218  -6.247  1.00  0.00     0.074 A 
ATOM     17  C   UNL     1       1.369  -0.174  -6.690  1.00  0.00     0.049 A 
ATOM     18  N   UNL     1       3.707  -2.332  -7.049  1.00  0.00    -0.248 NA
ATOM     19  C   UNL     1       2.256  -3.482  -5.644  1.00  0.00     0.031 C 
ATOM     20  C   UNL     1       0.454   0.936  -6.400  1.00  0.00     0.029 A 
ATOM     21  N   UNL     1       1.345  -0.250  -8.046  1.00  0.00    -0.354 N 
ATOM     22  C   UNL     1       3.932  -3.699  -7.189  1.00  0.00     0.074 A 
ATOM     23  C   UNL     1       3.085  -4.353  -6.220  1.00  0.00     0.031 C 
ATOM     24  C   UNL     1      -0.215   1.262  -7.527  1.00  0.00     0.029 A 
ATOM     25  C   UNL     1       0.335   0.495  -8.631  1.00  0.00     0.049 A 
ATOM     26  H   UNL     1       1.986  -0.787  -8.566  1.00  0.00     0.167 HD
ATOM     27  C   UNL     1       4.669  -4.229  -8.205  1.00  0.00     0.031 A 
ATOM     28  C   UNL     1      -0.079   0.421  -9.917  1.00  0.00     0.031 A 
ATOM     29  C   UNL     1       5.509  -3.257  -8.846  1.00  0.00     0.049 A 
ATOM     30  C   UNL     1       1.024  -0.172 -10.709  1.00  0.00     0.074 A 
ATOM     31  C   UNL     1       6.576  -2.481  -8.440  1.00  0.00     0.029 A 
ATOM     32  N   UNL     1       5.074  -2.708 -10.028  1.00  0.00    -0.354 N 
ATOM     33  N   UNL     1       2.167   0.424 -10.910  1.00  0.00    -0.248 NA
ATOM     34  C   UNL     1       1.030  -1.610 -10.931  1.00  0.00     0.031 C 
ATOM     35  C   UNL     1       6.422  -1.246  -9.134  1.00  0.00     0.029 A 
ATOM     36  C   UNL     1       5.295  -1.354  -9.951  1.00  0.00     0.049 A 
ATOM     37  H   UNL     1       4.678  -3.193 -10.787  1.00  0.00     0.167 HD
ATOM     38  C   UNL     1       3.115  -0.589 -10.879  1.00  0.00     0.074 A 
ATOM     39  C   UNL     1       2.346  -1.825 -11.001  1.00  0.00     0.031 C 
ATOM     40  C   UNL     1       4.403  -0.346 -10.491  1.00  0.00     0.031 A 
BRANCH  27  41
ATOM     41  C   UNL     1       4.389  -5.585  -8.798  1.00  0.00    -0.014 A 
ATOM     42  C   UNL     1       5.299  -6.164  -9.704  1.00  0.00     0.010 A 
ATOM     43  C   UNL     1       3.126  -6.202  -8.675  1.00  0.00     0.010 A 
ATOM     44  C   UNL     1       4.945  -7.287 -10.470  1.00  0.00     0.020 A 
ATOM     45  C   UNL     1       2.779  -7.343  -9.399  1.00  0.00     0.020 A 
ATOM     46  C   UNL     1       3.681  -7.861 -10.318  1.00  0.00     0.054 A 
BRANCH  46  47
ATOM     47  S   UNL     1       3.192  -9.244 -11.379  1.00  0.00     0.124 S 
ATOM     48  O   UNL     1       3.110  -8.603 -12.688  1.00  0.00    -0.237 OA
ATOM     49  O   UNL     1       4.296 -10.182 -11.200  1.00  0.00    -0.237 OA
ATOM     50  O   UNL     1       1.916  -9.676 -10.812  1.00  0.00    -0.744 OA
ENDBRANCH  46  47
ENDBRANCH  27  41
BRANCH  28  51
ATOM     51  C   UNL     1      -1.485   0.481 -10.380  1.00  0.00    -0.014 A 
ATOM     52  C   UNL     1      -1.797   0.650 -11.739  1.00  0.00     0.010 A 
ATOM     53  C   UNL     1      -2.527   0.105  -9.505  1.00  0.00     0.010 A 
ATOM     54  C   UNL     1      -3.095   0.399 -12.212  1.00  0.00     0.020 A 
ATOM     55  C   UNL     1      -3.823  -0.137  -9.967  1.00  0.00     0.020 A 
ATOM     56  C   UNL     1      -4.095  -0.012 -11.325  1.00  0.00     0.054 A 
BRANCH  56  57
ATOM     57  S   UNL     1      -5.719  -0.506 -11.971  1.00  0.00     0.124 S 
ATOM     58  O   UNL     1      -6.289   0.772 -12.386  1.00  0.00    -0.237 OA
ATOM     59  O   UNL     1      -5.363  -1.422 -13.051  1.00  0.00    -0.237 OA
ATOM     60  O   UNL     1      -6.370  -1.133 -10.822  1.00  0.00    -0.744 OA
ENDBRANCH  56  57
ENDBRANCH  28  51
BRANCH  40  61
ATOM     61  C   UNL     1       4.845   1.096 -10.344  1.00  0.00    -0.014 A 
ATOM     62  C   UNL     1       4.250   1.993  -9.435  1.00  0.00     0.010 A 
ATOM     63  C   UNL     1       5.995   1.515 -11.037  1.00  0.00     0.010 A 
ATOM     64  C   UNL     1       4.773   3.281  -9.246  1.00  0.00     0.020 A 
ATOM     65  C   UNL     1       6.533   2.791 -10.839  1.00  0.00     0.020 A 
ATOM     66  C   UNL     1       5.915   3.672  -9.950  1.00  0.00     0.054 A 
BRANCH  66  67
ATOM     67  S   UNL     1       6.620   5.319  -9.655  1.00  0.00     0.124 S 
ATOM     68  O   UNL     1       5.629   6.203 -10.262  1.00  0.00    -0.237 OA
ATOM     69  O   UNL     1       6.707   5.378  -8.197  1.00  0.00    -0.237 OA
ATOM     70  O   UNL     1       7.911   5.273 -10.342  1.00  0.00    -0.744 OA
ENDBRANCH  66  67
ENDBRANCH  40  61
ENDBRANCH  14  15
ENDBRANCH   7   9
ENDBRANCH   6   7
ENDBRANCH   5   6
ENDBRANCH   4   5
ENDBRANCH   3   4
ENDBRANCH   2   3
ENDBRANCH   1   2
BRANCH   1  71
ATOM     71  O   UNL     1       2.887  -1.070   3.262  1.00  0.00    -0.377 OA
BRANCH  71  72
ATOM     72  C   UNL     1       4.232  -0.638   3.399  1.00  0.00     0.188 C 
BRANCH  72  73
ATOM     73  C   UNL     1       5.298  -1.762   3.387  1.00  0.00     0.188 C 
BRANCH  73  74
ATOM     74  O   UNL     1       4.973  -3.130   3.166  1.00  0.00    -0.376 OA
BRANCH  74  75
ATOM     75  C   UNL     1       3.727  -3.664   3.573  1.00  0.00     0.202 C 
BRANCH  75  76
ATOM     76  C   UNL     1       3.333  -3.622   5.056  1.00  0.00     0.261 C 
BRANCH  76  77
ATOM     77  O   UNL     1       3.583  -2.380   5.726  1.00  0.00    -0.458 OA
BRANCH  77  78
ATOM     78  C   UNL     1       4.742  -2.312   6.441  1.00  0.00     0.358 C 
ATOM     79  O   UNL     1       5.488  -3.262   6.663  1.00  0.00    -0.244 OA
BRANCH  78  80
ATOM     80  C   UNL     1       5.034  -0.939   6.870  1.00  0.00     0.170 A 
ATOM     81  C   UNL     1       4.291  -0.155   7.788  1.00  0.00     0.058 A 
ATOM     82  N   UNL     1       6.080  -0.241   6.376  1.00  0.00    -0.159 NA
ATOM     83  C   UNL     1       5.010   1.006   7.929  1.00  0.00     0.118 A 
ATOM     84  N   UNL     1       6.056   0.933   7.042  1.00  0.00    -0.222 N 
BRANCH  84  85
ATOM     85  C   UNL     1       7.139   1.839   6.971  1.00  0.00     0.158 A 
ATOM     86  C   UNL     1       7.243   2.687   5.884  1.00  0.00     0.078 A 
ATOM     87  N   UNL     1       7.974   1.860   8.028  1.00  0.00    -0.209 NA
ATOM     88  C   UNL     1       8.274   3.608   5.950  1.00  0.00     0.077 A 
ATOM     89  C   UNL     1       8.982   2.736   7.957  1.00  0.00     0.165 A 
ATOM     90  N   UNL     1       9.169   3.616   6.963  1.00  0.00    -0.228 NA
BRANCH  88  91
ATOM     91  C   UNL     1       8.453   4.707   4.989  1.00  0.00     0.003 A 
ATOM     92  C   UNL     1       7.423   5.617   4.717  1.00  0.00     0.030 A 
ATOM     93  C   UNL     1       9.700   4.944   4.394  1.00  0.00     0.030 A 
ATOM     94  C   UNL     1       7.682   6.702   3.892  1.00  0.00     0.111 A 
ATOM     95  C   UNL     1       9.860   6.051   3.575  1.00  0.00     0.111 A 
ATOM     96  N   UNL     1       8.877   6.937   3.314  1.00  0.00    -0.265 NA
ENDBRANCH  88  91
BRANCH  89  97
ATOM     97  C   UNL     1       9.964   2.684   9.024  1.00  0.00     0.055 A 
ATOM     98  C   UNL     1      10.772   1.547   9.202  1.00  0.00     0.015 A 
ATOM     99  C   UNL     1      10.107   3.743   9.922  1.00  0.00     0.134 A 
ATOM    100  C   UNL     1      11.695   1.483  10.248  1.00  0.00     0.001 A 
ATOM    101  C   UNL     1      11.020   3.683  10.973  1.00  0.00     0.040 A 
ATOM    102  F   UNL     1       9.334   4.836   9.813  1.00  0.00    -0.206 F 
ATOM    103  C   UNL     1      11.817   2.551  11.136  1.00  0.00     0.003 A 
ENDBRANCH  89  97
ENDBRANCH  84  85
ENDBRANCH  78  80
ENDBRANCH  77  78
ENDBRANCH  76  77
ENDBRANCH  75  76
ENDBRANCH  74  75
ENDBRANCH  73  74
ENDBRANCH  72  73
ENDBRANCH  71  72
ENDBRANCH   1  71
TORSDOF 26
