REMARK SMILES CC1(C)CCCN(c2cncc(C(=O)OCCOCCOCCOCCOC(=O)c3ccc(-c4c5nc(c(-c6ccc(S(=O)(=O)[O-])cc6)c6ccc([nH]6)c(-c6ccc(S(=O)(=O)[O-])cc6)c6nc(c(-c7ccc(S(=O)(=O)[O-])cc7)c7ccc4[nH]7)C=C6)C=C5)cc3)n2)CC1
REMARK SMILES IDX 20 1 19 2 18 3 17 4 16 5 15 6 13 7 14 8 12 9 8 10 9 11 90 12
REMARK SMILES IDX 10 13 11 14 7 15 91 16 92 17 2 18 1 19 3 20 4 21 6 23 5 24
REMARK SMILES IDX 21 26 22 27 23 28 24 29 25 30 26 31 27 32 28 33 29 34 30 35
REMARK SMILES IDX 31 36 89 37 32 38 88 39 33 40 34 41 35 42 82 43 36 44 87 45
REMARK SMILES IDX 81 46 83 47 37 48 86 49 80 50 79 51 38 53 68 54 49 55 67 56
REMARK SMILES IDX 50 57 53 58 66 59 84 60 51 61 52 62 65 64 85 65 54 66 39 67
REMARK SMILES IDX 40 68 48 69 41 70 47 71 42 72 43 73 44 74 45 75 46 76 69 77
REMARK SMILES IDX 70 78 78 79 71 80 77 81 72 82 73 83 74 84 75 85 76 86 55 87
REMARK SMILES IDX 56 88 64 89 57 90 63 91 58 92 59 93 60 94 61 95 62 96
REMARK H PARENT 83 52 53 63
REMARK Flexibility Score: 80.00
ROOT
ATOM      1  C   UNL     1       4.943   3.303  -7.349  1.00  0.00     0.188 C 
ENDROOT
BRANCH   1   2
ATOM      2  C   UNL     1       5.143   4.601  -8.174  1.00  0.00     0.188 C 
BRANCH   2   3
ATOM      3  O   UNL     1       6.318   5.330  -7.874  1.00  0.00    -0.376 OA
BRANCH   3   4
ATOM      4  C   UNL     1       6.241   6.553  -7.170  1.00  0.00     0.202 C 
BRANCH   4   5
ATOM      5  C   UNL     1       5.699   6.520  -5.736  1.00  0.00     0.261 C 
BRANCH   5   6
ATOM      6  O   UNL     1       4.479   5.793  -5.548  1.00  0.00    -0.458 OA
BRANCH   6   7
ATOM      7  C   UNL     1       3.337   6.326  -6.045  1.00  0.00     0.358 C 
ATOM      8  O   UNL     1       3.232   7.372  -6.663  1.00  0.00    -0.244 OA
BRANCH   7   9
ATOM      9  C   UNL     1       2.276   5.296  -5.939  1.00  0.00     0.169 A 
ATOM     10  C   UNL     1       1.313   3.543  -4.767  1.00  0.00     0.148 A 
ATOM     11  C   UNL     1       0.646   3.201  -5.953  1.00  0.00     0.157 A 
ATOM     12  N   UNL     1       2.156   4.602  -4.778  1.00  0.00    -0.221 NA
ATOM     13  N   UNL     1       0.744   3.892  -7.124  1.00  0.00    -0.258 NA
ATOM     14  C   UNL     1       1.570   4.962  -7.080  1.00  0.00     0.147 A 
BRANCH  10  15
ATOM     15  N   UNL     1       1.104   2.872  -3.570  1.00  0.00    -0.355 N 
BRANCH  15  16
ATOM     16  C   UNL     1       0.851   1.435  -3.559  1.00  0.00     0.118 C 
BRANCH  16  17
ATOM     17  C   UNL     1       1.292   0.705  -2.282  1.00  0.00     0.028 C 
BRANCH  17  18
ATOM     18  C   UNL     1       0.400   0.855  -1.021  1.00  0.00    -0.034 C 
ATOM     19  C   UNL     1       0.926  -0.129   0.053  1.00  0.00     0.011 C 
ATOM     20  C   UNL     1      -1.063   0.471  -1.315  1.00  0.00     0.011 C 
BRANCH  18  21
ATOM     21  C   UNL     1       0.470   2.268  -0.404  1.00  0.00     0.008 CG0
ATOM     22  G   UNL     1       0.198   3.430  -1.350  1.00  0.00     0.000 G0
ENDBRANCH  18  21
ENDBRANCH  17  18
ENDBRANCH  16  17
ENDBRANCH  15  16
BRANCH  15  23
ATOM     23  C   UNL     1       1.329   3.642  -2.353  1.00  0.00     0.118 C 
BRANCH  23  24
ATOM     24  C   UNL     1       0.198   3.430  -1.350  1.00  0.00     0.022 CG0
ATOM     25  G   UNL     1       0.470   2.268  -0.404  1.00  0.00     0.000 G0
ENDBRANCH  23  24
ENDBRANCH  15  23
ENDBRANCH  10  15
ENDBRANCH   7   9
ENDBRANCH   6   7
ENDBRANCH   5   6
ENDBRANCH   4   5
ENDBRANCH   3   4
ENDBRANCH   2   3
ENDBRANCH   1   2
BRANCH   1  26
ATOM     26  O   UNL     1       6.014   2.578  -6.749  1.00  0.00    -0.377 OA
BRANCH  26  27
ATOM     27  C   UNL     1       7.324   3.124  -6.776  1.00  0.00     0.188 C 
BRANCH  27  28
ATOM     28  C   UNL     1       7.973   3.149  -8.173  1.00  0.00     0.188 C 
BRANCH  28  29
ATOM     29  O   UNL     1       7.054   2.833  -9.211  1.00  0.00    -0.376 OA
BRANCH  29  30
ATOM     30  C   UNL     1       7.052   1.511  -9.720  1.00  0.00     0.202 C 
BRANCH  30  31
ATOM     31  C   UNL     1       6.915   0.307  -8.771  1.00  0.00     0.261 C 
BRANCH  31  32
ATOM     32  O   UNL     1       7.748   0.282  -7.604  1.00  0.00    -0.460 OA
BRANCH  32  33
ATOM     33  C   UNL     1       9.079   0.147  -7.775  1.00  0.00     0.338 C 
ATOM     34  O   UNL     1       9.678   0.040  -8.833  1.00  0.00    -0.246 OA
BRANCH  33  35
ATOM     35  C   UNL     1       9.710   0.347  -6.452  1.00  0.00     0.060 A 
ATOM     36  C   UNL     1      10.592   1.420  -6.266  1.00  0.00     0.016 A 
ATOM     37  C   UNL     1       9.403  -0.507  -5.391  1.00  0.00     0.016 A 
ATOM     38  C   UNL     1      11.194   1.622  -5.023  1.00  0.00     0.010 A 
ATOM     39  C   UNL     1      10.025  -0.319  -4.154  1.00  0.00     0.010 A 
ATOM     40  C   UNL     1      10.948   0.727  -3.973  1.00  0.00    -0.014 A 
BRANCH  40  41
ATOM     41  C   UNL     1      11.802   0.754  -2.761  1.00  0.00     0.031 A 
ATOM     42  C   UNL     1      12.950  -0.217  -2.683  1.00  0.00     0.074 A 
ATOM     43  C   UNL     1      11.584   1.630  -1.763  1.00  0.00     0.049 A 
ATOM     44  N   UNL     1      13.798  -0.423  -1.710  1.00  0.00    -0.248 NA
ATOM     45  C   UNL     1      13.169  -1.069  -3.864  1.00  0.00     0.031 C 
ATOM     46  C   UNL     1      10.544   2.658  -1.745  1.00  0.00     0.029 A 
ATOM     47  N   UNL     1      12.234   1.790  -0.564  1.00  0.00    -0.354 N 
ATOM     48  C   UNL     1      14.650  -1.426  -2.160  1.00  0.00     0.074 A 
ATOM     49  C   UNL     1      14.192  -1.815  -3.475  1.00  0.00     0.031 C 
ATOM     50  C   UNL     1      10.624   3.339  -0.588  1.00  0.00     0.029 A 
ATOM     51  C   UNL     1      11.693   2.772   0.233  1.00  0.00     0.049 A 
ATOM     52  H   UNL     1      13.014   1.251  -0.298  1.00  0.00     0.167 HD
ATOM     53  C   UNL     1      15.725  -1.967  -1.540  1.00  0.00     0.031 A 
ATOM     54  C   UNL     1      12.012   3.151   1.487  1.00  0.00     0.031 A 
ATOM     55  C   UNL     1      16.165  -1.594  -0.223  1.00  0.00     0.049 A 
ATOM     56  C   UNL     1      13.145   2.452   2.201  1.00  0.00     0.074 A 
ATOM     57  C   UNL     1      17.234  -2.093   0.500  1.00  0.00     0.029 A 
ATOM     58  N   UNL     1      15.558  -0.633   0.571  1.00  0.00    -0.354 N 
ATOM     59  N   UNL     1      13.946   1.511   1.761  1.00  0.00    -0.248 NA
ATOM     60  C   UNL     1      13.419   2.875   3.583  1.00  0.00     0.031 C 
ATOM     61  C   UNL     1      17.238  -1.475   1.754  1.00  0.00     0.029 A 
ATOM     62  C   UNL     1      16.217  -0.539   1.784  1.00  0.00     0.049 A 
ATOM     63  H   UNL     1      14.775  -0.097   0.310  1.00  0.00     0.167 HD
ATOM     64  C   UNL     1      14.843   1.260   2.796  1.00  0.00     0.074 A 
ATOM     65  C   UNL     1      14.494   2.157   3.877  1.00  0.00     0.031 C 
ATOM     66  C   UNL     1      15.866   0.370   2.847  1.00  0.00     0.031 A 
BRANCH  53  67
ATOM     67  C   UNL     1      16.486  -3.038  -2.276  1.00  0.00    -0.014 A 
ATOM     68  C   UNL     1      17.264  -2.729  -3.407  1.00  0.00     0.010 A 
ATOM     69  C   UNL     1      16.461  -4.363  -1.804  1.00  0.00     0.010 A 
ATOM     70  C   UNL     1      17.978  -3.730  -4.070  1.00  0.00     0.020 A 
ATOM     71  C   UNL     1      17.199  -5.362  -2.446  1.00  0.00     0.020 A 
ATOM     72  C   UNL     1      17.943  -5.040  -3.583  1.00  0.00     0.054 A 
BRANCH  72  73
ATOM     73  S   UNL     1      18.913  -6.309  -4.442  1.00  0.00     0.124 S 
ATOM     74  O   UNL     1      18.177  -6.456  -5.695  1.00  0.00    -0.237 OA
ATOM     75  O   UNL     1      20.227  -5.683  -4.556  1.00  0.00    -0.237 OA
ATOM     76  O   UNL     1      18.850  -7.461  -3.546  1.00  0.00    -0.744 OA
ENDBRANCH  72  73
ENDBRANCH  53  67
BRANCH  54  77
ATOM     77  C   UNL     1      11.244   4.230   2.172  1.00  0.00    -0.014 A 
ATOM     78  C   UNL     1      11.865   5.443   2.522  1.00  0.00     0.010 A 
ATOM     79  C   UNL     1       9.896   4.032   2.522  1.00  0.00     0.010 A 
ATOM     80  C   UNL     1      11.166   6.419   3.239  1.00  0.00     0.020 A 
ATOM     81  C   UNL     1       9.182   5.019   3.209  1.00  0.00     0.020 A 
ATOM     82  C   UNL     1       9.828   6.200   3.579  1.00  0.00     0.054 A 
BRANCH  82  83
ATOM     83  S   UNL     1       8.936   7.487   4.495  1.00  0.00     0.124 S 
ATOM     84  O   UNL     1       9.546   7.397   5.818  1.00  0.00    -0.237 OA
ATOM     85  O   UNL     1       9.252   8.692   3.732  1.00  0.00    -0.237 OA
ATOM     86  O   UNL     1       7.541   7.057   4.418  1.00  0.00    -0.744 OA
ENDBRANCH  82  83
ENDBRANCH  54  77
BRANCH  66  87
ATOM     87  C   UNL     1      16.722   0.357   4.088  1.00  0.00    -0.014 A 
ATOM     88  C   UNL     1      16.233  -0.124   5.316  1.00  0.00     0.010 A 
ATOM     89  C   UNL     1      18.061   0.783   4.006  1.00  0.00     0.010 A 
ATOM     90  C   UNL     1      17.056  -0.145   6.445  1.00  0.00     0.020 A 
ATOM     91  C   UNL     1      18.897   0.731   5.124  1.00  0.00     0.020 A 
ATOM     92  C   UNL     1      18.384   0.281   6.342  1.00  0.00     0.054 A 
BRANCH  92  93
ATOM     93  S   UNL     1      19.443   0.202   7.812  1.00  0.00     0.124 S 
ATOM     94  O   UNL     1      18.902   1.280   8.636  1.00  0.00    -0.237 OA
ATOM     95  O   UNL     1      19.200  -1.151   8.308  1.00  0.00    -0.237 OA
ATOM     96  O   UNL     1      20.786   0.435   7.287  1.00  0.00    -0.744 OA
ENDBRANCH  92  93
ENDBRANCH  66  87
ENDBRANCH  40  41
ENDBRANCH  33  35
ENDBRANCH  32  33
ENDBRANCH  31  32
ENDBRANCH  30  31
ENDBRANCH  29  30
ENDBRANCH  28  29
ENDBRANCH  27  28
ENDBRANCH  26  27
ENDBRANCH   1  26
TORSDOF 24
