REMARK SMILES CC(C)[C@H](NC(=O)[C@H](C)NC(=O)CNC(=O)OCc1ccccc1)C(=O)OCCOCCOCCOCCOC(=O)c1ccc(-c2c3nc(c(-c4ccc(S(=O)(=O)[O-])cc4)c4ccc([nH]4)c(-c4ccc(S(=O)(=O)[O-])cc4)c4nc(c(-c5ccc(S(=O)(=O)[O-])cc5)c5ccc2[nH]5)C=C4)C=C3)cc1
REMARK SMILES IDX 31 1 30 2 29 3 28 4 27 5 25 6 26 7 4 8 2 9 1 10 3 11 5 12
REMARK SMILES IDX 6 13 7 15 8 16 9 17 10 18 11 19 12 21 13 22 14 23 15 24
REMARK SMILES IDX 16 26 17 27 18 28 19 29 20 30 24 31 21 32 23 33 22 34 32 35
REMARK SMILES IDX 33 36 34 37 35 38 36 39 37 40 38 41 39 42 40 43 41 44 42 45
REMARK SMILES IDX 43 46 101 47 44 48 100 49 45 50 46 51 47 52 94 53 48 54
REMARK SMILES IDX 99 55 93 56 95 57 49 58 98 59 92 60 91 61 50 63 80 64 61 65
REMARK SMILES IDX 79 66 62 67 65 68 78 69 96 70 63 71 64 72 77 74 97 75 66 76
REMARK SMILES IDX 51 77 52 78 60 79 53 80 59 81 54 82 55 83 56 84 57 85 58 86
REMARK SMILES IDX 81 87 82 88 90 89 83 90 89 91 84 92 85 93 86 94 87 95 88 96
REMARK SMILES IDX 67 97 68 98 76 99 69 100 75 101 70 102 71 103 72 104 73 105
REMARK SMILES IDX 74 106
REMARK H PARENT 5 14 10 20 14 25 95 62 65 73
REMARK Flexibility Score: inf
ROOT
ATOM      1  C   UNL     1      -4.039  -3.092   2.146  1.00  0.00     0.188 C 
ENDROOT
BRANCH   1   2
ATOM      2  O   UNL     1      -5.045  -2.176   1.724  1.00  0.00    -0.376 OA
BRANCH   2   3
ATOM      3  C   UNL     1      -4.610  -1.188   0.796  1.00  0.00     0.202 C 
BRANCH   3   4
ATOM      4  C   UNL     1      -4.291  -1.668  -0.619  1.00  0.00     0.261 C 
BRANCH   4   5
ATOM      5  O   UNL     1      -3.321  -2.716  -0.740  1.00  0.00    -0.462 OA
BRANCH   5   6
ATOM      6  C   UNL     1      -1.986  -2.487  -0.673  1.00  0.00     0.328 C 
ATOM      7  O   UNL     1      -1.490  -1.410  -0.381  1.00  0.00    -0.250 OA
BRANCH   6   8
ATOM      8  C   UNL     1      -1.225  -3.842  -0.849  1.00  0.00     0.194 C 
BRANCH   8   9
ATOM      9  C   UNL     1       0.134  -3.932  -1.590  1.00  0.00     0.017 C 
ATOM     10  C   UNL     1       0.924  -2.631  -1.653  1.00  0.00     0.010 C 
ATOM     11  C   UNL     1       1.013  -5.029  -0.963  1.00  0.00     0.010 C 
ENDBRANCH   8   9
BRANCH   8  12
ATOM     12  N   UNL     1      -2.096  -4.945  -1.294  1.00  0.00    -0.341 N 
ATOM     13  C   UNL     1      -2.819  -5.154  -2.426  1.00  0.00     0.242 C 
ATOM     14  H   UNL     1      -2.168  -5.677  -0.640  1.00  0.00     0.164 HD
ATOM     15  O   UNL     1      -3.373  -6.260  -2.488  1.00  0.00    -0.273 OA
BRANCH  13  16
ATOM     16  C   UNL     1      -3.116  -4.056  -3.500  1.00  0.00     0.168 C 
ATOM     17  C   UNL     1      -3.210  -4.770  -4.850  1.00  0.00     0.041 C 
BRANCH  16  18
ATOM     18  N   UNL     1      -2.182  -2.935  -3.627  1.00  0.00    -0.343 N 
ATOM     19  C   UNL     1      -2.369  -1.616  -3.915  1.00  0.00     0.240 C 
ATOM     20  H   UNL     1      -1.241  -3.180  -3.476  1.00  0.00     0.164 HD
ATOM     21  O   UNL     1      -1.372  -0.891  -3.812  1.00  0.00    -0.273 OA
BRANCH  19  22
ATOM     22  C   UNL     1      -3.738  -0.987  -4.195  1.00  0.00     0.219 C 
BRANCH  22  23
ATOM     23  N   UNL     1      -4.552  -1.740  -5.115  1.00  0.00    -0.312 N 
ATOM     24  C   UNL     1      -5.707  -2.398  -4.835  1.00  0.00     0.407 C 
ATOM     25  H   UNL     1      -4.237  -1.782  -6.047  1.00  0.00     0.167 HD
ATOM     26  O   UNL     1      -6.202  -3.168  -5.643  1.00  0.00    -0.225 OA
BRANCH  24  27
ATOM     27  O   UNL     1      -6.176  -2.152  -3.587  1.00  0.00    -0.445 OA
BRANCH  27  28
ATOM     28  C   UNL     1      -7.352  -2.890  -3.229  1.00  0.00     0.270 C 
BRANCH  28  29
ATOM     29  C   UNL     1      -8.591  -2.136  -3.634  1.00  0.00    -0.011 A 
ATOM     30  C   UNL     1      -9.121  -2.296  -4.922  1.00  0.00     0.007 A 
ATOM     31  C   UNL     1      -9.199  -1.226  -2.761  1.00  0.00     0.007 A 
ATOM     32  C   UNL     1     -10.224  -1.555  -5.337  1.00  0.00     0.000 A 
ATOM     33  C   UNL     1     -10.312  -0.490  -3.174  1.00  0.00     0.000 A 
ATOM     34  C   UNL     1     -10.819  -0.650  -4.463  1.00  0.00     0.000 A 
ENDBRANCH  28  29
ENDBRANCH  27  28
ENDBRANCH  24  27
ENDBRANCH  22  23
ENDBRANCH  19  22
ENDBRANCH  16  18
ENDBRANCH  13  16
ENDBRANCH   8  12
ENDBRANCH   6   8
ENDBRANCH   5   6
ENDBRANCH   4   5
ENDBRANCH   3   4
ENDBRANCH   2   3
ENDBRANCH   1   2
BRANCH   1  35
ATOM     35  C   UNL     1      -4.186  -4.492   1.527  1.00  0.00     0.188 C 
BRANCH  35  36
ATOM     36  O   UNL     1      -4.947  -4.477   0.326  1.00  0.00    -0.377 OA
BRANCH  36  37
ATOM     37  C   UNL     1      -6.291  -4.938   0.434  1.00  0.00     0.188 C 
BRANCH  37  38
ATOM     38  C   UNL     1      -7.144  -4.308   1.548  1.00  0.00     0.188 C 
BRANCH  38  39
ATOM     39  O   UNL     1      -6.649  -4.620   2.851  1.00  0.00    -0.376 OA
BRANCH  39  40
ATOM     40  C   UNL     1      -7.286  -5.689   3.543  1.00  0.00     0.202 C 
BRANCH  40  41
ATOM     41  C   UNL     1      -7.112  -7.087   2.928  1.00  0.00     0.261 C 
BRANCH  41  42
ATOM     42  O   UNL     1      -7.738  -7.307   1.649  1.00  0.00    -0.460 OA
BRANCH  42  43
ATOM     43  C   UNL     1      -9.045  -7.005   1.503  1.00  0.00     0.338 C 
ATOM     44  O   UNL     1      -9.814  -6.622   2.367  1.00  0.00    -0.246 OA
BRANCH  43  45
ATOM     45  C   UNL     1      -9.357  -7.034   0.059  1.00  0.00     0.060 A 
ATOM     46  C   UNL     1      -9.960  -5.916  -0.534  1.00  0.00     0.016 A 
ATOM     47  C   UNL     1      -9.085  -8.176  -0.697  1.00  0.00     0.016 A 
ATOM     48  C   UNL     1     -10.342  -5.960  -1.877  1.00  0.00     0.010 A 
ATOM     49  C   UNL     1      -9.484  -8.226  -2.034  1.00  0.00     0.010 A 
ATOM     50  C   UNL     1     -10.152  -7.136  -2.618  1.00  0.00    -0.014 A 
BRANCH  50  51
ATOM     51  C   UNL     1     -10.835  -7.322  -3.921  1.00  0.00     0.031 A 
ATOM     52  C   UNL     1     -12.168  -8.021  -3.930  1.00  0.00     0.074 A 
ATOM     53  C   UNL     1     -10.285  -6.904  -5.074  1.00  0.00     0.049 A 
ATOM     54  N   UNL     1     -12.914  -8.374  -4.945  1.00  0.00    -0.248 NA
ATOM     55  C   UNL     1     -12.730  -8.376  -2.616  1.00  0.00     0.031 C 
ATOM     56  C   UNL     1      -9.021  -6.185  -5.196  1.00  0.00     0.029 A 
ATOM     57  N   UNL     1     -10.726  -7.034  -6.368  1.00  0.00    -0.354 N 
ATOM     58  C   UNL     1     -14.024  -9.003  -4.395  1.00  0.00     0.074 A 
ATOM     59  C   UNL     1     -13.845  -9.003  -2.959  1.00  0.00     0.031 C 
ATOM     60  C   UNL     1      -8.790  -5.927  -6.496  1.00  0.00     0.029 A 
ATOM     61  C   UNL     1      -9.866  -6.505  -7.300  1.00  0.00     0.049 A 
ATOM     62  H   UNL     1     -11.579  -7.466  -6.606  1.00  0.00     0.167 HD
ATOM     63  C   UNL     1     -15.096  -9.537  -5.026  1.00  0.00     0.031 A 
ATOM     64  C   UNL     1      -9.930  -6.509  -8.647  1.00  0.00     0.031 A 
ATOM     65  C   UNL     1     -15.261  -9.566  -6.454  1.00  0.00     0.049 A 
ATOM     66  C   UNL     1     -11.092  -7.185  -9.332  1.00  0.00     0.074 A 
ATOM     67  C   UNL     1     -16.308 -10.092  -7.189  1.00  0.00     0.029 A 
ATOM     68  N   UNL     1     -14.348  -9.057  -7.364  1.00  0.00    -0.354 N 
ATOM     69  N   UNL     1     -12.141  -7.768  -8.799  1.00  0.00    -0.248 NA
ATOM     70  C   UNL     1     -11.075  -7.209 -10.802  1.00  0.00     0.031 C 
ATOM     71  C   UNL     1     -16.003  -9.948  -8.546  1.00  0.00     0.029 A 
ATOM     72  C   UNL     1     -14.795  -9.278  -8.656  1.00  0.00     0.049 A 
ATOM     73  H   UNL     1     -13.506  -8.604  -7.128  1.00  0.00     0.167 HD
ATOM     74  C   UNL     1     -12.917  -8.207  -9.869  1.00  0.00     0.074 A 
ATOM     75  C   UNL     1     -12.225  -7.810 -11.078  1.00  0.00     0.031 C 
ATOM     76  C   UNL     1     -14.096  -8.877  -9.851  1.00  0.00     0.031 A 
BRANCH  63  77
ATOM     77  C   UNL     1     -16.152 -10.176  -4.164  1.00  0.00    -0.014 A 
ATOM     78  C   UNL     1     -17.004  -9.398  -3.359  1.00  0.00     0.010 A 
ATOM     79  C   UNL     1     -16.301 -11.575  -4.168  1.00  0.00     0.010 A 
ATOM     80  C   UNL     1     -17.954 -10.011  -2.538  1.00  0.00     0.020 A 
ATOM     81  C   UNL     1     -17.268 -12.190  -3.369  1.00  0.00     0.020 A 
ATOM     82  C   UNL     1     -18.076 -11.404  -2.544  1.00  0.00     0.054 A 
BRANCH  82  83
ATOM     83  S   UNL     1     -19.318 -12.174  -1.470  1.00  0.00     0.124 S 
ATOM     84  O   UNL     1     -18.713 -12.018  -0.150  1.00  0.00    -0.237 OA
ATOM     85  O   UNL     1     -20.505 -11.359  -1.716  1.00  0.00    -0.237 OA
ATOM     86  O   UNL     1     -19.397 -13.548  -1.959  1.00  0.00    -0.744 OA
ENDBRANCH  82  83
ENDBRANCH  63  77
BRANCH  64  87
ATOM     87  C   UNL     1      -8.849  -5.869  -9.448  1.00  0.00    -0.014 A 
ATOM     88  C   UNL     1      -9.105  -4.700 -10.188  1.00  0.00     0.010 A 
ATOM     89  C   UNL     1      -7.558  -6.428  -9.483  1.00  0.00     0.010 A 
ATOM     90  C   UNL     1      -8.096  -4.111 -10.955  1.00  0.00     0.020 A 
ATOM     91  C   UNL     1      -6.539  -5.826 -10.228  1.00  0.00     0.020 A 
ATOM     92  C   UNL     1      -6.817  -4.676 -10.968  1.00  0.00     0.054 A 
BRANCH  92  93
ATOM     93  S   UNL     1      -5.508  -3.864 -11.927  1.00  0.00     0.124 S 
ATOM     94  O   UNL     1      -5.879  -4.204 -13.297  1.00  0.00    -0.237 OA
ATOM     95  O   UNL     1      -5.668  -2.459 -11.559  1.00  0.00    -0.237 OA
ATOM     96  O   UNL     1      -4.283  -4.491 -11.436  1.00  0.00    -0.744 OA
ENDBRANCH  92  93
ENDBRANCH  64  87
BRANCH  76  97
ATOM     97  C   UNL     1     -14.739  -9.200 -11.175  1.00  0.00    -0.014 A 
ATOM     98  C   UNL     1     -14.226 -10.207 -12.011  1.00  0.00     0.010 A 
ATOM     99  C   UNL     1     -15.922  -8.536 -11.552  1.00  0.00     0.010 A 
ATOM    100  C   UNL     1     -14.870 -10.527 -13.210  1.00  0.00     0.020 A 
ATOM    101  C   UNL     1     -16.582  -8.871 -12.737  1.00  0.00     0.020 A 
ATOM    102  C   UNL     1     -16.045  -9.858 -13.565  1.00  0.00     0.054 A 
BRANCH 102 103
ATOM    103  S   UNL     1     -16.893 -10.331 -15.098  1.00  0.00     0.124 S 
ATOM    104  O   UNL     1     -16.022  -9.754 -16.118  1.00  0.00    -0.237 OA
ATOM    105  O   UNL     1     -16.896 -11.790 -15.027  1.00  0.00    -0.237 OA
ATOM    106  O   UNL     1     -18.208  -9.704 -14.975  1.00  0.00    -0.744 OA
ENDBRANCH 102 103
ENDBRANCH  76  97
ENDBRANCH  50  51
ENDBRANCH  43  45
ENDBRANCH  42  43
ENDBRANCH  41  42
ENDBRANCH  40  41
ENDBRANCH  39  40
ENDBRANCH  38  39
ENDBRANCH  37  38
ENDBRANCH  36  37
ENDBRANCH  35  36
ENDBRANCH   1  35
TORSDOF 32
