REMARK SMILES CCC[NH2+][C@@]1(C(=O)OCCOCCOCCOCCOC(=O)c2ccc(-c3c4nc(c(-c5ccc(S(=O)(=O)[O-])cc5)c5ccc([nH]5)c(-c5ccc(S(=O)(=O)[O-])cc5)c5nc(c(-c6ccc(S(=O)(=O)[O-])cc6)c6ccc3[nH]6)C=C5)C=C4)cc2)CCC[C@@H]1CCOC
REMARK SMILES IDX 14 1 13 2 12 3 11 4 10 5 9 6 8 7 6 8 7 9 5 10 83 11 86 12
REMARK SMILES IDX 84 13 85 14 4 15 3 18 2 19 1 20 87 21 88 22 89 23 90 24
REMARK SMILES IDX 15 25 16 26 17 27 18 28 19 29 20 30 21 31 22 32 23 33 24 34
REMARK SMILES IDX 82 35 25 36 81 37 26 38 27 39 28 40 75 41 29 42 80 43 74 44
REMARK SMILES IDX 76 45 30 46 79 47 73 48 72 49 31 51 61 52 42 53 60 54 43 55
REMARK SMILES IDX 46 56 59 57 77 58 44 59 45 60 58 62 78 63 47 64 32 65 33 66
REMARK SMILES IDX 41 67 34 68 40 69 35 70 36 71 37 72 38 73 39 74 62 75 63 76
REMARK SMILES IDX 71 77 64 78 70 79 65 80 66 81 67 82 68 83 69 84 48 85 49 86
REMARK SMILES IDX 57 87 50 88 56 89 51 90 52 91 53 92 54 93 55 94
REMARK H PARENT 4 16 4 17 76 50 46 61
REMARK Flexibility Score: inf
ROOT
ATOM      1  O   UNL     1      -1.340   3.356   5.836  1.00  0.00    -0.377 OA
ENDROOT
BRANCH   1   2
ATOM      2  C   UNL     1      -1.620   2.225   5.032  1.00  0.00     0.188 C 
BRANCH   2   3
ATOM      3  C   UNL     1      -1.073   0.885   5.519  1.00  0.00     0.188 C 
BRANCH   3   4
ATOM      4  O   UNL     1      -0.796   0.733   6.897  1.00  0.00    -0.376 OA
BRANCH   4   5
ATOM      5  C   UNL     1       0.054   1.702   7.510  1.00  0.00     0.202 C 
BRANCH   5   6
ATOM      6  C   UNL     1       1.327   2.179   6.778  1.00  0.00     0.261 C 
BRANCH   6   7
ATOM      7  O   UNL     1       1.131   2.824   5.485  1.00  0.00    -0.459 OA
BRANCH   7   8
ATOM      8  C   UNL     1       1.845   2.307   4.461  1.00  0.00     0.368 C 
ATOM      9  O   UNL     1       2.647   1.384   4.634  1.00  0.00    -0.245 OA
BRANCH   8  10
ATOM     10  C   UNL     1       1.681   2.982   3.033  1.00  0.00     0.197 C 
ATOM     11  C   UNL     1       3.118   3.572   2.840  1.00  0.00     0.081 C 
ATOM     12  C   UNL     1       0.900   4.308   2.695  1.00  0.00     0.065 C 
ATOM     13  C   UNL     1       3.073   4.889   3.626  1.00  0.00     0.008 C 
ATOM     14  C   UNL     1       1.648   5.403   3.471  1.00  0.00     0.011 C 
BRANCH  10  15
ATOM     15  N   UNL     1       1.339   1.986   1.965  1.00  0.00    -0.332 N 
ATOM     16  H   UNL     1       0.329   2.024   1.829  1.00  0.00     0.347 HD
ATOM     17  H   UNL     1       1.907   2.267   1.166  1.00  0.00     0.347 HD
BRANCH  15  18
ATOM     18  C   UNL     1       1.695   0.581   2.188  1.00  0.00     0.261 C 
BRANCH  18  19
ATOM     19  C   UNL     1       1.055  -0.371   1.165  1.00  0.00     0.058 C 
ATOM     20  C   UNL     1       1.307  -0.019  -0.289  1.00  0.00     0.010 C 
ENDBRANCH  18  19
ENDBRANCH  15  18
ENDBRANCH  10  15
BRANCH  12  21
ATOM     21  C   UNL     1      -0.619   4.583   2.733  1.00  0.00     0.039 C 
BRANCH  21  22
ATOM     22  C   UNL     1      -1.512   4.008   1.620  1.00  0.00     0.160 C 
BRANCH  22  23
ATOM     23  O   UNL     1      -2.357   2.940   2.038  1.00  0.00    -0.385 OA
ATOM     24  C   UNL     1      -1.877   1.665   1.651  1.00  0.00     0.194 C 
ENDBRANCH  22  23
ENDBRANCH  21  22
ENDBRANCH  12  21
ENDBRANCH   8  10
ENDBRANCH   7   8
ENDBRANCH   6   7
ENDBRANCH   5   6
ENDBRANCH   4   5
ENDBRANCH   3   4
ENDBRANCH   2   3
ENDBRANCH   1   2
BRANCH   1  25
ATOM     25  C   UNL     1      -2.377   4.005   6.551  1.00  0.00     0.188 C 
BRANCH  25  26
ATOM     26  C   UNL     1      -3.703   3.260   6.688  1.00  0.00     0.188 C 
BRANCH  26  27
ATOM     27  O   UNL     1      -4.527   3.130   5.525  1.00  0.00    -0.376 OA
BRANCH  27  28
ATOM     28  C   UNL     1      -4.394   4.076   4.463  1.00  0.00     0.202 C 
BRANCH  28  29
ATOM     29  C   UNL     1      -5.232   5.341   4.626  1.00  0.00     0.261 C 
BRANCH  29  30
ATOM     30  O   UNL     1      -4.655   6.210   5.612  1.00  0.00    -0.460 OA
BRANCH  30  31
ATOM     31  C   UNL     1      -5.210   6.119   6.839  1.00  0.00     0.338 C 
ATOM     32  O   UNL     1      -6.194   5.467   7.160  1.00  0.00    -0.246 OA
BRANCH  31  33
ATOM     33  C   UNL     1      -4.346   6.796   7.820  1.00  0.00     0.060 A 
ATOM     34  C   UNL     1      -4.129   6.150   9.043  1.00  0.00     0.016 A 
ATOM     35  C   UNL     1      -3.828   8.072   7.582  1.00  0.00     0.016 A 
ATOM     36  C   UNL     1      -3.473   6.813  10.069  1.00  0.00     0.010 A 
ATOM     37  C   UNL     1      -3.179   8.745   8.618  1.00  0.00     0.010 A 
ATOM     38  C   UNL     1      -3.065   8.139   9.880  1.00  0.00    -0.014 A 
BRANCH  38  39
ATOM     39  C   UNL     1      -2.784   8.950  11.083  1.00  0.00     0.031 A 
ATOM     40  C   UNL     1      -3.896   9.806  11.630  1.00  0.00     0.074 A 
ATOM     41  C   UNL     1      -1.609   8.845  11.724  1.00  0.00     0.049 A 
ATOM     42  N   UNL     1      -3.913  10.561  12.696  1.00  0.00    -0.248 NA
ATOM     43  C   UNL     1      -5.161   9.808  10.873  1.00  0.00     0.031 C 
ATOM     44  C   UNL     1      -0.493   7.994  11.309  1.00  0.00     0.029 A 
ATOM     45  N   UNL     1      -1.168   9.448  12.871  1.00  0.00    -0.354 N 
ATOM     46  C   UNL     1      -5.182  11.130  12.733  1.00  0.00     0.074 A 
ATOM     47  C   UNL     1      -5.893  10.667  11.564  1.00  0.00     0.031 C 
ATOM     48  C   UNL     1       0.507   8.129  12.197  1.00  0.00     0.029 A 
ATOM     49  C   UNL     1       0.112   9.095  13.220  1.00  0.00     0.049 A 
ATOM     50  H   UNL     1      -1.717  10.076  13.395  1.00  0.00     0.167 HD
ATOM     51  C   UNL     1      -5.709  11.958  13.664  1.00  0.00     0.031 A 
ATOM     52  C   UNL     1       0.877   9.518  14.244  1.00  0.00     0.031 A 
ATOM     53  C   UNL     1      -4.984  12.419  14.817  1.00  0.00     0.049 A 
ATOM     54  C   UNL     1       0.292  10.497  15.228  1.00  0.00     0.074 A 
ATOM     55  C   UNL     1      -5.417  13.255  15.830  1.00  0.00     0.029 A 
ATOM     56  N   UNL     1      -3.669  12.085  15.107  1.00  0.00    -0.354 N 
ATOM     57  N   UNL     1      -0.913  11.017  15.260  1.00  0.00    -0.248 NA
ATOM     58  C   UNL     1       1.167  10.934  16.322  1.00  0.00     0.031 C 
ATOM     59  C   UNL     1      -4.342  13.481  16.695  1.00  0.00     0.029 A 
ATOM     60  C   UNL     1      -3.263  12.724  16.265  1.00  0.00     0.049 A 
ATOM     61  H   UNL     1      -3.107  11.482  14.568  1.00  0.00     0.167 HD
ATOM     62  C   UNL     1      -0.949  11.823  16.393  1.00  0.00     0.074 A 
ATOM     63  C   UNL     1       0.347  11.699  17.030  1.00  0.00     0.031 C 
ATOM     64  C   UNL     1      -1.960  12.595  16.869  1.00  0.00     0.031 A 
BRANCH  51  65
ATOM     65  C   UNL     1      -7.117  12.449  13.444  1.00  0.00    -0.014 A 
ATOM     66  C   UNL     1      -8.223  11.585  13.541  1.00  0.00     0.010 A 
ATOM     67  C   UNL     1      -7.338  13.809  13.157  1.00  0.00     0.010 A 
ATOM     68  C   UNL     1      -9.518  12.063  13.319  1.00  0.00     0.020 A 
ATOM     69  C   UNL     1      -8.633  14.297  12.965  1.00  0.00     0.020 A 
ATOM     70  C   UNL     1      -9.715  13.417  13.032  1.00  0.00     0.054 A 
BRANCH  70  71
ATOM     71  S   UNL     1     -11.408  14.017  12.777  1.00  0.00     0.124 S 
ATOM     72  O   UNL     1     -11.750  13.417  11.490  1.00  0.00    -0.237 OA
ATOM     73  O   UNL     1     -12.116  13.472  13.933  1.00  0.00    -0.237 OA
ATOM     74  O   UNL     1     -11.264  15.471  12.766  1.00  0.00    -0.744 OA
ENDBRANCH  70  71
ENDBRANCH  51  65
BRANCH  52  75
ATOM     75  C   UNL     1       2.277   9.030  14.378  1.00  0.00    -0.014 A 
ATOM     76  C   UNL     1       2.658   8.208  15.452  1.00  0.00     0.010 A 
ATOM     77  C   UNL     1       3.242   9.389  13.418  1.00  0.00     0.010 A 
ATOM     78  C   UNL     1       3.981   7.771  15.575  1.00  0.00     0.020 A 
ATOM     79  C   UNL     1       4.556   8.928  13.519  1.00  0.00     0.020 A 
ATOM     80  C   UNL     1       4.921   8.131  14.604  1.00  0.00     0.054 A 
BRANCH  80  81
ATOM     81  S   UNL     1       6.619   7.511  14.758  1.00  0.00     0.124 S 
ATOM     82  O   UNL     1       7.120   8.278  15.894  1.00  0.00    -0.237 OA
ATOM     83  O   UNL     1       6.412   6.085  14.996  1.00  0.00    -0.237 OA
ATOM     84  O   UNL     1       7.221   7.839  13.467  1.00  0.00    -0.744 OA
ENDBRANCH  80  81
ENDBRANCH  52  75
BRANCH  64  85
ATOM     85  C   UNL     1      -1.706  13.341  18.154  1.00  0.00    -0.014 A 
ATOM     86  C   UNL     1      -0.796  14.411  18.213  1.00  0.00     0.010 A 
ATOM     87  C   UNL     1      -2.412  12.977  19.316  1.00  0.00     0.010 A 
ATOM     88  C   UNL     1      -0.554  15.066  19.423  1.00  0.00     0.020 A 
ATOM     89  C   UNL     1      -2.201  13.654  20.519  1.00  0.00     0.020 A 
ATOM     90  C   UNL     1      -1.255  14.680  20.569  1.00  0.00     0.054 A 
BRANCH  90  91
ATOM     91  S   UNL     1      -0.928  15.550  22.125  1.00  0.00     0.124 S 
ATOM     92  O   UNL     1       0.396  15.047  22.481  1.00  0.00    -0.237 OA
ATOM     93  O   UNL     1      -0.980  16.954  21.724  1.00  0.00    -0.237 OA
ATOM     94  O   UNL     1      -2.014  15.117  23.001  1.00  0.00    -0.744 OA
ENDBRANCH  90  91
ENDBRANCH  64  85
ENDBRANCH  38  39
ENDBRANCH  31  33
ENDBRANCH  30  31
ENDBRANCH  29  30
ENDBRANCH  28  29
ENDBRANCH  27  28
ENDBRANCH  26  27
ENDBRANCH  25  26
ENDBRANCH   1  25
TORSDOF 29
