REMARK SMILES O=C(COc1ccccc1C[N@H+]1C[C@@H]2[C@H]3CC[C@H](C3)[C@@H]2C1)OCCOCCOCCOCCOC(=O)c1ccc(-c2c3nc(c(-c4ccc(S(=O)(=O)[O-])cc4)c4ccc([nH]4)c(-c4ccc(S(=O)(=O)[O-])cc4)c4nc(c(-c5ccc(S(=O)(=O)[O-])cc5)c5ccc2[nH]5)C=C4)C=C3)cc1
REMARK SMILES IDX 27 1 26 2 25 3 24 4 23 5 22 6 2 7 1 8 3 9 4 10 5 11 6 12
REMARK SMILES IDX 10 13 7 14 9 15 8 16 11 17 12 18 13 19 21 20 14 22 20 23
REMARK SMILES IDX 15 24 18 25 16 26 19 27 17 28 28 29 29 30 30 31 31 32 32 33
REMARK SMILES IDX 33 34 34 35 35 36 36 37 37 38 38 39 96 40 39 41 95 42 40 43
REMARK SMILES IDX 41 44 42 45 89 46 43 47 94 48 88 49 90 50 44 51 93 52 87 53
REMARK SMILES IDX 86 54 45 56 75 57 56 58 74 59 57 60 60 61 73 62 91 63 58 64
REMARK SMILES IDX 59 65 72 67 92 68 61 69 46 70 47 71 55 72 48 73 54 74 49 75
REMARK SMILES IDX 50 76 51 77 52 78 53 79 76 80 77 81 85 82 78 83 84 84 79 85
REMARK SMILES IDX 80 86 81 87 82 88 83 89 62 90 63 91 71 92 64 93 70 94 65 95
REMARK SMILES IDX 66 96 67 97 68 98 69 99
REMARK H PARENT 12 21 90 55 60 66
REMARK Flexibility Score: inf
ROOT
ATOM      1  C   UNL     1       2.367  -0.645   2.606  1.00  0.00     0.188 C 
ENDROOT
BRANCH   1   2
ATOM      2  C   UNL     1       3.216  -1.710   1.863  1.00  0.00     0.188 C 
BRANCH   2   3
ATOM      3  O   UNL     1       4.542  -1.372   1.488  1.00  0.00    -0.376 OA
BRANCH   3   4
ATOM      4  C   UNL     1       4.908  -0.630   0.343  1.00  0.00     0.202 C 
BRANCH   4   5
ATOM      5  C   UNL     1       4.023   0.503  -0.152  1.00  0.00     0.261 C 
BRANCH   5   6
ATOM      6  O   UNL     1       2.608   0.242  -0.089  1.00  0.00    -0.461 OA
BRANCH   6   7
ATOM      7  C   UNL     1       1.923  -0.770  -0.672  1.00  0.00     0.344 C 
ATOM      8  O   UNL     1       0.742  -0.953  -0.379  1.00  0.00    -0.248 OA
BRANCH   7   9
ATOM      9  C   UNL     1       2.642  -1.678  -1.649  1.00  0.00     0.351 C 
BRANCH   9  10
ATOM     10  O   UNL     1       3.592  -1.037  -2.487  1.00  0.00    -0.481 OA
BRANCH  10  11
ATOM     11  C   UNL     1       3.071  -0.768  -3.724  1.00  0.00     0.129 A 
ATOM     12  C   UNL     1       3.584  -1.552  -4.758  1.00  0.00     0.047 A 
ATOM     13  C   UNL     1       2.121   0.249  -3.961  1.00  0.00     0.048 A 
ATOM     14  C   UNL     1       3.094  -1.392  -6.046  1.00  0.00     0.004 A 
ATOM     15  C   UNL     1       1.614   0.360  -5.258  1.00  0.00     0.013 A 
ATOM     16  C   UNL     1       2.095  -0.452  -6.290  1.00  0.00     0.001 A 
BRANCH  13  17
ATOM     17  C   UNL     1       1.638   1.157  -2.851  1.00  0.00     0.302 C 
BRANCH  17  18
ATOM     18  N   UNL     1       1.743   2.579  -3.060  1.00  0.00    -0.331 N 
ATOM     19  C   UNL     1       0.539   3.236  -3.525  1.00  0.00     0.266 C 
ATOM     20  C   UNL     1       2.113   3.334  -1.842  1.00  0.00     0.266 C 
ATOM     21  H   UNL     1       2.468   2.606  -3.777  1.00  0.00     0.348 HD
ATOM     22  C   UNL     1       1.000   4.683  -3.505  1.00  0.00     0.056 C 
ATOM     23  C   UNL     1       1.917   4.794  -2.265  1.00  0.00     0.056 C 
ATOM     24  C   UNL     1       1.968   5.073  -4.662  1.00  0.00    -0.002 C 
ATOM     25  C   UNL     1       3.185   5.468  -2.844  1.00  0.00    -0.002 C 
ATOM     26  C   UNL     1       2.053   6.604  -4.654  1.00  0.00     0.004 C 
ATOM     27  C   UNL     1       3.384   4.735  -4.167  1.00  0.00     0.008 C 
ATOM     28  C   UNL     1       2.821   6.882  -3.348  1.00  0.00     0.004 C 
ENDBRANCH  17  18
ENDBRANCH  13  17
ENDBRANCH  10  11
ENDBRANCH   9  10
ENDBRANCH   7   9
ENDBRANCH   6   7
ENDBRANCH   5   6
ENDBRANCH   4   5
ENDBRANCH   3   4
ENDBRANCH   2   3
ENDBRANCH   1   2
BRANCH   1  29
ATOM     29  O   UNL     1       2.937   0.172   3.620  1.00  0.00    -0.377 OA
BRANCH  29  30
ATOM     30  C   UNL     1       4.306   0.509   3.507  1.00  0.00     0.188 C 
BRANCH  30  31
ATOM     31  C   UNL     1       5.246  -0.578   4.055  1.00  0.00     0.188 C 
BRANCH  31  32
ATOM     32  O   UNL     1       4.673  -1.861   4.211  1.00  0.00    -0.376 OA
BRANCH  32  33
ATOM     33  C   UNL     1       3.822  -2.198   5.293  1.00  0.00     0.202 C 
BRANCH  33  34
ATOM     34  C   UNL     1       3.002  -1.227   6.164  1.00  0.00     0.261 C 
BRANCH  34  35
ATOM     35  O   UNL     1       3.445   0.119   6.304  1.00  0.00    -0.460 OA
BRANCH  35  36
ATOM     36  C   UNL     1       4.582   0.331   6.986  1.00  0.00     0.338 C 
ATOM     37  O   UNL     1       5.287  -0.504   7.528  1.00  0.00    -0.246 OA
BRANCH  36  38
ATOM     38  C   UNL     1       4.943   1.744   6.753  1.00  0.00     0.060 A 
ATOM     39  C   UNL     1       6.196   2.038   6.197  1.00  0.00     0.016 A 
ATOM     40  C   UNL     1       4.028   2.763   7.037  1.00  0.00     0.016 A 
ATOM     41  C   UNL     1       6.559   3.358   5.965  1.00  0.00     0.010 A 
ATOM     42  C   UNL     1       4.410   4.090   6.851  1.00  0.00     0.010 A 
ATOM     43  C   UNL     1       5.696   4.384   6.365  1.00  0.00    -0.014 A 
BRANCH  43  44
ATOM     44  C   UNL     1       6.270   5.723   6.598  1.00  0.00     0.031 A 
ATOM     45  C   UNL     1       6.794   6.008   7.979  1.00  0.00     0.074 A 
ATOM     46  C   UNL     1       6.369   6.631   5.615  1.00  0.00     0.049 A 
ATOM     47  N   UNL     1       7.333   7.097   8.455  1.00  0.00    -0.248 NA
ATOM     48  C   UNL     1       6.693   4.908   8.956  1.00  0.00     0.031 C 
ATOM     49  C   UNL     1       5.960   6.430   4.227  1.00  0.00     0.029 A 
ATOM     50  N   UNL     1       6.855   7.912   5.647  1.00  0.00    -0.354 N 
ATOM     51  C   UNL     1       7.620   6.818   9.786  1.00  0.00     0.074 A 
ATOM     52  C   UNL     1       7.169   5.472  10.052  1.00  0.00     0.031 C 
ATOM     53  C   UNL     1       6.209   7.557   3.537  1.00  0.00     0.029 A 
ATOM     54  C   UNL     1       6.759   8.564   4.443  1.00  0.00     0.049 A 
ATOM     55  H   UNL     1       7.236   8.325   6.456  1.00  0.00     0.167 HD
ATOM     56  C   UNL     1       8.209   7.614  10.707  1.00  0.00     0.031 A 
ATOM     57  C   UNL     1       7.068   9.836   4.124  1.00  0.00     0.031 A 
ATOM     58  C   UNL     1       8.624   8.963  10.438  1.00  0.00     0.049 A 
ATOM     59  C   UNL     1       7.638  10.738   5.189  1.00  0.00     0.074 A 
ATOM     60  C   UNL     1       9.230   9.864  11.292  1.00  0.00     0.029 A 
ATOM     61  N   UNL     1       8.460   9.608   9.220  1.00  0.00    -0.354 N 
ATOM     62  N   UNL     1       7.917  10.464   6.442  1.00  0.00    -0.248 NA
ATOM     63  C   UNL     1       7.946  12.117   4.791  1.00  0.00     0.031 C 
ATOM     64  C   UNL     1       9.369  11.078  10.611  1.00  0.00     0.029 A 
ATOM     65  C   UNL     1       8.925  10.908   9.308  1.00  0.00     0.049 A 
ATOM     66  H   UNL     1       8.069   9.201   8.413  1.00  0.00     0.167 HD
ATOM     67  C   UNL     1       8.470  11.626   6.972  1.00  0.00     0.074 A 
ATOM     68  C   UNL     1       8.489  12.601   5.900  1.00  0.00     0.031 C 
ATOM     69  C   UNL     1       8.931  11.863   8.227  1.00  0.00     0.031 A 
BRANCH  56  70
ATOM     70  C   UNL     1       8.367   7.056  12.097  1.00  0.00    -0.014 A 
ATOM     71  C   UNL     1       9.240   5.986  12.369  1.00  0.00     0.010 A 
ATOM     72  C   UNL     1       7.607   7.601  13.148  1.00  0.00     0.010 A 
ATOM     73  C   UNL     1       9.307   5.436  13.652  1.00  0.00     0.020 A 
ATOM     74  C   UNL     1       7.698   7.077  14.440  1.00  0.00     0.020 A 
ATOM     75  C   UNL     1       8.531   5.982  14.678  1.00  0.00     0.054 A 
BRANCH  75  76
ATOM     76  S   UNL     1       8.632   5.247  16.333  1.00  0.00     0.124 S 
ATOM     77  O   UNL     1       7.938   3.976  16.141  1.00  0.00    -0.237 OA
ATOM     78  O   UNL     1      10.073   5.149  16.551  1.00  0.00    -0.237 OA
ATOM     79  O   UNL     1       7.941   6.212  17.185  1.00  0.00    -0.744 OA
ENDBRANCH  75  76
ENDBRANCH  56  70
BRANCH  57  80
ATOM     80  C   UNL     1       6.845  10.324   2.736  1.00  0.00    -0.014 A 
ATOM     81  C   UNL     1       7.934  10.619   1.899  1.00  0.00     0.010 A 
ATOM     82  C   UNL     1       5.538  10.471   2.235  1.00  0.00     0.010 A 
ATOM     83  C   UNL     1       7.722  11.055   0.588  1.00  0.00     0.020 A 
ATOM     84  C   UNL     1       5.322  10.879   0.916  1.00  0.00     0.020 A 
ATOM     85  C   UNL     1       6.417  11.173   0.102  1.00  0.00     0.054 A 
BRANCH  85  86
ATOM     86  S   UNL     1       6.171  11.665  -1.627  1.00  0.00     0.124 S 
ATOM     87  O   UNL     1       6.579  13.066  -1.607  1.00  0.00    -0.237 OA
ATOM     88  O   UNL     1       7.064  10.755  -2.340  1.00  0.00    -0.237 OA
ATOM     89  O   UNL     1       4.746  11.430  -1.851  1.00  0.00    -0.744 OA
ENDBRANCH  85  86
ENDBRANCH  57  80
BRANCH  69  90
ATOM     90  C   UNL     1       9.545  13.212   8.500  1.00  0.00    -0.014 A 
ATOM     91  C   UNL     1       8.767  14.382   8.555  1.00  0.00     0.010 A 
ATOM     92  C   UNL     1      10.925  13.295   8.765  1.00  0.00     0.010 A 
ATOM     93  C   UNL     1       9.366  15.615   8.831  1.00  0.00     0.020 A 
ATOM     94  C   UNL     1      11.521  14.519   9.075  1.00  0.00     0.020 A 
ATOM     95  C   UNL     1      10.740  15.675   9.089  1.00  0.00     0.054 A 
BRANCH  95  96
ATOM     96  S   UNL     1      11.486  17.281   9.479  1.00  0.00     0.124 S 
ATOM     97  O   UNL     1      11.455  17.953   8.183  1.00  0.00    -0.237 OA
ATOM     98  O   UNL     1      10.577  17.819  10.488  1.00  0.00    -0.237 OA
ATOM     99  O   UNL     1      12.818  16.935   9.970  1.00  0.00    -0.744 OA
ENDBRANCH  95  96
ENDBRANCH  69  90
ENDBRANCH  43  44
ENDBRANCH  36  38
ENDBRANCH  35  36
ENDBRANCH  34  35
ENDBRANCH  33  34
ENDBRANCH  32  33
ENDBRANCH  31  32
ENDBRANCH  30  31
ENDBRANCH  29  30
ENDBRANCH   1  29
TORSDOF 27
