REMARK SMILES C[C@]12C(=O)N(c3ccc(C(=O)OCCOCCOCCOCCOC(=O)c4ccc(-c5c6nc(c(-c7ccc(S(=O)(=O)[O-])cc7)c7ccc([nH]7)c(-c7ccc(S(=O)(=O)[O-])cc7)c7nc(c(-c8ccc(S(=O)(=O)[O-])cc8)c8ccc5[nH]8)C=C7)C=C6)cc4)cc3)C(=O)[C@H]1[C@H]1c3ccccc3[C@@H]2c2ccccc21
REMARK SMILES IDX 19 1 18 2 17 3 16 4 15 5 14 6 13 7 12 8 10 9 11 10 9 11 6 12
REMARK SMILES IDX 7 13 88 14 8 15 87 16 5 17 1 18 2 19 3 20 91 21 99 22 4 23
REMARK SMILES IDX 89 24 92 25 98 26 100 27 90 28 93 29 105 30 97 31 101 32
REMARK SMILES IDX 94 33 104 34 96 35 102 36 95 37 103 38 20 39 21 40 22 41
REMARK SMILES IDX 23 42 24 43 25 44 26 45 27 46 28 47 86 48 29 49 85 50 30 51
REMARK SMILES IDX 31 52 32 53 79 54 33 55 84 56 78 57 80 58 34 59 83 60 77 61
REMARK SMILES IDX 76 62 35 64 65 65 46 66 64 67 47 68 50 69 63 70 81 71 48 72
REMARK SMILES IDX 49 73 62 75 82 76 51 77 36 78 37 79 45 80 38 81 44 82 39 83
REMARK SMILES IDX 40 84 41 85 42 86 43 87 66 88 67 89 75 90 68 91 74 92 69 93
REMARK SMILES IDX 70 94 71 95 72 96 73 97 52 98 53 99 61 100 54 101 60 102
REMARK SMILES IDX 55 103 56 104 57 105 58 106 59 107
REMARK H PARENT 80 63 50 74
REMARK Flexibility Score: inf
ROOT
ATOM      1  C   UNL     1       2.537  11.212  -0.750  1.00  0.00     0.188 C 
ENDROOT
BRANCH   1   2
ATOM      2  O   UNL     1       1.929  10.207   0.050  1.00  0.00    -0.377 OA
BRANCH   2   3
ATOM      3  C   UNL     1       1.029   9.323  -0.585  1.00  0.00     0.188 C 
BRANCH   3   4
ATOM      4  C   UNL     1      -0.442   9.774  -0.509  1.00  0.00     0.188 C 
BRANCH   4   5
ATOM      5  O   UNL     1      -0.768  11.114  -0.173  1.00  0.00    -0.376 OA
BRANCH   5   6
ATOM      6  C   UNL     1      -0.278  11.722   1.015  1.00  0.00     0.202 C 
BRANCH   6   7
ATOM      7  C   UNL     1      -0.048  10.981   2.349  1.00  0.00     0.261 C 
BRANCH   7   8
ATOM      8  O   UNL     1       0.454   9.642   2.279  1.00  0.00    -0.460 OA
BRANCH   8   9
ATOM      9  C   UNL     1      -0.429   8.667   2.589  1.00  0.00     0.338 C 
ATOM     10  O   UNL     1      -1.590   8.804   2.937  1.00  0.00    -0.246 OA
BRANCH   9  11
ATOM     11  C   UNL     1       0.132   7.359   2.188  1.00  0.00     0.060 A 
ATOM     12  C   UNL     1       1.043   4.819   1.331  1.00  0.00     0.052 A 
ATOM     13  C   UNL     1      -0.143   5.390   0.825  1.00  0.00     0.028 A 
ATOM     14  C   UNL     1       1.794   5.584   2.236  1.00  0.00     0.028 A 
ATOM     15  C   UNL     1      -0.618   6.616   1.280  1.00  0.00     0.018 A 
ATOM     16  C   UNL     1       1.359   6.865   2.638  1.00  0.00     0.018 A 
BRANCH  12  17
ATOM     17  N   UNL     1       1.303   3.428   1.085  1.00  0.00    -0.250 N 
ATOM     18  C   UNL     1       1.113   0.331   0.062  1.00  0.00     0.024 C 
ATOM     19  C   UNL     1       0.254   1.352   0.831  1.00  0.00     0.071 C 
ATOM     20  C   UNL     1       0.510   2.701   0.214  1.00  0.00     0.241 C 
ATOM     21  C   UNL     1       0.747   1.553   2.295  1.00  0.00     0.107 C 
ATOM     22  C   UNL     1      -1.271   1.012   0.839  1.00  0.00     0.066 C 
ATOM     23  O   UNL     1       0.091   3.023  -0.891  1.00  0.00    -0.273 OA
ATOM     24  C   UNL     1       1.847   2.579   2.071  1.00  0.00     0.238 C 
ATOM     25  C   UNL     1      -0.269   0.892   3.299  1.00  0.00     0.063 C 
ATOM     26  C   UNL     1      -1.968   1.972   1.821  1.00  0.00    -0.036 A 
ATOM     27  C   UNL     1      -1.379  -0.370   1.475  1.00  0.00    -0.036 A 
ATOM     28  O   UNL     1       2.898   2.661   2.678  1.00  0.00    -0.274 OA
ATOM     29  C   UNL     1      -1.505   1.860   3.172  1.00  0.00    -0.036 A 
ATOM     30  C   UNL     1      -0.804  -0.447   2.774  1.00  0.00    -0.036 A 
ATOM     31  C   UNL     1      -2.828   2.998   1.459  1.00  0.00     0.005 A 
ATOM     32  C   UNL     1      -2.063  -1.445   0.920  1.00  0.00     0.005 A 
ATOM     33  C   UNL     1      -1.874   2.792   4.133  1.00  0.00     0.004 A 
ATOM     34  C   UNL     1      -0.949  -1.610   3.519  1.00  0.00     0.004 A 
ATOM     35  C   UNL     1      -3.193   3.934   2.430  1.00  0.00     0.000 A 
ATOM     36  C   UNL     1      -2.194  -2.609   1.672  1.00  0.00     0.000 A 
ATOM     37  C   UNL     1      -2.717   3.836   3.749  1.00  0.00     0.000 A 
ATOM     38  C   UNL     1      -1.645  -2.689   2.961  1.00  0.00     0.000 A 
ENDBRANCH  12  17
ENDBRANCH   9  11
ENDBRANCH   8   9
ENDBRANCH   7   8
ENDBRANCH   6   7
ENDBRANCH   5   6
ENDBRANCH   4   5
ENDBRANCH   3   4
ENDBRANCH   2   3
ENDBRANCH   1   2
BRANCH   1  39
ATOM     39  C   UNL     1       1.779  11.811  -1.955  1.00  0.00     0.188 C 
BRANCH  39  40
ATOM     40  O   UNL     1       1.122  10.855  -2.781  1.00  0.00    -0.376 OA
BRANCH  40  41
ATOM     41  C   UNL     1       1.717  10.522  -4.027  1.00  0.00     0.202 C 
BRANCH  41  42
ATOM     42  C   UNL     1       2.986   9.662  -3.965  1.00  0.00     0.261 C 
BRANCH  42  43
ATOM     43  O   UNL     1       4.077  10.211  -3.216  1.00  0.00    -0.460 OA
BRANCH  43  44
ATOM     44  C   UNL     1       4.604  11.383  -3.634  1.00  0.00     0.338 C 
ATOM     45  O   UNL     1       4.260  12.038  -4.603  1.00  0.00    -0.246 OA
BRANCH  44  46
ATOM     46  C   UNL     1       5.556  11.832  -2.594  1.00  0.00     0.060 A 
ATOM     47  C   UNL     1       6.516  10.949  -2.093  1.00  0.00     0.016 A 
ATOM     48  C   UNL     1       5.458  13.133  -2.086  1.00  0.00     0.016 A 
ATOM     49  C   UNL     1       7.396  11.380  -1.101  1.00  0.00     0.010 A 
ATOM     50  C   UNL     1       6.347  13.565  -1.095  1.00  0.00     0.010 A 
ATOM     51  C   UNL     1       7.338  12.698  -0.612  1.00  0.00    -0.014 A 
BRANCH  51  52
ATOM     52  C   UNL     1       8.437  13.190   0.258  1.00  0.00     0.031 A 
ATOM     53  C   UNL     1       8.263  13.399   1.732  1.00  0.00     0.074 A 
ATOM     54  C   UNL     1       9.635  13.413  -0.318  1.00  0.00     0.049 A 
ATOM     55  N   UNL     1       9.181  13.648   2.631  1.00  0.00    -0.248 NA
ATOM     56  C   UNL     1       6.896  13.331   2.268  1.00  0.00     0.031 C 
ATOM     57  C   UNL     1       9.905  13.278  -1.752  1.00  0.00     0.029 A 
ATOM     58  N   UNL     1      10.848  13.763   0.219  1.00  0.00    -0.354 N 
ATOM     59  C   UNL     1       8.513  13.737   3.846  1.00  0.00     0.074 A 
ATOM     60  C   UNL     1       7.102  13.575   3.558  1.00  0.00     0.031 C 
ATOM     61  C   UNL     1      11.211  13.481  -1.972  1.00  0.00     0.029 A 
ATOM     62  C   UNL     1      11.867  13.793  -0.705  1.00  0.00     0.049 A 
ATOM     63  H   UNL     1      10.977  13.972   1.172  1.00  0.00     0.167 HD
ATOM     64  C   UNL     1       9.037  13.915   5.083  1.00  0.00     0.031 A 
ATOM     65  C   UNL     1      13.189  14.016  -0.556  1.00  0.00     0.031 A 
ATOM     66  C   UNL     1      10.445  14.099   5.346  1.00  0.00     0.049 A 
ATOM     67  C   UNL     1      13.743  14.223   0.825  1.00  0.00     0.074 A 
ATOM     68  C   UNL     1      11.074  14.251   6.571  1.00  0.00     0.029 A 
ATOM     69  N   UNL     1      11.442  14.161   4.381  1.00  0.00    -0.354 N 
ATOM     70  N   UNL     1      13.109  14.217   1.973  1.00  0.00    -0.248 NA
ATOM     71  C   UNL     1      15.192  14.439   0.937  1.00  0.00     0.031 C 
ATOM     72  C   UNL     1      12.432  14.484   6.343  1.00  0.00     0.029 A 
ATOM     73  C   UNL     1      12.672  14.380   4.983  1.00  0.00     0.049 A 
ATOM     74  H   UNL     1      11.296  14.063   3.413  1.00  0.00     0.167 HD
ATOM     75  C   UNL     1      14.086  14.396   2.947  1.00  0.00     0.074 A 
ATOM     76  C   UNL     1      15.354  14.491   2.253  1.00  0.00     0.031 C 
ATOM     77  C   UNL     1      13.938  14.473   4.293  1.00  0.00     0.031 A 
BRANCH  64  78
ATOM     78  C   UNL     1       8.105  13.896   6.271  1.00  0.00    -0.014 A 
ATOM     79  C   UNL     1       7.973  15.038   7.084  1.00  0.00     0.010 A 
ATOM     80  C   UNL     1       7.481  12.701   6.673  1.00  0.00     0.010 A 
ATOM     81  C   UNL     1       7.271  14.976   8.293  1.00  0.00     0.020 A 
ATOM     82  C   UNL     1       6.751  12.643   7.865  1.00  0.00     0.020 A 
ATOM     83  C   UNL     1       6.674  13.774   8.680  1.00  0.00     0.054 A 
BRANCH  83  84
ATOM     84  S   UNL     1       5.806  13.701  10.272  1.00  0.00     0.124 S 
ATOM     85  O   UNL     1       6.909  13.731  11.228  1.00  0.00    -0.237 OA
ATOM     86  O   UNL     1       4.970  14.898  10.233  1.00  0.00    -0.237 OA
ATOM     87  O   UNL     1       5.072  12.438  10.204  1.00  0.00    -0.744 OA
ENDBRANCH  83  84
ENDBRANCH  64  78
BRANCH  65  88
ATOM     88  C   UNL     1      14.068  13.964  -1.758  1.00  0.00    -0.014 A 
ATOM     89  C   UNL     1      13.928  14.920  -2.783  1.00  0.00     0.010 A 
ATOM     90  C   UNL     1      14.974  12.904  -1.935  1.00  0.00     0.010 A 
ATOM     91  C   UNL     1      14.629  14.783  -3.983  1.00  0.00     0.020 A 
ATOM     92  C   UNL     1      15.706  12.784  -3.121  1.00  0.00     0.020 A 
ATOM     93  C   UNL     1      15.503  13.706  -4.150  1.00  0.00     0.054 A 
BRANCH  93  94
ATOM     94  S   UNL     1      16.350  13.516  -5.742  1.00  0.00     0.124 S 
ATOM     95  O   UNL     1      15.264  13.063  -6.606  1.00  0.00    -0.237 OA
ATOM     96  O   UNL     1      16.842  14.866  -6.004  1.00  0.00    -0.237 OA
ATOM     97  O   UNL     1      17.384  12.521  -5.464  1.00  0.00    -0.744 OA
ENDBRANCH  93  94
ENDBRANCH  65  88
BRANCH  77  98
ATOM     98  C   UNL     1      15.175  14.655   5.139  1.00  0.00    -0.014 A 
ATOM     99  C   UNL     1      15.544  13.650   6.056  1.00  0.00     0.010 A 
ATOM    100  C   UNL     1      15.904  15.858   5.122  1.00  0.00     0.010 A 
ATOM    101  C   UNL     1      16.590  13.857   6.959  1.00  0.00     0.020 A 
ATOM    102  C   UNL     1      16.976  16.054   5.999  1.00  0.00     0.020 A 
ATOM    103  C   UNL     1      17.295  15.062   6.930  1.00  0.00     0.054 A 
BRANCH 103 104
ATOM    104  S   UNL     1      18.633  15.321   8.128  1.00  0.00     0.124 S 
ATOM    105  O   UNL     1      17.896  15.573   9.363  1.00  0.00    -0.237 OA
ATOM    106  O   UNL     1      19.360  14.055   8.075  1.00  0.00    -0.237 OA
ATOM    107  O   UNL     1      19.358  16.470   7.589  1.00  0.00    -0.744 OA
ENDBRANCH 103 104
ENDBRANCH  77  98
ENDBRANCH  51  52
ENDBRANCH  44  46
ENDBRANCH  43  44
ENDBRANCH  42  43
ENDBRANCH  41  42
ENDBRANCH  40  41
ENDBRANCH  39  40
ENDBRANCH   1  39
TORSDOF 24
