REMARK SMILES O=C(OCCOCCOCCOCCOC(=O)c1ccccc1C(=O)Nc1ccc(N2C(=O)[C@H]3[C@@H]4CC[C@@H](C4)[C@@H]3C2=O)cc1)c1ccc(-c2c3nc(c(-c4ccc(S(=O)(=O)[O-])cc4)c4ccc([nH]4)c(-c4ccc(S(=O)(=O)[O-])cc4)c4nc(c(-c5ccc(S(=O)(=O)[O-])cc5)c5ccc2[nH]5)C=C4)C=C3)cc1
REMARK SMILES IDX 9 1 8 2 7 3 6 4 5 5 4 6 3 7 2 8 1 9 45 10 46 11 104 12 47 13
REMARK SMILES IDX 103 14 48 15 49 16 50 17 97 18 51 19 102 20 96 21 98 22
REMARK SMILES IDX 52 23 101 24 95 25 94 26 53 28 83 29 64 30 82 31 65 32 68 33
REMARK SMILES IDX 81 34 99 35 66 36 67 37 80 39 100 40 69 41 54 42 55 43 63 44
REMARK SMILES IDX 56 45 62 46 57 47 58 48 59 49 60 50 61 51 84 52 85 53 93 54
REMARK SMILES IDX 86 55 92 56 87 57 88 58 89 59 90 60 91 61 70 62 71 63 79 64
REMARK SMILES IDX 72 65 78 66 73 67 74 68 75 69 76 70 77 71 10 72 11 73 12 74
REMARK SMILES IDX 13 75 14 76 15 77 16 78 17 79 18 80 19 81 23 82 20 83 22 84
REMARK SMILES IDX 21 85 24 86 25 87 26 88 27 90 28 91 44 92 29 93 43 94 30 95
REMARK SMILES IDX 31 96 32 97 41 98 33 99 34 100 40 101 42 102 35 103 38 104
REMARK SMILES IDX 36 105 39 106 37 107
REMARK H PARENT 98 27 68 38 26 89
REMARK Flexibility Score: inf
ROOT
ATOM      1  O   UNL     1       2.646  -0.405  -3.121  1.00  0.00    -0.377 OA
ENDROOT
BRANCH   1   2
ATOM      2  C   UNL     1       1.620  -0.316  -2.150  1.00  0.00     0.188 C 
BRANCH   2   3
ATOM      3  C   UNL     1       1.962  -0.813  -0.754  1.00  0.00     0.188 C 
BRANCH   3   4
ATOM      4  O   UNL     1       3.248  -0.470  -0.266  1.00  0.00    -0.376 OA
BRANCH   4   5
ATOM      5  C   UNL     1       4.240  -1.484  -0.236  1.00  0.00     0.202 C 
BRANCH   5   6
ATOM      6  C   UNL     1       3.917  -2.640   0.705  1.00  0.00     0.261 C 
BRANCH   6   7
ATOM      7  O   UNL     1       3.525  -2.233   2.028  1.00  0.00    -0.460 OA
BRANCH   7   8
ATOM      8  C   UNL     1       2.405  -1.472   2.164  1.00  0.00     0.338 C 
ATOM      9  O   UNL     1       1.266  -1.836   1.928  1.00  0.00    -0.246 OA
BRANCH   8  10
ATOM     10  C   UNL     1       2.799  -0.136   2.699  1.00  0.00     0.060 A 
ATOM     11  C   UNL     1       4.128   0.270   2.562  1.00  0.00     0.016 A 
ATOM     12  C   UNL     1       1.888   0.704   3.352  1.00  0.00     0.016 A 
ATOM     13  C   UNL     1       4.563   1.450   3.116  1.00  0.00     0.010 A 
ATOM     14  C   UNL     1       2.346   1.879   3.980  1.00  0.00     0.010 A 
ATOM     15  C   UNL     1       3.702   2.221   3.901  1.00  0.00    -0.014 A 
BRANCH  15  16
ATOM     16  C   UNL     1       4.430   3.081   4.868  1.00  0.00     0.031 A 
ATOM     17  C   UNL     1       5.208   2.325   5.918  1.00  0.00     0.074 A 
ATOM     18  C   UNL     1       4.679   4.380   4.618  1.00  0.00     0.049 A 
ATOM     19  N   UNL     1       6.268   2.685   6.589  1.00  0.00    -0.248 NA
ATOM     20  C   UNL     1       4.783   0.931   6.159  1.00  0.00     0.031 C 
ATOM     21  C   UNL     1       4.101   5.155   3.523  1.00  0.00     0.029 A 
ATOM     22  N   UNL     1       5.597   5.231   5.189  1.00  0.00    -0.354 N 
ATOM     23  C   UNL     1       6.624   1.567   7.335  1.00  0.00     0.074 A 
ATOM     24  C   UNL     1       5.727   0.495   6.974  1.00  0.00     0.031 C 
ATOM     25  C   UNL     1       4.757   6.327   3.429  1.00  0.00     0.029 A 
ATOM     26  C   UNL     1       5.777   6.399   4.476  1.00  0.00     0.049 A 
ATOM     27  H   UNL     1       6.077   5.028   6.024  1.00  0.00     0.167 HD
ATOM     28  C   UNL     1       7.566   1.459   8.298  1.00  0.00     0.031 A 
ATOM     29  C   UNL     1       6.698   7.377   4.627  1.00  0.00     0.031 A 
ATOM     30  C   UNL     1       8.360   2.562   8.750  1.00  0.00     0.049 A 
ATOM     31  C   UNL     1       7.678   7.268   5.776  1.00  0.00     0.074 A 
ATOM     32  C   UNL     1       9.185   2.634   9.856  1.00  0.00     0.029 A 
ATOM     33  N   UNL     1       8.392   3.804   8.136  1.00  0.00    -0.354 N 
ATOM     34  N   UNL     1       7.951   6.238   6.543  1.00  0.00    -0.248 NA
ATOM     35  C   UNL     1       8.455   8.476   6.097  1.00  0.00     0.031 C 
ATOM     36  C   UNL     1       9.654   3.947   9.956  1.00  0.00     0.029 A 
ATOM     37  C   UNL     1       9.194   4.663   8.861  1.00  0.00     0.049 A 
ATOM     38  H   UNL     1       7.914   4.039   7.308  1.00  0.00     0.167 HD
ATOM     39  C   UNL     1       8.917   6.680   7.445  1.00  0.00     0.074 A 
ATOM     40  C   UNL     1       9.228   8.047   7.085  1.00  0.00     0.031 C 
ATOM     41  C   UNL     1       9.477   6.028   8.495  1.00  0.00     0.031 A 
BRANCH  28  42
ATOM     42  C   UNL     1       7.597   0.166   9.059  1.00  0.00    -0.014 A 
ATOM     43  C   UNL     1       8.169  -1.005   8.533  1.00  0.00     0.010 A 
ATOM     44  C   UNL     1       6.965   0.123  10.315  1.00  0.00     0.010 A 
ATOM     45  C   UNL     1       8.076  -2.207   9.243  1.00  0.00     0.020 A 
ATOM     46  C   UNL     1       6.890  -1.067  11.035  1.00  0.00     0.020 A 
ATOM     47  C   UNL     1       7.432  -2.230  10.486  1.00  0.00     0.054 A 
BRANCH  47  48
ATOM     48  S   UNL     1       7.317  -3.799  11.386  1.00  0.00     0.124 S 
ATOM     49  O   UNL     1       6.342  -4.535  10.585  1.00  0.00    -0.237 OA
ATOM     50  O   UNL     1       8.687  -4.302  11.326  1.00  0.00    -0.237 OA
ATOM     51  O   UNL     1       6.859  -3.404  12.716  1.00  0.00    -0.744 OA
ENDBRANCH  47  48
ENDBRANCH  28  42
BRANCH  29  52
ATOM     52  C   UNL     1       6.766   8.552   3.700  1.00  0.00    -0.014 A 
ATOM     53  C   UNL     1       7.960   8.865   3.019  1.00  0.00     0.010 A 
ATOM     54  C   UNL     1       5.667   9.417   3.546  1.00  0.00     0.010 A 
ATOM     55  C   UNL     1       8.066  10.030   2.247  1.00  0.00     0.020 A 
ATOM     56  C   UNL     1       5.754  10.560   2.743  1.00  0.00     0.020 A 
ATOM     57  C   UNL     1       6.962  10.874   2.120  1.00  0.00     0.054 A 
BRANCH  57  58
ATOM     58  S   UNL     1       7.109  12.387   1.126  1.00  0.00     0.124 S 
ATOM     59  O   UNL     1       7.858  13.264   2.020  1.00  0.00    -0.237 OA
ATOM     60  O   UNL     1       7.828  11.924  -0.057  1.00  0.00    -0.237 OA
ATOM     61  O   UNL     1       5.719  12.773   0.890  1.00  0.00    -0.744 OA
ENDBRANCH  57  58
ENDBRANCH  29  52
BRANCH  41  62
ATOM     62  C   UNL     1      10.465   6.779   9.351  1.00  0.00    -0.014 A 
ATOM     63  C   UNL     1      10.053   7.847  10.168  1.00  0.00     0.010 A 
ATOM     64  C   UNL     1      11.804   6.351   9.409  1.00  0.00     0.010 A 
ATOM     65  C   UNL     1      10.970   8.497  10.998  1.00  0.00     0.020 A 
ATOM     66  C   UNL     1      12.716   6.977  10.262  1.00  0.00     0.020 A 
ATOM     67  C   UNL     1      12.296   8.057  11.040  1.00  0.00     0.054 A 
BRANCH  67  68
ATOM     68  S   UNL     1      13.456   8.890  12.158  1.00  0.00     0.124 S 
ATOM     69  O   UNL     1      13.662  10.169  11.483  1.00  0.00    -0.237 OA
ATOM     70  O   UNL     1      12.705   8.953  13.410  1.00  0.00    -0.237 OA
ATOM     71  O   UNL     1      14.617   8.003  12.179  1.00  0.00    -0.744 OA
ENDBRANCH  67  68
ENDBRANCH  41  62
ENDBRANCH  15  16
ENDBRANCH   8  10
ENDBRANCH   7   8
ENDBRANCH   6   7
ENDBRANCH   5   6
ENDBRANCH   4   5
ENDBRANCH   3   4
ENDBRANCH   2   3
ENDBRANCH   1   2
BRANCH   1  72
ATOM     72  C   UNL     1       3.880   0.275  -2.880  1.00  0.00     0.188 C 
BRANCH  72  73
ATOM     73  C   UNL     1       3.962   1.516  -1.968  1.00  0.00     0.188 C 
BRANCH  73  74
ATOM     74  O   UNL     1       2.717   2.151  -1.771  1.00  0.00    -0.376 OA
BRANCH  74  75
ATOM     75  C   UNL     1       2.399   3.170  -2.697  1.00  0.00     0.202 C 
BRANCH  75  76
ATOM     76  C   UNL     1       1.999   2.742  -4.107  1.00  0.00     0.261 C 
BRANCH  76  77
ATOM     77  O   UNL     1       2.972   2.316  -5.094  1.00  0.00    -0.460 OA
BRANCH  77  78
ATOM     78  C   UNL     1       4.303   2.463  -5.051  1.00  0.00     0.339 C 
ATOM     79  O   UNL     1       5.040   2.831  -4.147  1.00  0.00    -0.246 OA
BRANCH  78  80
ATOM     80  C   UNL     1       4.866   1.922  -6.273  1.00  0.00     0.072 A 
ATOM     81  C   UNL     1       5.695   0.785  -6.140  1.00  0.00     0.016 A 
ATOM     82  C   UNL     1       4.480   2.415  -7.512  1.00  0.00     0.054 A 
ATOM     83  C   UNL     1       6.018   0.021  -7.252  1.00  0.00     0.001 A 
ATOM     84  C   UNL     1       4.782   1.596  -8.621  1.00  0.00     0.015 A 
ATOM     85  C   UNL     1       5.525   0.406  -8.492  1.00  0.00     0.001 A 
BRANCH  82  86
ATOM     86  C   UNL     1       3.618   3.625  -7.722  1.00  0.00     0.256 C 
ATOM     87  O   UNL     1       2.878   3.592  -8.714  1.00  0.00    -0.269 OA
ATOM     88  N   UNL     1       3.465   4.715  -6.872  1.00  0.00    -0.322 N 
ATOM     89  H   UNL     1       2.662   5.241  -7.090  1.00  0.00     0.170 HD
BRANCH  88  90
ATOM     90  C   UNL     1       4.170   5.260  -5.772  1.00  0.00     0.041 A 
ATOM     91  C   UNL     1       3.412   5.835  -4.737  1.00  0.00     0.028 A 
ATOM     92  C   UNL     1       5.546   5.184  -5.599  1.00  0.00     0.028 A 
ATOM     93  C   UNL     1       3.973   6.051  -3.455  1.00  0.00     0.029 A 
ATOM     94  C   UNL     1       6.117   5.473  -4.335  1.00  0.00     0.029 A 
ATOM     95  C   UNL     1       5.320   5.778  -3.212  1.00  0.00     0.052 A 
BRANCH  95  96
ATOM     96  N   UNL     1       5.860   5.584  -1.898  1.00  0.00    -0.250 N 
ATOM     97  C   UNL     1       7.218   5.770  -1.599  1.00  0.00     0.237 C 
ATOM     98  C   UNL     1       5.189   4.966  -0.821  1.00  0.00     0.237 C 
ATOM     99  O   UNL     1       8.061   6.434  -2.174  1.00  0.00    -0.274 OA
ATOM    100  C   UNL     1       7.488   4.760  -0.539  1.00  0.00     0.095 C 
ATOM    101  C   UNL     1       6.222   4.849   0.271  1.00  0.00     0.095 C 
ATOM    102  O   UNL     1       4.007   4.705  -0.672  1.00  0.00    -0.274 OA
ATOM    103  C   UNL     1       8.557   4.584   0.552  1.00  0.00     0.002 C 
ATOM    104  C   UNL     1       6.591   3.894   1.411  1.00  0.00     0.002 C 
ATOM    105  C   UNL     1       8.771   3.060   0.622  1.00  0.00     0.005 C 
ATOM    106  C   UNL     1       7.800   4.725   1.898  1.00  0.00     0.009 C 
ATOM    107  C   UNL     1       7.351   2.579   1.035  1.00  0.00     0.005 C 
ENDBRANCH  95  96
ENDBRANCH  88  90
ENDBRANCH  82  86
ENDBRANCH  78  80
ENDBRANCH  77  78
ENDBRANCH  76  77
ENDBRANCH  75  76
ENDBRANCH  74  75
ENDBRANCH  73  74
ENDBRANCH  72  73
ENDBRANCH   1  72
TORSDOF 26
