REMARK SMILES O=C(OCCOCCOCCOCCOC(=O)[C@@H](Cc1c[nH]c2ccccc12)Nc1ncnc2ccccc12)c1ccc(-c2c3nc(c(-c4ccc(S(=O)(=O)[O-])cc4)c4ccc([nH]4)c(-c4ccc(S(=O)(=O)[O-])cc4)c4nc(c(-c5ccc(S(=O)(=O)[O-])cc5)c5ccc2[nH]5)C=C4)C=C3)cc1
REMARK SMILES IDX 8 1 7 2 6 3 5 4 4 5 3 6 2 7 1 8 40 9 41 10 99 11 42 12 98 13
REMARK SMILES IDX 43 14 44 15 45 16 92 17 46 18 97 19 91 20 93 21 47 22 96 23
REMARK SMILES IDX 90 24 89 25 48 27 78 28 59 29 77 30 60 31 63 32 76 33 94 34
REMARK SMILES IDX 61 35 62 36 75 38 95 39 64 40 49 41 50 42 58 43 51 44 57 45
REMARK SMILES IDX 52 46 53 47 54 48 55 49 56 50 79 51 80 52 88 53 81 54 87 55
REMARK SMILES IDX 82 56 83 57 84 58 85 59 86 60 65 61 66 62 74 63 67 64 73 65
REMARK SMILES IDX 68 66 69 67 70 68 71 69 72 70 9 71 10 72 11 73 12 74 13 75
REMARK SMILES IDX 14 76 15 77 16 78 17 79 18 80 19 81 20 82 21 83 28 84 22 85
REMARK SMILES IDX 23 86 27 87 24 89 26 90 25 91 29 92 30 94 31 95 39 96 32 97
REMARK SMILES IDX 34 98 38 99 33 100 35 101 37 102 36 103
REMARK H PARENT 93 26 63 37 22 88 29 93
REMARK Flexibility Score: inf
ROOT
ATOM      1  C   UNL     1       2.396  -1.332   2.452  1.00  0.00     0.188 C 
ENDROOT
BRANCH   1   2
ATOM      2  C   UNL     1       2.687  -0.157   1.543  1.00  0.00     0.188 C 
BRANCH   2   3
ATOM      3  O   UNL     1       3.958  -0.390   0.977  1.00  0.00    -0.376 OA
BRANCH   3   4
ATOM      4  C   UNL     1       4.788   0.678   0.586  1.00  0.00     0.202 C 
BRANCH   4   5
ATOM      5  C   UNL     1       4.155   1.766  -0.264  1.00  0.00     0.261 C 
BRANCH   5   6
ATOM      6  O   UNL     1       2.789   1.563  -0.682  1.00  0.00    -0.460 OA
BRANCH   6   7
ATOM      7  C   UNL     1       2.221   0.793  -1.635  1.00  0.00     0.338 C 
ATOM      8  O   UNL     1       1.032   0.971  -1.902  1.00  0.00    -0.246 OA
BRANCH   7   9
ATOM      9  C   UNL     1       2.939  -0.267  -2.385  1.00  0.00     0.060 A 
ATOM     10  C   UNL     1       3.857  -1.135  -1.811  1.00  0.00     0.016 A 
ATOM     11  C   UNL     1       2.540  -0.533  -3.700  1.00  0.00     0.016 A 
ATOM     12  C   UNL     1       4.497  -2.125  -2.518  1.00  0.00     0.010 A 
ATOM     13  C   UNL     1       3.096  -1.605  -4.406  1.00  0.00     0.010 A 
ATOM     14  C   UNL     1       4.098  -2.385  -3.812  1.00  0.00    -0.014 A 
BRANCH  14  15
ATOM     15  C   UNL     1       4.846  -3.417  -4.533  1.00  0.00     0.031 A 
ATOM     16  C   UNL     1       5.785  -2.954  -5.595  1.00  0.00     0.074 A 
ATOM     17  C   UNL     1       4.785  -4.697  -4.120  1.00  0.00     0.049 A 
ATOM     18  N   UNL     1       6.446  -3.657  -6.465  1.00  0.00    -0.248 NA
ATOM     19  C   UNL     1       6.019  -1.499  -5.684  1.00  0.00     0.031 C 
ATOM     20  C   UNL     1       4.039  -5.182  -2.950  1.00  0.00     0.029 A 
ATOM     21  N   UNL     1       5.378  -5.824  -4.619  1.00  0.00    -0.354 N 
ATOM     22  C   UNL     1       7.112  -2.730  -7.253  1.00  0.00     0.074 A 
ATOM     23  C   UNL     1       6.813  -1.416  -6.739  1.00  0.00     0.031 C 
ATOM     24  C   UNL     1       4.220  -6.506  -2.828  1.00  0.00     0.029 A 
ATOM     25  C   UNL     1       4.999  -6.973  -3.965  1.00  0.00     0.049 A 
ATOM     26  H   UNL     1       6.012  -5.813  -5.372  1.00  0.00     0.167 HD
ATOM     27  C   UNL     1       7.874  -2.981  -8.337  1.00  0.00     0.031 A 
ATOM     28  C   UNL     1       5.198  -8.259  -4.310  1.00  0.00     0.031 A 
ATOM     29  C   UNL     1       8.135  -4.314  -8.797  1.00  0.00     0.049 A 
ATOM     30  C   UNL     1       5.948  -8.507  -5.592  1.00  0.00     0.074 A 
ATOM     31  C   UNL     1       8.847  -4.721  -9.906  1.00  0.00     0.029 A 
ATOM     32  N   UNL     1       7.676  -5.461  -8.160  1.00  0.00    -0.354 N 
ATOM     33  N   UNL     1       6.530  -7.633  -6.383  1.00  0.00    -0.248 NA
ATOM     34  C   UNL     1       6.044  -9.896  -6.049  1.00  0.00     0.031 C 
ATOM     35  C   UNL     1       8.759  -6.114  -9.978  1.00  0.00     0.029 A 
ATOM     36  C   UNL     1       8.050  -6.578  -8.877  1.00  0.00     0.049 A 
ATOM     37  H   UNL     1       7.161  -5.474  -7.322  1.00  0.00     0.167 HD
ATOM     38  C   UNL     1       7.065  -8.367  -7.431  1.00  0.00     0.074 A 
ATOM     39  C   UNL     1       6.766  -9.760  -7.153  1.00  0.00     0.031 C 
ATOM     40  C   UNL     1       7.729  -7.941  -8.534  1.00  0.00     0.031 A 
BRANCH  27  41
ATOM     41  C   UNL     1       8.349  -1.807  -9.140  1.00  0.00    -0.014 A 
ATOM     42  C   UNL     1       9.385  -0.967  -8.698  1.00  0.00     0.010 A 
ATOM     43  C   UNL     1       7.737  -1.549 -10.381  1.00  0.00     0.010 A 
ATOM     44  C   UNL     1       9.794   0.117  -9.481  1.00  0.00     0.020 A 
ATOM     45  C   UNL     1       8.157  -0.482 -11.176  1.00  0.00     0.020 A 
ATOM     46  C   UNL     1       9.181   0.347 -10.719  1.00  0.00     0.054 A 
BRANCH  46  47
ATOM     47  S   UNL     1       9.783   1.719 -11.741  1.00  0.00     0.124 S 
ATOM     48  O   UNL     1       9.302   2.883 -10.998  1.00  0.00    -0.237 OA
ATOM     49  O   UNL     1      11.220   1.517 -11.736  1.00  0.00    -0.237 OA
ATOM     50  O   UNL     1       9.125   1.499 -13.035  1.00  0.00    -0.744 OA
ENDBRANCH  46  47
ENDBRANCH  27  41
BRANCH  28  51
ATOM     51  C   UNL     1       4.569  -9.369  -3.537  1.00  0.00    -0.014 A 
ATOM     52  C   UNL     1       5.346 -10.371  -2.932  1.00  0.00     0.010 A 
ATOM     53  C   UNL     1       3.165  -9.454  -3.441  1.00  0.00     0.010 A 
ATOM     54  C   UNL     1       4.734 -11.452  -2.284  1.00  0.00     0.020 A 
ATOM     55  C   UNL     1       2.550 -10.510  -2.764  1.00  0.00     0.020 A 
ATOM     56  C   UNL     1       3.339 -11.517  -2.211  1.00  0.00     0.054 A 
BRANCH  56  57
ATOM     57  S   UNL     1       2.566 -12.933  -1.381  1.00  0.00     0.124 S 
ATOM     58  O   UNL     1       2.799 -14.009  -2.338  1.00  0.00    -0.237 OA
ATOM     59  O   UNL     1       3.320 -13.019  -0.133  1.00  0.00    -0.237 OA
ATOM     60  O   UNL     1       1.171 -12.521  -1.230  1.00  0.00    -0.744 OA
ENDBRANCH  56  57
ENDBRANCH  28  51
BRANCH  40  61
ATOM     61  C   UNL     1       8.189  -8.995  -9.496  1.00  0.00    -0.014 A 
ATOM     62  C   UNL     1       7.275  -9.632 -10.351  1.00  0.00     0.010 A 
ATOM     63  C   UNL     1       9.564  -9.262  -9.617  1.00  0.00     0.010 A 
ATOM     64  C   UNL     1       7.732 -10.531 -11.313  1.00  0.00     0.020 A 
ATOM     65  C   UNL     1      10.026 -10.134 -10.599  1.00  0.00     0.020 A 
ATOM     66  C   UNL     1       9.106 -10.767 -11.438  1.00  0.00     0.054 A 
BRANCH  66  67
ATOM     67  S   UNL     1       9.678 -11.866 -12.758  1.00  0.00     0.124 S 
ATOM     68  O   UNL     1       9.267 -13.176 -12.262  1.00  0.00    -0.237 OA
ATOM     69  O   UNL     1       8.945 -11.374 -13.922  1.00  0.00    -0.237 OA
ATOM     70  O   UNL     1      11.122 -11.638 -12.796  1.00  0.00    -0.744 OA
ENDBRANCH  66  67
ENDBRANCH  40  61
ENDBRANCH  14  15
ENDBRANCH   7   9
ENDBRANCH   6   7
ENDBRANCH   5   6
ENDBRANCH   4   5
ENDBRANCH   3   4
ENDBRANCH   2   3
ENDBRANCH   1   2
BRANCH   1  71
ATOM     71  O   UNL     1       3.385  -1.534   3.457  1.00  0.00    -0.377 OA
BRANCH  71  72
ATOM     72  C   UNL     1       4.742  -1.766   3.102  1.00  0.00     0.188 C 
BRANCH  72  73
ATOM     73  C   UNL     1       5.120  -3.058   2.366  1.00  0.00     0.188 C 
BRANCH  73  74
ATOM     74  O   UNL     1       4.126  -3.562   1.505  1.00  0.00    -0.376 OA
BRANCH  74  75
ATOM     75  C   UNL     1       3.263  -4.593   1.983  1.00  0.00     0.202 C 
BRANCH  75  76
ATOM     76  C   UNL     1       3.123  -4.956   3.480  1.00  0.00     0.261 C 
BRANCH  76  77
ATOM     77  O   UNL     1       3.133  -3.856   4.419  1.00  0.00    -0.462 OA
BRANCH  77  78
ATOM     78  C   UNL     1       4.035  -3.946   5.428  1.00  0.00     0.329 C 
ATOM     79  O   UNL     1       4.742  -4.944   5.588  1.00  0.00    -0.250 OA
BRANCH  78  80
ATOM     80  C   UNL     1       4.244  -2.702   6.345  1.00  0.00     0.195 C 
BRANCH  80  81
ATOM     81  C   UNL     1       3.562  -1.325   6.264  1.00  0.00     0.074 C 
BRANCH  81  82
ATOM     82  C   UNL     1       2.100  -1.149   6.038  1.00  0.00    -0.020 A 
ATOM     83  C   UNL     1       1.083  -2.077   6.066  1.00  0.00     0.087 A 
ATOM     84  C   UNL     1       1.495   0.118   5.701  1.00  0.00     0.003 A 
ATOM     85  N   UNL     1      -0.084  -1.444   5.727  1.00  0.00    -0.361 N 
ATOM     86  C   UNL     1       0.133  -0.102   5.519  1.00  0.00     0.046 A 
ATOM     87  C   UNL     1       1.995   1.427   5.508  1.00  0.00     0.010 A 
ATOM     88  H   UNL     1      -0.959  -1.889   5.644  1.00  0.00     0.166 HD
ATOM     89  C   UNL     1      -0.759   0.920   5.168  1.00  0.00     0.026 A 
ATOM     90  C   UNL     1       1.118   2.462   5.162  1.00  0.00     0.001 A 
ATOM     91  C   UNL     1      -0.241   2.209   4.999  1.00  0.00     0.002 A 
ENDBRANCH  81  82
ENDBRANCH  80  81
BRANCH  80  92
ATOM     92  N   UNL     1       4.238  -3.122   7.758  1.00  0.00    -0.356 N 
ATOM     93  H   UNL     1       3.377  -3.188   8.231  1.00  0.00     0.163 HD
BRANCH  92  94
ATOM     94  C   UNL     1       5.397  -3.427   8.441  1.00  0.00     0.137 A 
ATOM     95  N   UNL     1       5.278  -4.587   9.106  1.00  0.00    -0.219 NA
ATOM     96  C   UNL     1       6.567  -2.629   8.507  1.00  0.00     0.043 A 
ATOM     97  C   UNL     1       6.342  -4.995   9.796  1.00  0.00     0.224 A 
ATOM     98  C   UNL     1       7.590  -3.163   9.307  1.00  0.00     0.076 A 
ATOM     99  C   UNL     1       6.798  -1.359   7.897  1.00  0.00     0.014 A 
ATOM    100  N   UNL     1       7.492  -4.333   9.940  1.00  0.00    -0.236 NA
ATOM    101  C   UNL     1       8.769  -2.444   9.475  1.00  0.00     0.029 A 
ATOM    102  C   UNL     1       7.999  -0.668   8.057  1.00  0.00     0.001 A 
ATOM    103  C   UNL     1       8.987  -1.211   8.860  1.00  0.00     0.002 A 
ENDBRANCH  92  94
ENDBRANCH  80  92
ENDBRANCH  78  80
ENDBRANCH  77  78
ENDBRANCH  76  77
ENDBRANCH  75  76
ENDBRANCH  74  75
ENDBRANCH  73  74
ENDBRANCH  72  73
ENDBRANCH  71  72
ENDBRANCH   1  71
TORSDOF 27
