REMARK SMILES CC1(C)[C@@]2(C(=O)OCCOCCOCCOCCOC(=O)c3ccc(-c4c5nc(c(-c6ccc(S(=O)(=O)[O-])cc6)c6ccc([nH]6)c(-c6ccc(S(=O)(=O)[O-])cc6)c6nc(c(-c7ccc(S(=O)(=O)[O-])cc7)c7ccc4[nH]7)C=C6)C=C5)cc3)CC[C@]1(C)/C(=N/NC(=O)c1ccc(Cl)cc1)C2
REMARK SMILES IDX 14 1 13 2 12 3 11 4 10 5 9 6 8 7 7 8 5 9 6 10 4 11 1 12 2 13
REMARK SMILES IDX 3 14 84 15 82 16 98 17 83 18 85 19 86 20 87 21 88 22 89 23
REMARK SMILES IDX 90 25 91 26 92 27 97 28 93 29 96 30 94 31 95 32 15 33 16 34
REMARK SMILES IDX 17 35 18 36 19 37 20 38 21 39 22 40 23 41 81 42 24 43 80 44
REMARK SMILES IDX 25 45 26 46 27 47 74 48 28 49 79 50 73 51 75 52 29 53 78 54
REMARK SMILES IDX 72 55 71 56 30 58 60 59 41 60 59 61 42 62 45 63 58 64 76 65
REMARK SMILES IDX 43 66 44 67 57 69 77 70 46 71 31 72 32 73 40 74 33 75 39 76
REMARK SMILES IDX 34 77 35 78 36 79 37 80 38 81 61 82 62 83 70 84 63 85 69 86
REMARK SMILES IDX 64 87 65 88 66 89 67 90 68 91 47 92 48 93 56 94 49 95 55 96
REMARK SMILES IDX 50 97 51 98 52 99 53 100 54 101
REMARK H PARENT 88 24 75 57 45 68
REMARK Flexibility Score: inf
ROOT
ATOM      1  C   UNL     1      -0.023   5.366  -3.943  1.00  0.00     0.188 C 
ENDROOT
BRANCH   1   2
ATOM      2  O   UNL     1       0.149   4.824  -2.653  1.00  0.00    -0.377 OA
BRANCH   2   3
ATOM      3  C   UNL     1       0.956   3.688  -2.432  1.00  0.00     0.188 C 
BRANCH   3   4
ATOM      4  C   UNL     1       1.744   2.948  -3.510  1.00  0.00     0.188 C 
BRANCH   4   5
ATOM      5  O   UNL     1       1.118   2.612  -4.734  1.00  0.00    -0.376 OA
BRANCH   5   6
ATOM      6  C   UNL     1      -0.165   1.993  -4.776  1.00  0.00     0.202 C 
BRANCH   6   7
ATOM      7  C   UNL     1      -0.431   0.725  -3.966  1.00  0.00     0.261 C 
BRANCH   7   8
ATOM      8  O   UNL     1      -0.711   0.997  -2.576  1.00  0.00    -0.463 OA
BRANCH   8   9
ATOM      9  C   UNL     1       0.132   0.417  -1.685  1.00  0.00     0.313 C 
ATOM     10  O   UNL     1       1.122  -0.229  -2.004  1.00  0.00    -0.252 OA
BRANCH   9  11
ATOM     11  C   UNL     1      -0.302   0.615  -0.241  1.00  0.00     0.079 C 
ATOM     12  C   UNL     1       1.750  -0.681   0.741  1.00  0.00     0.013 C 
ATOM     13  C   UNL     1       0.885   0.607   0.773  1.00  0.00    -0.008 C 
ATOM     14  C   UNL     1       1.843   1.809   0.646  1.00  0.00     0.013 C 
ATOM     15  C   UNL     1      -0.076   0.676   1.995  1.00  0.00     0.014 C 
ATOM     16  C   UNL     1      -1.183  -0.574   0.252  1.00  0.00     0.021 C 
ATOM     17  C   UNL     1      -1.085   1.914   0.116  1.00  0.00     0.073 C 
ATOM     18  C   UNL     1      -1.006  -0.538   1.786  1.00  0.00     0.014 C 
ATOM     19  C   UNL     1       0.576   0.775   3.360  1.00  0.00     0.018 C 
ATOM     20  C   UNL     1      -0.972   1.876   1.612  1.00  0.00     0.046 C 
ATOM     21  N   UNL     1      -1.454   2.606   2.560  1.00  0.00    -0.181 NA
BRANCH  21  22
ATOM     22  N   UNL     1      -2.233   3.707   2.577  1.00  0.00    -0.243 N 
ATOM     23  C   UNL     1      -3.041   4.442   1.746  1.00  0.00     0.271 C 
ATOM     24  H   UNL     1      -2.216   4.115   3.473  1.00  0.00     0.194 HD
ATOM     25  O   UNL     1      -3.519   5.497   2.172  1.00  0.00    -0.267 OA
BRANCH  23  26
ATOM     26  C   UNL     1      -3.389   4.067   0.379  1.00  0.00     0.041 A 
ATOM     27  C   UNL     1      -3.046   4.960  -0.644  1.00  0.00     0.015 A 
ATOM     28  C   UNL     1      -4.126   2.914   0.098  1.00  0.00     0.015 A 
ATOM     29  C   UNL     1      -3.314   4.628  -1.971  1.00  0.00     0.021 A 
ATOM     30  C   UNL     1      -4.372   2.573  -1.238  1.00  0.00     0.021 A 
ATOM     31  C   UNL     1      -3.934   3.415  -2.264  1.00  0.00     0.041 A 
ATOM     32  Cl  UNL     1      -4.112   2.934  -3.905  1.00  0.00    -0.084 Cl
ENDBRANCH  23  26
ENDBRANCH  21  22
ENDBRANCH   9  11
ENDBRANCH   8   9
ENDBRANCH   7   8
ENDBRANCH   6   7
ENDBRANCH   5   6
ENDBRANCH   4   5
ENDBRANCH   3   4
ENDBRANCH   2   3
ENDBRANCH   1   2
BRANCH   1  33
ATOM     33  C   UNL     1       1.160   6.156  -4.500  1.00  0.00     0.188 C 
BRANCH  33  34
ATOM     34  O   UNL     1       1.644   7.306  -3.809  1.00  0.00    -0.376 OA
BRANCH  34  35
ATOM     35  C   UNL     1       1.589   7.340  -2.393  1.00  0.00     0.202 C 
BRANCH  35  36
ATOM     36  C   UNL     1       0.444   8.219  -1.866  1.00  0.00     0.261 C 
BRANCH  36  37
ATOM     37  O   UNL     1      -0.828   7.981  -2.491  1.00  0.00    -0.460 OA
BRANCH  37  38
ATOM     38  C   UNL     1      -1.046   8.684  -3.625  1.00  0.00     0.338 C 
ATOM     39  O   UNL     1      -0.288   9.489  -4.167  1.00  0.00    -0.246 OA
BRANCH  38  40
ATOM     40  C   UNL     1      -2.344   8.311  -4.208  1.00  0.00     0.060 A 
ATOM     41  C   UNL     1      -2.383   7.812  -5.516  1.00  0.00     0.016 A 
ATOM     42  C   UNL     1      -3.525   8.556  -3.504  1.00  0.00     0.016 A 
ATOM     43  C   UNL     1      -3.611   7.608  -6.146  1.00  0.00     0.010 A 
ATOM     44  C   UNL     1      -4.753   8.364  -4.141  1.00  0.00     0.010 A 
ATOM     45  C   UNL     1      -4.800   7.934  -5.480  1.00  0.00    -0.014 A 
BRANCH  45  46
ATOM     46  C   UNL     1      -6.071   8.021  -6.241  1.00  0.00     0.031 A 
ATOM     47  C   UNL     1      -6.535   9.375  -6.713  1.00  0.00     0.074 A 
ATOM     48  C   UNL     1      -6.786   6.921  -6.533  1.00  0.00     0.049 A 
ATOM     49  N   UNL     1      -7.625   9.699  -7.359  1.00  0.00    -0.248 NA
ATOM     50  C   UNL     1      -5.650  10.514  -6.416  1.00  0.00     0.031 C 
ATOM     51  C   UNL     1      -6.414   5.552  -6.181  1.00  0.00     0.029 A 
ATOM     52  N   UNL     1      -7.981   6.787  -7.195  1.00  0.00    -0.354 N 
ATOM     53  C   UNL     1      -7.561  11.077  -7.540  1.00  0.00     0.074 A 
ATOM     54  C   UNL     1      -6.341  11.531  -6.909  1.00  0.00     0.031 C 
ATOM     55  C   UNL     1      -7.367   4.714  -6.626  1.00  0.00     0.029 A 
ATOM     56  C   UNL     1      -8.432   5.490  -7.261  1.00  0.00     0.049 A 
ATOM     57  H   UNL     1      -8.470   7.547  -7.585  1.00  0.00     0.167 HD
ATOM     58  C   UNL     1      -8.434  11.891  -8.179  1.00  0.00     0.031 A 
ATOM     59  C   UNL     1      -9.581   4.990  -7.758  1.00  0.00     0.031 A 
ATOM     60  C   UNL     1      -9.657  11.438  -8.789  1.00  0.00     0.049 A 
ATOM     61  C   UNL     1     -10.582   5.926  -8.386  1.00  0.00     0.074 A 
ATOM     62  C   UNL     1     -10.609  12.182  -9.463  1.00  0.00     0.029 A 
ATOM     63  N   UNL     1     -10.099  10.124  -8.793  1.00  0.00    -0.354 N 
ATOM     64  N   UNL     1     -10.502   7.225  -8.560  1.00  0.00    -0.248 NA
ATOM     65  C   UNL     1     -11.826   5.327  -8.890  1.00  0.00     0.031 C 
ATOM     66  C   UNL     1     -11.657  11.327  -9.820  1.00  0.00     0.029 A 
ATOM     67  C   UNL     1     -11.325  10.039  -9.432  1.00  0.00     0.049 A 
ATOM     68  H   UNL     1      -9.614   9.363  -8.399  1.00  0.00     0.167 HD
ATOM     69  C   UNL     1     -11.671   7.592  -9.221  1.00  0.00     0.074 A 
ATOM     70  C   UNL     1     -12.434   6.378  -9.425  1.00  0.00     0.031 C 
ATOM     71  C   UNL     1     -12.074   8.823  -9.627  1.00  0.00     0.031 A 
BRANCH  58  72
ATOM     72  C   UNL     1      -8.115  13.363  -8.216  1.00  0.00    -0.014 A 
ATOM     73  C   UNL     1      -7.056  13.862  -8.996  1.00  0.00     0.010 A 
ATOM     74  C   UNL     1      -8.908  14.265  -7.483  1.00  0.00     0.010 A 
ATOM     75  C   UNL     1      -6.773  15.231  -9.013  1.00  0.00     0.020 A 
ATOM     76  C   UNL     1      -8.646  15.638  -7.520  1.00  0.00     0.020 A 
ATOM     77  C   UNL     1      -7.569  16.110  -8.272  1.00  0.00     0.054 A 
BRANCH  77  78
ATOM     78  S   UNL     1      -7.192  17.884  -8.330  1.00  0.00     0.124 S 
ATOM     79  O   UNL     1      -5.955  17.955  -7.556  1.00  0.00    -0.237 OA
ATOM     80  O   UNL     1      -7.052  18.135  -9.762  1.00  0.00    -0.237 OA
ATOM     81  O   UNL     1      -8.355  18.507  -7.702  1.00  0.00    -0.744 OA
ENDBRANCH  77  78
ENDBRANCH  58  72
BRANCH  59  82
ATOM     82  C   UNL     1      -9.857   3.529  -7.666  1.00  0.00    -0.014 A 
ATOM     83  C   UNL     1      -9.885   2.728  -8.820  1.00  0.00     0.010 A 
ATOM     84  C   UNL     1     -10.089   2.930  -6.414  1.00  0.00     0.010 A 
ATOM     85  C   UNL     1     -10.150   1.358  -8.726  1.00  0.00     0.020 A 
ATOM     86  C   UNL     1     -10.325   1.556  -6.312  1.00  0.00     0.020 A 
ATOM     87  C   UNL     1     -10.362   0.779  -7.471  1.00  0.00     0.054 A 
BRANCH  87  88
ATOM     88  S   UNL     1     -10.638  -1.011  -7.368  1.00  0.00     0.124 S 
ATOM     89  O   UNL     1     -11.986  -1.143  -7.911  1.00  0.00    -0.237 OA
ATOM     90  O   UNL     1      -9.563  -1.544  -8.201  1.00  0.00    -0.237 OA
ATOM     91  O   UNL     1     -10.507  -1.295  -5.940  1.00  0.00    -0.744 OA
ENDBRANCH  87  88
ENDBRANCH  59  82
BRANCH  71  92
ATOM     92  C   UNL     1     -13.382   8.921 -10.368  1.00  0.00    -0.014 A 
ATOM     93  C   UNL     1     -14.613   8.746  -9.711  1.00  0.00     0.010 A 
ATOM     94  C   UNL     1     -13.379   9.255 -11.736  1.00  0.00     0.010 A 
ATOM     95  C   UNL     1     -15.814   8.874 -10.415  1.00  0.00     0.020 A 
ATOM     96  C   UNL     1     -14.577   9.414 -12.435  1.00  0.00     0.020 A 
ATOM     97  C   UNL     1     -15.789   9.208 -11.773  1.00  0.00     0.054 A 
BRANCH  97  98
ATOM     98  S   UNL     1     -17.362   9.412 -12.652  1.00  0.00     0.124 S 
ATOM     99  O   UNL     1     -17.826   8.032 -12.769  1.00  0.00    -0.237 OA
ATOM    100  O   UNL     1     -18.131  10.258 -11.742  1.00  0.00    -0.237 OA
ATOM    101  O   UNL     1     -16.978  10.048 -13.910  1.00  0.00    -0.744 OA
ENDBRANCH  97  98
ENDBRANCH  71  92
ENDBRANCH  45  46
ENDBRANCH  38  40
ENDBRANCH  37  38
ENDBRANCH  36  37
ENDBRANCH  35  36
ENDBRANCH  34  35
ENDBRANCH  33  34
ENDBRANCH   1  33
TORSDOF 25
