REMARK SMILES CCc1ccccc1SCc1ccc(C(=O)OCCOCCOCCOCCOC(=O)c2ccc(-c3c4nc(c(-c5ccc(S(=O)(=O)[O-])cc5)c5ccc([nH]5)c(-c5ccc(S(=O)(=O)[O-])cc5)c5nc(c(-c6ccc(S(=O)(=O)[O-])cc6)c6ccc3[nH]6)C=C5)C=C4)cc2)o1
REMARK SMILES IDX 22 1 21 2 20 3 19 4 18 5 17 6 15 7 16 8 14 9 11 10 12 11
REMARK SMILES IDX 92 12 13 13 10 14 9 15 8 16 3 17 4 18 5 19 7 20 6 21 2 22
REMARK SMILES IDX 1 23 23 24 24 25 25 26 26 27 27 28 28 29 29 30 30 31 31 32
REMARK SMILES IDX 32 33 33 34 91 35 34 36 90 37 35 38 36 39 37 40 84 41 38 42
REMARK SMILES IDX 89 43 83 44 85 45 39 46 88 47 82 48 81 49 40 51 70 52 51 53
REMARK SMILES IDX 69 54 52 55 55 56 68 57 86 58 53 59 54 60 67 62 87 63 56 64
REMARK SMILES IDX 41 65 42 66 50 67 43 68 49 69 44 70 45 71 46 72 47 73 48 74
REMARK SMILES IDX 71 75 72 76 80 77 73 78 79 79 74 80 75 81 76 82 77 83 78 84
REMARK SMILES IDX 57 85 58 86 66 87 59 88 65 89 60 90 61 91 62 92 63 93 64 94
REMARK H PARENT 85 50 55 61
REMARK Flexibility Score: inf
ROOT
ATOM      1  C   UNL     1      -1.137   2.607  -4.665  1.00  0.00     0.188 C 
ENDROOT
BRANCH   1   2
ATOM      2  C   UNL     1      -0.406   3.886  -5.100  1.00  0.00     0.188 C 
BRANCH   2   3
ATOM      3  O   UNL     1      -0.730   4.316  -6.419  1.00  0.00    -0.376 OA
BRANCH   3   4
ATOM      4  C   UNL     1       0.344   4.335  -7.349  1.00  0.00     0.202 C 
BRANCH   4   5
ATOM      5  C   UNL     1       0.621   2.970  -7.992  1.00  0.00     0.261 C 
BRANCH   5   6
ATOM      6  O   UNL     1       1.014   1.938  -7.077  1.00  0.00    -0.457 OA
BRANCH   6   7
ATOM      7  C   UNL     1       2.159   2.127  -6.370  1.00  0.00     0.374 C 
ATOM      8  O   UNL     1       2.911   3.086  -6.501  1.00  0.00    -0.242 OA
BRANCH   7   9
ATOM      9  C   UNL     1       2.253   1.097  -5.367  1.00  0.00     0.211 A 
ATOM     10  C   UNL     1       2.660   0.326  -3.331  1.00  0.00     0.115 A 
ATOM     11  C   UNL     1       2.083  -0.706  -4.043  1.00  0.00     0.047 A 
ATOM     12  O   UNL     1       2.803   1.411  -4.154  1.00  0.00    -0.453 OA
ATOM     13  C   UNL     1       1.790  -0.203  -5.332  1.00  0.00     0.058 A 
BRANCH  10  14
ATOM     14  C   UNL     1       3.051   0.573  -1.918  1.00  0.00     0.150 C 
BRANCH  14  15
ATOM     15  S   UNL     1       3.588  -0.833  -0.906  1.00  0.00    -0.118 SA
BRANCH  15  16
ATOM     16  C   UNL     1       2.312  -2.086  -1.036  1.00  0.00     0.011 A 
ATOM     17  C   UNL     1       0.912  -1.936  -0.954  1.00  0.00    -0.035 A 
ATOM     18  C   UNL     1       0.102  -3.085  -1.120  1.00  0.00     0.005 A 
ATOM     19  C   UNL     1       0.651  -4.350  -1.328  1.00  0.00     0.000 A 
ATOM     20  C   UNL     1       2.844  -3.382  -1.217  1.00  0.00     0.015 A 
ATOM     21  C   UNL     1       2.027  -4.501  -1.365  1.00  0.00     0.001 A 
BRANCH  17  22
ATOM     22  C   UNL     1       0.179  -0.637  -0.710  1.00  0.00     0.033 C 
ATOM     23  C   UNL     1       0.381  -0.072   0.687  1.00  0.00     0.009 C 
ENDBRANCH  17  22
ENDBRANCH  15  16
ENDBRANCH  14  15
ENDBRANCH  10  14
ENDBRANCH   7   9
ENDBRANCH   6   7
ENDBRANCH   5   6
ENDBRANCH   4   5
ENDBRANCH   3   4
ENDBRANCH   2   3
ENDBRANCH   1   2
BRANCH   1  24
ATOM     24  O   UNL     1      -1.882   1.926  -5.657  1.00  0.00    -0.377 OA
BRANCH  24  25
ATOM     25  C   UNL     1      -2.965   2.587  -6.306  1.00  0.00     0.188 C 
BRANCH  25  26
ATOM     26  C   UNL     1      -3.527   3.943  -5.825  1.00  0.00     0.188 C 
BRANCH  26  27
ATOM     27  O   UNL     1      -3.401   4.179  -4.426  1.00  0.00    -0.376 OA
BRANCH  27  28
ATOM     28  C   UNL     1      -4.624   4.270  -3.706  1.00  0.00     0.202 C 
BRANCH  28  29
ATOM     29  C   UNL     1      -5.174   2.893  -3.324  1.00  0.00     0.261 C 
BRANCH  29  30
ATOM     30  O   UNL     1      -5.546   2.071  -4.440  1.00  0.00    -0.460 OA
BRANCH  30  31
ATOM     31  C   UNL     1      -6.530   2.535  -5.242  1.00  0.00     0.338 C 
ATOM     32  O   UNL     1      -7.153   3.574  -5.125  1.00  0.00    -0.246 OA
BRANCH  31  33
ATOM     33  C   UNL     1      -6.621   1.627  -6.397  1.00  0.00     0.060 A 
ATOM     34  C   UNL     1      -6.497   2.146  -7.692  1.00  0.00     0.016 A 
ATOM     35  C   UNL     1      -6.827   0.262  -6.188  1.00  0.00     0.016 A 
ATOM     36  C   UNL     1      -6.611   1.294  -8.792  1.00  0.00     0.010 A 
ATOM     37  C   UNL     1      -6.959  -0.583  -7.285  1.00  0.00     0.010 A 
ATOM     38  C   UNL     1      -6.883  -0.066  -8.590  1.00  0.00    -0.014 A 
BRANCH  38  39
ATOM     39  C   UNL     1      -7.308  -0.937  -9.708  1.00  0.00     0.031 A 
ATOM     40  C   UNL     1      -8.783  -1.093  -9.949  1.00  0.00     0.074 A 
ATOM     41  C   UNL     1      -6.416  -1.636 -10.431  1.00  0.00     0.049 A 
ATOM     42  N   UNL     1      -9.410  -1.935 -10.724  1.00  0.00    -0.248 NA
ATOM     43  C   UNL     1      -9.667  -0.183  -9.200  1.00  0.00     0.031 C 
ATOM     44  C   UNL     1      -4.963  -1.534 -10.317  1.00  0.00     0.029 A 
ATOM     45  N   UNL     1      -6.615  -2.598 -11.389  1.00  0.00    -0.354 N 
ATOM     46  C   UNL     1     -10.762  -1.672 -10.543  1.00  0.00     0.074 A 
ATOM     47  C   UNL     1     -10.865  -0.600  -9.578  1.00  0.00     0.031 C 
ATOM     48  C   UNL     1      -4.399  -2.420 -11.158  1.00  0.00     0.029 A 
ATOM     49  C   UNL     1      -5.451  -3.180 -11.831  1.00  0.00     0.049 A 
ATOM     50  H   UNL     1      -7.505  -2.847 -11.727  1.00  0.00     0.167 HD
ATOM     51  C   UNL     1     -11.825  -2.277 -11.121  1.00  0.00     0.031 A 
ATOM     52  C   UNL     1      -5.263  -4.231 -12.655  1.00  0.00     0.031 A 
ATOM     53  C   UNL     1     -11.717  -3.361 -12.056  1.00  0.00     0.049 A 
ATOM     54  C   UNL     1      -6.462  -4.940 -13.232  1.00  0.00     0.074 A 
ATOM     55  C   UNL     1     -12.732  -4.051 -12.694  1.00  0.00     0.029 A 
ATOM     56  N   UNL     1     -10.521  -3.918 -12.480  1.00  0.00    -0.354 N 
ATOM     57  N   UNL     1      -7.736  -4.680 -13.058  1.00  0.00    -0.248 NA
ATOM     58  C   UNL     1      -6.199  -6.087 -14.115  1.00  0.00     0.031 C 
ATOM     59  C   UNL     1     -12.149  -5.054 -13.474  1.00  0.00     0.029 A 
ATOM     60  C   UNL     1     -10.770  -4.953 -13.362  1.00  0.00     0.049 A 
ATOM     61  H   UNL     1      -9.626  -3.621 -12.195  1.00  0.00     0.167 HD
ATOM     62  C   UNL     1      -8.424  -5.605 -13.838  1.00  0.00     0.074 A 
ATOM     63  C   UNL     1      -7.426  -6.434 -14.481  1.00  0.00     0.031 C 
ATOM     64  C   UNL     1      -9.760  -5.749 -14.011  1.00  0.00     0.031 A 
BRANCH  51  65
ATOM     65  C   UNL     1     -13.192  -1.802 -10.717  1.00  0.00    -0.014 A 
ATOM     66  C   UNL     1     -13.686  -0.559 -11.150  1.00  0.00     0.010 A 
ATOM     67  C   UNL     1     -13.998  -2.616  -9.901  1.00  0.00     0.010 A 
ATOM     68  C   UNL     1     -14.947  -0.120 -10.740  1.00  0.00     0.020 A 
ATOM     69  C   UNL     1     -15.270  -2.191  -9.510  1.00  0.00     0.020 A 
ATOM     70  C   UNL     1     -15.729  -0.937  -9.917  1.00  0.00     0.054 A 
BRANCH  70  71
ATOM     71  S   UNL     1     -17.366  -0.348  -9.407  1.00  0.00     0.124 S 
ATOM     72  O   UNL     1     -17.025   0.651  -8.398  1.00  0.00    -0.237 OA
ATOM     73  O   UNL     1     -17.921   0.180 -10.651  1.00  0.00    -0.237 OA
ATOM     74  O   UNL     1     -18.023  -1.550  -8.897  1.00  0.00    -0.744 OA
ENDBRANCH  70  71
ENDBRANCH  51  65
BRANCH  52  75
ATOM     75  C   UNL     1      -3.884  -4.698 -12.964  1.00  0.00    -0.014 A 
ATOM     76  C   UNL     1      -3.337  -4.506 -14.245  1.00  0.00     0.010 A 
ATOM     77  C   UNL     1      -3.109  -5.336 -11.978  1.00  0.00     0.010 A 
ATOM     78  C   UNL     1      -2.046  -4.957 -14.539  1.00  0.00     0.020 A 
ATOM     79  C   UNL     1      -1.809  -5.766 -12.261  1.00  0.00     0.020 A 
ATOM     80  C   UNL     1      -1.289  -5.582 -13.544  1.00  0.00     0.054 A 
BRANCH  80  81
ATOM     81  S   UNL     1       0.404  -6.110 -13.931  1.00  0.00     0.124 S 
ATOM     82  O   UNL     1       0.172  -7.304 -14.738  1.00  0.00    -0.237 OA
ATOM     83  O   UNL     1       0.939  -4.955 -14.648  1.00  0.00    -0.237 OA
ATOM     84  O   UNL     1       0.996  -6.347 -12.616  1.00  0.00    -0.744 OA
ENDBRANCH  80  81
ENDBRANCH  52  75
BRANCH  64  85
ATOM     85  C   UNL     1     -10.239  -6.796 -14.979  1.00  0.00    -0.014 A 
ATOM     86  C   UNL     1     -10.262  -8.157 -14.633  1.00  0.00     0.010 A 
ATOM     87  C   UNL     1     -10.790  -6.388 -16.209  1.00  0.00     0.010 A 
ATOM     88  C   UNL     1     -10.828  -9.094 -15.502  1.00  0.00     0.020 A 
ATOM     89  C   UNL     1     -11.374  -7.319 -17.070  1.00  0.00     0.020 A 
ATOM     90  C   UNL     1     -11.387  -8.668 -16.712  1.00  0.00     0.054 A 
BRANCH  90  91
ATOM     91  S   UNL     1     -12.201  -9.889 -17.780  1.00  0.00     0.124 S 
ATOM     92  O   UNL     1     -11.062 -10.586 -18.368  1.00  0.00    -0.237 OA
ATOM     93  O   UNL     1     -12.994 -10.668 -16.831  1.00  0.00    -0.237 OA
ATOM     94  O   UNL     1     -12.980  -9.072 -18.708  1.00  0.00    -0.744 OA
ENDBRANCH  90  91
ENDBRANCH  64  85
ENDBRANCH  38  39
ENDBRANCH  31  33
ENDBRANCH  30  31
ENDBRANCH  29  30
ENDBRANCH  28  29
ENDBRANCH  27  28
ENDBRANCH  26  27
ENDBRANCH  25  26
ENDBRANCH  24  25
ENDBRANCH   1  24
TORSDOF 27
