REMARK SMILES Cc1c(CC(=O)OCCOCCOCCOCCOC(=O)c2ccc(-c3c4nc(c(-c5ccc(S(=O)(=O)[O-])cc5)c5ccc([nH]5)c(-c5ccc(S(=O)(=O)[O-])cc5)c5nc(c(-c6ccc(S(=O)(=O)[O-])cc6)c6ccc3[nH]6)C=C5)C=C4)cc2)c2ccccc2n1C(=O)c1ccc(Cl)cc1
REMARK SMILES IDX 13 1 12 2 11 3 10 4 9 5 8 6 7 7 5 8 6 9 4 10 3 11 1 12 2 13
REMARK SMILES IDX 88 14 82 15 87 16 83 17 86 18 84 19 85 20 89 21 90 22 91 23
REMARK SMILES IDX 92 24 97 25 93 26 96 27 94 28 95 29 14 30 15 31 16 32 17 33
REMARK SMILES IDX 18 34 19 35 20 36 21 37 22 38 23 39 81 40 24 41 80 42 25 43
REMARK SMILES IDX 26 44 27 45 74 46 28 47 79 48 73 49 75 50 29 51 78 52 72 53
REMARK SMILES IDX 71 54 30 56 60 57 41 58 59 59 42 60 45 61 58 62 76 63 43 64
REMARK SMILES IDX 44 65 57 67 77 68 46 69 31 70 32 71 40 72 33 73 39 74 34 75
REMARK SMILES IDX 35 76 36 77 37 78 38 79 61 80 62 81 70 82 63 83 69 84 64 85
REMARK SMILES IDX 65 86 66 87 67 88 68 89 47 90 48 91 56 92 49 93 55 94 50 95
REMARK SMILES IDX 51 96 52 97 53 98 54 99
REMARK H PARENT 75 55 45 66
REMARK Flexibility Score: inf
ROOT
ATOM      1  O   UNL     1      -2.765   4.200   0.352  1.00  0.00    -0.377 OA
ENDROOT
BRANCH   1   2
ATOM      2  C   UNL     1      -2.719   3.229  -0.655  1.00  0.00     0.188 C 
BRANCH   2   3
ATOM      3  C   UNL     1      -3.966   2.818  -1.434  1.00  0.00     0.188 C 
BRANCH   3   4
ATOM      4  O   UNL     1      -5.058   2.293  -0.719  1.00  0.00    -0.376 OA
BRANCH   4   5
ATOM      5  C   UNL     1      -5.038   1.087   0.024  1.00  0.00     0.202 C 
BRANCH   5   6
ATOM      6  C   UNL     1      -3.868   0.099   0.236  1.00  0.00     0.261 C 
BRANCH   6   7
ATOM      7  O   UNL     1      -2.568   0.374  -0.300  1.00  0.00    -0.463 OA
BRANCH   7   8
ATOM      8  C   UNL     1      -2.347   0.002  -1.581  1.00  0.00     0.310 C 
ATOM      9  O   UNL     1      -3.225  -0.442  -2.318  1.00  0.00    -0.252 OA
BRANCH   8  10
ATOM     10  C   UNL     1      -0.915   0.181  -2.073  1.00  0.00     0.160 C 
BRANCH  10  11
ATOM     11  C   UNL     1      -0.012   1.236  -1.453  1.00  0.00    -0.008 A 
ATOM     12  C   UNL     1       1.233  -0.204   0.310  1.00  0.00     0.065 C 
ATOM     13  C   UNL     1       0.899   1.063  -0.416  1.00  0.00     0.028 A 
ATOM     14  N   UNL     1       1.521   2.288  -0.119  1.00  0.00    -0.280 N 
ATOM     15  C   UNL     1       0.162   2.586  -1.907  1.00  0.00     0.004 A 
ATOM     16  C   UNL     1       0.997   3.251  -0.997  1.00  0.00     0.056 A 
ATOM     17  C   UNL     1      -0.397   3.327  -2.981  1.00  0.00     0.010 A 
ATOM     18  C   UNL     1       1.184   4.649  -1.098  1.00  0.00     0.027 A 
ATOM     19  C   UNL     1      -0.225   4.715  -3.053  1.00  0.00     0.001 A 
ATOM     20  C   UNL     1       0.542   5.369  -2.107  1.00  0.00     0.002 A 
BRANCH  14  21
ATOM     21  C   UNL     1       2.541   2.501   0.860  1.00  0.00     0.262 C 
ATOM     22  O   UNL     1       3.006   1.538   1.469  1.00  0.00    -0.268 OA
BRANCH  21  23
ATOM     23  C   UNL     1       3.156   3.800   1.188  1.00  0.00     0.040 A 
ATOM     24  C   UNL     1       2.510   4.680   2.063  1.00  0.00     0.015 A 
ATOM     25  C   UNL     1       4.391   4.134   0.619  1.00  0.00     0.015 A 
ATOM     26  C   UNL     1       3.076   5.934   2.316  1.00  0.00     0.021 A 
ATOM     27  C   UNL     1       4.953   5.386   0.880  1.00  0.00     0.021 A 
ATOM     28  C   UNL     1       4.287   6.285   1.715  1.00  0.00     0.041 A 
ATOM     29  Cl  UNL     1       4.960   7.845   1.994  1.00  0.00    -0.084 Cl
ENDBRANCH  21  23
ENDBRANCH  14  21
ENDBRANCH  10  11
ENDBRANCH   8  10
ENDBRANCH   7   8
ENDBRANCH   6   7
ENDBRANCH   5   6
ENDBRANCH   4   5
ENDBRANCH   3   4
ENDBRANCH   2   3
ENDBRANCH   1   2
BRANCH   1  30
ATOM     30  C   UNL     1      -3.862   4.113   1.208  1.00  0.00     0.188 C 
BRANCH  30  31
ATOM     31  C   UNL     1      -4.960   5.105   0.836  1.00  0.00     0.188 C 
BRANCH  31  32
ATOM     32  O   UNL     1      -4.739   6.178  -0.076  1.00  0.00    -0.376 OA
BRANCH  32  33
ATOM     33  C   UNL     1      -3.439   6.679  -0.348  1.00  0.00     0.202 C 
BRANCH  33  34
ATOM     34  C   UNL     1      -2.511   7.186   0.781  1.00  0.00     0.261 C 
BRANCH  34  35
ATOM     35  O   UNL     1      -2.672   6.537   2.042  1.00  0.00    -0.460 OA
BRANCH  35  36
ATOM     36  C   UNL     1      -3.059   7.283   3.116  1.00  0.00     0.338 C 
ATOM     37  O   UNL     1      -3.095   8.471   3.222  1.00  0.00    -0.246 OA
BRANCH  36  38
ATOM     38  C   UNL     1      -3.731   6.299   4.007  1.00  0.00     0.060 A 
ATOM     39  C   UNL     1      -3.069   5.137   4.420  1.00  0.00     0.016 A 
ATOM     40  C   UNL     1      -5.127   6.393   4.056  1.00  0.00     0.016 A 
ATOM     41  C   UNL     1      -3.829   4.004   4.705  1.00  0.00     0.010 A 
ATOM     42  C   UNL     1      -5.879   5.250   4.318  1.00  0.00     0.010 A 
ATOM     43  C   UNL     1      -5.231   4.039   4.573  1.00  0.00    -0.014 A 
BRANCH  43  44
ATOM     44  C   UNL     1      -5.989   2.836   4.943  1.00  0.00     0.031 A 
ATOM     45  C   UNL     1      -5.845   2.512   6.388  1.00  0.00     0.074 A 
ATOM     46  C   UNL     1      -6.887   2.168   4.188  1.00  0.00     0.049 A 
ATOM     47  N   UNL     1      -5.453   1.414   6.946  1.00  0.00    -0.248 NA
ATOM     48  C   UNL     1      -6.051   3.636   7.321  1.00  0.00     0.031 C 
ATOM     49  C   UNL     1      -7.408   2.537   2.871  1.00  0.00     0.029 A 
ATOM     50  N   UNL     1      -7.628   1.060   4.511  1.00  0.00    -0.354 N 
ATOM     51  C   UNL     1      -5.505   1.663   8.314  1.00  0.00     0.074 A 
ATOM     52  C   UNL     1      -5.716   3.078   8.478  1.00  0.00     0.031 C 
ATOM     53  C   UNL     1      -8.523   1.815   2.613  1.00  0.00     0.029 A 
ATOM     54  C   UNL     1      -8.736   0.864   3.692  1.00  0.00     0.049 A 
ATOM     55  H   UNL     1      -7.397   0.457   5.255  1.00  0.00     0.167 HD
ATOM     56  C   UNL     1      -5.575   0.683   9.252  1.00  0.00     0.031 A 
ATOM     57  C   UNL     1      -9.807   0.063   3.935  1.00  0.00     0.031 A 
ATOM     58  C   UNL     1      -5.152  -0.592   8.758  1.00  0.00     0.049 A 
ATOM     59  C   UNL     1      -9.415  -0.923   4.970  1.00  0.00     0.074 A 
ATOM     60  C   UNL     1      -3.961  -1.090   8.272  1.00  0.00     0.029 A 
ATOM     61  N   UNL     1      -6.124  -1.490   8.391  1.00  0.00    -0.354 N 
ATOM     62  N   UNL     1      -8.530  -1.863   4.794  1.00  0.00    -0.248 NA
ATOM     63  C   UNL     1      -9.755  -0.639   6.355  1.00  0.00     0.031 C 
ATOM     64  C   UNL     1      -4.330  -2.026   7.267  1.00  0.00     0.029 A 
ATOM     65  C   UNL     1      -5.726  -2.073   7.214  1.00  0.00     0.049 A 
ATOM     66  H   UNL     1      -6.955  -1.681   8.884  1.00  0.00     0.167 HD
ATOM     67  C   UNL     1      -7.910  -2.005   6.027  1.00  0.00     0.074 A 
ATOM     68  C   UNL     1      -8.778  -1.309   6.969  1.00  0.00     0.031 C 
ATOM     69  C   UNL     1      -6.621  -2.442   6.130  1.00  0.00     0.031 A 
BRANCH  56  70
ATOM     70  C   UNL     1      -6.317   0.875  10.545  1.00  0.00    -0.014 A 
ATOM     71  C   UNL     1      -7.324   1.857  10.690  1.00  0.00     0.010 A 
ATOM     72  C   UNL     1      -6.179  -0.058  11.586  1.00  0.00     0.010 A 
ATOM     73  C   UNL     1      -8.103   1.960  11.838  1.00  0.00     0.020 A 
ATOM     74  C   UNL     1      -6.998   0.002  12.725  1.00  0.00     0.020 A 
ATOM     75  C   UNL     1      -7.942   1.022  12.848  1.00  0.00     0.054 A 
BRANCH  75  76
ATOM     76  S   UNL     1      -9.056   1.121  14.269  1.00  0.00     0.124 S 
ATOM     77  O   UNL     1      -8.566   2.316  14.951  1.00  0.00    -0.237 OA
ATOM     78  O   UNL     1     -10.364   1.251  13.633  1.00  0.00    -0.237 OA
ATOM     79  O   UNL     1      -8.828  -0.140  14.969  1.00  0.00    -0.744 OA
ENDBRANCH  75  76
ENDBRANCH  56  70
BRANCH  57  80
ATOM     80  C   UNL     1     -11.238   0.369   3.643  1.00  0.00    -0.014 A 
ATOM     81  C   UNL     1     -11.655   1.711   3.527  1.00  0.00     0.010 A 
ATOM     82  C   UNL     1     -12.241  -0.613   3.775  1.00  0.00     0.010 A 
ATOM     83  C   UNL     1     -13.003   2.072   3.614  1.00  0.00     0.020 A 
ATOM     84  C   UNL     1     -13.600  -0.258   3.869  1.00  0.00     0.020 A 
ATOM     85  C   UNL     1     -13.965   1.089   3.826  1.00  0.00     0.054 A 
BRANCH  85  86
ATOM     86  S   UNL     1     -15.671   1.625   4.144  1.00  0.00     0.124 S 
ATOM     87  O   UNL     1     -15.541   2.293   5.437  1.00  0.00    -0.237 OA
ATOM     88  O   UNL     1     -15.942   2.505   3.010  1.00  0.00    -0.237 OA
ATOM     89  O   UNL     1     -16.431   0.378   4.157  1.00  0.00    -0.744 OA
ENDBRANCH  85  86
ENDBRANCH  57  80
BRANCH  69  90
ATOM     90  C   UNL     1      -5.959  -3.080   4.925  1.00  0.00    -0.014 A 
ATOM     91  C   UNL     1      -5.305  -4.313   5.117  1.00  0.00     0.010 A 
ATOM     92  C   UNL     1      -5.765  -2.402   3.707  1.00  0.00     0.010 A 
ATOM     93  C   UNL     1      -4.425  -4.819   4.157  1.00  0.00     0.020 A 
ATOM     94  C   UNL     1      -4.908  -2.921   2.726  1.00  0.00     0.020 A 
ATOM     95  C   UNL     1      -4.212  -4.106   2.976  1.00  0.00     0.054 A 
BRANCH  95  96
ATOM     96  S   UNL     1      -2.955  -4.712   1.816  1.00  0.00     0.124 S 
ATOM     97  O   UNL     1      -1.721  -4.540   2.580  1.00  0.00    -0.237 OA
ATOM     98  O   UNL     1      -3.364  -6.096   1.593  1.00  0.00    -0.237 OA
ATOM     99  O   UNL     1      -3.089  -3.828   0.660  1.00  0.00    -0.744 OA
ENDBRANCH  95  96
ENDBRANCH  69  90
ENDBRANCH  43  44
ENDBRANCH  36  38
ENDBRANCH  35  36
ENDBRANCH  34  35
ENDBRANCH  33  34
ENDBRANCH  32  33
ENDBRANCH  31  32
ENDBRANCH  30  31
ENDBRANCH   1  30
TORSDOF 26
