REMARK SMILES C=CCS(=O)(=O)Nc1ccc(C)cc1C(=O)OCCOCCOCCOCCOC(=O)c1ccc(-c2c3nc(c(-c4ccc(S(=O)(=O)[O-])cc4)c4ccc([nH]4)c(-c4ccc(S(=O)(=O)[O-])cc4)c4nc(c(-c5ccc(S(=O)(=O)[O-])cc5)c5ccc2[nH]5)C=C4)C=C3)cc1
REMARK SMILES IDX 22 1 21 2 20 3 19 4 18 5 17 6 15 7 16 8 14 9 8 10 9 11 10 12
REMARK SMILES IDX 13 13 11 14 12 15 7 16 4 18 5 19 6 20 3 21 2 22 1 23 23 24
REMARK SMILES IDX 24 25 25 26 26 27 27 28 28 29 29 30 30 31 31 32 32 33 33 34
REMARK SMILES IDX 91 35 34 36 90 37 35 38 36 39 37 40 84 41 38 42 89 43 83 44
REMARK SMILES IDX 85 45 39 46 88 47 82 48 81 49 40 51 70 52 51 53 69 54 52 55
REMARK SMILES IDX 55 56 68 57 86 58 53 59 54 60 67 62 87 63 56 64 41 65 42 66
REMARK SMILES IDX 50 67 43 68 49 69 44 70 45 71 46 72 47 73 48 74 71 75 72 76
REMARK SMILES IDX 80 77 73 78 79 79 74 80 75 81 76 82 77 83 78 84 57 85 58 86
REMARK SMILES IDX 66 87 59 88 65 89 60 90 61 91 62 92 63 93 64 94
REMARK H PARENT 7 17 85 50 55 61
REMARK Flexibility Score: inf
ROOT
ATOM      1  C   UNL     1      -2.005   3.318   0.325  1.00  0.00     0.188 C 
ENDROOT
BRANCH   1   2
ATOM      2  C   UNL     1      -1.497   4.761   0.121  1.00  0.00     0.188 C 
BRANCH   2   3
ATOM      3  O   UNL     1      -2.255   5.717  -0.600  1.00  0.00    -0.376 OA
BRANCH   3   4
ATOM      4  C   UNL     1      -2.225   5.599  -2.021  1.00  0.00     0.202 C 
BRANCH   4   5
ATOM      5  C   UNL     1      -0.862   5.479  -2.666  1.00  0.00     0.261 C 
BRANCH   5   6
ATOM      6  O   UNL     1      -0.461   4.118  -2.502  1.00  0.00    -0.460 OA
BRANCH   6   7
ATOM      7  C   UNL     1       0.858   3.970  -2.624  1.00  0.00     0.340 C 
ATOM      8  O   UNL     1       1.658   4.722  -3.155  1.00  0.00    -0.246 OA
BRANCH   7   9
ATOM      9  C   UNL     1       1.274   3.011  -1.608  1.00  0.00     0.084 A 
ATOM     10  C   UNL     1       1.101   1.635  -1.697  1.00  0.00     0.063 A 
ATOM     11  C   UNL     1       2.150   0.888  -1.179  1.00  0.00     0.028 A 
ATOM     12  C   UNL     1       3.077   1.463  -0.286  1.00  0.00     0.005 A 
ATOM     13  C   UNL     1       2.103   3.591  -0.643  1.00  0.00     0.021 A 
ATOM     14  C   UNL     1       2.978   2.804   0.077  1.00  0.00    -0.050 A 
ATOM     15  C   UNL     1       3.835   3.462   1.107  1.00  0.00     0.044 C 
BRANCH  10  16
ATOM     16  N   UNL     1      -0.068   1.066  -2.315  1.00  0.00    -0.282 N 
ATOM     17  H   UNL     1      -0.622   1.651  -2.880  1.00  0.00     0.180 HD
BRANCH  16  18
ATOM     18  S   UNL     1      -0.545  -0.538  -2.133  1.00  0.00     0.236 S 
ATOM     19  O   UNL     1       0.514  -1.401  -2.627  1.00  0.00    -0.206 OA
ATOM     20  O   UNL     1      -1.862  -0.643  -2.727  1.00  0.00    -0.206 OA
BRANCH  18  21
ATOM     21  C   UNL     1      -0.763  -0.820  -0.343  1.00  0.00     0.186 C 
BRANCH  21  22
ATOM     22  C   UNL     1       0.508  -1.309   0.306  1.00  0.00    -0.017 C 
ATOM     23  C   UNL     1       1.089  -0.752   1.377  1.00  0.00     0.005 C 
ENDBRANCH  21  22
ENDBRANCH  18  21
ENDBRANCH  16  18
ENDBRANCH  10  16
ENDBRANCH   7   9
ENDBRANCH   6   7
ENDBRANCH   5   6
ENDBRANCH   4   5
ENDBRANCH   3   4
ENDBRANCH   2   3
ENDBRANCH   1   2
BRANCH   1  24
ATOM     24  O   UNL     1      -2.499   2.572  -0.773  1.00  0.00    -0.377 OA
BRANCH  24  25
ATOM     25  C   UNL     1      -3.928   2.529  -0.967  1.00  0.00     0.188 C 
BRANCH  25  26
ATOM     26  C   UNL     1      -4.866   2.971   0.157  1.00  0.00     0.188 C 
BRANCH  26  27
ATOM     27  O   UNL     1      -4.725   4.386   0.310  1.00  0.00    -0.376 OA
BRANCH  27  28
ATOM     28  C   UNL     1      -5.176   4.928   1.540  1.00  0.00     0.202 C 
BRANCH  28  29
ATOM     29  C   UNL     1      -6.675   4.743   1.802  1.00  0.00     0.261 C 
BRANCH  29  30
ATOM     30  O   UNL     1      -7.470   5.701   1.071  1.00  0.00    -0.460 OA
BRANCH  30  31
ATOM     31  C   UNL     1      -8.219   5.197   0.047  1.00  0.00     0.338 C 
ATOM     32  O   UNL     1      -9.391   4.885   0.160  1.00  0.00    -0.246 OA
BRANCH  31  33
ATOM     33  C   UNL     1      -7.479   5.259  -1.239  1.00  0.00     0.060 A 
ATOM     34  C   UNL     1      -7.784   4.422  -2.321  1.00  0.00     0.016 A 
ATOM     35  C   UNL     1      -6.409   6.132  -1.339  1.00  0.00     0.016 A 
ATOM     36  C   UNL     1      -6.924   4.349  -3.435  1.00  0.00     0.010 A 
ATOM     37  C   UNL     1      -5.552   6.022  -2.413  1.00  0.00     0.010 A 
ATOM     38  C   UNL     1      -5.757   5.107  -3.457  1.00  0.00    -0.014 A 
BRANCH  38  39
ATOM     39  C   UNL     1      -4.626   4.970  -4.403  1.00  0.00     0.031 A 
ATOM     40  C   UNL     1      -4.004   6.216  -4.968  1.00  0.00     0.074 A 
ATOM     41  C   UNL     1      -3.909   3.813  -4.409  1.00  0.00     0.049 A 
ATOM     42  N   UNL     1      -2.878   6.252  -5.590  1.00  0.00    -0.248 NA
ATOM     43  C   UNL     1      -4.569   7.558  -4.824  1.00  0.00     0.031 C 
ATOM     44  C   UNL     1      -2.486   3.654  -4.730  1.00  0.00     0.029 A 
ATOM     45  N   UNL     1      -4.256   2.510  -4.086  1.00  0.00    -0.354 N 
ATOM     46  C   UNL     1      -2.404   7.545  -5.597  1.00  0.00     0.074 A 
ATOM     47  C   UNL     1      -3.538   8.335  -5.184  1.00  0.00     0.031 C 
ATOM     48  C   UNL     1      -2.135   2.360  -4.735  1.00  0.00     0.029 A 
ATOM     49  C   UNL     1      -3.378   1.639  -4.742  1.00  0.00     0.049 A 
ATOM     50  H   UNL     1      -4.996   2.243  -3.494  1.00  0.00     0.167 HD
ATOM     51  C   UNL     1      -1.073   7.753  -5.837  1.00  0.00     0.031 A 
ATOM     52  C   UNL     1      -3.781   0.892  -5.815  1.00  0.00     0.031 A 
ATOM     53  C   UNL     1      -0.399   6.521  -6.317  1.00  0.00     0.049 A 
ATOM     54  C   UNL     1      -3.092   1.371  -7.107  1.00  0.00     0.074 A 
ATOM     55  C   UNL     1       0.749   5.821  -5.986  1.00  0.00     0.029 A 
ATOM     56  N   UNL     1      -1.063   5.704  -7.240  1.00  0.00    -0.354 N 
ATOM     57  N   UNL     1      -2.530   2.555  -7.219  1.00  0.00    -0.248 NA
ATOM     58  C   UNL     1      -2.868   0.586  -8.319  1.00  0.00     0.031 C 
ATOM     59  C   UNL     1       0.730   4.566  -6.673  1.00  0.00     0.029 A 
ATOM     60  C   UNL     1      -0.408   4.512  -7.462  1.00  0.00     0.049 A 
ATOM     61  H   UNL     1      -1.906   5.954  -7.683  1.00  0.00     0.167 HD
ATOM     62  C   UNL     1      -1.744   2.630  -8.334  1.00  0.00     0.074 A 
ATOM     63  C   UNL     1      -2.095   1.416  -9.056  1.00  0.00     0.031 C 
ATOM     64  C   UNL     1      -0.833   3.633  -8.554  1.00  0.00     0.031 A 
BRANCH  51  65
ATOM     65  C   UNL     1      -0.318   9.046  -5.504  1.00  0.00    -0.014 A 
ATOM     66  C   UNL     1       1.076   9.136  -5.729  1.00  0.00     0.010 A 
ATOM     67  C   UNL     1      -0.895  10.190  -4.910  1.00  0.00     0.010 A 
ATOM     68  C   UNL     1       1.836  10.273  -5.382  1.00  0.00     0.020 A 
ATOM     69  C   UNL     1      -0.156  11.346  -4.585  1.00  0.00     0.020 A 
ATOM     70  C   UNL     1       1.212  11.380  -4.817  1.00  0.00     0.054 A 
BRANCH  70  71
ATOM     71  S   UNL     1       2.191  12.856  -4.416  1.00  0.00     0.124 S 
ATOM     72  O   UNL     1       3.057  12.379  -3.341  1.00  0.00    -0.237 OA
ATOM     73  O   UNL     1       2.860  13.151  -5.680  1.00  0.00    -0.237 OA
ATOM     74  O   UNL     1       1.187  13.838  -4.008  1.00  0.00    -0.744 OA
ENDBRANCH  70  71
ENDBRANCH  51  65
BRANCH  52  75
ATOM     75  C   UNL     1      -5.086   0.205  -5.511  1.00  0.00    -0.014 A 
ATOM     76  C   UNL     1      -4.979  -0.781  -4.492  1.00  0.00     0.010 A 
ATOM     77  C   UNL     1      -6.306   0.910  -5.603  1.00  0.00     0.010 A 
ATOM     78  C   UNL     1      -5.912  -0.852  -3.447  1.00  0.00     0.020 A 
ATOM     79  C   UNL     1      -7.263   0.816  -4.563  1.00  0.00     0.020 A 
ATOM     80  C   UNL     1      -7.014  -0.001  -3.453  1.00  0.00     0.054 A 
BRANCH  80  81
ATOM     81  S   UNL     1      -7.932   0.216  -1.887  1.00  0.00     0.124 S 
ATOM     82  O   UNL     1      -8.620  -1.061  -1.740  1.00  0.00    -0.237 OA
ATOM     83  O   UNL     1      -6.861   0.473  -0.924  1.00  0.00    -0.237 OA
ATOM     84  O   UNL     1      -8.792   1.364  -2.158  1.00  0.00    -0.744 OA
ENDBRANCH  80  81
ENDBRANCH  52  75
BRANCH  64  85
ATOM     85  C   UNL     1      -0.230   3.965  -9.894  1.00  0.00    -0.014 A 
ATOM     86  C   UNL     1       0.192   3.039 -10.848  1.00  0.00     0.010 A 
ATOM     87  C   UNL     1      -0.072   5.341 -10.208  1.00  0.00     0.010 A 
ATOM     88  C   UNL     1       0.600   3.473 -12.118  1.00  0.00     0.020 A 
ATOM     89  C   UNL     1       0.363   5.784 -11.449  1.00  0.00     0.020 A 
ATOM     90  C   UNL     1       0.640   4.840 -12.421  1.00  0.00     0.054 A 
BRANCH  90  91
ATOM     91  S   UNL     1       1.012   5.380 -14.103  1.00  0.00     0.124 S 
ATOM     92  O   UNL     1       2.161   4.551 -14.459  1.00  0.00    -0.237 OA
ATOM     93  O   UNL     1      -0.233   5.061 -14.798  1.00  0.00    -0.237 OA
ATOM     94  O   UNL     1       1.297   6.805 -13.961  1.00  0.00    -0.744 OA
ENDBRANCH  90  91
ENDBRANCH  64  85
ENDBRANCH  38  39
ENDBRANCH  31  33
ENDBRANCH  30  31
ENDBRANCH  29  30
ENDBRANCH  28  29
ENDBRANCH  27  28
ENDBRANCH  26  27
ENDBRANCH  25  26
ENDBRANCH  24  25
ENDBRANCH   1  24
TORSDOF 27
