REMARK SMILES Cc1cccc(C(=O)OCCOCCOCCOCCOC(=O)c2ccc(-c3c4nc(c(-c5ccc(S(=O)(=O)[O-])cc5)c5ccc([nH]5)c(-c5ccc(S(=O)(=O)[O-])cc5)c5nc(c(-c6ccc(S(=O)(=O)[O-])cc6)c6ccc3[nH]6)C=C5)C=C4)cc2)c1OC[C@@H]1C[C@H]2CC[C@@H]1C2
REMARK SMILES IDX 15 1 14 2 13 3 12 4 11 5 10 6 9 7 7 8 8 9 6 10 1 11 2 12
REMARK SMILES IDX 3 13 84 14 4 15 5 16 85 17 86 18 87 19 88 20 92 21 89 22
REMARK SMILES IDX 91 23 93 24 90 25 16 26 17 27 18 28 19 29 20 30 21 31 22 32
REMARK SMILES IDX 23 33 24 34 25 35 83 36 26 37 82 38 27 39 28 40 29 41 76 42
REMARK SMILES IDX 30 43 81 44 75 45 77 46 31 47 80 48 74 49 73 50 32 52 62 53
REMARK SMILES IDX 43 54 61 55 44 56 47 57 60 58 78 59 45 60 46 61 59 63 79 64
REMARK SMILES IDX 48 65 33 66 34 67 42 68 35 69 41 70 36 71 37 72 38 73 39 74
REMARK SMILES IDX 40 75 63 76 64 77 72 78 65 79 71 80 66 81 67 82 68 83 69 84
REMARK SMILES IDX 70 85 49 86 50 87 58 88 51 89 57 90 52 91 53 92 54 93 55 94
REMARK SMILES IDX 56 95
REMARK H PARENT 77 51 47 62
REMARK Flexibility Score: inf
ROOT
ATOM      1  O   UNL     1      -0.820   2.439  -2.036  1.00  0.00    -0.377 OA
ENDROOT
BRANCH   1   2
ATOM      2  C   UNL     1      -1.319   1.271  -2.658  1.00  0.00     0.188 C 
BRANCH   2   3
ATOM      3  C   UNL     1      -2.693   0.735  -2.202  1.00  0.00     0.188 C 
BRANCH   3   4
ATOM      4  O   UNL     1      -3.797   1.612  -2.034  1.00  0.00    -0.376 OA
BRANCH   4   5
ATOM      5  C   UNL     1      -3.727   2.465  -0.889  1.00  0.00     0.202 C 
BRANCH   5   6
ATOM      6  C   UNL     1      -3.440   1.794   0.446  1.00  0.00     0.261 C 
BRANCH   6   7
ATOM      7  O   UNL     1      -2.043   1.490   0.483  1.00  0.00    -0.460 OA
BRANCH   7   8
ATOM      8  C   UNL     1      -1.664   0.620   1.437  1.00  0.00     0.342 C 
ATOM      9  O   UNL     1      -2.199   0.377   2.496  1.00  0.00    -0.246 OA
BRANCH   8  10
ATOM     10  C   UNL     1      -0.845  -0.382   0.739  1.00  0.00     0.102 A 
ATOM     11  C   UNL     1       2.205  -1.215  -1.431  1.00  0.00     0.048 C 
ATOM     12  C   UNL     1       0.972  -1.209  -0.579  1.00  0.00    -0.008 A 
ATOM     13  C   UNL     1       0.278  -2.454  -0.634  1.00  0.00     0.007 A 
ATOM     14  C   UNL     1       0.422  -0.142   0.152  1.00  0.00     0.136 A 
ATOM     15  C   UNL     1      -0.980  -2.641  -0.084  1.00  0.00     0.001 A 
ATOM     16  C   UNL     1      -1.548  -1.594   0.598  1.00  0.00     0.019 A 
BRANCH  14  17
ATOM     17  O   UNL     1       0.865   1.137   0.298  1.00  0.00    -0.492 OA
BRANCH  17  18
ATOM     18  C   UNL     1       2.200   1.646   0.213  1.00  0.00     0.233 C 
BRANCH  18  19
ATOM     19  C   UNL     1       3.002   1.267   1.453  1.00  0.00     0.030 C 
ATOM     20  C   UNL     1       4.056   2.276   1.961  1.00  0.00     0.011 C 
ATOM     21  C   UNL     1       3.861  -0.014   1.304  1.00  0.00    -0.004 C 
ATOM     22  C   UNL     1       5.199   1.347   2.427  1.00  0.00    -0.010 C 
ATOM     23  C   UNL     1       3.874  -0.674   2.680  1.00  0.00     0.004 C 
ATOM     24  C   UNL     1       5.312   0.467   1.193  1.00  0.00     0.007 C 
ATOM     25  C   UNL     1       4.701   0.335   3.493  1.00  0.00     0.004 C 
ENDBRANCH  18  19
ENDBRANCH  17  18
ENDBRANCH  14  17
ENDBRANCH   8  10
ENDBRANCH   7   8
ENDBRANCH   6   7
ENDBRANCH   5   6
ENDBRANCH   4   5
ENDBRANCH   3   4
ENDBRANCH   2   3
ENDBRANCH   1   2
BRANCH   1  26
ATOM     26  C   UNL     1      -0.716   3.635  -2.815  1.00  0.00     0.188 C 
BRANCH  26  27
ATOM     27  C   UNL     1      -1.256   3.673  -4.223  1.00  0.00     0.188 C 
BRANCH  27  28
ATOM     28  O   UNL     1      -2.640   3.352  -4.110  1.00  0.00    -0.376 OA
BRANCH  28  29
ATOM     29  C   UNL     1      -3.245   2.801  -5.258  1.00  0.00     0.202 C 
BRANCH  29  30
ATOM     30  C   UNL     1      -3.107   3.706  -6.478  1.00  0.00     0.261 C 
BRANCH  30  31
ATOM     31  O   UNL     1      -4.005   4.840  -6.391  1.00  0.00    -0.460 OA
BRANCH  31  32
ATOM     32  C   UNL     1      -3.476   6.044  -6.011  1.00  0.00     0.338 C 
ATOM     33  O   UNL     1      -3.055   6.864  -6.809  1.00  0.00    -0.246 OA
BRANCH  32  34
ATOM     34  C   UNL     1      -3.626   6.287  -4.542  1.00  0.00     0.060 A 
ATOM     35  C   UNL     1      -2.857   7.232  -3.847  1.00  0.00     0.016 A 
ATOM     36  C   UNL     1      -4.462   5.466  -3.813  1.00  0.00     0.016 A 
ATOM     37  C   UNL     1      -2.749   7.192  -2.433  1.00  0.00     0.010 A 
ATOM     38  C   UNL     1      -4.297   5.391  -2.441  1.00  0.00     0.010 A 
ATOM     39  C   UNL     1      -3.398   6.197  -1.714  1.00  0.00    -0.014 A 
BRANCH  39  40
ATOM     40  C   UNL     1      -3.225   5.824  -0.274  1.00  0.00     0.031 A 
ATOM     41  C   UNL     1      -4.496   5.559   0.507  1.00  0.00     0.074 A 
ATOM     42  C   UNL     1      -2.037   5.344   0.210  1.00  0.00     0.049 A 
ATOM     43  N   UNL     1      -4.564   4.931   1.628  1.00  0.00    -0.248 NA
ATOM     44  C   UNL     1      -5.843   5.901   0.028  1.00  0.00     0.031 C 
ATOM     45  C   UNL     1      -1.859   4.385   1.307  1.00  0.00     0.029 A 
ATOM     46  N   UNL     1      -0.711   5.550  -0.178  1.00  0.00    -0.354 N 
ATOM     47  C   UNL     1      -5.852   4.476   1.821  1.00  0.00     0.074 A 
ATOM     48  C   UNL     1      -6.627   5.146   0.811  1.00  0.00     0.031 C 
ATOM     49  C   UNL     1      -0.567   4.129   1.557  1.00  0.00     0.029 A 
ATOM     50  C   UNL     1       0.148   5.170   0.877  1.00  0.00     0.049 A 
ATOM     51  H   UNL     1      -0.420   5.904  -1.049  1.00  0.00     0.167 HD
ATOM     52  C   UNL     1      -6.065   3.496   2.748  1.00  0.00     0.031 A 
ATOM     53  C   UNL     1       0.878   6.116   1.537  1.00  0.00     0.031 A 
ATOM     54  C   UNL     1      -4.875   3.301   3.595  1.00  0.00     0.049 A 
ATOM     55  C   UNL     1       0.323   6.237   2.954  1.00  0.00     0.074 A 
ATOM     56  C   UNL     1      -4.086   2.216   3.921  1.00  0.00     0.029 A 
ATOM     57  N   UNL     1      -4.209   4.420   4.108  1.00  0.00    -0.354 N 
ATOM     58  N   UNL     1      -0.949   6.082   3.258  1.00  0.00    -0.248 NA
ATOM     59  C   UNL     1       1.181   6.206   4.140  1.00  0.00     0.031 C 
ATOM     60  C   UNL     1      -2.854   2.717   4.441  1.00  0.00     0.029 A 
ATOM     61  C   UNL     1      -2.929   4.103   4.519  1.00  0.00     0.049 A 
ATOM     62  H   UNL     1      -4.603   5.320   4.168  1.00  0.00     0.167 HD
ATOM     63  C   UNL     1      -1.052   5.716   4.577  1.00  0.00     0.074 A 
ATOM     64  C   UNL     1       0.297   5.893   5.105  1.00  0.00     0.031 C 
ATOM     65  C   UNL     1      -2.103   5.091   5.197  1.00  0.00     0.031 A 
BRANCH  52  66
ATOM     66  C   UNL     1      -7.281   2.572   2.826  1.00  0.00    -0.014 A 
ATOM     67  C   UNL     1      -7.371   1.647   3.893  1.00  0.00     0.010 A 
ATOM     68  C   UNL     1      -8.305   2.477   1.858  1.00  0.00     0.010 A 
ATOM     69  C   UNL     1      -8.402   0.697   3.998  1.00  0.00     0.020 A 
ATOM     70  C   UNL     1      -9.368   1.548   1.969  1.00  0.00     0.020 A 
ATOM     71  C   UNL     1      -9.407   0.658   3.039  1.00  0.00     0.054 A 
BRANCH  71  72
ATOM     72  S   UNL     1     -10.756  -0.547   3.233  1.00  0.00     0.124 S 
ATOM     73  O   UNL     1     -10.066  -1.825   3.076  1.00  0.00    -0.237 OA
ATOM     74  O   UNL     1     -11.248  -0.261   4.578  1.00  0.00    -0.237 OA
ATOM     75  O   UNL     1     -11.683  -0.209   2.155  1.00  0.00    -0.744 OA
ENDBRANCH  71  72
ENDBRANCH  52  66
BRANCH  53  76
ATOM     76  C   UNL     1       1.446   7.094   0.544  1.00  0.00    -0.014 A 
ATOM     77  C   UNL     1       2.462   6.542  -0.286  1.00  0.00     0.010 A 
ATOM     78  C   UNL     1       0.618   8.089  -0.015  1.00  0.00     0.010 A 
ATOM     79  C   UNL     1       2.456   6.751  -1.674  1.00  0.00     0.020 A 
ATOM     80  C   UNL     1       0.632   8.319  -1.410  1.00  0.00     0.020 A 
ATOM     81  C   UNL     1       1.493   7.587  -2.235  1.00  0.00     0.054 A 
BRANCH  81  82
ATOM     82  S   UNL     1       1.245   7.511  -4.041  1.00  0.00     0.124 S 
ATOM     83  O   UNL     1       2.491   8.070  -4.554  1.00  0.00    -0.237 OA
ATOM     84  O   UNL     1       1.059   6.078  -4.273  1.00  0.00    -0.237 OA
ATOM     85  O   UNL     1       0.060   8.331  -4.260  1.00  0.00    -0.744 OA
ENDBRANCH  81  82
ENDBRANCH  53  76
BRANCH  65  86
ATOM     86  C   UNL     1      -2.457   5.390   6.631  1.00  0.00    -0.014 A 
ATOM     87  C   UNL     1      -1.902   6.472   7.324  1.00  0.00     0.010 A 
ATOM     88  C   UNL     1      -3.547   4.714   7.237  1.00  0.00     0.010 A 
ATOM     89  C   UNL     1      -2.374   6.833   8.584  1.00  0.00     0.020 A 
ATOM     90  C   UNL     1      -4.062   5.103   8.471  1.00  0.00     0.020 A 
ATOM     91  C   UNL     1      -3.452   6.150   9.146  1.00  0.00     0.054 A 
BRANCH  91  92
ATOM     92  S   UNL     1      -4.066   6.692  10.751  1.00  0.00     0.124 S 
ATOM     93  O   UNL     1      -3.034   6.180  11.649  1.00  0.00    -0.237 OA
ATOM     94  O   UNL     1      -4.103   8.146  10.602  1.00  0.00    -0.237 OA
ATOM     95  O   UNL     1      -5.372   6.049  10.863  1.00  0.00    -0.744 OA
ENDBRANCH  91  92
ENDBRANCH  65  86
ENDBRANCH  39  40
ENDBRANCH  32  34
ENDBRANCH  31  32
ENDBRANCH  30  31
ENDBRANCH  29  30
ENDBRANCH  28  29
ENDBRANCH  27  28
ENDBRANCH  26  27
ENDBRANCH   1  26
TORSDOF 26
