REMARK SMILES Cc1cc2c(cc1C(=O)c1ccccc1C(=O)OCCOCCOCCOCCOC(=O)c1ccc(-c3c4nc(c(-c5ccc(S(=O)(=O)[O-])cc5)c5ccc([nH]5)c(-c5ccc(S(=O)(=O)[O-])cc5)c5nc(c(-c6ccc(S(=O)(=O)[O-])cc6)c6ccc3[nH]6)C=C5)C=C4)cc1)CCCC2
REMARK SMILES IDX 25 1 24 2 23 3 22 4 21 5 20 6 19 7 18 8 16 9 17 10 15 11
REMARK SMILES IDX 10 12 11 13 12 14 14 15 13 16 8 17 9 18 7 19 1 20 2 21 3 22
REMARK SMILES IDX 4 23 6 24 5 25 96 26 93 27 95 28 94 29 26 30 27 31 28 32
REMARK SMILES IDX 29 33 30 34 31 35 32 36 33 37 34 38 92 39 35 40 91 41 36 42
REMARK SMILES IDX 37 43 38 44 85 45 39 46 90 47 84 48 86 49 40 50 89 51 83 52
REMARK SMILES IDX 82 53 41 55 71 56 52 57 70 58 53 59 56 60 69 61 87 62 54 63
REMARK SMILES IDX 55 64 68 66 88 67 57 68 42 69 43 70 51 71 44 72 50 73 45 74
REMARK SMILES IDX 46 75 47 76 48 77 49 78 72 79 73 80 81 81 74 82 80 83 75 84
REMARK SMILES IDX 76 85 77 86 78 87 79 88 58 89 59 90 67 91 60 92 66 93 61 94
REMARK SMILES IDX 62 95 63 96 64 97 65 98
REMARK H PARENT 86 54 56 65
REMARK Flexibility Score: inf
ROOT
ATOM      1  C   UNL     1       4.863   1.630   2.627  1.00  0.00     0.188 C 
ENDROOT
BRANCH   1   2
ATOM      2  O   UNL     1       4.222   1.610   1.357  1.00  0.00    -0.377 OA
BRANCH   2   3
ATOM      3  C   UNL     1       4.602   0.630   0.410  1.00  0.00     0.188 C 
BRANCH   3   4
ATOM      4  C   UNL     1       5.872   0.974  -0.382  1.00  0.00     0.188 C 
BRANCH   4   5
ATOM      5  O   UNL     1       6.696   1.931   0.253  1.00  0.00    -0.376 OA
BRANCH   5   6
ATOM      6  C   UNL     1       6.518   3.318   0.001  1.00  0.00     0.202 C 
BRANCH   6   7
ATOM      7  C   UNL     1       5.174   4.000  -0.334  1.00  0.00     0.261 C 
BRANCH   7   8
ATOM      8  O   UNL     1       4.105   3.165  -0.777  1.00  0.00    -0.460 OA
BRANCH   8   9
ATOM      9  C   UNL     1       3.929   3.031  -2.099  1.00  0.00     0.338 C 
ATOM     10  O   UNL     1       4.665   3.470  -2.971  1.00  0.00    -0.246 OA
BRANCH   9  11
ATOM     11  C   UNL     1       2.844   2.058  -2.387  1.00  0.00     0.071 A 
ATOM     12  C   UNL     1       1.596   1.992  -1.744  1.00  0.00     0.037 A 
ATOM     13  C   UNL     1       0.587   1.195  -2.307  1.00  0.00     0.013 A 
ATOM     14  C   UNL     1       0.880   0.296  -3.336  1.00  0.00     0.001 A 
ATOM     15  C   UNL     1       3.132   1.137  -3.413  1.00  0.00     0.016 A 
ATOM     16  C   UNL     1       2.169   0.231  -3.853  1.00  0.00     0.001 A 
BRANCH  12  17
ATOM     17  C   UNL     1       1.274   2.753  -0.519  1.00  0.00     0.194 C 
ATOM     18  O   UNL     1       1.400   3.974  -0.612  1.00  0.00    -0.289 OA
BRANCH  17  19
ATOM     19  C   UNL     1       0.731   2.123   0.760  1.00  0.00     0.026 A 
ATOM     20  C   UNL     1       0.849  -0.423   0.176  1.00  0.00     0.045 C 
ATOM     21  C   UNL     1       0.498   0.755   1.038  1.00  0.00    -0.040 A 
ATOM     22  C   UNL     1      -0.169   0.400   2.236  1.00  0.00     0.008 A 
ATOM     23  C   UNL     1      -0.525   1.337   3.207  1.00  0.00    -0.044 A 
ATOM     24  C   UNL     1       0.411   3.052   1.780  1.00  0.00     0.016 A 
ATOM     25  C   UNL     1      -0.202   2.678   2.995  1.00  0.00    -0.044 A 
ATOM     26  C   UNL     1      -1.311   0.878   4.409  1.00  0.00     0.036 C 
ATOM     27  C   UNL     1      -0.438   3.711   4.071  1.00  0.00     0.036 C 
ATOM     28  C   UNL     1      -1.294   1.867   5.567  1.00  0.00     0.005 C 
ATOM     29  C   UNL     1      -1.506   3.295   5.085  1.00  0.00     0.005 C 
ENDBRANCH  17  19
ENDBRANCH  12  17
ENDBRANCH   9  11
ENDBRANCH   8   9
ENDBRANCH   7   8
ENDBRANCH   6   7
ENDBRANCH   5   6
ENDBRANCH   4   5
ENDBRANCH   3   4
ENDBRANCH   2   3
ENDBRANCH   1   2
BRANCH   1  30
ATOM     30  C   UNL     1       6.175   0.861   2.888  1.00  0.00     0.188 C 
BRANCH  30  31
ATOM     31  O   UNL     1       6.204  -0.459   2.350  1.00  0.00    -0.376 OA
BRANCH  31  32
ATOM     32  C   UNL     1       6.011  -1.529   3.265  1.00  0.00     0.202 C 
BRANCH  32  33
ATOM     33  C   UNL     1       4.567  -1.704   3.755  1.00  0.00     0.261 C 
BRANCH  33  34
ATOM     34  O   UNL     1       4.052  -0.629   4.556  1.00  0.00    -0.460 OA
BRANCH  34  35
ATOM     35  C   UNL     1       4.741  -0.277   5.664  1.00  0.00     0.338 C 
ATOM     36  O   UNL     1       5.723  -0.833   6.127  1.00  0.00    -0.246 OA
BRANCH  35  37
ATOM     37  C   UNL     1       4.220   1.029   6.120  1.00  0.00     0.060 A 
ATOM     38  C   UNL     1       2.849   1.218   6.289  1.00  0.00     0.016 A 
ATOM     39  C   UNL     1       5.117   2.076   6.376  1.00  0.00     0.016 A 
ATOM     40  C   UNL     1       2.388   2.442   6.768  1.00  0.00     0.010 A 
ATOM     41  C   UNL     1       4.646   3.307   6.845  1.00  0.00     0.010 A 
ATOM     42  C   UNL     1       3.277   3.485   7.077  1.00  0.00    -0.014 A 
BRANCH  42  43
ATOM     43  C   UNL     1       2.765   4.629   7.872  1.00  0.00     0.031 A 
ATOM     44  C   UNL     1       2.483   5.973   7.276  1.00  0.00     0.074 A 
ATOM     45  C   UNL     1       2.502   4.394   9.172  1.00  0.00     0.049 A 
ATOM     46  N   UNL     1       1.889   6.998   7.834  1.00  0.00    -0.248 NA
ATOM     47  C   UNL     1       2.922   6.207   5.894  1.00  0.00     0.031 C 
ATOM     48  C   UNL     1       2.753   3.120   9.854  1.00  0.00     0.029 A 
ATOM     49  N   UNL     1       1.940   5.185  10.141  1.00  0.00    -0.354 N 
ATOM     50  C   UNL     1       1.866   7.998   6.871  1.00  0.00     0.074 A 
ATOM     51  C   UNL     1       2.544   7.468   5.705  1.00  0.00     0.031 C 
ATOM     52  C   UNL     1       2.300   3.199  11.111  1.00  0.00     0.029 A 
ATOM     53  C   UNL     1       1.761   4.536  11.339  1.00  0.00     0.049 A 
ATOM     54  H   UNL     1       1.690   6.125   9.992  1.00  0.00     0.167 HD
ATOM     55  C   UNL     1       1.316   9.234   6.957  1.00  0.00     0.031 A 
ATOM     56  C   UNL     1       1.212   4.954  12.496  1.00  0.00     0.031 A 
ATOM     57  C   UNL     1       0.660   9.751   8.138  1.00  0.00     0.049 A 
ATOM     58  C   UNL     1       0.630   6.333  12.569  1.00  0.00     0.074 A 
ATOM     59  C   UNL     1       0.031  10.975   8.300  1.00  0.00     0.029 A 
ATOM     60  N   UNL     1       0.555   9.091   9.354  1.00  0.00    -0.354 N 
ATOM     61  N   UNL     1       0.549   7.239  11.624  1.00  0.00    -0.248 NA
ATOM     62  C   UNL     1       0.052   6.744  13.855  1.00  0.00     0.031 C 
ATOM     63  C   UNL     1      -0.386  11.084   9.629  1.00  0.00     0.029 A 
ATOM     64  C   UNL     1      -0.090   9.898  10.280  1.00  0.00     0.049 A 
ATOM     65  H   UNL     1       0.889   8.182   9.533  1.00  0.00     0.167 HD
ATOM     66  C   UNL     1      -0.087   8.331  12.201  1.00  0.00     0.074 A 
ATOM     67  C   UNL     1      -0.405   7.955  13.565  1.00  0.00     0.031 C 
ATOM     68  C   UNL     1      -0.372   9.536  11.649  1.00  0.00     0.031 A 
BRANCH  55  69
ATOM     69  C   UNL     1       1.368  10.134   5.746  1.00  0.00    -0.014 A 
ATOM     70  C   UNL     1       2.090  11.343   5.798  1.00  0.00     0.010 A 
ATOM     71  C   UNL     1       0.578   9.863   4.615  1.00  0.00     0.010 A 
ATOM     72  C   UNL     1       1.989  12.278   4.764  1.00  0.00     0.020 A 
ATOM     73  C   UNL     1       0.497  10.784   3.564  1.00  0.00     0.020 A 
ATOM     74  C   UNL     1       1.182  11.998   3.659  1.00  0.00     0.054 A 
BRANCH  74  75
ATOM     75  S   UNL     1       1.023  13.247   2.352  1.00  0.00     0.124 S 
ATOM     76  O   UNL     1       0.180  14.255   2.989  1.00  0.00    -0.237 OA
ATOM     77  O   UNL     1       2.410  13.641   2.117  1.00  0.00    -0.237 OA
ATOM     78  O   UNL     1       0.398  12.516   1.252  1.00  0.00    -0.744 OA
ENDBRANCH  74  75
ENDBRANCH  55  69
BRANCH  56  79
ATOM     79  C   UNL     1       1.155   4.009  13.644  1.00  0.00    -0.014 A 
ATOM     80  C   UNL     1       2.342   3.581  14.269  1.00  0.00     0.010 A 
ATOM     81  C   UNL     1      -0.069   3.444  14.039  1.00  0.00     0.010 A 
ATOM     82  C   UNL     1       2.315   2.558  15.217  1.00  0.00     0.020 A 
ATOM     83  C   UNL     1      -0.104   2.442  15.013  1.00  0.00     0.020 A 
ATOM     84  C   UNL     1       1.092   1.982  15.570  1.00  0.00     0.054 A 
BRANCH  84  85
ATOM     85  S   UNL     1       1.087   0.604  16.750  1.00  0.00     0.124 S 
ATOM     86  O   UNL     1       1.563  -0.500  15.920  1.00  0.00    -0.237 OA
ATOM     87  O   UNL     1       2.015   1.062  17.780  1.00  0.00    -0.237 OA
ATOM     88  O   UNL     1      -0.310   0.517  17.167  1.00  0.00    -0.744 OA
ENDBRANCH  84  85
ENDBRANCH  56  79
BRANCH  68  89
ATOM     89  C   UNL     1      -1.029  10.569  12.531  1.00  0.00    -0.014 A 
ATOM     90  C   UNL     1      -2.339  11.004  12.258  1.00  0.00     0.010 A 
ATOM     91  C   UNL     1      -0.316  11.172  13.584  1.00  0.00     0.010 A 
ATOM     92  C   UNL     1      -2.916  12.035  13.005  1.00  0.00     0.020 A 
ATOM     93  C   UNL     1      -0.902  12.181  14.355  1.00  0.00     0.020 A 
ATOM     94  C   UNL     1      -2.191  12.621  14.046  1.00  0.00     0.054 A 
BRANCH  94  95
ATOM     95  S   UNL     1      -2.956  13.956  15.007  1.00  0.00     0.124 S 
ATOM     96  O   UNL     1      -2.834  15.095  14.102  1.00  0.00    -0.237 OA
ATOM     97  O   UNL     1      -4.314  13.463  15.219  1.00  0.00    -0.237 OA
ATOM     98  O   UNL     1      -2.133  14.025  16.213  1.00  0.00    -0.744 OA
ENDBRANCH  94  95
ENDBRANCH  68  89
ENDBRANCH  42  43
ENDBRANCH  35  37
ENDBRANCH  34  35
ENDBRANCH  33  34
ENDBRANCH  32  33
ENDBRANCH  31  32
ENDBRANCH  30  31
ENDBRANCH   1  30
TORSDOF 25
