REMARK SMILES C=CC[N@@H+](CC(=O)OCCOCCOCCOCCOC(=O)c1ccc(-c2c3nc(c(-c4ccc(S(=O)(=O)[O-])cc4)c4ccc([nH]4)c(-c4ccc(S(=O)(=O)[O-])cc4)c4nc(c(-c5ccc(S(=O)(=O)[O-])cc5)c5ccc2[nH]5)C=C4)C=C3)cc1)Cc1nnc(-c2ccc(C)cc2)o1
REMARK SMILES IDX 13 1 12 2 11 3 10 4 9 5 8 6 6 7 7 8 5 9 4 10 3 12 2 13 1 14
REMARK SMILES IDX 83 15 84 16 85 17 95 18 86 19 87 20 88 21 89 22 94 23 90 24
REMARK SMILES IDX 93 25 91 26 92 27 14 28 15 29 16 30 17 31 18 32 19 33 20 34
REMARK SMILES IDX 21 35 22 36 23 37 24 38 82 39 25 40 81 41 26 42 27 43 28 44
REMARK SMILES IDX 75 45 29 46 80 47 74 48 76 49 30 50 79 51 73 52 72 53 31 55
REMARK SMILES IDX 61 56 42 57 60 58 43 59 46 60 59 61 77 62 44 63 45 64 58 66
REMARK SMILES IDX 78 67 47 68 32 69 33 70 41 71 34 72 40 73 35 74 36 75 37 76
REMARK SMILES IDX 38 77 39 78 62 79 63 80 71 81 64 82 70 83 65 84 66 85 67 86
REMARK SMILES IDX 68 87 69 88 48 89 49 90 57 91 50 92 56 93 51 94 52 95 53 96
REMARK SMILES IDX 54 97 55 98
REMARK H PARENT 4 11 76 54 46 65
REMARK Flexibility Score: inf
ROOT
ATOM      1  C   UNL     1      -2.098   3.038   1.462  1.00  0.00     0.188 C 
ENDROOT
BRANCH   1   2
ATOM      2  C   UNL     1      -4.229   2.380   1.109  1.00  0.00     0.188 C 
BRANCH   2   3
ATOM      3  O   UNL     1      -5.125   1.500   1.996  1.00  0.00    -0.376 OA
BRANCH   3   4
ATOM      4  C   UNL     1      -4.810   0.106   2.117  1.00  0.00     0.202 C 
BRANCH   4   5
ATOM      5  C   UNL     1      -5.043  -0.779   0.880  1.00  0.00     0.261 C 
BRANCH   5   6
ATOM      6  O   UNL     1      -4.124  -0.560  -0.216  1.00  0.00    -0.459 OA
BRANCH   6   7
ATOM      7  C   UNL     1      -4.616   0.045  -1.327  1.00  0.00     0.361 C 
ATOM      8  O   UNL     1      -5.790   0.376  -1.478  1.00  0.00    -0.245 OA
BRANCH   7   9
ATOM      9  C   UNL     1      -3.587   0.261  -2.437  1.00  0.00     0.387 C 
BRANCH   9  10
ATOM     10  N   UNL     1      -2.257   0.825  -2.102  1.00  0.00    -0.315 N 
ATOM     11  H   UNL     1      -1.773   0.969  -2.988  1.00  0.00     0.349 HD
BRANCH  10  12
ATOM     12  C   UNL     1      -1.407  -0.141  -1.393  1.00  0.00     0.291 C 
BRANCH  12  13
ATOM     13  C   UNL     1       0.067   0.124  -1.526  1.00  0.00     0.025 C 
ATOM     14  C   UNL     1       0.941  -0.055  -0.524  1.00  0.00     0.010 C 
ENDBRANCH  12  13
ENDBRANCH  10  12
BRANCH  10  15
ATOM     15  C   UNL     1      -2.269   2.223  -1.600  1.00  0.00     0.363 C 
BRANCH  15  16
ATOM     16  C   UNL     1      -2.784   2.400  -0.220  1.00  0.00     0.271 A 
ATOM     17  N   UNL     1      -2.731   1.347   1.047  1.00  0.00    -0.106 NA
ATOM     18  O   UNL     1      -3.427   3.991   0.501  1.00  0.00    -0.415 OA
ATOM     19  N   UNL     1      -3.226   2.258   2.672  1.00  0.00    -0.107 NA
ATOM     20  C   UNL     1      -3.692   3.802   2.329  1.00  0.00     0.248 A 
BRANCH  20  21
ATOM     21  C   UNL     1      -3.909   4.869   3.294  1.00  0.00     0.039 A 
ATOM     22  C   UNL     1      -3.270   4.696   4.539  1.00  0.00     0.014 A 
ATOM     23  C   UNL     1      -4.844   5.887   3.175  1.00  0.00     0.014 A 
ATOM     24  C   UNL     1      -3.596   5.442   5.660  1.00  0.00     0.004 A 
ATOM     25  C   UNL     1      -5.194   6.639   4.317  1.00  0.00     0.004 A 
ATOM     26  C   UNL     1      -4.601   6.394   5.569  1.00  0.00    -0.051 A 
ATOM     27  C   UNL     1      -5.052   7.060   6.834  1.00  0.00     0.044 C 
ENDBRANCH  20  21
ENDBRANCH  15  16
ENDBRANCH  10  15
ENDBRANCH   9  10
ENDBRANCH   7   9
ENDBRANCH   6   7
ENDBRANCH   5   6
ENDBRANCH   4   5
ENDBRANCH   3   4
ENDBRANCH   2   3
ENDBRANCH   1   2
BRANCH   1  28
ATOM     28  O   UNL     1      -0.804   2.206   1.346  1.00  0.00    -0.377 OA
BRANCH  28  29
ATOM     29  C   UNL     1      -0.418   1.519   2.535  1.00  0.00     0.188 C 
BRANCH  29  30
ATOM     30  C   UNL     1      -0.450   2.319   3.833  1.00  0.00     0.188 C 
BRANCH  30  31
ATOM     31  O   UNL     1       0.028   3.658   3.942  1.00  0.00    -0.376 OA
BRANCH  31  32
ATOM     32  C   UNL     1       0.698   4.323   2.881  1.00  0.00     0.202 C 
BRANCH  32  33
ATOM     33  C   UNL     1       2.102   3.858   2.491  1.00  0.00     0.261 C 
BRANCH  33  34
ATOM     34  O   UNL     1       2.492   2.626   3.078  1.00  0.00    -0.460 OA
BRANCH  34  35
ATOM     35  C   UNL     1       2.722   2.675   4.411  1.00  0.00     0.338 C 
ATOM     36  O   UNL     1       2.793   3.658   5.124  1.00  0.00    -0.246 OA
BRANCH  35  37
ATOM     37  C   UNL     1       2.649   1.278   4.870  1.00  0.00     0.060 A 
ATOM     38  C   UNL     1       1.837   0.984   5.973  1.00  0.00     0.016 A 
ATOM     39  C   UNL     1       3.279   0.262   4.142  1.00  0.00     0.016 A 
ATOM     40  C   UNL     1       1.642  -0.337   6.344  1.00  0.00     0.010 A 
ATOM     41  C   UNL     1       3.137  -1.057   4.551  1.00  0.00     0.010 A 
ATOM     42  C   UNL     1       2.350  -1.344   5.676  1.00  0.00    -0.014 A 
BRANCH  42  43
ATOM     43  C   UNL     1       2.559  -2.608   6.398  1.00  0.00     0.031 A 
ATOM     44  C   UNL     1       3.703  -2.630   7.371  1.00  0.00     0.074 A 
ATOM     45  C   UNL     1       1.735  -3.653   6.236  1.00  0.00     0.049 A 
ATOM     46  N   UNL     1       4.082  -3.576   8.184  1.00  0.00    -0.248 NA
ATOM     47  C   UNL     1       4.528  -1.407   7.443  1.00  0.00     0.031 C 
ATOM     48  C   UNL     1       0.575  -3.694   5.346  1.00  0.00     0.029 A 
ATOM     49  N   UNL     1       1.751  -4.883   6.832  1.00  0.00    -0.354 N 
ATOM     50  C   UNL     1       5.179  -3.061   8.863  1.00  0.00     0.074 A 
ATOM     51  C   UNL     1       5.428  -1.735   8.353  1.00  0.00     0.031 C 
ATOM     52  C   UNL     1      -0.009  -4.901   5.453  1.00  0.00     0.029 A 
ATOM     53  C   UNL     1       0.750  -5.716   6.399  1.00  0.00     0.049 A 
ATOM     54  H   UNL     1       2.417  -5.147   7.508  1.00  0.00     0.167 HD
ATOM     55  C   UNL     1       5.915  -3.646   9.833  1.00  0.00     0.031 A 
ATOM     56  C   UNL     1       0.497  -6.996   6.730  1.00  0.00     0.031 A 
ATOM     57  C   UNL     1       5.678  -4.985  10.292  1.00  0.00     0.049 A 
ATOM     58  C   UNL     1       1.375  -7.654   7.764  1.00  0.00     0.074 A 
ATOM     59  C   UNL     1       6.360  -5.699  11.257  1.00  0.00     0.029 A 
ATOM     60  N   UNL     1       4.683  -5.817   9.797  1.00  0.00    -0.354 N 
ATOM     61  N   UNL     1       2.399  -7.154   8.419  1.00  0.00    -0.248 NA
ATOM     62  C   UNL     1       1.051  -9.041   8.117  1.00  0.00     0.031 C 
ATOM     63  C   UNL     1       5.817  -6.987  11.300  1.00  0.00     0.029 A 
ATOM     64  C   UNL     1       4.748  -7.050  10.418  1.00  0.00     0.049 A 
ATOM     65  H   UNL     1       4.027  -5.566   9.106  1.00  0.00     0.167 HD
ATOM     66  C   UNL     1       2.824  -8.156   9.284  1.00  0.00     0.074 A 
ATOM     67  C   UNL     1       1.932  -9.282   9.078  1.00  0.00     0.031 C 
ATOM     68  C   UNL     1       3.852  -8.153  10.172  1.00  0.00     0.031 A 
BRANCH  55  69
ATOM     69  C   UNL     1       7.071  -2.860  10.389  1.00  0.00    -0.014 A 
ATOM     70  C   UNL     1       6.869  -1.714  11.182  1.00  0.00     0.010 A 
ATOM     71  C   UNL     1       8.384  -3.269  10.101  1.00  0.00     0.010 A 
ATOM     72  C   UNL     1       7.960  -0.974  11.645  1.00  0.00     0.020 A 
ATOM     73  C   UNL     1       9.478  -2.550  10.587  1.00  0.00     0.020 A 
ATOM     74  C   UNL     1       9.258  -1.398  11.345  1.00  0.00     0.054 A 
BRANCH  74  75
ATOM     75  S   UNL     1      10.658  -0.436  11.981  1.00  0.00     0.124 S 
ATOM     76  O   UNL     1      10.592   0.772  11.163  1.00  0.00    -0.237 OA
ATOM     77  O   UNL     1      10.310  -0.261  13.389  1.00  0.00    -0.237 OA
ATOM     78  O   UNL     1      11.812  -1.295  11.730  1.00  0.00    -0.744 OA
ENDBRANCH  74  75
ENDBRANCH  55  69
BRANCH  56  79
ATOM     79  C   UNL     1      -0.620  -7.727   6.072  1.00  0.00    -0.014 A 
ATOM     80  C   UNL     1      -1.766  -8.106   6.792  1.00  0.00     0.010 A 
ATOM     81  C   UNL     1      -0.546  -8.032   4.700  1.00  0.00     0.010 A 
ATOM     82  C   UNL     1      -2.811  -8.786   6.156  1.00  0.00     0.020 A 
ATOM     83  C   UNL     1      -1.600  -8.685   4.054  1.00  0.00     0.020 A 
ATOM     84  C   UNL     1      -2.723  -9.066   4.789  1.00  0.00     0.054 A 
BRANCH  84  85
ATOM     85  S   UNL     1      -4.117  -9.891   3.972  1.00  0.00     0.124 S 
ATOM     86  O   UNL     1      -4.023 -11.247   4.503  1.00  0.00    -0.237 OA
ATOM     87  O   UNL     1      -5.260  -9.107   4.434  1.00  0.00    -0.237 OA
ATOM     88  O   UNL     1      -3.811  -9.752   2.550  1.00  0.00    -0.744 OA
ENDBRANCH  84  85
ENDBRANCH  56  79
BRANCH  68  89
ATOM     89  C   UNL     1       4.035  -9.391  11.008  1.00  0.00    -0.014 A 
ATOM     90  C   UNL     1       4.477 -10.601  10.444  1.00  0.00     0.010 A 
ATOM     91  C   UNL     1       3.783  -9.329  12.391  1.00  0.00     0.010 A 
ATOM     92  C   UNL     1       4.600 -11.743  11.237  1.00  0.00     0.020 A 
ATOM     93  C   UNL     1       3.942 -10.459  13.194  1.00  0.00     0.020 A 
ATOM     94  C   UNL     1       4.324 -11.666  12.606  1.00  0.00     0.054 A 
BRANCH  94  95
ATOM     95  S   UNL     1       4.486 -13.163  13.615  1.00  0.00     0.124 S 
ATOM     96  O   UNL     1       3.311 -13.929  13.208  1.00  0.00    -0.237 OA
ATOM     97  O   UNL     1       5.771 -13.705  13.181  1.00  0.00    -0.237 OA
ATOM     98  O   UNL     1       4.458 -12.662  14.987  1.00  0.00    -0.744 OA
ENDBRANCH  94  95
ENDBRANCH  68  89
ENDBRANCH  42  43
ENDBRANCH  35  37
ENDBRANCH  34  35
ENDBRANCH  33  34
ENDBRANCH  32  33
ENDBRANCH  31  32
ENDBRANCH  30  31
ENDBRANCH  29  30
ENDBRANCH  28  29
ENDBRANCH   1  28
TORSDOF 29
