REMARK SMILES C[C@H]1[C@H](C(=O)OCCOCCOCCOCCOC(=O)c2ccc(-c3c4nc(c(-c5ccc(S(=O)(=O)[O-])cc5)c5ccc([nH]5)c(-c5ccc(S(=O)(=O)[O-])cc5)c5nc(c(-c6ccc(S(=O)(=O)[O-])cc6)c6ccc3[nH]6)C=C5)C=C4)cc2)CCN1C(=O)Nc1ccc(F)cc1
REMARK SMILES IDX 13 1 12 2 11 3 10 4 9 5 8 6 7 7 6 8 4 9 5 10 3 11 1 12 2 13
REMARK SMILES IDX 83 14 81 15 82 16 84 17 85 18 86 19 87 21 88 22 93 23 89 24
REMARK SMILES IDX 92 25 90 26 91 27 14 28 15 29 16 30 17 31 18 32 19 33 20 34
REMARK SMILES IDX 21 35 22 36 80 37 23 38 79 39 24 40 25 41 26 42 73 43 27 44
REMARK SMILES IDX 78 45 72 46 74 47 28 48 77 49 71 50 70 51 29 53 59 54 40 55
REMARK SMILES IDX 58 56 41 57 44 58 57 59 75 60 42 61 43 62 56 64 76 65 45 66
REMARK SMILES IDX 30 67 31 68 39 69 32 70 38 71 33 72 34 73 35 74 36 75 37 76
REMARK SMILES IDX 60 77 61 78 69 79 62 80 68 81 63 82 64 83 65 84 66 85 67 86
REMARK SMILES IDX 46 87 47 88 55 89 48 90 54 91 49 92 50 93 51 94 52 95 53 96
REMARK H PARENT 86 20 74 52 44 63
REMARK Flexibility Score: inf
ROOT
ATOM      1  C   UNL     1       2.530   2.428   4.247  1.00  0.00     0.188 C 
ENDROOT
BRANCH   1   2
ATOM      2  O   UNL     1       1.498   2.342   3.283  1.00  0.00    -0.377 OA
BRANCH   2   3
ATOM      3  C   UNL     1       1.808   2.664   1.948  1.00  0.00     0.188 C 
BRANCH   3   4
ATOM      4  C   UNL     1       1.451   4.077   1.475  1.00  0.00     0.188 C 
BRANCH   4   5
ATOM      5  O   UNL     1       0.376   4.823   2.033  1.00  0.00    -0.376 OA
BRANCH   5   6
ATOM      6  C   UNL     1      -0.418   4.283   3.074  1.00  0.00     0.202 C 
BRANCH   6   7
ATOM      7  C   UNL     1      -1.505   3.287   2.640  1.00  0.00     0.261 C 
BRANCH   7   8
ATOM      8  O   UNL     1      -1.070   2.152   1.859  1.00  0.00    -0.463 OA
BRANCH   8   9
ATOM      9  C   UNL     1      -1.217   2.263   0.516  1.00  0.00     0.311 C 
ATOM     10  O   UNL     1      -1.609   3.273  -0.061  1.00  0.00    -0.252 OA
BRANCH   9  11
ATOM     11  C   UNL     1      -0.977   0.972  -0.249  1.00  0.00     0.123 C 
ATOM     12  C   UNL     1       1.323   0.108  -0.758  1.00  0.00     0.032 C 
ATOM     13  C   UNL     1       0.128  -0.028   0.198  1.00  0.00     0.098 C 
ATOM     14  N   UNL     1      -0.493  -1.361   0.111  1.00  0.00    -0.321 N 
ATOM     15  C   UNL     1      -2.266   0.164  -0.246  1.00  0.00     0.039 C 
ATOM     16  C   UNL     1      -1.802  -1.246  -0.511  1.00  0.00     0.122 C 
BRANCH  14  17
ATOM     17  C   UNL     1      -0.049  -2.624   0.366  1.00  0.00     0.322 C 
ATOM     18  O   UNL     1      -0.777  -3.599   0.131  1.00  0.00    -0.248 OA
ATOM     19  N   UNL     1       1.215  -2.953   0.688  1.00  0.00    -0.308 N 
ATOM     20  H   UNL     1       1.401  -3.885   0.432  1.00  0.00     0.171 HD
BRANCH  19  21
ATOM     21  C   UNL     1       2.343  -2.379   1.273  1.00  0.00     0.043 A 
ATOM     22  C   UNL     1       3.583  -2.895   0.853  1.00  0.00     0.029 A 
ATOM     23  C   UNL     1       2.310  -1.436   2.292  1.00  0.00     0.029 A 
ATOM     24  C   UNL     1       4.782  -2.408   1.374  1.00  0.00     0.041 A 
ATOM     25  C   UNL     1       3.515  -0.991   2.848  1.00  0.00     0.041 A 
ATOM     26  C   UNL     1       4.736  -1.448   2.368  1.00  0.00     0.123 A 
ATOM     27  F   UNL     1       5.876  -0.974   2.885  1.00  0.00    -0.207 F 
ENDBRANCH  19  21
ENDBRANCH  14  17
ENDBRANCH   9  11
ENDBRANCH   8   9
ENDBRANCH   7   8
ENDBRANCH   6   7
ENDBRANCH   5   6
ENDBRANCH   4   5
ENDBRANCH   3   4
ENDBRANCH   2   3
ENDBRANCH   1   2
BRANCH   1  28
ATOM     28  C   UNL     1       3.362   3.710   4.297  1.00  0.00     0.188 C 
BRANCH  28  29
ATOM     29  O   UNL     1       4.203   4.000   3.183  1.00  0.00    -0.376 OA
BRANCH  29  30
ATOM     30  C   UNL     1       5.147   3.046   2.701  1.00  0.00     0.202 C 
BRANCH  30  31
ATOM     31  C   UNL     1       6.135   2.413   3.675  1.00  0.00     0.261 C 
BRANCH  31  32
ATOM     32  O   UNL     1       5.460   1.527   4.578  1.00  0.00    -0.460 OA
BRANCH  32  33
ATOM     33  C   UNL     1       5.714   1.764   5.883  1.00  0.00     0.338 C 
ATOM     34  O   UNL     1       6.496   2.577   6.341  1.00  0.00    -0.246 OA
BRANCH  33  35
ATOM     35  C   UNL     1       4.747   1.038   6.722  1.00  0.00     0.060 A 
ATOM     36  C   UNL     1       4.040   1.802   7.655  1.00  0.00     0.016 A 
ATOM     37  C   UNL     1       4.629  -0.355   6.697  1.00  0.00     0.016 A 
ATOM     38  C   UNL     1       3.306   1.170   8.649  1.00  0.00     0.010 A 
ATOM     39  C   UNL     1       3.886  -0.990   7.700  1.00  0.00     0.010 A 
ATOM     40  C   UNL     1       3.291  -0.229   8.722  1.00  0.00    -0.014 A 
BRANCH  40  41
ATOM     41  C   UNL     1       2.883  -0.837  10.014  1.00  0.00     0.031 A 
ATOM     42  C   UNL     1       3.962  -1.224  10.995  1.00  0.00     0.074 A 
ATOM     43  C   UNL     1       1.589  -0.897  10.374  1.00  0.00     0.049 A 
ATOM     44  N   UNL     1       3.850  -1.617  12.237  1.00  0.00    -0.248 NA
ATOM     45  C   UNL     1       5.353  -1.146  10.515  1.00  0.00     0.031 C 
ATOM     46  C   UNL     1       0.458  -0.500   9.537  1.00  0.00     0.029 A 
ATOM     47  N   UNL     1       1.015  -1.290  11.556  1.00  0.00    -0.354 N 
ATOM     48  C   UNL     1       5.150  -1.825  12.686  1.00  0.00     0.074 A 
ATOM     49  C   UNL     1       6.032  -1.560  11.573  1.00  0.00     0.031 C 
ATOM     50  C   UNL     1      -0.678  -0.654  10.241  1.00  0.00     0.029 A 
ATOM     51  C   UNL     1      -0.354  -1.175  11.568  1.00  0.00     0.049 A 
ATOM     52  H   UNL     1       1.534  -1.622  12.324  1.00  0.00     0.167 HD
ATOM     53  C   UNL     1       5.577  -2.188  13.919  1.00  0.00     0.031 A 
ATOM     54  C   UNL     1      -1.244  -1.456  12.541  1.00  0.00     0.031 A 
ATOM     55  C   UNL     1       4.703  -2.463  15.026  1.00  0.00     0.049 A 
ATOM     56  C   UNL     1      -0.749  -1.927  13.884  1.00  0.00     0.074 A 
ATOM     57  C   UNL     1       5.039  -2.835  16.316  1.00  0.00     0.029 A 
ATOM     58  N   UNL     1       3.319  -2.404  14.974  1.00  0.00    -0.354 N 
ATOM     59  N   UNL     1       0.485  -2.092  14.299  1.00  0.00    -0.248 NA
ATOM     60  C   UNL     1      -1.770  -2.230  14.896  1.00  0.00     0.031 C 
ATOM     61  C   UNL     1       3.856  -3.058  17.028  1.00  0.00     0.029 A 
ATOM     62  C   UNL     1       2.785  -2.759  16.201  1.00  0.00     0.049 A 
ATOM     63  H   UNL     1       2.794  -2.147  14.182  1.00  0.00     0.167 HD
ATOM     64  C   UNL     1       0.388  -2.488  15.630  1.00  0.00     0.074 A 
ATOM     65  C   UNL     1      -1.024  -2.521  15.953  1.00  0.00     0.031 C 
ATOM     66  C   UNL     1       1.377  -2.794  16.507  1.00  0.00     0.031 A 
BRANCH  53  67
ATOM     67  C   UNL     1       7.062  -2.341  14.119  1.00  0.00    -0.014 A 
ATOM     68  C   UNL     1       7.917  -1.224  14.145  1.00  0.00     0.010 A 
ATOM     69  C   UNL     1       7.607  -3.624  14.308  1.00  0.00     0.010 A 
ATOM     70  C   UNL     1       9.294  -1.391  14.316  1.00  0.00     0.020 A 
ATOM     71  C   UNL     1       8.980  -3.793  14.507  1.00  0.00     0.020 A 
ATOM     72  C   UNL     1       9.817  -2.675  14.493  1.00  0.00     0.054 A 
BRANCH  72  73
ATOM     73  S   UNL     1      11.605  -2.862  14.731  1.00  0.00     0.124 S 
ATOM     74  O   UNL     1      12.118  -2.586  13.391  1.00  0.00    -0.237 OA
ATOM     75  O   UNL     1      11.902  -1.847  15.739  1.00  0.00    -0.237 OA
ATOM     76  O   UNL     1      11.753  -4.244  15.181  1.00  0.00    -0.744 OA
ENDBRANCH  72  73
ENDBRANCH  53  67
BRANCH  54  77
ATOM     77  C   UNL     1      -2.702  -1.302  12.280  1.00  0.00    -0.014 A 
ATOM     78  C   UNL     1      -3.454  -0.306  12.928  1.00  0.00     0.010 A 
ATOM     79  C   UNL     1      -3.349  -2.170  11.380  1.00  0.00     0.010 A 
ATOM     80  C   UNL     1      -4.829  -0.195  12.697  1.00  0.00     0.020 A 
ATOM     81  C   UNL     1      -4.717  -2.043  11.126  1.00  0.00     0.020 A 
ATOM     82  C   UNL     1      -5.451  -1.064  11.796  1.00  0.00     0.054 A 
BRANCH  82  83
ATOM     83  S   UNL     1      -7.227  -0.873  11.477  1.00  0.00     0.124 S 
ATOM     84  O   UNL     1      -7.814  -1.390  12.709  1.00  0.00    -0.237 OA
ATOM     85  O   UNL     1      -7.356   0.567  11.269  1.00  0.00    -0.237 OA
ATOM     86  O   UNL     1      -7.449  -1.689  10.286  1.00  0.00    -0.744 OA
ENDBRANCH  82  83
ENDBRANCH  54  77
BRANCH  66  87
ATOM     87  C   UNL     1       0.971  -3.155  17.914  1.00  0.00    -0.014 A 
ATOM     88  C   UNL     1       0.317  -4.366  18.201  1.00  0.00     0.010 A 
ATOM     89  C   UNL     1       1.283  -2.279  18.970  1.00  0.00     0.010 A 
ATOM     90  C   UNL     1      -0.062  -4.671  19.512  1.00  0.00     0.020 A 
ATOM     91  C   UNL     1       0.935  -2.595  20.286  1.00  0.00     0.020 A 
ATOM     92  C   UNL     1       0.245  -3.780  20.545  1.00  0.00     0.054 A 
BRANCH  92  93
ATOM     93  S   UNL     1      -0.245  -4.204  22.240  1.00  0.00     0.124 S 
ATOM     94  O   UNL     1      -1.686  -3.971  22.206  1.00  0.00    -0.237 OA
ATOM     95  O   UNL     1       0.164  -5.602  22.352  1.00  0.00    -0.237 OA
ATOM     96  O   UNL     1       0.518  -3.270  23.065  1.00  0.00    -0.744 OA
ENDBRANCH  92  93
ENDBRANCH  66  87
ENDBRANCH  40  41
ENDBRANCH  33  35
ENDBRANCH  32  33
ENDBRANCH  31  32
ENDBRANCH  30  31
ENDBRANCH  29  30
ENDBRANCH  28  29
ENDBRANCH   1  28
TORSDOF 25
