REMARK SMILES C[C@@](COc1ccccc1)(NC(=O)CN1CSCC1=O)C(=O)OCCOCCOCCOCCOC(=O)c1ccc(-c2c3nc(c(-c4ccc(S(=O)(=O)[O-])cc4)c4ccc([nH]4)c(-c4ccc(S(=O)(=O)[O-])cc4)c4nc(c(-c5ccc(S(=O)(=O)[O-])cc5)c5ccc2[nH]5)C=C4)C=C3)cc1
REMARK SMILES IDX 29 1 28 2 27 3 26 4 25 5 24 6 23 7 21 8 22 9 2 10 1 11 3 12
REMARK SMILES IDX 4 13 5 14 6 15 10 16 7 17 9 18 8 19 11 20 12 21 13 23 14 24
REMARK SMILES IDX 15 25 16 26 19 27 17 28 18 29 20 30 30 31 31 32 32 33 33 34
REMARK SMILES IDX 34 35 35 36 36 37 37 38 38 39 39 40 97 41 40 42 96 43 41 44
REMARK SMILES IDX 42 45 43 46 90 47 44 48 95 49 89 50 91 51 45 52 94 53 88 54
REMARK SMILES IDX 87 55 46 57 76 58 57 59 75 60 58 61 61 62 74 63 92 64 59 65
REMARK SMILES IDX 60 66 73 68 93 69 62 70 47 71 48 72 56 73 49 74 55 75 50 76
REMARK SMILES IDX 51 77 52 78 53 79 54 80 77 81 78 82 86 83 79 84 85 85 80 86
REMARK SMILES IDX 81 87 82 88 83 89 84 90 63 91 64 92 72 93 65 94 71 95 66 96
REMARK SMILES IDX 67 97 68 98 69 99 70 100
REMARK H PARENT 11 22 91 56 61 67
REMARK Flexibility Score: inf
ROOT
ATOM      1  O   UNL     1      -1.069   1.628   2.434  1.00  0.00    -0.377 OA
ENDROOT
BRANCH   1   2
ATOM      2  C   UNL     1      -0.279   0.470   2.680  1.00  0.00     0.188 C 
BRANCH   2   3
ATOM      3  C   UNL     1       1.025   0.580   1.752  1.00  0.00     0.188 C 
BRANCH   3   4
ATOM      4  O   UNL     1       2.397   0.844   2.126  1.00  0.00    -0.376 OA
BRANCH   4   5
ATOM      5  C   UNL     1       3.202   2.050   1.962  1.00  0.00     0.202 C 
BRANCH   5   6
ATOM      6  C   UNL     1       3.603   2.901   0.711  1.00  0.00     0.261 C 
BRANCH   6   7
ATOM      7  O   UNL     1       2.527   3.378  -0.083  1.00  0.00    -0.461 OA
BRANCH   7   8
ATOM      8  C   UNL     1       2.490   2.925  -1.360  1.00  0.00     0.335 C 
ATOM      9  O   UNL     1       3.460   2.898  -2.121  1.00  0.00    -0.249 OA
BRANCH   8  10
ATOM     10  C   UNL     1       1.258   2.050  -1.466  1.00  0.00     0.169 C 
ATOM     11  C   UNL     1       1.820   0.669  -1.051  1.00  0.00     0.051 C 
BRANCH  10  12
ATOM     12  C   UNL     1       0.816   1.870  -2.963  1.00  0.00     0.269 C 
BRANCH  12  13
ATOM     13  O   UNL     1      -0.242   0.881  -3.123  1.00  0.00    -0.491 OA
BRANCH  13  14
ATOM     14  C   UNL     1       0.134  -0.439  -3.217  1.00  0.00     0.119 A 
ATOM     15  C   UNL     1       1.120  -0.925  -4.077  1.00  0.00     0.046 A 
ATOM     16  C   UNL     1      -0.513  -1.329  -2.350  1.00  0.00     0.046 A 
ATOM     17  C   UNL     1       1.516  -2.269  -4.000  1.00  0.00     0.004 A 
ATOM     18  C   UNL     1      -0.101  -2.662  -2.257  1.00  0.00     0.004 A 
ATOM     19  C   UNL     1       0.923  -3.130  -3.076  1.00  0.00     0.000 A 
ENDBRANCH  13  14
ENDBRANCH  12  13
ENDBRANCH  10  12
BRANCH  10  20
ATOM     20  N   UNL     1       0.091   2.669  -0.637  1.00  0.00    -0.336 N 
ATOM     21  C   UNL     1      -0.288   3.288   0.541  1.00  0.00     0.240 C 
ATOM     22  H   UNL     1      -0.723   2.581  -1.185  1.00  0.00     0.164 HD
ATOM     23  O   UNL     1      -1.526   3.466   0.555  1.00  0.00    -0.273 OA
BRANCH  21  24
ATOM     24  C   UNL     1       0.580   3.932   1.827  1.00  0.00     0.220 C 
BRANCH  24  25
ATOM     25  N   UNL     1       0.953   3.786   3.344  1.00  0.00    -0.323 N 
ATOM     26  C   UNL     1       1.065   2.600   4.178  1.00  0.00     0.190 C 
ATOM     27  C   UNL     1       1.452   4.919   4.000  1.00  0.00     0.233 C 
ATOM     28  S   UNL     1       1.546   3.005   5.851  1.00  0.00    -0.130 SA
ATOM     29  C   UNL     1       2.044   4.639   5.372  1.00  0.00     0.171 C 
ATOM     30  O   UNL     1       1.490   6.035   3.496  1.00  0.00    -0.274 OA
ENDBRANCH  24  25
ENDBRANCH  21  24
ENDBRANCH  10  20
ENDBRANCH   8  10
ENDBRANCH   7   8
ENDBRANCH   6   7
ENDBRANCH   5   6
ENDBRANCH   4   5
ENDBRANCH   3   4
ENDBRANCH   2   3
ENDBRANCH   1   2
BRANCH   1  31
ATOM     31  C   UNL     1      -2.043   2.317   3.223  1.00  0.00     0.188 C 
BRANCH  31  32
ATOM     32  C   UNL     1      -2.196   2.215   4.748  1.00  0.00     0.188 C 
BRANCH  32  33
ATOM     33  O   UNL     1      -2.718   0.987   5.220  1.00  0.00    -0.376 OA
BRANCH  33  34
ATOM     34  C   UNL     1      -4.001   0.646   4.700  1.00  0.00     0.202 C 
BRANCH  34  35
ATOM     35  C   UNL     1      -5.161   1.575   5.097  1.00  0.00     0.261 C 
BRANCH  35  36
ATOM     36  O   UNL     1      -5.118   2.864   4.438  1.00  0.00    -0.460 OA
BRANCH  36  37
ATOM     37  C   UNL     1      -5.043   3.944   5.247  1.00  0.00     0.338 C 
ATOM     38  O   UNL     1      -4.984   3.920   6.489  1.00  0.00    -0.246 OA
BRANCH  37  39
ATOM     39  C   UNL     1      -4.896   5.202   4.493  1.00  0.00     0.060 A 
ATOM     40  C   UNL     1      -3.967   6.153   4.945  1.00  0.00     0.016 A 
ATOM     41  C   UNL     1      -5.748   5.513   3.429  1.00  0.00     0.016 A 
ATOM     42  C   UNL     1      -3.935   7.434   4.385  1.00  0.00     0.010 A 
ATOM     43  C   UNL     1      -5.724   6.801   2.879  1.00  0.00     0.010 A 
ATOM     44  C   UNL     1      -4.853   7.783   3.386  1.00  0.00    -0.014 A 
BRANCH  44  45
ATOM     45  C   UNL     1      -5.069   9.210   3.031  1.00  0.00     0.031 A 
ATOM     46  C   UNL     1      -6.158   9.968   3.749  1.00  0.00     0.074 A 
ATOM     47  C   UNL     1      -4.336   9.831   2.089  1.00  0.00     0.049 A 
ATOM     48  N   UNL     1      -6.599  11.183   3.547  1.00  0.00    -0.248 NA
ATOM     49  C   UNL     1      -6.840   9.254   4.842  1.00  0.00     0.031 C 
ATOM     50  C   UNL     1      -3.219   9.240   1.356  1.00  0.00     0.029 A 
ATOM     51  N   UNL     1      -4.441  11.103   1.578  1.00  0.00    -0.354 N 
ATOM     52  C   UNL     1      -7.615  11.376   4.477  1.00  0.00     0.074 A 
ATOM     53  C   UNL     1      -7.736  10.148   5.233  1.00  0.00     0.031 C 
ATOM     54  C   UNL     1      -2.752  10.143   0.474  1.00  0.00     0.029 A 
ATOM     55  C   UNL     1      -3.559  11.360   0.555  1.00  0.00     0.049 A 
ATOM     56  H   UNL     1      -5.085  11.767   1.914  1.00  0.00     0.167 HD
ATOM     57  C   UNL     1      -8.382  12.472   4.686  1.00  0.00     0.031 A 
ATOM     58  C   UNL     1      -3.439  12.440  -0.244  1.00  0.00     0.031 A 
ATOM     59  C   UNL     1      -8.284  13.687   3.924  1.00  0.00     0.049 A 
ATOM     60  C   UNL     1      -4.366  13.614  -0.059  1.00  0.00     0.074 A 
ATOM     61  C   UNL     1      -9.015  14.854   4.065  1.00  0.00     0.029 A 
ATOM     62  N   UNL     1      -7.408  13.888   2.869  1.00  0.00    -0.354 N 
ATOM     63  N   UNL     1      -5.315  13.786   0.832  1.00  0.00    -0.248 NA
ATOM     64  C   UNL     1      -4.209  14.740  -0.992  1.00  0.00     0.031 C 
ATOM     65  C   UNL     1      -8.615  15.743   3.062  1.00  0.00     0.029 A 
ATOM     66  C   UNL     1      -7.601  15.148   2.329  1.00  0.00     0.049 A 
ATOM     67  H   UNL     1      -6.747  13.232   2.550  1.00  0.00     0.167 HD
ATOM     68  C   UNL     1      -5.854  15.043   0.575  1.00  0.00     0.074 A 
ATOM     69  C   UNL     1      -5.119  15.595  -0.543  1.00  0.00     0.031 C 
ATOM     70  C   UNL     1      -6.868  15.683   1.210  1.00  0.00     0.031 A 
BRANCH  57  71
ATOM     71  C   UNL     1      -9.429  12.384   5.762  1.00  0.00    -0.014 A 
ATOM     72  C   UNL     1      -9.076  12.420   7.123  1.00  0.00     0.010 A 
ATOM     73  C   UNL     1     -10.785  12.279   5.406  1.00  0.00     0.010 A 
ATOM     74  C   UNL     1     -10.060  12.313   8.110  1.00  0.00     0.020 A 
ATOM     75  C   UNL     1     -11.774  12.193   6.390  1.00  0.00     0.020 A 
ATOM     76  C   UNL     1     -11.403  12.193   7.736  1.00  0.00     0.054 A 
BRANCH  76  77
ATOM     77  S   UNL     1     -12.662  12.062   9.035  1.00  0.00     0.124 S 
ATOM     78  O   UNL     1     -12.486  10.685   9.488  1.00  0.00    -0.237 OA
ATOM     79  O   UNL     1     -12.252  13.092   9.986  1.00  0.00    -0.237 OA
ATOM     80  O   UNL     1     -13.914  12.331   8.332  1.00  0.00    -0.744 OA
ENDBRANCH  76  77
ENDBRANCH  57  71
BRANCH  58  81
ATOM     81  C   UNL     1      -2.421  12.451  -1.331  1.00  0.00    -0.014 A 
ATOM     82  C   UNL     1      -1.288  13.278  -1.246  1.00  0.00     0.010 A 
ATOM     83  C   UNL     1      -2.589  11.636  -2.466  1.00  0.00     0.010 A 
ATOM     84  C   UNL     1      -0.346  13.298  -2.280  1.00  0.00     0.020 A 
ATOM     85  C   UNL     1      -1.638  11.636  -3.491  1.00  0.00     0.020 A 
ATOM     86  C   UNL     1      -0.526  12.475  -3.395  1.00  0.00     0.054 A 
BRANCH  86  87
ATOM     87  S   UNL     1       0.737  12.470  -4.699  1.00  0.00     0.124 S 
ATOM     88  O   UNL     1       0.450  13.713  -5.405  1.00  0.00    -0.237 OA
ATOM     89  O   UNL     1       1.982  12.449  -3.935  1.00  0.00    -0.237 OA
ATOM     90  O   UNL     1       0.453  11.245  -5.443  1.00  0.00    -0.744 OA
ENDBRANCH  86  87
ENDBRANCH  58  81
BRANCH  70  91
ATOM     91  C   UNL     1      -7.237  17.060   0.725  1.00  0.00    -0.014 A 
ATOM     92  C   UNL     1      -7.956  17.239  -0.469  1.00  0.00     0.010 A 
ATOM     93  C   UNL     1      -6.914  18.184   1.507  1.00  0.00     0.010 A 
ATOM     94  C   UNL     1      -8.326  18.522  -0.886  1.00  0.00     0.020 A 
ATOM     95  C   UNL     1      -7.302  19.466   1.106  1.00  0.00     0.020 A 
ATOM     96  C   UNL     1      -7.995  19.628  -0.096  1.00  0.00     0.054 A 
BRANCH  96  97
ATOM     97  S   UNL     1      -8.528  21.278  -0.630  1.00  0.00     0.124 S 
ATOM     98  O   UNL     1      -7.572  21.576  -1.693  1.00  0.00    -0.237 OA
ATOM     99  O   UNL     1      -9.903  21.048  -1.068  1.00  0.00    -0.237 OA
ATOM    100  O   UNL     1      -8.394  22.092   0.576  1.00  0.00    -0.744 OA
ENDBRANCH  96  97
ENDBRANCH  70  91
ENDBRANCH  44  45
ENDBRANCH  37  39
ENDBRANCH  36  37
ENDBRANCH  35  36
ENDBRANCH  34  35
ENDBRANCH  33  34
ENDBRANCH  32  33
ENDBRANCH  31  32
ENDBRANCH   1  31
TORSDOF 29
