REMARK SMILES CCOc1ccc(NC(=O)[C@@H]2[C@@H](C(=O)OCCOCCOCCOCCOC(=O)c3ccc(-c4c5nc(c(-c6ccc(S(=O)(=O)[O-])cc6)c6ccc([nH]6)c(-c6ccc(S(=O)(=O)[O-])cc6)c6nc(c(-c7ccc(S(=O)(=O)[O-])cc7)c7ccc4[nH]7)C=C6)C=C5)cc3)[C@H]3C=C[C@@H]2C3)cc1
REMARK SMILES IDX 20 1 19 2 18 3 17 4 16 5 15 6 13 7 14 8 12 9 11 10 93 11
REMARK SMILES IDX 90 12 92 13 94 14 91 15 9 16 8 17 10 19 7 20 4 21 5 22 96 23
REMARK SMILES IDX 6 24 95 25 3 26 2 27 1 28 21 29 22 30 23 31 24 32 25 33
REMARK SMILES IDX 26 34 27 35 28 36 29 37 30 38 31 39 89 40 32 41 88 42 33 43
REMARK SMILES IDX 34 44 35 45 82 46 36 47 87 48 81 49 83 50 37 51 86 52 80 53
REMARK SMILES IDX 79 54 38 56 68 57 49 58 67 59 50 60 53 61 66 62 84 63 51 64
REMARK SMILES IDX 52 65 65 67 85 68 54 69 39 70 40 71 48 72 41 73 47 74 42 75
REMARK SMILES IDX 43 76 44 77 45 78 46 79 69 80 70 81 78 82 71 83 77 84 72 85
REMARK SMILES IDX 73 86 74 87 75 88 76 89 55 90 56 91 64 92 57 93 63 94 58 95
REMARK SMILES IDX 59 96 60 97 61 98 62 99
REMARK H PARENT 8 18 83 55 53 66
REMARK Flexibility Score: inf
ROOT
ATOM      1  C   UNL     1       4.629  -5.390  -2.149  1.00  0.00     0.188 C 
ENDROOT
BRANCH   1   2
ATOM      2  C   UNL     1       3.620  -6.292  -1.462  1.00  0.00     0.188 C 
BRANCH   2   3
ATOM      3  O   UNL     1       2.280  -6.160  -1.906  1.00  0.00    -0.376 OA
BRANCH   3   4
ATOM      4  C   UNL     1       1.337  -5.667  -0.944  1.00  0.00     0.202 C 
BRANCH   4   5
ATOM      5  C   UNL     1       1.210  -6.380   0.424  1.00  0.00     0.261 C 
BRANCH   5   6
ATOM      6  O   UNL     1       2.247  -6.015   1.383  1.00  0.00    -0.463 OA
BRANCH   6   7
ATOM      7  C   UNL     1       3.232  -6.931   1.611  1.00  0.00     0.310 C 
ATOM      8  O   UNL     1       3.213  -8.031   1.073  1.00  0.00    -0.252 OA
BRANCH   7   9
ATOM      9  C   UNL     1       4.403  -6.376   2.480  1.00  0.00     0.119 C 
ATOM     10  C   UNL     1       5.759  -6.138   1.671  1.00  0.00     0.100 C 
ATOM     11  C   UNL     1       6.667  -7.245   2.318  1.00  0.00     0.025 C 
ATOM     12  C   UNL     1       4.812  -7.450   3.541  1.00  0.00     0.027 C 
ATOM     13  C   UNL     1       6.117  -8.623   2.061  1.00  0.00    -0.027 C 
ATOM     14  C   UNL     1       6.272  -7.092   3.796  1.00  0.00     0.017 C 
ATOM     15  C   UNL     1       5.054  -8.779   2.861  1.00  0.00    -0.027 C 
BRANCH  10  16
ATOM     16  C   UNL     1       6.632  -4.837   1.753  1.00  0.00     0.228 C 
ATOM     17  N   UNL     1       6.244  -3.541   1.815  1.00  0.00    -0.326 N 
ATOM     18  H   UNL     1       7.002  -2.920   1.904  1.00  0.00     0.169 HD
ATOM     19  O   UNL     1       7.872  -4.952   1.721  1.00  0.00    -0.274 OA
BRANCH  17  20
ATOM     20  C   UNL     1       5.017  -2.893   1.782  1.00  0.00     0.041 A 
ATOM     21  C   UNL     1       2.530  -1.692   1.997  1.00  0.00     0.119 A 
ATOM     22  C   UNL     1       2.634  -2.983   1.523  1.00  0.00     0.048 A 
ATOM     23  C   UNL     1       3.668  -0.960   2.318  1.00  0.00     0.048 A 
ATOM     24  C   UNL     1       3.884  -3.536   1.347  1.00  0.00     0.030 A 
ATOM     25  C   UNL     1       4.923  -1.563   2.201  1.00  0.00     0.030 A 
BRANCH  21  26
ATOM     26  O   UNL     1       1.302  -1.102   2.064  1.00  0.00    -0.494 OA
BRANCH  26  27
ATOM     27  C   UNL     1       0.759  -0.983   0.747  1.00  0.00     0.226 C 
ATOM     28  C   UNL     1       1.485   0.118   0.013  1.00  0.00     0.049 C 
ENDBRANCH  26  27
ENDBRANCH  21  26
ENDBRANCH  17  20
ENDBRANCH  10  16
ENDBRANCH   7   9
ENDBRANCH   6   7
ENDBRANCH   5   6
ENDBRANCH   4   5
ENDBRANCH   3   4
ENDBRANCH   2   3
ENDBRANCH   1   2
BRANCH   1  29
ATOM     29  O   UNL     1       4.563  -4.061  -1.637  1.00  0.00    -0.377 OA
BRANCH  29  30
ATOM     30  C   UNL     1       3.675  -3.159  -2.289  1.00  0.00     0.188 C 
BRANCH  30  31
ATOM     31  C   UNL     1       3.711  -3.178  -3.819  1.00  0.00     0.188 C 
BRANCH  31  32
ATOM     32  O   UNL     1       4.976  -3.171  -4.482  1.00  0.00    -0.376 OA
BRANCH  32  33
ATOM     33  C   UNL     1       6.131  -2.708  -3.796  1.00  0.00     0.202 C 
BRANCH  33  34
ATOM     34  C   UNL     1       6.341  -1.195  -3.742  1.00  0.00     0.261 C 
BRANCH  34  35
ATOM     35  O   UNL     1       5.232  -0.468  -3.195  1.00  0.00    -0.460 OA
BRANCH  35  36
ATOM     36  C   UNL     1       4.345  -0.025  -4.113  1.00  0.00     0.338 C 
ATOM     37  O   UNL     1       4.377  -0.223  -5.325  1.00  0.00    -0.246 OA
BRANCH  36  38
ATOM     38  C   UNL     1       3.233   0.688  -3.461  1.00  0.00     0.060 A 
ATOM     39  C   UNL     1       1.922   0.426  -3.888  1.00  0.00     0.016 A 
ATOM     40  C   UNL     1       3.482   1.686  -2.518  1.00  0.00     0.016 A 
ATOM     41  C   UNL     1       0.855   1.194  -3.412  1.00  0.00     0.010 A 
ATOM     42  C   UNL     1       2.416   2.453  -2.043  1.00  0.00     0.010 A 
ATOM     43  C   UNL     1       1.097   2.232  -2.505  1.00  0.00    -0.014 A 
BRANCH  43  44
ATOM     44  C   UNL     1       0.050   3.224  -2.154  1.00  0.00     0.031 A 
ATOM     45  C   UNL     1       0.136   4.557  -2.836  1.00  0.00     0.074 A 
ATOM     46  C   UNL     1      -0.895   3.006  -1.217  1.00  0.00     0.049 A 
ATOM     47  N   UNL     1      -0.588   5.624  -2.642  1.00  0.00    -0.248 NA
ATOM     48  C   UNL     1       1.148   4.693  -3.900  1.00  0.00     0.031 C 
ATOM     49  C   UNL     1      -1.194   1.733  -0.575  1.00  0.00     0.029 A 
ATOM     50  N   UNL     1      -1.748   3.882  -0.587  1.00  0.00    -0.354 N 
ATOM     51  C   UNL     1      -0.148   6.541  -3.583  1.00  0.00     0.074 A 
ATOM     52  C   UNL     1       0.956   5.941  -4.295  1.00  0.00     0.031 C 
ATOM     53  C   UNL     1      -2.007   1.932   0.476  1.00  0.00     0.029 A 
ATOM     54  C   UNL     1      -2.369   3.341   0.519  1.00  0.00     0.049 A 
ATOM     55  H   UNL     1      -1.900   4.804  -0.896  1.00  0.00     0.167 HD
ATOM     56  C   UNL     1      -0.655   7.762  -3.856  1.00  0.00     0.031 A 
ATOM     57  C   UNL     1      -3.155   3.911   1.454  1.00  0.00     0.031 A 
ATOM     58  C   UNL     1      -1.741   8.352  -3.127  1.00  0.00     0.049 A 
ATOM     59  C   UNL     1      -3.608   5.325   1.221  1.00  0.00     0.074 A 
ATOM     60  C   UNL     1      -2.369   9.562  -3.353  1.00  0.00     0.029 A 
ATOM     61  N   UNL     1      -2.345   7.784  -2.015  1.00  0.00    -0.354 N 
ATOM     62  N   UNL     1      -3.263   6.144   0.256  1.00  0.00    -0.248 NA
ATOM     63  C   UNL     1      -4.618   5.862   2.140  1.00  0.00     0.031 C 
ATOM     64  C   UNL     1      -3.303   9.760  -2.332  1.00  0.00     0.029 A 
ATOM     65  C   UNL     1      -3.307   8.641  -1.514  1.00  0.00     0.049 A 
ATOM     66  H   UNL     1      -2.123   6.901  -1.639  1.00  0.00     0.167 HD
ATOM     67  C   UNL     1      -4.069   7.265   0.408  1.00  0.00     0.074 A 
ATOM     68  C   UNL     1      -4.908   7.021   1.564  1.00  0.00     0.031 C 
ATOM     69  C   UNL     1      -4.128   8.381  -0.358  1.00  0.00     0.031 A 
BRANCH  56  70
ATOM     70  C   UNL     1      -0.035   8.531  -4.985  1.00  0.00    -0.014 A 
ATOM     71  C   UNL     1      -0.221   8.132  -6.322  1.00  0.00     0.010 A 
ATOM     72  C   UNL     1       0.703   9.694  -4.709  1.00  0.00     0.010 A 
ATOM     73  C   UNL     1       0.334   8.877  -7.363  1.00  0.00     0.020 A 
ATOM     74  C   UNL     1       1.237  10.456  -5.749  1.00  0.00     0.020 A 
ATOM     75  C   UNL     1       1.054  10.040  -7.069  1.00  0.00     0.054 A 
BRANCH  75  76
ATOM     76  S   UNL     1       1.702  11.027  -8.444  1.00  0.00     0.124 S 
ATOM     77  O   UNL     1       2.772  10.171  -8.951  1.00  0.00    -0.237 OA
ATOM     78  O   UNL     1       0.537  11.160  -9.316  1.00  0.00    -0.237 OA
ATOM     79  O   UNL     1       2.144  12.264  -7.805  1.00  0.00    -0.744 OA
ENDBRANCH  75  76
ENDBRANCH  56  70
BRANCH  57  80
ATOM     80  C   UNL     1      -3.622   3.135   2.639  1.00  0.00    -0.014 A 
ATOM     81  C   UNL     1      -4.959   2.715   2.748  1.00  0.00     0.010 A 
ATOM     82  C   UNL     1      -2.728   2.831   3.684  1.00  0.00     0.010 A 
ATOM     83  C   UNL     1      -5.404   2.044   3.892  1.00  0.00     0.020 A 
ATOM     84  C   UNL     1      -3.165   2.141   4.822  1.00  0.00     0.020 A 
ATOM     85  C   UNL     1      -4.505   1.765   4.925  1.00  0.00     0.054 A 
BRANCH  85  86
ATOM     86  S   UNL     1      -5.111   0.884   6.393  1.00  0.00     0.124 S 
ATOM     87  O   UNL     1      -5.971   1.886   7.016  1.00  0.00    -0.237 OA
ATOM     88  O   UNL     1      -5.798  -0.264   5.807  1.00  0.00    -0.237 OA
ATOM     89  O   UNL     1      -3.891   0.562   7.130  1.00  0.00    -0.744 OA
ENDBRANCH  85  86
ENDBRANCH  57  80
BRANCH  69  90
ATOM     90  C   UNL     1      -5.159   9.412   0.005  1.00  0.00    -0.014 A 
ATOM     91  C   UNL     1      -5.034  10.191   1.168  1.00  0.00     0.010 A 
ATOM     92  C   UNL     1      -6.239   9.644  -0.867  1.00  0.00     0.010 A 
ATOM     93  C   UNL     1      -5.992  11.160   1.471  1.00  0.00     0.020 A 
ATOM     94  C   UNL     1      -7.179  10.636  -0.586  1.00  0.00     0.020 A 
ATOM     95  C   UNL     1      -7.056  11.378   0.590  1.00  0.00     0.054 A 
BRANCH  95  96
ATOM     96  S   UNL     1      -8.257  12.676   0.985  1.00  0.00     0.124 S 
ATOM     97  O   UNL     1      -8.999  12.076   2.090  1.00  0.00    -0.237 OA
ATOM     98  O   UNL     1      -7.401  13.805   1.341  1.00  0.00    -0.237 OA
ATOM     99  O   UNL     1      -9.011  12.840  -0.256  1.00  0.00    -0.744 OA
ENDBRANCH  95  96
ENDBRANCH  69  90
ENDBRANCH  43  44
ENDBRANCH  36  38
ENDBRANCH  35  36
ENDBRANCH  34  35
ENDBRANCH  33  34
ENDBRANCH  32  33
ENDBRANCH  31  32
ENDBRANCH  30  31
ENDBRANCH  29  30
ENDBRANCH   1  29
TORSDOF 27
