REMARK SMILES CC[C@@H](C)c1ccccc1NC(=O)[C@@H]1[C@@H](C(=O)OCCOCCOCCOCCOC(=O)c2ccc(-c3c4nc(c(-c5ccc(S(=O)(=O)[O-])cc5)c5ccc([nH]5)c(-c5ccc(S(=O)(=O)[O-])cc5)c5nc(c(-c6ccc(S(=O)(=O)[O-])cc6)c6ccc3[nH]6)C=C5)C=C4)cc2)[C@@H]2C=C[C@H]1C2
REMARK SMILES IDX 23 1 22 2 21 3 20 4 19 5 18 6 16 7 17 8 15 9 14 10 96 11
REMARK SMILES IDX 93 12 95 13 97 14 94 15 12 16 11 17 13 19 10 20 5 21 6 22
REMARK SMILES IDX 7 23 9 24 8 25 3 26 4 27 2 28 1 29 24 30 25 31 26 32 27 33
REMARK SMILES IDX 28 34 29 35 30 36 31 37 32 38 33 39 34 40 92 41 35 42 91 43
REMARK SMILES IDX 36 44 37 45 38 46 85 47 39 48 90 49 84 50 86 51 40 52 89 53
REMARK SMILES IDX 83 54 82 55 41 57 71 58 52 59 70 60 53 61 56 62 69 63 87 64
REMARK SMILES IDX 54 65 55 66 68 68 88 69 57 70 42 71 43 72 51 73 44 74 50 75
REMARK SMILES IDX 45 76 46 77 47 78 48 79 49 80 72 81 73 82 81 83 74 84 80 85
REMARK SMILES IDX 75 86 76 87 77 88 78 89 79 90 58 91 59 92 67 93 60 94 66 95
REMARK SMILES IDX 61 96 62 97 63 98 64 99 65 100
REMARK H PARENT 11 18 86 56 56 67
REMARK Flexibility Score: inf
ROOT
ATOM      1  C   UNL     1       1.225 -10.183  -1.183  1.00  0.00     0.188 C 
ENDROOT
BRANCH   1   2
ATOM      2  C   UNL     1       2.422  -9.277  -1.544  1.00  0.00     0.188 C 
BRANCH   2   3
ATOM      3  O   UNL     1       3.672  -9.734  -1.044  1.00  0.00    -0.376 OA
BRANCH   3   4
ATOM      4  C   UNL     1       4.199  -9.301   0.199  1.00  0.00     0.202 C 
BRANCH   4   5
ATOM      5  C   UNL     1       3.342  -9.522   1.459  1.00  0.00     0.261 C 
BRANCH   5   6
ATOM      6  O   UNL     1       2.033  -8.946   1.368  1.00  0.00    -0.463 OA
BRANCH   6   7
ATOM      7  C   UNL     1       2.050  -7.625   1.130  1.00  0.00     0.310 C 
ATOM      8  O   UNL     1       3.058  -6.927   1.189  1.00  0.00    -0.252 OA
BRANCH   7   9
ATOM      9  C   UNL     1       0.717  -7.063   0.716  1.00  0.00     0.119 C 
ATOM     10  C   UNL     1       0.607  -5.814   1.619  1.00  0.00     0.100 C 
ATOM     11  C   UNL     1      -0.832  -5.882   2.150  1.00  0.00     0.025 C 
ATOM     12  C   UNL     1      -0.605  -7.803   1.014  1.00  0.00     0.027 C 
ATOM     13  C   UNL     1      -1.818  -5.837   1.015  1.00  0.00    -0.027 C 
ATOM     14  C   UNL     1      -0.902  -7.394   2.458  1.00  0.00     0.017 C 
ATOM     15  C   UNL     1      -1.703  -6.992   0.341  1.00  0.00    -0.027 C 
BRANCH  10  16
ATOM     16  C   UNL     1       1.164  -4.593   0.908  1.00  0.00     0.228 C 
ATOM     17  N   UNL     1       1.678  -3.550   1.640  1.00  0.00    -0.326 N 
ATOM     18  H   UNL     1       2.366  -2.988   1.217  1.00  0.00     0.169 HD
ATOM     19  O   UNL     1       1.200  -4.507  -0.323  1.00  0.00    -0.274 OA
BRANCH  17  20
ATOM     20  C   UNL     1       1.288  -3.233   2.949  1.00  0.00     0.044 A 
ATOM     21  C   UNL     1       0.628  -2.013   3.176  1.00  0.00    -0.022 A 
ATOM     22  C   UNL     1      -0.128  -1.917   4.357  1.00  0.00     0.006 A 
ATOM     23  C   UNL     1      -0.105  -2.928   5.326  1.00  0.00     0.000 A 
ATOM     24  C   UNL     1       1.444  -4.159   3.987  1.00  0.00     0.026 A 
ATOM     25  C   UNL     1       0.729  -4.024   5.168  1.00  0.00     0.002 A 
BRANCH  21  26
ATOM     26  C   UNL     1       0.820  -0.825   2.228  1.00  0.00     0.018 C 
ATOM     27  C   UNL     1       0.520   0.526   2.894  1.00  0.00     0.013 C 
BRANCH  26  28
ATOM     28  C   UNL     1       0.086  -0.925   0.870  1.00  0.00     0.005 C 
ATOM     29  C   UNL     1       0.684   0.025  -0.169  1.00  0.00     0.004 C 
ENDBRANCH  26  28
ENDBRANCH  21  26
ENDBRANCH  17  20
ENDBRANCH  10  16
ENDBRANCH   7   9
ENDBRANCH   6   7
ENDBRANCH   5   6
ENDBRANCH   4   5
ENDBRANCH   3   4
ENDBRANCH   2   3
ENDBRANCH   1   2
BRANCH   1  30
ATOM     30  O   UNL     1       1.345 -11.564  -1.503  1.00  0.00    -0.377 OA
BRANCH  30  31
ATOM     31  C   UNL     1       2.554 -12.176  -1.075  1.00  0.00     0.188 C 
BRANCH  31  32
ATOM     32  C   UNL     1       3.656 -12.204  -2.156  1.00  0.00     0.188 C 
BRANCH  32  33
ATOM     33  O   UNL     1       3.437 -11.647  -3.442  1.00  0.00    -0.376 OA
BRANCH  33  34
ATOM     34  C   UNL     1       2.195 -11.789  -4.108  1.00  0.00     0.202 C 
BRANCH  34  35
ATOM     35  C   UNL     1       1.355 -13.082  -4.094  1.00  0.00     0.261 C 
BRANCH  35  36
ATOM     36  O   UNL     1       1.557 -14.012  -3.028  1.00  0.00    -0.460 OA
BRANCH  36  37
ATOM     37  C   UNL     1       2.529 -14.932  -3.215  1.00  0.00     0.338 C 
ATOM     38  O   UNL     1       3.242 -15.062  -4.197  1.00  0.00    -0.246 OA
BRANCH  37  39
ATOM     39  C   UNL     1       2.730 -15.641  -1.933  1.00  0.00     0.060 A 
ATOM     40  C   UNL     1       3.992 -15.596  -1.321  1.00  0.00     0.016 A 
ATOM     41  C   UNL     1       1.673 -16.320  -1.322  1.00  0.00     0.016 A 
ATOM     42  C   UNL     1       4.208 -16.242  -0.108  1.00  0.00     0.010 A 
ATOM     43  C   UNL     1       1.903 -17.009  -0.130  1.00  0.00     0.010 A 
ATOM     44  C   UNL     1       3.179 -16.998   0.462  1.00  0.00    -0.014 A 
BRANCH  44  45
ATOM     45  C   UNL     1       3.508 -17.968   1.530  1.00  0.00     0.031 A 
ATOM     46  C   UNL     1       3.777 -19.390   1.123  1.00  0.00     0.074 A 
ATOM     47  C   UNL     1       3.597 -17.593   2.817  1.00  0.00     0.049 A 
ATOM     48  N   UNL     1       4.034 -20.431   1.869  1.00  0.00    -0.248 NA
ATOM     49  C   UNL     1       3.749 -19.676  -0.323  1.00  0.00     0.031 C 
ATOM     50  C   UNL     1       3.421 -16.232   3.319  1.00  0.00     0.029 A 
ATOM     51  N   UNL     1       3.855 -18.338   3.940  1.00  0.00    -0.354 N 
ATOM     52  C   UNL     1       4.184 -21.495   0.988  1.00  0.00     0.074 A 
ATOM     53  C   UNL     1       3.963 -20.982  -0.345  1.00  0.00     0.031 C 
ATOM     54  C   UNL     1       3.564 -16.241   4.657  1.00  0.00     0.029 A 
ATOM     55  C   UNL     1       3.801 -17.613   5.105  1.00  0.00     0.049 A 
ATOM     56  H   UNL     1       4.059 -19.301   3.913  1.00  0.00     0.167 HD
ATOM     57  C   UNL     1       4.482 -22.786   1.265  1.00  0.00     0.031 A 
ATOM     58  C   UNL     1       3.905 -18.018   6.387  1.00  0.00     0.031 A 
ATOM     59  C   UNL     1       4.681 -23.291   2.596  1.00  0.00     0.049 A 
ATOM     60  C   UNL     1       4.148 -19.478   6.677  1.00  0.00     0.074 A 
ATOM     61  C   UNL     1       4.995 -24.581   2.987  1.00  0.00     0.029 A 
ATOM     62  N   UNL     1       4.577 -22.535   3.754  1.00  0.00    -0.354 N 
ATOM     63  N   UNL     1       4.306 -20.473   5.835  1.00  0.00    -0.248 NA
ATOM     64  C   UNL     1       4.234 -19.868   8.091  1.00  0.00     0.031 C 
ATOM     65  C   UNL     1       5.012 -24.618   4.385  1.00  0.00     0.029 A 
ATOM     66  C   UNL     1       4.787 -23.337   4.862  1.00  0.00     0.049 A 
ATOM     67  H   UNL     1       4.381 -21.570   3.783  1.00  0.00     0.167 HD
ATOM     68  C   UNL     1       4.542 -21.600   6.618  1.00  0.00     0.074 A 
ATOM     69  C   UNL     1       4.521 -21.160   7.998  1.00  0.00     0.031 C 
ATOM     70  C   UNL     1       4.762 -22.882   6.231  1.00  0.00     0.031 A 
BRANCH  57  71
ATOM     71  C   UNL     1       4.561 -23.746   0.108  1.00  0.00    -0.014 A 
ATOM     72  C   UNL     1       5.605 -23.679  -0.832  1.00  0.00     0.010 A 
ATOM     73  C   UNL     1       3.587 -24.753  -0.022  1.00  0.00     0.010 A 
ATOM     74  C   UNL     1       5.654 -24.580  -1.899  1.00  0.00     0.020 A 
ATOM     75  C   UNL     1       3.651 -25.675  -1.070  1.00  0.00     0.020 A 
ATOM     76  C   UNL     1       4.676 -25.573  -2.011  1.00  0.00     0.054 A 
BRANCH  76  77
ATOM     77  S   UNL     1       4.783 -26.747  -3.388  1.00  0.00     0.124 S 
ATOM     78  O   UNL     1       4.444 -25.903  -4.531  1.00  0.00    -0.237 OA
ATOM     79  O   UNL     1       6.174 -27.188  -3.324  1.00  0.00    -0.237 OA
ATOM     80  O   UNL     1       3.793 -27.768  -3.053  1.00  0.00    -0.744 OA
ENDBRANCH  76  77
ENDBRANCH  57  71
BRANCH  58  81
ATOM     81  C   UNL     1       3.755 -17.034   7.495  1.00  0.00    -0.014 A 
ATOM     82  C   UNL     1       4.843 -16.708   8.322  1.00  0.00     0.010 A 
ATOM     83  C   UNL     1       2.511 -16.419   7.731  1.00  0.00     0.010 A 
ATOM     84  C   UNL     1       4.688 -15.799   9.373  1.00  0.00     0.020 A 
ATOM     85  C   UNL     1       2.359 -15.486   8.760  1.00  0.00     0.020 A 
ATOM     86  C   UNL     1       3.448 -15.188   9.581  1.00  0.00     0.054 A 
BRANCH  86  87
ATOM     87  S   UNL     1       3.286 -13.968  10.914  1.00  0.00     0.124 S 
ATOM     88  O   UNL     1       3.360 -14.806  12.106  1.00  0.00    -0.237 OA
ATOM     89  O   UNL     1       4.434 -13.095  10.680  1.00  0.00    -0.237 OA
ATOM     90  O   UNL     1       1.985 -13.353  10.659  1.00  0.00    -0.744 OA
ENDBRANCH  86  87
ENDBRANCH  58  81
BRANCH  70  91
ATOM     91  C   UNL     1       5.040 -23.899   7.308  1.00  0.00    -0.014 A 
ATOM     92  C   UNL     1       4.035 -24.331   8.190  1.00  0.00     0.010 A 
ATOM     93  C   UNL     1       6.321 -24.478   7.395  1.00  0.00     0.010 A 
ATOM     94  C   UNL     1       4.314 -25.297   9.161  1.00  0.00     0.020 A 
ATOM     95  C   UNL     1       6.594 -25.468   8.341  1.00  0.00     0.020 A 
ATOM     96  C   UNL     1       5.592 -25.861   9.229  1.00  0.00     0.054 A 
BRANCH  96  97
ATOM     97  S   UNL     1       5.915 -27.143  10.470  1.00  0.00     0.124 S 
ATOM     98  O   UNL     1       5.916 -26.372  11.711  1.00  0.00    -0.237 OA
ATOM     99  O   UNL     1       4.783 -28.050  10.295  1.00  0.00    -0.237 OA
ATOM    100  O   UNL     1       7.211 -27.690  10.076  1.00  0.00    -0.744 OA
ENDBRANCH  96  97
ENDBRANCH  70  91
ENDBRANCH  44  45
ENDBRANCH  37  39
ENDBRANCH  36  37
ENDBRANCH  35  36
ENDBRANCH  34  35
ENDBRANCH  33  34
ENDBRANCH  32  33
ENDBRANCH  31  32
ENDBRANCH  30  31
ENDBRANCH   1  30
TORSDOF 27
