REMARK SMILES CCSC(=S)N1[C@@H](C(=O)OCCOCCOCCOCCOC(=O)c2ccc(-c3c4nc(c(-c5ccc(S(=O)(=O)[O-])cc5)c5ccc([nH]5)c(-c5ccc(S(=O)(=O)[O-])cc5)c5nc(c(-c6ccc(S(=O)(=O)[O-])cc6)c6ccc3[nH]6)C=C5)C=C4)cc2)CS[C@@H]1c1ccc(C)cc1
REMARK SMILES IDX 16 1 15 2 14 3 13 4 12 5 11 6 10 7 8 8 9 9 7 10 6 11 87 12
REMARK SMILES IDX 85 13 86 14 4 15 5 16 3 17 2 18 1 19 88 20 89 21 94 22 90 23
REMARK SMILES IDX 93 24 91 25 92 26 17 27 18 28 19 29 20 30 21 31 22 32 23 33
REMARK SMILES IDX 24 34 25 35 26 36 84 37 27 38 83 39 28 40 29 41 30 42 77 43
REMARK SMILES IDX 31 44 82 45 76 46 78 47 32 48 81 49 75 50 74 51 33 53 63 54
REMARK SMILES IDX 44 55 62 56 45 57 48 58 61 59 79 60 46 61 47 62 60 64 80 65
REMARK SMILES IDX 49 66 34 67 35 68 43 69 36 70 42 71 37 72 38 73 39 74 40 75
REMARK SMILES IDX 41 76 64 77 65 78 73 79 66 80 72 81 67 82 68 83 69 84 70 85
REMARK SMILES IDX 71 86 50 87 51 88 59 89 52 90 58 91 53 92 54 93 55 94 56 95
REMARK SMILES IDX 57 96
REMARK H PARENT 78 52 48 63
REMARK Flexibility Score: inf
ROOT
ATOM      1  O   UNL     1       2.827  -2.085   5.089  1.00  0.00    -0.377 OA
ENDROOT
BRANCH   1   2
ATOM      2  C   UNL     1       3.981  -2.826   4.733  1.00  0.00     0.188 C 
BRANCH   2   3
ATOM      3  C   UNL     1       5.315  -2.056   4.865  1.00  0.00     0.188 C 
BRANCH   3   4
ATOM      4  O   UNL     1       5.411  -0.651   4.649  1.00  0.00    -0.376 OA
BRANCH   4   5
ATOM      5  C   UNL     1       4.274   0.086   4.247  1.00  0.00     0.202 C 
BRANCH   5   6
ATOM      6  C   UNL     1       3.837  -0.051   2.781  1.00  0.00     0.261 C 
BRANCH   6   7
ATOM      7  O   UNL     1       3.898  -1.354   2.180  1.00  0.00    -0.462 OA
BRANCH   7   8
ATOM      8  C   UNL     1       5.107  -1.738   1.692  1.00  0.00     0.329 C 
ATOM      9  O   UNL     1       6.162  -1.138   1.875  1.00  0.00    -0.250 OA
BRANCH   8  10
ATOM     10  C   UNL     1       5.062  -3.064   0.915  1.00  0.00     0.205 C 
ATOM     11  N   UNL     1       3.745  -3.487   0.364  1.00  0.00    -0.327 N 
ATOM     12  C   UNL     1       3.518  -4.940   0.453  1.00  0.00     0.173 C 
ATOM     13  C   UNL     1       5.625  -4.200   1.792  1.00  0.00     0.109 C 
ATOM     14  S   UNL     1       4.239  -5.327   2.096  1.00  0.00    -0.129 SA
BRANCH  11  15
ATOM     15  C   UNL     1       2.979  -2.656  -0.458  1.00  0.00     0.138 C 
ATOM     16  S   UNL     1       3.662  -1.538  -1.515  1.00  0.00    -0.053 S 
BRANCH  15  17
ATOM     17  S   UNL     1       1.245  -2.877  -0.216  1.00  0.00    -0.097 SA
BRANCH  17  18
ATOM     18  C   UNL     1       0.480  -1.299  -0.715  1.00  0.00     0.074 C 
ATOM     19  C   UNL     1       0.798  -0.129   0.206  1.00  0.00     0.016 C 
ENDBRANCH  17  18
ENDBRANCH  15  17
ENDBRANCH  11  15
BRANCH  12  20
ATOM     20  C   UNL     1       4.310  -5.762  -0.588  1.00  0.00    -0.015 A 
ATOM     21  C   UNL     1       4.312  -7.168  -0.512  1.00  0.00     0.007 A 
ATOM     22  C   UNL     1       5.185  -5.170  -1.513  1.00  0.00     0.007 A 
ATOM     23  C   UNL     1       5.257  -7.926  -1.216  1.00  0.00     0.004 A 
ATOM     24  C   UNL     1       6.138  -5.921  -2.201  1.00  0.00     0.004 A 
ATOM     25  C   UNL     1       6.212  -7.300  -2.022  1.00  0.00    -0.051 A 
ATOM     26  C   UNL     1       7.302  -8.091  -2.679  1.00  0.00     0.044 C 
ENDBRANCH  12  20
ENDBRANCH   8  10
ENDBRANCH   7   8
ENDBRANCH   6   7
ENDBRANCH   5   6
ENDBRANCH   4   5
ENDBRANCH   3   4
ENDBRANCH   2   3
ENDBRANCH   1   2
BRANCH   1  27
ATOM     27  C   UNL     1       2.347  -2.303   6.405  1.00  0.00     0.188 C 
BRANCH  27  28
ATOM     28  C   UNL     1       3.378  -2.043   7.510  1.00  0.00     0.188 C 
BRANCH  28  29
ATOM     29  O   UNL     1       4.448  -2.986   7.458  1.00  0.00    -0.376 OA
BRANCH  29  30
ATOM     30  C   UNL     1       4.481  -4.005   8.443  1.00  0.00     0.202 C 
BRANCH  30  31
ATOM     31  C   UNL     1       3.530  -5.181   8.188  1.00  0.00     0.261 C 
BRANCH  31  32
ATOM     32  O   UNL     1       2.131  -4.860   8.121  1.00  0.00    -0.460 OA
BRANCH  32  33
ATOM     33  C   UNL     1       1.563  -4.222   9.168  1.00  0.00     0.338 C 
ATOM     34  O   UNL     1       2.090  -3.934  10.227  1.00  0.00    -0.246 OA
BRANCH  33  35
ATOM     35  C   UNL     1       0.246  -3.724   8.707  1.00  0.00     0.060 A 
ATOM     36  C   UNL     1      -0.035  -2.355   8.805  1.00  0.00     0.016 A 
ATOM     37  C   UNL     1      -0.671  -4.592   8.108  1.00  0.00     0.016 A 
ATOM     38  C   UNL     1      -1.232  -1.849   8.293  1.00  0.00     0.010 A 
ATOM     39  C   UNL     1      -1.883  -4.089   7.630  1.00  0.00     0.010 A 
ATOM     40  C   UNL     1      -2.175  -2.718   7.730  1.00  0.00    -0.014 A 
BRANCH  40  41
ATOM     41  C   UNL     1      -3.539  -2.238   7.409  1.00  0.00     0.031 A 
ATOM     42  C   UNL     1      -4.602  -2.375   8.464  1.00  0.00     0.074 A 
ATOM     43  C   UNL     1      -3.837  -1.706   6.209  1.00  0.00     0.049 A 
ATOM     44  N   UNL     1      -5.882  -2.126   8.387  1.00  0.00    -0.248 NA
ATOM     45  C   UNL     1      -4.157  -2.858   9.783  1.00  0.00     0.031 C 
ATOM     46  C   UNL     1      -2.886  -1.469   5.124  1.00  0.00     0.029 A 
ATOM     47  N   UNL     1      -5.040  -1.282   5.699  1.00  0.00    -0.354 N 
ATOM     48  C   UNL     1      -6.396  -2.419   9.644  1.00  0.00     0.074 A 
ATOM     49  C   UNL     1      -5.296  -2.887  10.459  1.00  0.00     0.031 C 
ATOM     50  C   UNL     1      -3.548  -0.962   4.067  1.00  0.00     0.029 A 
ATOM     51  C   UNL     1      -4.973  -0.877   4.386  1.00  0.00     0.049 A 
ATOM     52  H   UNL     1      -5.873  -1.269   6.224  1.00  0.00     0.167 HD
ATOM     53  C   UNL     1      -7.671  -2.308  10.083  1.00  0.00     0.031 A 
ATOM     54  C   UNL     1      -5.954  -0.517   3.533  1.00  0.00     0.031 A 
ATOM     55  C   UNL     1      -8.770  -1.873   9.264  1.00  0.00     0.049 A 
ATOM     56  C   UNL     1      -7.386  -0.514   4.014  1.00  0.00     0.074 A 
ATOM     57  C   UNL     1     -10.101  -1.735   9.615  1.00  0.00     0.029 A 
ATOM     58  N   UNL     1      -8.667  -1.516   7.929  1.00  0.00    -0.354 N 
ATOM     59  N   UNL     1      -7.856  -0.775   5.211  1.00  0.00    -0.248 NA
ATOM     60  C   UNL     1      -8.420  -0.171   3.025  1.00  0.00     0.031 C 
ATOM     61  C   UNL     1     -10.813  -1.350   8.476  1.00  0.00     0.029 A 
ATOM     62  C   UNL     1      -9.917  -1.188   7.432  1.00  0.00     0.049 A 
ATOM     63  H   UNL     1      -7.830  -1.498   7.411  1.00  0.00     0.167 HD
ATOM     64  C   UNL     1      -9.236  -0.608   5.122  1.00  0.00     0.074 A 
ATOM     65  C   UNL     1      -9.521  -0.201   3.762  1.00  0.00     0.031 C 
ATOM     66  C   UNL     1     -10.183  -0.781   6.077  1.00  0.00     0.031 A 
BRANCH  53  67
ATOM     67  C   UNL     1      -7.954  -2.690  11.509  1.00  0.00    -0.014 A 
ATOM     68  C   UNL     1      -7.550  -1.863  12.572  1.00  0.00     0.010 A 
ATOM     69  C   UNL     1      -8.687  -3.858  11.786  1.00  0.00     0.010 A 
ATOM     70  C   UNL     1      -7.861  -2.207  13.890  1.00  0.00     0.020 A 
ATOM     71  C   UNL     1      -9.020  -4.192  13.101  1.00  0.00     0.020 A 
ATOM     72  C   UNL     1      -8.598  -3.367  14.146  1.00  0.00     0.054 A 
BRANCH  72  73
ATOM     73  S   UNL     1      -9.034  -3.756  15.862  1.00  0.00     0.124 S 
ATOM     74  O   UNL     1      -7.741  -4.142  16.422  1.00  0.00    -0.237 OA
ATOM     75  O   UNL     1      -9.576  -2.490  16.348  1.00  0.00    -0.237 OA
ATOM     76  O   UNL     1     -10.005  -4.840  15.737  1.00  0.00    -0.744 OA
ENDBRANCH  72  73
ENDBRANCH  53  67
BRANCH  54  77
ATOM     77  C   UNL     1      -5.639  -0.188   2.113  1.00  0.00    -0.014 A 
ATOM     78  C   UNL     1      -5.845   1.109   1.609  1.00  0.00     0.010 A 
ATOM     79  C   UNL     1      -5.178  -1.191   1.240  1.00  0.00     0.010 A 
ATOM     80  C   UNL     1      -5.627   1.388   0.256  1.00  0.00     0.020 A 
ATOM     81  C   UNL     1      -4.928  -0.909  -0.106  1.00  0.00     0.020 A 
ATOM     82  C   UNL     1      -5.171   0.376  -0.593  1.00  0.00     0.054 A 
BRANCH  82  83
ATOM     83  S   UNL     1      -4.868   0.763  -2.340  1.00  0.00     0.124 S 
ATOM     84  O   UNL     1      -6.224   0.849  -2.872  1.00  0.00    -0.237 OA
ATOM     85  O   UNL     1      -4.136   2.025  -2.261  1.00  0.00    -0.237 OA
ATOM     86  O   UNL     1      -4.079  -0.374  -2.808  1.00  0.00    -0.744 OA
ENDBRANCH  82  83
ENDBRANCH  54  77
BRANCH  66  87
ATOM     87  C   UNL     1     -11.615  -0.508   5.699  1.00  0.00    -0.014 A 
ATOM     88  C   UNL     1     -12.327  -1.389   4.867  1.00  0.00     0.010 A 
ATOM     89  C   UNL     1     -12.279   0.607   6.245  1.00  0.00     0.010 A 
ATOM     90  C   UNL     1     -13.670  -1.146   4.565  1.00  0.00     0.020 A 
ATOM     91  C   UNL     1     -13.630   0.837   5.969  1.00  0.00     0.020 A 
ATOM     92  C   UNL     1     -14.314  -0.036   5.121  1.00  0.00     0.054 A 
BRANCH  92  93
ATOM     93  S   UNL     1     -16.072   0.225   4.757  1.00  0.00     0.124 S 
ATOM     94  O   UNL     1     -16.033   0.665   3.365  1.00  0.00    -0.237 OA
ATOM     95  O   UNL     1     -16.645  -1.100   4.982  1.00  0.00    -0.237 OA
ATOM     96  O   UNL     1     -16.478   1.245   5.721  1.00  0.00    -0.744 OA
ENDBRANCH  92  93
ENDBRANCH  66  87
ENDBRANCH  40  41
ENDBRANCH  33  35
ENDBRANCH  32  33
ENDBRANCH  31  32
ENDBRANCH  30  31
ENDBRANCH  29  30
ENDBRANCH  28  29
ENDBRANCH  27  28
ENDBRANCH   1  27
TORSDOF 27
