REMARK SMILES C[C@]12CC[C@@H]3[C@@H](CCC4=C/C(=N\OCC(=O)N5CCC[C@@H]5C(=O)OCCOCCOCCOCCOC(=O)c5ccc(-c6c7nc(c(-c8ccc(S(=O)(=O)[O-])cc8)c8ccc([nH]8)c(-c8ccc(S(=O)(=O)[O-])cc8)c8nc(c(-c9ccc(S(=O)(=O)[O-])cc9)c9ccc6[nH]9)C=C8)C=C7)cc5)CC[C@@]43C)[C@@H]1CC[C@@H]2O
REMARK SMILES IDX 29 1 28 2 27 3 26 4 25 5 24 6 22 7 23 8 21 9 17 10 18 11
REMARK SMILES IDX 19 12 20 13 15 14 16 15 14 16 13 17 12 18 1 19 2 20 3 21
REMARK SMILES IDX 103 22 106 23 4 24 6 25 104 26 105 27 5 28 7 29 101 30 8 31
REMARK SMILES IDX 9 32 100 33 102 34 10 35 99 36 11 37 107 38 30 40 31 41
REMARK SMILES IDX 32 42 33 43 34 44 35 45 36 46 37 47 38 48 39 49 40 50 98 51
REMARK SMILES IDX 41 52 97 53 42 54 43 55 44 56 91 57 45 58 96 59 90 60 92 61
REMARK SMILES IDX 46 62 95 63 89 64 88 65 47 67 77 68 58 69 76 70 59 71 62 72
REMARK SMILES IDX 75 73 93 74 60 75 61 76 74 78 94 79 63 80 48 81 49 82 57 83
REMARK SMILES IDX 50 84 56 85 51 86 52 87 53 88 54 89 55 90 78 91 79 92 87 93
REMARK SMILES IDX 80 94 86 95 81 96 82 97 83 98 84 99 85 100 64 101 65 102
REMARK SMILES IDX 73 103 66 104 72 105 67 106 68 107 69 108 70 109 71 110
REMARK H PARENT 107 39 92 66 62 77
REMARK Flexibility Score: inf
ROOT
ATOM      1  C   UNL     1      -1.886   9.804  -2.020  1.00  0.00     0.188 C 
ENDROOT
BRANCH   1   2
ATOM      2  C   UNL     1      -0.817  10.127  -0.973  1.00  0.00     0.188 C 
BRANCH   2   3
ATOM      3  O   UNL     1      -1.073   9.582   0.319  1.00  0.00    -0.376 OA
BRANCH   3   4
ATOM      4  C   UNL     1      -1.049   8.160   0.391  1.00  0.00     0.202 C 
BRANCH   4   5
ATOM      5  C   UNL     1      -2.177   7.661   1.290  1.00  0.00     0.261 C 
BRANCH   5   6
ATOM      6  O   UNL     1      -3.449   7.847   0.676  1.00  0.00    -0.462 OA
BRANCH   6   7
ATOM      7  C   UNL     1      -3.998   9.053   0.907  1.00  0.00     0.328 C 
ATOM      8  O   UNL     1      -3.490   9.931   1.593  1.00  0.00    -0.250 OA
BRANCH   7   9
ATOM      9  C   UNL     1      -5.339   9.164   0.183  1.00  0.00     0.195 C 
ATOM     10  N   UNL     1      -5.237   9.742  -1.156  1.00  0.00    -0.326 N 
ATOM     11  C   UNL     1      -5.485  11.184  -1.112  1.00  0.00     0.120 C 
ATOM     12  C   UNL     1      -5.637  11.534   0.359  1.00  0.00     0.024 C 
ATOM     13  C   UNL     1      -6.142  10.221   0.961  1.00  0.00     0.039 C 
BRANCH  10  14
ATOM     14  C   UNL     1      -5.065   9.116  -2.372  1.00  0.00     0.264 C 
ATOM     15  O   UNL     1      -5.095   9.810  -3.402  1.00  0.00    -0.271 OA
BRANCH  14  16
ATOM     16  C   UNL     1      -4.926   7.564  -2.544  1.00  0.00     0.363 C 
BRANCH  16  17
ATOM     17  O   UNL     1      -4.419   6.613  -1.613  1.00  0.00    -0.385 OA
BRANCH  17  18
ATOM     18  N   UNL     1      -3.064   6.368  -1.901  1.00  0.00    -0.091 NA
ATOM     19  C   UNL     1       2.414  -0.181  -0.127  1.00  0.00     0.014 C 
ATOM     20  C   UNL     1       1.504   0.798  -0.925  1.00  0.00    -0.003 C 
ATOM     21  C   UNL     1       1.985   2.177  -0.496  1.00  0.00     0.010 C 
ATOM     22  C   UNL     1      -0.025   0.536  -0.762  1.00  0.00     0.001 C 
ATOM     23  C   UNL     1       1.550   0.540  -2.443  1.00  0.00     0.120 C 
ATOM     24  C   UNL     1       1.395   2.562   0.862  1.00  0.00     0.005 C 
ATOM     25  C   UNL     1      -0.560   0.891   0.621  1.00  0.00    -0.003 C 
ATOM     26  C   UNL     1      -0.145  -0.872  -1.382  1.00  0.00     0.007 C 
ATOM     27  C   UNL     1       0.911  -0.852  -2.531  1.00  0.00     0.032 C 
ATOM     28  C   UNL     1      -0.133   2.329   0.988  1.00  0.00     0.002 C 
ATOM     29  C   UNL     1      -2.079   0.791   0.854  1.00  0.00     0.008 C 
ATOM     30  C   UNL     1      -0.949   3.508   0.326  1.00  0.00    -0.008 C 
ATOM     31  C   UNL     1      -2.962   1.841   0.167  1.00  0.00     0.032 C 
ATOM     32  C   UNL     1      -2.414   3.238  -0.023  1.00  0.00    -0.062 C 
ATOM     33  C   UNL     1      -0.337   4.011  -0.999  1.00  0.00     0.018 C 
ATOM     34  C   UNL     1      -0.836   4.619   1.401  1.00  0.00     0.016 C 
ATOM     35  C   UNL     1      -3.180   4.129  -0.710  1.00  0.00     0.027 C 
ATOM     36  C   UNL     1      -1.067   5.117  -1.725  1.00  0.00     0.061 C 
ATOM     37  C   UNL     1      -2.543   5.281  -1.415  1.00  0.00     0.080 C 
BRANCH  23  38
ATOM     38  O   UNL     1       2.834   0.613  -3.013  1.00  0.00    -0.393 OA
ATOM     39  H   UNL     1       3.417  -0.030  -2.581  1.00  0.00     0.210 HD
ENDBRANCH  23  38
ENDBRANCH  17  18
ENDBRANCH  16  17
ENDBRANCH  14  16
ENDBRANCH  10  14
ENDBRANCH   7   9
ENDBRANCH   6   7
ENDBRANCH   5   6
ENDBRANCH   4   5
ENDBRANCH   3   4
ENDBRANCH   2   3
ENDBRANCH   1   2
BRANCH   1  40
ATOM     40  O   UNL     1      -1.270   9.579  -3.286  1.00  0.00    -0.377 OA
BRANCH  40  41
ATOM     41  C   UNL     1      -0.950   8.210  -3.492  1.00  0.00     0.188 C 
BRANCH  41  42
ATOM     42  C   UNL     1       0.438   8.026  -4.081  1.00  0.00     0.188 C 
BRANCH  42  43
ATOM     43  O   UNL     1       0.911   8.966  -5.017  1.00  0.00    -0.376 OA
BRANCH  43  44
ATOM     44  C   UNL     1       0.050   9.587  -5.954  1.00  0.00     0.202 C 
BRANCH  44  45
ATOM     45  C   UNL     1      -1.280   8.979  -6.442  1.00  0.00     0.261 C 
BRANCH  45  46
ATOM     46  O   UNL     1      -1.495   7.558  -6.406  1.00  0.00    -0.460 OA
BRANCH  46  47
ATOM     47  C   UNL     1      -0.564   6.720  -6.904  1.00  0.00     0.338 C 
ATOM     48  O   UNL     1       0.499   7.013  -7.403  1.00  0.00    -0.246 OA
BRANCH  47  49
ATOM     49  C   UNL     1      -1.018   5.330  -6.629  1.00  0.00     0.060 A 
ATOM     50  C   UNL     1      -0.178   4.468  -5.915  1.00  0.00     0.016 A 
ATOM     51  C   UNL     1      -2.233   4.856  -7.135  1.00  0.00     0.016 A 
ATOM     52  C   UNL     1      -0.523   3.119  -5.754  1.00  0.00     0.010 A 
ATOM     53  C   UNL     1      -2.569   3.500  -6.987  1.00  0.00     0.010 A 
ATOM     54  C   UNL     1      -1.696   2.612  -6.332  1.00  0.00    -0.014 A 
BRANCH  54  55
ATOM     55  C   UNL     1      -1.896   1.137  -6.441  1.00  0.00     0.031 A 
ATOM     56  C   UNL     1      -1.473   0.445  -7.714  1.00  0.00     0.074 A 
ATOM     57  C   UNL     1      -2.410   0.399  -5.438  1.00  0.00     0.049 A 
ATOM     58  N   UNL     1      -1.573  -0.817  -8.048  1.00  0.00    -0.248 NA
ATOM     59  C   UNL     1      -0.850   1.292  -8.744  1.00  0.00     0.031 C 
ATOM     60  C   UNL     1      -2.816   0.907  -4.131  1.00  0.00     0.029 A 
ATOM     61  N   UNL     1      -2.683  -0.950  -5.373  1.00  0.00    -0.354 N 
ATOM     62  C   UNL     1      -1.027  -0.916  -9.323  1.00  0.00     0.074 A 
ATOM     63  C   UNL     1      -0.625   0.418  -9.713  1.00  0.00     0.031 C 
ATOM     64  C   UNL     1      -3.300  -0.115  -3.401  1.00  0.00     0.029 A 
ATOM     65  C   UNL     1      -3.260  -1.346  -4.189  1.00  0.00     0.049 A 
ATOM     66  H   UNL     1      -2.482  -1.574  -6.107  1.00  0.00     0.167 HD
ATOM     67  C   UNL     1      -0.869  -2.013 -10.104  1.00  0.00     0.031 A 
ATOM     68  C   UNL     1      -3.724  -2.549  -3.785  1.00  0.00     0.031 A 
ATOM     69  C   UNL     1      -1.288  -3.341  -9.742  1.00  0.00     0.049 A 
ATOM     70  C   UNL     1      -3.631  -3.738  -4.711  1.00  0.00     0.074 A 
ATOM     71  C   UNL     1      -1.173  -4.508 -10.479  1.00  0.00     0.029 A 
ATOM     72  N   UNL     1      -1.911  -3.683  -8.553  1.00  0.00    -0.354 N 
ATOM     73  N   UNL     1      -3.098  -3.815  -5.907  1.00  0.00    -0.248 NA
ATOM     74  C   UNL     1      -4.205  -5.006  -4.231  1.00  0.00     0.031 C 
ATOM     75  C   UNL     1      -1.788  -5.541  -9.766  1.00  0.00     0.029 A 
ATOM     76  C   UNL     1      -2.217  -5.035  -8.550  1.00  0.00     0.049 A 
ATOM     77  H   UNL     1      -2.108  -3.058  -7.818  1.00  0.00     0.167 HD
ATOM     78  C   UNL     1      -3.243  -5.143  -6.304  1.00  0.00     0.074 A 
ATOM     79  C   UNL     1      -3.899  -5.837  -5.218  1.00  0.00     0.031 C 
ATOM     80  C   UNL     1      -2.864  -5.731  -7.466  1.00  0.00     0.031 A 
BRANCH  67  81
ATOM     81  C   UNL     1      -0.249  -1.813 -11.463  1.00  0.00    -0.014 A 
ATOM     82  C   UNL     1       1.116  -1.509 -11.608  1.00  0.00     0.010 A 
ATOM     83  C   UNL     1      -1.040  -1.978 -12.616  1.00  0.00     0.010 A 
ATOM     84  C   UNL     1       1.671  -1.338 -12.880  1.00  0.00     0.020 A 
ATOM     85  C   UNL     1      -0.482  -1.837 -13.889  1.00  0.00     0.020 A 
ATOM     86  C   UNL     1       0.867  -1.502 -14.012  1.00  0.00     0.054 A 
BRANCH  86  87
ATOM     87  S   UNL     1       1.620  -1.298 -15.650  1.00  0.00     0.124 S 
ATOM     88  O   UNL     1       1.862   0.142 -15.693  1.00  0.00    -0.237 OA
ATOM     89  O   UNL     1       2.814  -2.134 -15.559  1.00  0.00    -0.237 OA
ATOM     90  O   UNL     1       0.592  -1.783 -16.568  1.00  0.00    -0.744 OA
ENDBRANCH  86  87
ENDBRANCH  67  81
BRANCH  68  91
ATOM     91  C   UNL     1      -4.360  -2.699  -2.442  1.00  0.00    -0.014 A 
ATOM     92  C   UNL     1      -3.774  -3.505  -1.448  1.00  0.00     0.010 A 
ATOM     93  C   UNL     1      -5.586  -2.066  -2.166  1.00  0.00     0.010 A 
ATOM     94  C   UNL     1      -4.411  -3.690  -0.216  1.00  0.00     0.020 A 
ATOM     95  C   UNL     1      -6.208  -2.220  -0.924  1.00  0.00     0.020 A 
ATOM     96  C   UNL     1      -5.623  -3.042   0.039  1.00  0.00     0.054 A 
BRANCH  96  97
ATOM     97  S   UNL     1      -6.408  -3.256   1.661  1.00  0.00     0.124 S 
ATOM     98  O   UNL     1      -6.876  -4.637   1.595  1.00  0.00    -0.237 OA
ATOM     99  O   UNL     1      -5.300  -3.004   2.579  1.00  0.00    -0.237 OA
ATOM    100  O   UNL     1      -7.456  -2.238   1.669  1.00  0.00    -0.744 OA
ENDBRANCH  96  97
ENDBRANCH  68  91
BRANCH  80 101
ATOM    101  C   UNL     1      -3.098  -7.214  -7.622  1.00  0.00    -0.014 A 
ATOM    102  C   UNL     1      -4.391  -7.746  -7.773  1.00  0.00     0.010 A 
ATOM    103  C   UNL     1      -1.994  -8.085  -7.685  1.00  0.00     0.010 A 
ATOM    104  C   UNL     1      -4.576  -9.121  -7.954  1.00  0.00     0.020 A 
ATOM    105  C   UNL     1      -2.172  -9.456  -7.897  1.00  0.00     0.020 A 
ATOM    106  C   UNL     1      -3.465  -9.967  -8.017  1.00  0.00     0.054 A 
BRANCH 106 107
ATOM    107  S   UNL     1      -3.730 -11.740  -8.298  1.00  0.00     0.124 S 
ATOM    108  O   UNL     1      -4.300 -12.169  -7.023  1.00  0.00    -0.237 OA
ATOM    109  O   UNL     1      -4.651 -11.750  -9.432  1.00  0.00    -0.237 OA
ATOM    110  O   UNL     1      -2.392 -12.252  -8.585  1.00  0.00    -0.744 OA
ENDBRANCH 106 107
ENDBRANCH  80 101
ENDBRANCH  54  55
ENDBRANCH  47  49
ENDBRANCH  46  47
ENDBRANCH  45  46
ENDBRANCH  44  45
ENDBRANCH  43  44
ENDBRANCH  42  43
ENDBRANCH  41  42
ENDBRANCH  40  41
ENDBRANCH   1  40
TORSDOF 28
