REMARK SMILES CC(C)NC(=O)c1cccc(NC(=O)[C@@H]2[C@H](C(=O)OCCOCCOCCOCCOC(=O)c3ccc(-c4c5nc(c(-c6ccc(S(=O)(=O)[O-])cc6)c6ccc([nH]6)c(-c6ccc(S(=O)(=O)[O-])cc6)c6nc(c(-c7ccc(S(=O)(=O)[O-])cc7)c7ccc4[nH]7)C=C6)C=C5)cc3)C2(C)C)c1
REMARK SMILES IDX 24 1 23 2 22 3 21 4 20 5 19 6 17 7 18 8 16 9 15 10 94 11
REMARK SMILES IDX 95 12 96 13 13 14 12 15 14 17 11 18 7 19 8 20 97 21 9 22
REMARK SMILES IDX 10 23 5 24 4 25 6 27 2 28 1 29 3 30 25 31 26 32 27 33 28 34
REMARK SMILES IDX 29 35 30 36 31 37 32 38 33 39 34 40 35 41 93 42 36 43 92 44
REMARK SMILES IDX 37 45 38 46 39 47 86 48 40 49 91 50 85 51 87 52 41 53 90 54
REMARK SMILES IDX 84 55 83 56 42 58 72 59 53 60 71 61 54 62 57 63 70 64 88 65
REMARK SMILES IDX 55 66 56 67 69 69 89 70 58 71 43 72 44 73 52 74 45 75 51 76
REMARK SMILES IDX 46 77 47 78 48 79 49 80 50 81 73 82 74 83 82 84 75 85 81 86
REMARK SMILES IDX 76 87 77 88 78 89 79 90 80 91 59 92 60 93 68 94 61 95 67 96
REMARK SMILES IDX 62 97 63 98 64 99 65 100 66 101
REMARK H PARENT 12 16 4 26 87 57 57 68
REMARK Flexibility Score: inf
ROOT
ATOM      1  C   UNL     1       0.048   6.111  -0.710  1.00  0.00     0.188 C 
ENDROOT
BRANCH   1   2
ATOM      2  C   UNL     1      -0.456   7.566  -0.837  1.00  0.00     0.188 C 
BRANCH   2   3
ATOM      3  O   UNL     1      -1.791   7.696  -1.252  1.00  0.00    -0.376 OA
BRANCH   3   4
ATOM      4  C   UNL     1      -2.160   7.794  -2.603  1.00  0.00     0.202 C 
BRANCH   4   5
ATOM      5  C   UNL     1      -1.396   7.257  -3.823  1.00  0.00     0.261 C 
BRANCH   5   6
ATOM      6  O   UNL     1      -0.328   6.314  -3.755  1.00  0.00    -0.463 OA
BRANCH   6   7
ATOM      7  C   UNL     1       0.923   6.806  -3.611  1.00  0.00     0.310 C 
ATOM      8  O   UNL     1       1.242   7.823  -3.010  1.00  0.00    -0.252 OA
BRANCH   7   9
ATOM      9  C   UNL     1       1.960   5.933  -4.133  1.00  0.00     0.118 C 
ATOM     10  C   UNL     1       2.590   6.001  -5.477  1.00  0.00     0.100 C 
ATOM     11  C   UNL     1       3.441   6.385  -4.267  1.00  0.00    -0.009 C 
ATOM     12  C   UNL     1       4.356   5.436  -3.510  1.00  0.00     0.013 C 
ATOM     13  C   UNL     1       4.081   7.746  -4.318  1.00  0.00     0.013 C 
BRANCH  10  14
ATOM     14  C   UNL     1       1.969   6.740  -6.639  1.00  0.00     0.228 C 
ATOM     15  N   UNL     1       1.200   7.887  -6.768  1.00  0.00    -0.326 N 
ATOM     16  H   UNL     1       0.764   7.880  -7.651  1.00  0.00     0.169 HD
ATOM     17  O   UNL     1       2.058   6.124  -7.711  1.00  0.00    -0.274 OA
BRANCH  15  18
ATOM     18  C   UNL     1       0.822   9.062  -6.084  1.00  0.00     0.041 A 
ATOM     19  C   UNL     1      -0.742  10.934  -5.845  1.00  0.00     0.041 A 
ATOM     20  C   UNL     1      -0.220  11.242  -4.589  1.00  0.00     0.014 A 
ATOM     21  C   UNL     1      -0.221   9.853  -6.595  1.00  0.00     0.040 A 
ATOM     22  C   UNL     1       0.879  10.548  -4.142  1.00  0.00     0.003 A 
ATOM     23  C   UNL     1       1.409   9.523  -4.930  1.00  0.00     0.026 A 
BRANCH  19  24
ATOM     24  C   UNL     1      -1.798  11.853  -6.314  1.00  0.00     0.251 C 
ATOM     25  N   UNL     1      -2.963  11.395  -6.853  1.00  0.00    -0.350 N 
ATOM     26  H   UNL     1      -3.596  12.100  -7.123  1.00  0.00     0.164 HD
ATOM     27  O   UNL     1      -1.645  13.064  -6.157  1.00  0.00    -0.269 OA
BRANCH  25  28
ATOM     28  C   UNL     1      -3.427  10.038  -7.095  1.00  0.00     0.076 C 
ATOM     29  C   UNL     1      -4.829   9.863  -6.524  1.00  0.00     0.030 C 
ATOM     30  C   UNL     1      -3.394   9.771  -8.595  1.00  0.00     0.030 C 
ENDBRANCH  25  28
ENDBRANCH  19  24
ENDBRANCH  15  18
ENDBRANCH  10  14
ENDBRANCH   7   9
ENDBRANCH   6   7
ENDBRANCH   5   6
ENDBRANCH   4   5
ENDBRANCH   3   4
ENDBRANCH   2   3
ENDBRANCH   1   2
BRANCH   1  31
ATOM     31  O   UNL     1      -0.828   5.048  -1.062  1.00  0.00    -0.377 OA
BRANCH  31  32
ATOM     32  C   UNL     1      -2.181   5.057  -0.610  1.00  0.00     0.188 C 
BRANCH  32  33
ATOM     33  C   UNL     1      -2.610   5.869   0.638  1.00  0.00     0.188 C 
BRANCH  33  34
ATOM     34  O   UNL     1      -1.548   6.413   1.397  1.00  0.00    -0.376 OA
BRANCH  34  35
ATOM     35  C   UNL     1      -1.132   5.767   2.582  1.00  0.00     0.202 C 
BRANCH  35  36
ATOM     36  C   UNL     1      -0.716   4.292   2.515  1.00  0.00     0.261 C 
BRANCH  36  37
ATOM     37  O   UNL     1      -1.622   3.398   1.856  1.00  0.00    -0.460 OA
BRANCH  37  38
ATOM     38  C   UNL     1      -2.849   3.240   2.403  1.00  0.00     0.338 C 
ATOM     39  O   UNL     1      -3.268   3.756   3.422  1.00  0.00    -0.246 OA
BRANCH  38  40
ATOM     40  C   UNL     1      -3.675   2.511   1.415  1.00  0.00     0.060 A 
ATOM     41  C   UNL     1      -4.829   3.123   0.903  1.00  0.00     0.016 A 
ATOM     42  C   UNL     1      -3.282   1.250   0.962  1.00  0.00     0.016 A 
ATOM     43  C   UNL     1      -5.612   2.461  -0.041  1.00  0.00     0.010 A 
ATOM     44  C   UNL     1      -4.087   0.572   0.046  1.00  0.00     0.010 A 
ATOM     45  C   UNL     1      -5.274   1.160  -0.427  1.00  0.00    -0.014 A 
BRANCH  45  46
ATOM     46  C   UNL     1      -6.286   0.324  -1.110  1.00  0.00     0.031 A 
ATOM     47  C   UNL     1      -7.129  -0.586  -0.260  1.00  0.00     0.074 A 
ATOM     48  C   UNL     1      -6.468   0.375  -2.440  1.00  0.00     0.049 A 
ATOM     49  N   UNL     1      -8.044  -1.447  -0.618  1.00  0.00    -0.248 NA
ATOM     50  C   UNL     1      -6.899  -0.516   1.193  1.00  0.00     0.031 C 
ATOM     51  C   UNL     1      -5.747   1.251  -3.361  1.00  0.00     0.029 A 
ATOM     52  N   UNL     1      -7.316  -0.343  -3.245  1.00  0.00    -0.354 N 
ATOM     53  C   UNL     1      -8.483  -2.037   0.562  1.00  0.00     0.074 A 
ATOM     54  C   UNL     1      -7.716  -1.456   1.641  1.00  0.00     0.031 C 
ATOM     55  C   UNL     1      -6.170   1.003  -4.613  1.00  0.00     0.029 A 
ATOM     56  C   UNL     1      -7.161  -0.073  -4.583  1.00  0.00     0.049 A 
ATOM     57  H   UNL     1      -7.971  -0.990  -2.898  1.00  0.00     0.167 HD
ATOM     58  C   UNL     1      -9.437  -2.982   0.732  1.00  0.00     0.031 A 
ATOM     59  C   UNL     1      -7.731  -0.651  -5.660  1.00  0.00     0.031 A 
ATOM     60  C   UNL     1     -10.175  -3.575  -0.351  1.00  0.00     0.049 A 
ATOM     61  C   UNL     1      -8.741  -1.750  -5.460  1.00  0.00     0.074 A 
ATOM     62  C   UNL     1     -11.181  -4.522  -0.289  1.00  0.00     0.029 A 
ATOM     63  N   UNL     1      -9.971  -3.294  -1.695  1.00  0.00    -0.354 N 
ATOM     64  N   UNL     1      -9.178  -2.275  -4.338  1.00  0.00    -0.248 NA
ATOM     65  C   UNL     1      -9.345  -2.326  -6.669  1.00  0.00     0.031 C 
ATOM     66  C   UNL     1     -11.530  -4.870  -1.597  1.00  0.00     0.029 A 
ATOM     67  C   UNL     1     -10.803  -4.079  -2.474  1.00  0.00     0.049 A 
ATOM     68  H   UNL     1      -9.329  -2.634  -2.043  1.00  0.00     0.167 HD
ATOM     69  C   UNL     1     -10.125  -3.227  -4.705  1.00  0.00     0.074 A 
ATOM     70  C   UNL     1     -10.206  -3.194  -6.152  1.00  0.00     0.031 C 
ATOM     71  C   UNL     1     -10.864  -4.047  -3.916  1.00  0.00     0.031 A 
BRANCH  58  72
ATOM     72  C   UNL     1      -9.675  -3.475   2.136  1.00  0.00    -0.014 A 
ATOM     73  C   UNL     1     -10.221  -2.644   3.132  1.00  0.00     0.010 A 
ATOM     74  C   UNL     1      -9.329  -4.798   2.467  1.00  0.00     0.010 A 
ATOM     75  C   UNL     1     -10.355  -3.106   4.444  1.00  0.00     0.020 A 
ATOM     76  C   UNL     1      -9.496  -5.276   3.769  1.00  0.00     0.020 A 
ATOM     77  C   UNL     1      -9.985  -4.417   4.755  1.00  0.00     0.054 A 
BRANCH  77  78
ATOM     78  S   UNL     1     -10.154  -4.986   6.469  1.00  0.00     0.124 S 
ATOM     79  O   UNL     1      -9.087  -4.247   7.138  1.00  0.00    -0.237 OA
ATOM     80  O   UNL     1     -11.513  -4.573   6.809  1.00  0.00    -0.237 OA
ATOM     81  O   UNL     1      -9.949  -6.430   6.378  1.00  0.00    -0.744 OA
ENDBRANCH  77  78
ENDBRANCH  58  72
BRANCH  59  82
ATOM     82  C   UNL     1      -7.331  -0.204  -7.022  1.00  0.00    -0.014 A 
ATOM     83  C   UNL     1      -8.215   0.531  -7.830  1.00  0.00     0.010 A 
ATOM     84  C   UNL     1      -6.032  -0.469  -7.497  1.00  0.00     0.010 A 
ATOM     85  C   UNL     1      -7.803   1.006  -9.079  1.00  0.00     0.020 A 
ATOM     86  C   UNL     1      -5.607   0.028  -8.732  1.00  0.00     0.020 A 
ATOM     87  C   UNL     1      -6.496   0.765  -9.515  1.00  0.00     0.054 A 
BRANCH  87  88
ATOM     88  S   UNL     1      -5.952   1.491 -11.086  1.00  0.00     0.124 S 
ATOM     89  O   UNL     1      -6.712   0.716 -12.061  1.00  0.00    -0.237 OA
ATOM     90  O   UNL     1      -6.352   2.889 -10.938  1.00  0.00    -0.237 OA
ATOM     91  O   UNL     1      -4.509   1.262 -11.089  1.00  0.00    -0.744 OA
ENDBRANCH  87  88
ENDBRANCH  59  82
BRANCH  71  92
ATOM     92  C   UNL     1     -11.855  -4.963  -4.591  1.00  0.00    -0.014 A 
ATOM     93  C   UNL     1     -11.437  -6.063  -5.360  1.00  0.00     0.010 A 
ATOM     94  C   UNL     1     -13.233  -4.752  -4.394  1.00  0.00     0.010 A 
ATOM     95  C   UNL     1     -12.378  -6.916  -5.945  1.00  0.00     0.020 A 
ATOM     96  C   UNL     1     -14.176  -5.621  -4.949  1.00  0.00     0.020 A 
ATOM     97  C   UNL     1     -13.742  -6.691  -5.734  1.00  0.00     0.054 A 
BRANCH  97  98
ATOM     98  S   UNL     1     -14.941  -7.837  -6.468  1.00  0.00     0.124 S 
ATOM     99  O   UNL     1     -14.842  -7.511  -7.888  1.00  0.00    -0.237 OA
ATOM    100  O   UNL     1     -14.411  -9.142  -6.084  1.00  0.00    -0.237 OA
ATOM    101  O   UNL     1     -16.205  -7.472  -5.833  1.00  0.00    -0.744 OA
ENDBRANCH  97  98
ENDBRANCH  71  92
ENDBRANCH  45  46
ENDBRANCH  38  40
ENDBRANCH  37  38
ENDBRANCH  36  37
ENDBRANCH  35  36
ENDBRANCH  34  35
ENDBRANCH  33  34
ENDBRANCH  32  33
ENDBRANCH  31  32
ENDBRANCH   1  31
TORSDOF 27
