REMARK SMILES O=C(OCCOCCOCCOCCOC(=O)c1ccc(-c2c3nc(c(-c4ccc(S(=O)(=O)[O-])cc4)c4ccc([nH]4)c(-c4ccc(S(=O)(=O)[O-])cc4)c4nc(c(-c5ccc(S(=O)(=O)[O-])cc5)c5ccc2[nH]5)C=C4)C=C3)cc1)C1=NN(c2ccc([N+](=O)[O-])cc2)[C@H](c2ccccc2)C1
REMARK SMILES IDX 10 1 9 2 8 3 7 4 6 5 5 6 4 7 3 8 2 9 1 10 78 11 79 12 97 13
REMARK SMILES IDX 80 14 90 15 81 16 82 17 89 18 83 19 88 20 84 21 85 22 86 23
REMARK SMILES IDX 87 24 91 25 92 26 96 27 93 28 95 29 94 30 11 31 12 32 13 33
REMARK SMILES IDX 14 34 15 35 16 36 17 37 18 38 19 39 77 40 20 41 76 42 21 43
REMARK SMILES IDX 22 44 23 45 70 46 24 47 75 48 69 49 71 50 25 51 74 52 68 53
REMARK SMILES IDX 67 54 26 56 56 57 37 58 55 59 38 60 41 61 54 62 72 63 39 64
REMARK SMILES IDX 40 65 53 67 73 68 42 69 27 70 28 71 36 72 29 73 35 74 30 75
REMARK SMILES IDX 31 76 32 77 33 78 34 79 57 80 58 81 66 82 59 83 65 84 60 85
REMARK SMILES IDX 61 86 62 87 63 88 64 89 43 90 44 91 52 92 45 93 51 94 46 95
REMARK SMILES IDX 47 96 48 97 49 98 50 99
REMARK H PARENT 71 55 41 66
REMARK Flexibility Score: inf
ROOT
ATOM      1  C   UNL     1       3.979   2.994   2.025  1.00  0.00     0.188 C 
ENDROOT
BRANCH   1   2
ATOM      2  O   UNL     1       2.573   2.936   2.171  1.00  0.00    -0.377 OA
BRANCH   2   3
ATOM      3  C   UNL     1       1.945   1.673   2.027  1.00  0.00     0.188 C 
BRANCH   3   4
ATOM      4  C   UNL     1       2.554   0.576   1.143  1.00  0.00     0.188 C 
BRANCH   4   5
ATOM      5  O   UNL     1       3.925   0.285   1.305  1.00  0.00    -0.376 OA
BRANCH   5   6
ATOM      6  C   UNL     1       4.864   0.390   0.240  1.00  0.00     0.202 C 
BRANCH   6   7
ATOM      7  C   UNL     1       4.482   0.156  -1.226  1.00  0.00     0.261 C 
BRANCH   7   8
ATOM      8  O   UNL     1       3.177  -0.330  -1.583  1.00  0.00    -0.459 OA
BRANCH   8   9
ATOM      9  C   UNL     1       2.647  -1.517  -1.301  1.00  0.00     0.354 C 
ATOM     10  O   UNL     1       1.631  -1.927  -1.850  1.00  0.00    -0.245 OA
BRANCH   9  11
ATOM     11  C   UNL     1       3.208  -2.363  -0.190  1.00  0.00     0.148 C 
ATOM     12  N   UNL     1       4.381  -2.230   0.343  1.00  0.00    -0.169 NA
ATOM     13  C   UNL     1       2.356  -3.452   0.411  1.00  0.00     0.098 C 
ATOM     14  N   UNL     1       4.418  -3.154   1.329  1.00  0.00    -0.257 N 
ATOM     15  C   UNL     1       3.496  -4.255   1.051  1.00  0.00     0.144 C 
BRANCH  14  16
ATOM     16  C   UNL     1       5.365  -3.087   2.330  1.00  0.00     0.061 A 
ATOM     17  C   UNL     1       5.035  -2.603   3.605  1.00  0.00     0.035 A 
ATOM     18  C   UNL     1       6.686  -3.486   2.094  1.00  0.00     0.035 A 
ATOM     19  C   UNL     1       5.978  -2.586   4.641  1.00  0.00     0.088 A 
ATOM     20  C   UNL     1       7.634  -3.502   3.120  1.00  0.00     0.088 A 
ATOM     21  C   UNL     1       7.269  -3.067   4.398  1.00  0.00     0.269 A 
BRANCH  21  22
ATOM     22  N   UNL     1       8.242  -3.146   5.494  1.00  0.00     0.062 N 
ATOM     23  O   UNL     1       7.924  -2.661   6.589  1.00  0.00    -0.258 OA
ATOM     24  O   UNL     1       9.315  -3.728   5.270  1.00  0.00    -0.258 OA
ENDBRANCH  21  22
ENDBRANCH  14  16
BRANCH  15  25
ATOM     25  C   UNL     1       4.220  -5.216   0.096  1.00  0.00    -0.023 A 
ATOM     26  C   UNL     1       4.132  -5.107  -1.307  1.00  0.00     0.006 A 
ATOM     27  C   UNL     1       5.184  -6.084   0.630  1.00  0.00     0.006 A 
ATOM     28  C   UNL     1       5.040  -5.762  -2.137  1.00  0.00     0.000 A 
ATOM     29  C   UNL     1       6.094  -6.737  -0.203  1.00  0.00     0.000 A 
ATOM     30  C   UNL     1       6.034  -6.559  -1.583  1.00  0.00     0.000 A 
ENDBRANCH  15  25
ENDBRANCH   9  11
ENDBRANCH   8   9
ENDBRANCH   7   8
ENDBRANCH   6   7
ENDBRANCH   5   6
ENDBRANCH   4   5
ENDBRANCH   3   4
ENDBRANCH   2   3
ENDBRANCH   1   2
BRANCH   1  31
ATOM     31  C   UNL     1       4.865   2.264   3.067  1.00  0.00     0.188 C 
BRANCH  31  32
ATOM     32  O   UNL     1       4.240   1.232   3.798  1.00  0.00    -0.376 OA
BRANCH  32  33
ATOM     33  C   UNL     1       3.533   1.496   4.994  1.00  0.00     0.202 C 
BRANCH  33  34
ATOM     34  C   UNL     1       2.982   2.865   5.443  1.00  0.00     0.261 C 
BRANCH  34  35
ATOM     35  O   UNL     1       3.373   4.031   4.725  1.00  0.00    -0.460 OA
BRANCH  35  36
ATOM     36  C   UNL     1       4.516   4.641   5.107  1.00  0.00     0.338 C 
ATOM     37  O   UNL     1       5.271   4.299   6.002  1.00  0.00    -0.246 OA
BRANCH  36  38
ATOM     38  C   UNL     1       4.817   5.656   4.075  1.00  0.00     0.060 A 
ATOM     39  C   UNL     1       6.028   5.571   3.367  1.00  0.00     0.016 A 
ATOM     40  C   UNL     1       3.867   6.624   3.745  1.00  0.00     0.016 A 
ATOM     41  C   UNL     1       6.298   6.467   2.335  1.00  0.00     0.010 A 
ATOM     42  C   UNL     1       4.156   7.548   2.743  1.00  0.00     0.010 A 
ATOM     43  C   UNL     1       5.385   7.493   2.061  1.00  0.00    -0.014 A 
BRANCH  43  44
ATOM     44  C   UNL     1       5.819   8.688   1.306  1.00  0.00     0.031 A 
ATOM     45  C   UNL     1       6.358   9.835   2.113  1.00  0.00     0.074 A 
ATOM     46  C   UNL     1       5.688   8.783  -0.026  1.00  0.00     0.049 A 
ATOM     47  N   UNL     1       6.640  11.053   1.741  1.00  0.00    -0.248 NA
ATOM     48  C   UNL     1       6.588   9.569   3.545  1.00  0.00     0.031 C 
ATOM     49  C   UNL     1       5.232   7.716  -0.914  1.00  0.00     0.029 A 
ATOM     50  N   UNL     1       5.903   9.852  -0.859  1.00  0.00    -0.354 N 
ATOM     51  C   UNL     1       7.051  11.707   2.897  1.00  0.00     0.074 A 
ATOM     52  C   UNL     1       6.964  10.758   3.983  1.00  0.00     0.031 C 
ATOM     53  C   UNL     1       5.172   8.197  -2.170  1.00  0.00     0.029 A 
ATOM     54  C   UNL     1       5.536   9.614  -2.161  1.00  0.00     0.049 A 
ATOM     55  H   UNL     1       6.283  10.707  -0.552  1.00  0.00     0.167 HD
ATOM     56  C   UNL     1       7.453  12.990   3.043  1.00  0.00     0.031 A 
ATOM     57  C   UNL     1       5.462  10.457  -3.211  1.00  0.00     0.031 A 
ATOM     58  C   UNL     1       7.499  13.932   1.960  1.00  0.00     0.049 A 
ATOM     59  C   UNL     1       5.843  11.904  -3.019  1.00  0.00     0.074 A 
ATOM     60  C   UNL     1       7.897  15.255   1.988  1.00  0.00     0.029 A 
ATOM     61  N   UNL     1       7.115  13.653   0.656  1.00  0.00    -0.354 N 
ATOM     62  N   UNL     1       6.244  12.514  -1.927  1.00  0.00    -0.248 NA
ATOM     63  C   UNL     1       5.767  12.776  -4.199  1.00  0.00     0.031 C 
ATOM     64  C   UNL     1       7.692  15.794   0.715  1.00  0.00     0.029 A 
ATOM     65  C   UNL     1       7.243  14.786  -0.126  1.00  0.00     0.049 A 
ATOM     66  H   UNL     1       6.799  12.777   0.335  1.00  0.00     0.167 HD
ATOM     67  C   UNL     1       6.504  13.830  -2.297  1.00  0.00     0.074 A 
ATOM     68  C   UNL     1       6.213  13.928  -3.713  1.00  0.00     0.031 C 
ATOM     69  C   UNL     1       6.956  14.860  -1.538  1.00  0.00     0.031 A 
BRANCH  56  70
ATOM     70  C   UNL     1       7.801  13.447   4.434  1.00  0.00    -0.014 A 
ATOM     71  C   UNL     1       8.924  12.943   5.117  1.00  0.00     0.010 A 
ATOM     72  C   UNL     1       6.973  14.383   5.080  1.00  0.00     0.010 A 
ATOM     73  C   UNL     1       9.176  13.320   6.438  1.00  0.00     0.020 A 
ATOM     74  C   UNL     1       7.242  14.791   6.388  1.00  0.00     0.020 A 
ATOM     75  C   UNL     1       8.329  14.238   7.067  1.00  0.00     0.054 A 
BRANCH  75  76
ATOM     76  S   UNL     1       8.674  14.704   8.785  1.00  0.00     0.124 S 
ATOM     77  O   UNL     1       8.302  13.490   9.507  1.00  0.00    -0.237 OA
ATOM     78  O   UNL     1      10.104  15.002   8.754  1.00  0.00    -0.237 OA
ATOM     79  O   UNL     1       7.805  15.856   9.014  1.00  0.00    -0.744 OA
ENDBRANCH  75  76
ENDBRANCH  56  70
BRANCH  57  80
ATOM     80  C   UNL     1       4.989   9.951  -4.528  1.00  0.00    -0.014 A 
ATOM     81  C   UNL     1       5.882   9.810  -5.605  1.00  0.00     0.010 A 
ATOM     82  C   UNL     1       3.647   9.561  -4.700  1.00  0.00     0.010 A 
ATOM     83  C   UNL     1       5.444   9.284  -6.824  1.00  0.00     0.020 A 
ATOM     84  C   UNL     1       3.212   9.008  -5.908  1.00  0.00     0.020 A 
ATOM     85  C   UNL     1       4.115   8.874  -6.964  1.00  0.00     0.054 A 
BRANCH  85  86
ATOM     86  S   UNL     1       3.599   8.103  -8.524  1.00  0.00     0.124 S 
ATOM     87  O   UNL     1       3.625   9.233  -9.447  1.00  0.00    -0.237 OA
ATOM     88  O   UNL     1       4.634   7.092  -8.729  1.00  0.00    -0.237 OA
ATOM     89  O   UNL     1       2.272   7.571  -8.221  1.00  0.00    -0.744 OA
ENDBRANCH  85  86
ENDBRANCH  57  80
BRANCH  69  90
ATOM     90  C   UNL     1       7.231  16.175  -2.220  1.00  0.00    -0.014 A 
ATOM     91  C   UNL     1       6.192  17.017  -2.651  1.00  0.00     0.010 A 
ATOM     92  C   UNL     1       8.563  16.619  -2.330  1.00  0.00     0.010 A 
ATOM     93  C   UNL     1       6.482  18.273  -3.193  1.00  0.00     0.020 A 
ATOM     94  C   UNL     1       8.855  17.884  -2.842  1.00  0.00     0.020 A 
ATOM     95  C   UNL     1       7.811  18.701  -3.278  1.00  0.00     0.054 A 
BRANCH  95  96
ATOM     96  S   UNL     1       8.155  20.365  -3.913  1.00  0.00     0.124 S 
ATOM     97  O   UNL     1       7.854  20.217  -5.334  1.00  0.00    -0.237 OA
ATOM     98  O   UNL     1       7.221  21.195  -3.156  1.00  0.00    -0.237 OA
ATOM     99  O   UNL     1       9.565  20.575  -3.593  1.00  0.00    -0.744 OA
ENDBRANCH  95  96
ENDBRANCH  69  90
ENDBRANCH  43  44
ENDBRANCH  36  38
ENDBRANCH  35  36
ENDBRANCH  34  35
ENDBRANCH  33  34
ENDBRANCH  32  33
ENDBRANCH  31  32
ENDBRANCH   1  31
TORSDOF 26
