REMARK SMILES CS(=O)(=O)c1ccc(-n2nc(C(F)(F)F)cc2-c2ccc(CC(=O)OCCOCCOCCOCCOC(=O)c3ccc(-c4c5nc(c(-c6ccc(S(=O)(=O)[O-])cc6)c6ccc([nH]6)c(-c6ccc(S(=O)(=O)[O-])cc6)c6nc(c(-c7ccc(S(=O)(=O)[O-])cc7)c7ccc4[nH]7)C=C6)C=C5)cc3)cc2)cc1
REMARK SMILES IDX 30 1 29 2 28 3 27 4 26 5 25 6 23 7 24 8 22 9 21 10 18 11
REMARK SMILES IDX 19 12 101 13 20 14 100 15 17 16 9 17 10 18 11 19 16 20 8 21
REMARK SMILES IDX 5 22 6 23 103 24 7 25 102 26 2 27 1 28 3 29 4 30 12 31 13 32
REMARK SMILES IDX 14 33 15 34 31 35 32 36 33 37 34 38 35 39 36 40 37 41 38 42
REMARK SMILES IDX 39 43 40 44 41 45 99 46 42 47 98 48 43 49 44 50 45 51 92 52
REMARK SMILES IDX 46 53 97 54 91 55 93 56 47 57 96 58 90 59 89 60 48 62 78 63
REMARK SMILES IDX 59 64 77 65 60 66 63 67 76 68 94 69 61 70 62 71 75 73 95 74
REMARK SMILES IDX 64 75 49 76 50 77 58 78 51 79 57 80 52 81 53 82 54 83 55 84
REMARK SMILES IDX 56 85 79 86 80 87 88 88 81 89 87 90 82 91 83 92 84 93 85 94
REMARK SMILES IDX 86 95 65 96 66 97 74 98 67 99 73 100 68 101 69 102 70 103
REMARK SMILES IDX 71 104 72 105
REMARK H PARENT 93 61 63 72
REMARK Flexibility Score: inf
ROOT
ATOM      1  C   UNL     1       4.665  -2.923   0.600  1.00  0.00     0.188 C 
ENDROOT
BRANCH   1   2
ATOM      2  C   UNL     1       5.971  -2.949  -0.231  1.00  0.00     0.188 C 
BRANCH   2   3
ATOM      3  O   UNL     1       5.985  -2.457  -1.555  1.00  0.00    -0.376 OA
BRANCH   3   4
ATOM      4  C   UNL     1       5.035  -2.884  -2.508  1.00  0.00     0.202 C 
BRANCH   4   5
ATOM      5  C   UNL     1       4.233  -4.208  -2.398  1.00  0.00     0.261 C 
BRANCH   5   6
ATOM      6  O   UNL     1       4.252  -4.947  -1.147  1.00  0.00    -0.463 OA
BRANCH   6   7
ATOM      7  C   UNL     1       5.218  -5.876  -0.996  1.00  0.00     0.310 C 
ATOM      8  O   UNL     1       5.971  -6.188  -1.921  1.00  0.00    -0.252 OA
BRANCH   7   9
ATOM      9  C   UNL     1       5.453  -6.454   0.405  1.00  0.00     0.158 C 
BRANCH   9  10
ATOM     10  C   UNL     1       4.652  -6.194   1.689  1.00  0.00    -0.037 A 
ATOM     11  C   UNL     1       3.342  -5.979   4.267  1.00  0.00     0.000 A 
ATOM     12  C   UNL     1       4.533  -5.290   3.998  1.00  0.00     0.010 A 
ATOM     13  C   UNL     1       2.816  -6.759   3.225  1.00  0.00     0.010 A 
ATOM     14  C   UNL     1       5.186  -5.417   2.747  1.00  0.00     0.005 A 
ATOM     15  C   UNL     1       3.447  -6.851   1.956  1.00  0.00     0.005 A 
BRANCH  11  16
ATOM     16  C   UNL     1       2.624  -5.849   5.562  1.00  0.00     0.075 A 
ATOM     17  N   UNL     1       2.065  -4.683   6.087  1.00  0.00    -0.233 N 
ATOM     18  N   UNL     1       1.461  -4.871   7.271  1.00  0.00    -0.163 NA
ATOM     19  C   UNL     1       1.697  -6.136   7.611  1.00  0.00     0.167 A 
ATOM     20  C   UNL     1       2.443  -6.780   6.584  1.00  0.00     0.064 A 
BRANCH  17  21
ATOM     21  C   UNL     1       2.038  -3.377   5.580  1.00  0.00     0.065 A 
ATOM     22  C   UNL     1       1.805  -0.792   4.651  1.00  0.00     0.067 A 
ATOM     23  C   UNL     1       2.120  -1.855   3.775  1.00  0.00     0.022 A 
ATOM     24  C   UNL     1       1.813  -1.011   6.024  1.00  0.00     0.022 A 
ATOM     25  C   UNL     1       2.117  -3.155   4.223  1.00  0.00     0.030 A 
ATOM     26  C   UNL     1       1.927  -2.307   6.486  1.00  0.00     0.030 A 
BRANCH  22  27
ATOM     27  S   UNL     1       0.989   1.037   4.174  1.00  0.00     0.175 S 
ATOM     28  C   UNL     1      -0.955   0.959   2.513  1.00  0.00     0.163 C 
ATOM     29  O   UNL     1       2.192   1.799   3.876  1.00  0.00    -0.224 OA
ATOM     30  O   UNL     1       0.675   1.384   5.542  1.00  0.00    -0.224 OA
ENDBRANCH  22  27
ENDBRANCH  17  21
BRANCH  19  31
ATOM     31  C   UNL     1       1.196  -6.645   8.935  1.00  0.00     0.435 C 
ATOM     32  F   UNL     1       1.520  -5.812   9.960  1.00  0.00    -0.164 F 
ATOM     33  F   UNL     1      -0.156  -6.787   8.947  1.00  0.00    -0.164 F 
ATOM     34  F   UNL     1       1.722  -7.860   9.240  1.00  0.00    -0.164 F 
ENDBRANCH  19  31
ENDBRANCH  11  16
ENDBRANCH   9  10
ENDBRANCH   7   9
ENDBRANCH   6   7
ENDBRANCH   5   6
ENDBRANCH   4   5
ENDBRANCH   3   4
ENDBRANCH   2   3
ENDBRANCH   1   2
BRANCH   1  35
ATOM     35  O   UNL     1       3.442  -2.664  -0.048  1.00  0.00    -0.377 OA
BRANCH  35  36
ATOM     36  C   UNL     1       3.226  -1.362  -0.526  1.00  0.00     0.188 C 
BRANCH  36  37
ATOM     37  C   UNL     1       4.255  -0.249  -0.286  1.00  0.00     0.188 C 
BRANCH  37  38
ATOM     38  O   UNL     1       5.513  -0.413   0.329  1.00  0.00    -0.376 OA
BRANCH  38  39
ATOM     39  C   UNL     1       5.697  -0.090   1.718  1.00  0.00     0.202 C 
BRANCH  39  40
ATOM     40  C   UNL     1       4.559   0.168   2.738  1.00  0.00     0.261 C 
BRANCH  40  41
ATOM     41  O   UNL     1       3.172   0.144   2.302  1.00  0.00    -0.460 OA
BRANCH  41  42
ATOM     42  C   UNL     1       2.542   1.165   1.637  1.00  0.00     0.338 C 
ATOM     43  O   UNL     1       3.062   2.126   1.099  1.00  0.00    -0.246 OA
BRANCH  42  44
ATOM     44  C   UNL     1       1.053   0.996   1.824  1.00  0.00     0.060 A 
ATOM     45  C   UNL     1       0.392   2.545   2.424  1.00  0.00     0.016 A 
ATOM     46  C   UNL     1       0.381  -0.530   2.508  1.00  0.00     0.016 A 
ATOM     47  C   UNL     1      -0.744   2.599   3.808  1.00  0.00     0.010 A 
ATOM     48  C   UNL     1      -0.737  -0.506   3.939  1.00  0.00     0.010 A 
ATOM     49  C   UNL     1      -1.313   1.076   4.579  1.00  0.00    -0.014 A 
BRANCH  49  50
ATOM     50  C   UNL     1      -2.201   1.056   5.771  1.00  0.00     0.031 A 
ATOM     51  C   UNL     1      -3.502   0.636   5.207  1.00  0.00     0.074 A 
ATOM     52  C   UNL     1      -1.951   1.255   7.112  1.00  0.00     0.049 A 
ATOM     53  N   UNL     1      -4.270   1.422   4.512  1.00  0.00    -0.248 NA
ATOM     54  C   UNL     1      -3.796  -0.796   4.968  1.00  0.00     0.031 C 
ATOM     55  C   UNL     1      -0.691   1.522   7.831  1.00  0.00     0.029 A 
ATOM     56  N   UNL     1      -2.826   1.232   8.199  1.00  0.00    -0.354 N 
ATOM     57  C   UNL     1      -5.370   0.627   4.255  1.00  0.00     0.074 A 
ATOM     58  C   UNL     1      -4.840  -0.702   4.134  1.00  0.00     0.031 C 
ATOM     59  C   UNL     1      -0.810   1.361   9.172  1.00  0.00     0.029 A 
ATOM     60  C   UNL     1      -2.208   1.192   9.491  1.00  0.00     0.049 A 
ATOM     61  H   UNL     1      -3.804   1.243   8.085  1.00  0.00     0.167 HD
ATOM     62  C   UNL     1      -6.562   0.989   4.814  1.00  0.00     0.031 A 
ATOM     63  C   UNL     1      -2.782   1.230  10.740  1.00  0.00     0.031 A 
ATOM     64  C   UNL     1      -6.494   2.350   5.299  1.00  0.00     0.049 A 
ATOM     65  C   UNL     1      -4.084   1.887  10.546  1.00  0.00     0.074 A 
ATOM     66  C   UNL     1      -6.305   3.595   4.733  1.00  0.00     0.029 A 
ATOM     67  N   UNL     1      -6.099   2.440   6.612  1.00  0.00    -0.354 N 
ATOM     68  N   UNL     1      -4.195   3.149  10.242  1.00  0.00    -0.248 NA
ATOM     69  C   UNL     1      -5.232   1.047  10.256  1.00  0.00     0.031 C 
ATOM     70  C   UNL     1      -5.711   4.410   5.737  1.00  0.00     0.029 A 
ATOM     71  C   UNL     1      -5.676   3.701   6.933  1.00  0.00     0.049 A 
ATOM     72  H   UNL     1      -6.118   1.688   7.246  1.00  0.00     0.167 HD
ATOM     73  C   UNL     1      -5.196   3.155   9.295  1.00  0.00     0.074 A 
ATOM     74  C   UNL     1      -5.895   1.879   9.451  1.00  0.00     0.031 C 
ATOM     75  C   UNL     1      -5.116   4.001   8.230  1.00  0.00     0.031 A 
BRANCH  62  76
ATOM     76  C   UNL     1      -7.533  -0.000   5.431  1.00  0.00    -0.014 A 
ATOM     77  C   UNL     1      -8.787   0.471   5.859  1.00  0.00     0.010 A 
ATOM     78  C   UNL     1      -7.192  -1.318   5.809  1.00  0.00     0.010 A 
ATOM     79  C   UNL     1      -9.657  -0.343   6.597  1.00  0.00     0.020 A 
ATOM     80  C   UNL     1      -8.059  -2.148   6.518  1.00  0.00     0.020 A 
ATOM     81  C   UNL     1      -9.292  -1.654   6.906  1.00  0.00     0.054 A 
BRANCH  81  82
ATOM     82  S   UNL     1     -10.444  -2.715   7.806  1.00  0.00     0.124 S 
ATOM     83  O   UNL     1     -10.543  -2.034   9.092  1.00  0.00    -0.237 OA
ATOM     84  O   UNL     1     -11.632  -2.655   6.958  1.00  0.00    -0.237 OA
ATOM     85  O   UNL     1      -9.769  -4.011   7.829  1.00  0.00    -0.744 OA
ENDBRANCH  81  82
ENDBRANCH  62  76
BRANCH  63  86
ATOM     86  C   UNL     1      -2.466   0.655  12.102  1.00  0.00    -0.014 A 
ATOM     87  C   UNL     1      -3.161   1.070  13.274  1.00  0.00     0.010 A 
ATOM     88  C   UNL     1      -1.776  -0.566  12.195  1.00  0.00     0.010 A 
ATOM     89  C   UNL     1      -3.238   0.261  14.438  1.00  0.00     0.020 A 
ATOM     90  C   UNL     1      -1.852  -1.379  13.350  1.00  0.00     0.020 A 
ATOM     91  C   UNL     1      -2.605  -0.981  14.457  1.00  0.00     0.054 A 
BRANCH  91  92
ATOM     92  S   UNL     1      -2.868  -2.129  15.861  1.00  0.00     0.124 S 
ATOM     93  O   UNL     1      -2.157  -1.469  16.953  1.00  0.00    -0.237 OA
ATOM     94  O   UNL     1      -4.323  -2.161  15.990  1.00  0.00    -0.237 OA
ATOM     95  O   UNL     1      -2.265  -3.379  15.402  1.00  0.00    -0.744 OA
ENDBRANCH  91  92
ENDBRANCH  63  86
BRANCH  75  96
ATOM     96  C   UNL     1      -4.387   5.305   8.396  1.00  0.00    -0.014 A 
ATOM     97  C   UNL     1      -2.998   5.472   8.553  1.00  0.00     0.010 A 
ATOM     98  C   UNL     1      -5.195   6.449   8.283  1.00  0.00     0.010 A 
ATOM     99  C   UNL     1      -2.444   6.766   8.604  1.00  0.00     0.020 A 
ATOM    100  C   UNL     1      -4.652   7.728   8.311  1.00  0.00     0.020 A 
ATOM    101  C   UNL     1      -3.279   7.885   8.482  1.00  0.00     0.054 A 
BRANCH 101 102
ATOM    102  S   UNL     1      -2.580   9.560   8.528  1.00  0.00     0.124 S 
ATOM    103  O   UNL     1      -2.097   9.665   9.901  1.00  0.00    -0.237 OA
ATOM    104  O   UNL     1      -1.548   9.508   7.495  1.00  0.00    -0.237 OA
ATOM    105  O   UNL     1      -3.719  10.420   8.207  1.00  0.00    -0.744 OA
ENDBRANCH 101 102
ENDBRANCH  75  96
ENDBRANCH  49  50
ENDBRANCH  42  44
ENDBRANCH  41  42
ENDBRANCH  40  41
ENDBRANCH  39  40
ENDBRANCH  38  39
ENDBRANCH  37  38
ENDBRANCH  36  37
ENDBRANCH  35  36
ENDBRANCH   1  35
TORSDOF 28
