REMARK SMILES COc1ccc2c(c1)c(CC(=O)OCCOCCOCCOCCOC(=O)c1ccc(-c3c4nc(c(-c5ccc(S(=O)(=O)[O-])cc5)c5ccc([nH]5)c(-c5ccc(S(=O)(=O)[O-])cc5)c5nc(c(-c6ccc(S(=O)(=O)[O-])cc6)c6ccc3[nH]6)C=C5)C=C4)cc1)c(C)n2Cc1ccn(C(F)F)c(=O)c1
REMARK SMILES IDX 18 1 17 2 16 3 15 4 14 5 13 6 11 7 12 8 10 9 9 10 3 11 4 12
REMARK SMILES IDX 8 13 5 14 7 15 6 16 90 17 88 18 89 19 2 20 1 21 91 22 92 23
REMARK SMILES IDX 93 24 101 25 94 26 99 27 95 28 100 29 96 30 97 31 98 32
REMARK SMILES IDX 19 33 20 34 21 35 22 36 23 37 24 38 25 39 26 40 27 41 28 42
REMARK SMILES IDX 29 43 87 44 30 45 86 46 31 47 32 48 33 49 80 50 34 51 85 52
REMARK SMILES IDX 79 53 81 54 35 55 84 56 78 57 77 58 36 60 66 61 47 62 65 63
REMARK SMILES IDX 48 64 51 65 64 66 82 67 49 68 50 69 63 71 83 72 52 73 37 74
REMARK SMILES IDX 38 75 46 76 39 77 45 78 40 79 41 80 42 81 43 82 44 83 67 84
REMARK SMILES IDX 68 85 76 86 69 87 75 88 70 89 71 90 72 91 73 92 74 93 53 94
REMARK SMILES IDX 54 95 62 96 55 97 61 98 56 99 57 100 58 101 59 102 60 103
REMARK H PARENT 81 59 51 70
REMARK Flexibility Score: inf
ROOT
ATOM      1  C   UNL     1      -1.026   3.498   2.479  1.00  0.00     0.188 C 
ENDROOT
BRANCH   1   2
ATOM      2  C   UNL     1      -2.443   3.724   1.972  1.00  0.00     0.188 C 
BRANCH   2   3
ATOM      3  O   UNL     1      -2.703   5.094   1.746  1.00  0.00    -0.376 OA
BRANCH   3   4
ATOM      4  C   UNL     1      -3.268   5.871   2.792  1.00  0.00     0.202 C 
BRANCH   4   5
ATOM      5  C   UNL     1      -2.690   5.913   4.229  1.00  0.00     0.261 C 
BRANCH   5   6
ATOM      6  O   UNL     1      -2.155   4.713   4.830  1.00  0.00    -0.463 OA
BRANCH   6   7
ATOM      7  C   UNL     1      -2.993   3.726   5.209  1.00  0.00     0.310 C 
ATOM      8  O   UNL     1      -4.210   3.778   5.044  1.00  0.00    -0.252 OA
BRANCH   7   9
ATOM      9  C   UNL     1      -2.320   2.484   5.802  1.00  0.00     0.160 C 
BRANCH   9  10
ATOM     10  C   UNL     1      -0.805   2.346   5.782  1.00  0.00    -0.008 A 
ATOM     11  C   UNL     1       0.656   0.128   3.002  1.00  0.00     0.119 A 
ATOM     12  C   UNL     1       1.984   0.463   3.226  1.00  0.00     0.048 A 
ATOM     13  C   UNL     1      -0.334   0.605   3.872  1.00  0.00     0.057 A 
ATOM     14  C   UNL     1       2.344   1.295   4.298  1.00  0.00     0.031 A 
ATOM     15  C   UNL     1      -0.017   1.531   4.896  1.00  0.00     0.007 A 
ATOM     16  C   UNL     1       1.332   1.816   5.131  1.00  0.00     0.049 A 
ATOM     17  N   UNL     1       1.385   2.602   6.280  1.00  0.00    -0.340 N 
ATOM     18  C   UNL     1       0.090   2.818   6.737  1.00  0.00     0.020 A 
ATOM     19  C   UNL     1      -0.251   3.418   8.055  1.00  0.00     0.065 C 
BRANCH  11  20
ATOM     20  O   UNL     1       0.189  -0.642   1.972  1.00  0.00    -0.497 OA
ATOM     21  C   UNL     1       0.957  -0.674   0.773  1.00  0.00     0.278 C 
ENDBRANCH  11  20
BRANCH  17  22
ATOM     22  C   UNL     1       2.636   2.876   7.016  1.00  0.00     0.158 C 
BRANCH  22  23
ATOM     23  C   UNL     1       3.083   4.321   7.097  1.00  0.00    -0.021 A 
ATOM     24  C   UNL     1       2.494   5.178   8.106  1.00  0.00     0.024 A 
ATOM     25  C   UNL     1       4.097   4.821   6.366  1.00  0.00     0.077 A 
ATOM     26  C   UNL     1       2.812   6.473   8.189  1.00  0.00     0.095 A 
ATOM     27  C   UNL     1       4.547   6.241   6.525  1.00  0.00     0.255 A 
ATOM     28  N   UNL     1       3.788   7.019   7.383  1.00  0.00    -0.258 N 
ATOM     29  O   UNL     1       5.542   6.608   5.907  1.00  0.00    -0.269 OA
BRANCH  28  30
ATOM     30  C   UNL     1       4.131   8.413   7.528  1.00  0.00     0.451 C 
ATOM     31  F   UNL     1       5.268   8.543   8.257  1.00  0.00    -0.185 F 
ATOM     32  F   UNL     1       4.336   9.008   6.330  1.00  0.00    -0.185 F 
ENDBRANCH  28  30
ENDBRANCH  22  23
ENDBRANCH  17  22
ENDBRANCH   9  10
ENDBRANCH   7   9
ENDBRANCH   6   7
ENDBRANCH   5   6
ENDBRANCH   4   5
ENDBRANCH   3   4
ENDBRANCH   2   3
ENDBRANCH   1   2
BRANCH   1  33
ATOM     33  O   UNL     1       0.060   3.865   1.672  1.00  0.00    -0.377 OA
BRANCH  33  34
ATOM     34  C   UNL     1      -0.041   5.090   0.995  1.00  0.00     0.188 C 
BRANCH  34  35
ATOM     35  C   UNL     1      -0.421   4.886  -0.473  1.00  0.00     0.188 C 
BRANCH  35  36
ATOM     36  O   UNL     1       0.149   3.829  -1.260  1.00  0.00    -0.376 OA
BRANCH  36  37
ATOM     37  C   UNL     1       0.961   2.832  -0.653  1.00  0.00     0.202 C 
BRANCH  37  38
ATOM     38  C   UNL     1       2.447   3.206  -0.506  1.00  0.00     0.261 C 
BRANCH  38  39
ATOM     39  O   UNL     1       2.654   4.506   0.059  1.00  0.00    -0.460 OA
BRANCH  39  40
ATOM     40  C   UNL     1       3.294   5.430  -0.698  1.00  0.00     0.338 C 
ATOM     41  O   UNL     1       4.006   5.233  -1.671  1.00  0.00    -0.246 OA
BRANCH  40  42
ATOM     42  C   UNL     1       2.704   6.734  -0.328  1.00  0.00     0.060 A 
ATOM     43  C   UNL     1       2.681   7.161   1.004  1.00  0.00     0.016 A 
ATOM     44  C   UNL     1       1.885   7.339  -1.291  1.00  0.00     0.016 A 
ATOM     45  C   UNL     1       1.720   8.095   1.389  1.00  0.00     0.010 A 
ATOM     46  C   UNL     1       0.920   8.266  -0.898  1.00  0.00     0.010 A 
ATOM     47  C   UNL     1       0.800   8.606   0.451  1.00  0.00    -0.014 A 
BRANCH  47  48
ATOM     48  C   UNL     1      -0.077   9.698   0.895  1.00  0.00     0.031 A 
ATOM     49  C   UNL     1       0.698  10.917   1.254  1.00  0.00     0.074 A 
ATOM     50  C   UNL     1      -1.422   9.786   0.839  1.00  0.00     0.049 A 
ATOM     51  N   UNL     1       0.731  11.559   2.375  1.00  0.00    -0.248 NA
ATOM     52  C   UNL     1       1.658  11.390   0.242  1.00  0.00     0.031 C 
ATOM     53  C   UNL     1      -2.364   8.882   0.178  1.00  0.00     0.029 A 
ATOM     54  N   UNL     1      -2.226  10.808   1.277  1.00  0.00    -0.354 N 
ATOM     55  C   UNL     1       1.621  12.608   2.166  1.00  0.00     0.074 A 
ATOM     56  C   UNL     1       2.273  12.361   0.906  1.00  0.00     0.031 C 
ATOM     57  C   UNL     1      -3.561   9.505   0.061  1.00  0.00     0.029 A 
ATOM     58  C   UNL     1      -3.502  10.799   0.727  1.00  0.00     0.049 A 
ATOM     59  H   UNL     1      -1.925  11.488   1.923  1.00  0.00     0.167 HD
ATOM     60  C   UNL     1       1.656  13.726   2.937  1.00  0.00     0.031 A 
ATOM     61  C   UNL     1      -4.394  11.824   0.725  1.00  0.00     0.031 A 
ATOM     62  C   UNL     1       1.008  13.550   4.203  1.00  0.00     0.049 A 
ATOM     63  C   UNL     1      -3.992  12.799   1.769  1.00  0.00     0.074 A 
ATOM     64  C   UNL     1       1.200  12.695   5.270  1.00  0.00     0.029 A 
ATOM     65  N   UNL     1      -0.236  14.105   4.375  1.00  0.00    -0.354 N 
ATOM     66  N   UNL     1      -4.071  12.595   3.052  1.00  0.00    -0.248 NA
ATOM     67  C   UNL     1      -3.186  13.943   1.368  1.00  0.00     0.031 C 
ATOM     68  C   UNL     1      -0.101  12.442   5.787  1.00  0.00     0.029 A 
ATOM     69  C   UNL     1      -1.012  13.176   5.024  1.00  0.00     0.049 A 
ATOM     70  H   UNL     1      -0.520  15.003   4.088  1.00  0.00     0.167 HD
ATOM     71  C   UNL     1      -3.025  13.324   3.596  1.00  0.00     0.074 A 
ATOM     72  C   UNL     1      -2.593  14.220   2.530  1.00  0.00     0.031 C 
ATOM     73  C   UNL     1      -2.423  12.952   4.764  1.00  0.00     0.031 A 
BRANCH  60  74
ATOM     74  C   UNL     1       2.059  15.064   2.381  1.00  0.00    -0.014 A 
ATOM     75  C   UNL     1       2.008  15.348   0.998  1.00  0.00     0.010 A 
ATOM     76  C   UNL     1       2.304  16.144   3.247  1.00  0.00     0.010 A 
ATOM     77  C   UNL     1       2.262  16.618   0.489  1.00  0.00     0.020 A 
ATOM     78  C   UNL     1       2.503  17.441   2.748  1.00  0.00     0.020 A 
ATOM     79  C   UNL     1       2.497  17.663   1.370  1.00  0.00     0.054 A 
BRANCH  79  80
ATOM     80  S   UNL     1       2.696  19.322   0.676  1.00  0.00     0.124 S 
ATOM     81  O   UNL     1       4.031  19.243   0.090  1.00  0.00    -0.237 OA
ATOM     82  O   UNL     1       1.592  19.398  -0.277  1.00  0.00    -0.237 OA
ATOM     83  O   UNL     1       2.571  20.194   1.841  1.00  0.00    -0.744 OA
ENDBRANCH  79  80
ENDBRANCH  60  74
BRANCH  61  84
ATOM     84  C   UNL     1      -5.344  12.211  -0.356  1.00  0.00    -0.014 A 
ATOM     85  C   UNL     1      -5.118  11.794  -1.682  1.00  0.00     0.010 A 
ATOM     86  C   UNL     1      -6.281  13.247  -0.149  1.00  0.00     0.010 A 
ATOM     87  C   UNL     1      -5.719  12.444  -2.764  1.00  0.00     0.020 A 
ATOM     88  C   UNL     1      -6.879  13.914  -1.232  1.00  0.00     0.020 A 
ATOM     89  C   UNL     1      -6.557  13.533  -2.535  1.00  0.00     0.054 A 
BRANCH  89  90
ATOM     90  S   UNL     1      -7.108  14.499  -3.968  1.00  0.00     0.124 S 
ATOM     91  O   UNL     1      -5.854  15.082  -4.438  1.00  0.00    -0.237 OA
ATOM     92  O   UNL     1      -7.686  13.475  -4.836  1.00  0.00    -0.237 OA
ATOM     93  O   UNL     1      -8.065  15.446  -3.403  1.00  0.00    -0.744 OA
ENDBRANCH  89  90
ENDBRANCH  61  84
BRANCH  73  94
ATOM     94  C   UNL     1      -3.129  11.990   5.697  1.00  0.00    -0.014 A 
ATOM     95  C   UNL     1      -3.136  12.309   7.069  1.00  0.00     0.010 A 
ATOM     96  C   UNL     1      -3.616  10.729   5.305  1.00  0.00     0.010 A 
ATOM     97  C   UNL     1      -3.570  11.387   8.024  1.00  0.00     0.020 A 
ATOM     98  C   UNL     1      -4.082   9.809   6.256  1.00  0.00     0.020 A 
ATOM     99  C   UNL     1      -4.024  10.134   7.613  1.00  0.00     0.054 A 
BRANCH  99 100
ATOM    100  S   UNL     1      -4.497   8.929   8.882  1.00  0.00     0.124 S 
ATOM    101  O   UNL     1      -3.198   8.512   9.408  1.00  0.00    -0.237 OA
ATOM    102  O   UNL     1      -5.315   9.722   9.796  1.00  0.00    -0.237 OA
ATOM    103  O   UNL     1      -5.220   7.901   8.137  1.00  0.00    -0.744 OA
ENDBRANCH  99 100
ENDBRANCH  73  94
ENDBRANCH  47  48
ENDBRANCH  40  42
ENDBRANCH  39  40
ENDBRANCH  38  39
ENDBRANCH  37  38
ENDBRANCH  36  37
ENDBRANCH  35  36
ENDBRANCH  34  35
ENDBRANCH  33  34
ENDBRANCH   1  33
TORSDOF 28
