REMARK SMILES O=C(OCCOCCOCCOCCOC(=O)c1ccc(-c2c3nc(c(-c4ccc(S(=O)(=O)[O-])cc4)c4ccc([nH]4)c(-c4ccc(S(=O)(=O)[O-])cc4)c4nc(c(-c5ccc(S(=O)(=O)[O-])cc5)c5ccc2[nH]5)C=C4)C=C3)cc1)C1=Cc2cc(Cl)cc(-c3ccc(Cl)cc3)c2O[C@@H]1C(F)(F)F
REMARK SMILES IDX 10 1 9 2 8 3 7 4 6 5 5 6 4 7 3 8 2 9 1 10 78 11 79 12 95 13
REMARK SMILES IDX 80 14 94 15 81 16 93 17 82 18 85 19 83 20 84 21 96 22 97 23
REMARK SMILES IDX 98 24 99 25 86 26 87 27 92 28 88 29 91 30 89 31 90 32 11 33
REMARK SMILES IDX 12 34 13 35 14 36 15 37 16 38 17 39 18 40 19 41 77 42 20 43
REMARK SMILES IDX 76 44 21 45 22 46 23 47 70 48 24 49 75 50 69 51 71 52 25 53
REMARK SMILES IDX 74 54 68 55 67 56 26 58 56 59 37 60 55 61 38 62 41 63 54 64
REMARK SMILES IDX 72 65 39 66 40 67 53 69 73 70 42 71 27 72 28 73 36 74 29 75
REMARK SMILES IDX 35 76 30 77 31 78 32 79 33 80 34 81 57 82 58 83 66 84 59 85
REMARK SMILES IDX 65 86 60 87 61 88 62 89 63 90 64 91 43 92 44 93 52 94 45 95
REMARK SMILES IDX 51 96 46 97 47 98 48 99 49 100 50 101
REMARK H PARENT 71 57 41 68
REMARK Flexibility Score: inf
ROOT
ATOM      1  C   UNL     1       2.541  -4.370  -1.323  1.00  0.00     0.188 C 
ENDROOT
BRANCH   1   2
ATOM      2  O   UNL     1       1.357  -3.971  -2.011  1.00  0.00    -0.377 OA
BRANCH   2   3
ATOM      3  C   UNL     1       0.521  -3.058  -1.300  1.00  0.00     0.188 C 
BRANCH   3   4
ATOM      4  C   UNL     1       0.996  -1.616  -1.438  1.00  0.00     0.188 C 
BRANCH   4   5
ATOM      5  O   UNL     1       2.275  -1.410  -0.876  1.00  0.00    -0.376 OA
BRANCH   5   6
ATOM      6  C   UNL     1       2.411  -1.474   0.531  1.00  0.00     0.202 C 
BRANCH   6   7
ATOM      7  C   UNL     1       2.160  -0.171   1.311  1.00  0.00     0.261 C 
BRANCH   7   8
ATOM      8  O   UNL     1       1.848   0.989   0.499  1.00  0.00    -0.460 OA
BRANCH   8   9
ATOM      9  C   UNL     1       2.659   2.084   0.610  1.00  0.00     0.338 C 
ATOM     10  O   UNL     1       2.318   3.115   1.170  1.00  0.00    -0.246 OA
BRANCH   9  11
ATOM     11  C   UNL     1       3.970   1.908  -0.051  1.00  0.00     0.087 C 
ATOM     12  C   UNL     1       5.085   2.458   0.457  1.00  0.00     0.027 C 
ATOM     13  C   UNL     1       4.104   0.833  -1.072  1.00  0.00     0.316 C 
ATOM     14  C   UNL     1       6.197   1.480   0.563  1.00  0.00     0.019 A 
ATOM     15  O   UNL     1       4.903  -0.248  -0.533  1.00  0.00    -0.475 OA
ATOM     16  C   UNL     1       7.388   1.811   1.205  1.00  0.00     0.032 A 
ATOM     17  C   UNL     1       5.877   0.117   0.374  1.00  0.00     0.135 A 
ATOM     18  C   UNL     1       8.200   0.792   1.705  1.00  0.00     0.042 A 
ATOM     19  C   UNL     1       6.518  -0.869   1.159  1.00  0.00     0.026 A 
ATOM     20  Cl  UNL     1       9.720   1.177   2.407  1.00  0.00    -0.084 Cl
ATOM     21  C   UNL     1       7.742  -0.525   1.745  1.00  0.00     0.033 A 
BRANCH  13  22
ATOM     22  C   UNL     1       4.435   1.377  -2.469  1.00  0.00     0.430 C 
ATOM     23  F   UNL     1       4.243   0.446  -3.432  1.00  0.00    -0.167 F 
ATOM     24  F   UNL     1       3.589   2.405  -2.774  1.00  0.00    -0.167 F 
ATOM     25  F   UNL     1       5.690   1.853  -2.591  1.00  0.00    -0.167 F 
ENDBRANCH  13  22
BRANCH  19  26
ATOM     26  C   UNL     1       5.834  -2.088   1.656  1.00  0.00    -0.015 A 
ATOM     27  C   UNL     1       5.279  -2.095   2.962  1.00  0.00     0.010 A 
ATOM     28  C   UNL     1       5.695  -3.250   0.901  1.00  0.00     0.010 A 
ATOM     29  C   UNL     1       4.561  -3.191   3.465  1.00  0.00     0.021 A 
ATOM     30  C   UNL     1       4.944  -4.334   1.390  1.00  0.00     0.021 A 
ATOM     31  C   UNL     1       4.369  -4.300   2.658  1.00  0.00     0.041 A 
ATOM     32  Cl  UNL     1       3.445  -5.639   3.218  1.00  0.00    -0.084 Cl
ENDBRANCH  19  26
ENDBRANCH   9  11
ENDBRANCH   8   9
ENDBRANCH   7   8
ENDBRANCH   6   7
ENDBRANCH   5   6
ENDBRANCH   4   5
ENDBRANCH   3   4
ENDBRANCH   2   3
ENDBRANCH   1   2
BRANCH   1  33
ATOM     33  C   UNL     1       3.854  -3.807  -1.906  1.00  0.00     0.188 C 
BRANCH  33  34
ATOM     34  O   UNL     1       4.199  -3.902  -3.282  1.00  0.00    -0.376 OA
BRANCH  34  35
ATOM     35  C   UNL     1       3.231  -4.371  -4.194  1.00  0.00     0.202 C 
BRANCH  35  36
ATOM     36  C   UNL     1       2.998  -5.892  -4.170  1.00  0.00     0.261 C 
BRANCH  36  37
ATOM     37  O   UNL     1       3.561  -6.577  -3.034  1.00  0.00    -0.460 OA
BRANCH  37  38
ATOM     38  C   UNL     1       4.908  -6.727  -3.019  1.00  0.00     0.338 C 
ATOM     39  O   UNL     1       5.668  -6.505  -3.950  1.00  0.00    -0.246 OA
BRANCH  38  40
ATOM     40  C   UNL     1       5.360  -7.087  -1.639  1.00  0.00     0.060 A 
ATOM     41  C   UNL     1       6.640  -6.688  -1.229  1.00  0.00     0.016 A 
ATOM     42  C   UNL     1       4.551  -7.795  -0.741  1.00  0.00     0.016 A 
ATOM     43  C   UNL     1       7.136  -7.049   0.036  1.00  0.00     0.010 A 
ATOM     44  C   UNL     1       5.043  -8.143   0.531  1.00  0.00     0.010 A 
ATOM     45  C   UNL     1       6.360  -7.816   0.915  1.00  0.00    -0.014 A 
BRANCH  45  46
ATOM     46  C   UNL     1       6.982  -8.466   2.112  1.00  0.00     0.031 A 
ATOM     47  C   UNL     1       7.338  -9.929   2.016  1.00  0.00     0.074 A 
ATOM     48  C   UNL     1       7.264  -7.814   3.260  1.00  0.00     0.049 A 
ATOM     49  N   UNL     1       7.951 -10.691   2.887  1.00  0.00    -0.248 NA
ATOM     50  C   UNL     1       6.975 -10.618   0.766  1.00  0.00     0.031 C 
ATOM     51  C   UNL     1       7.045  -6.396   3.510  1.00  0.00     0.029 A 
ATOM     52  N   UNL     1       7.782  -8.274   4.451  1.00  0.00    -0.354 N 
ATOM     53  C   UNL     1       8.100 -11.924   2.267  1.00  0.00     0.074 A 
ATOM     54  C   UNL     1       7.420 -11.843   0.993  1.00  0.00     0.031 C 
ATOM     55  C   UNL     1       7.326  -6.116   4.795  1.00  0.00     0.029 A 
ATOM     56  C   UNL     1       7.806  -7.328   5.452  1.00  0.00     0.049 A 
ATOM     57  H   UNL     1       8.104  -9.196   4.576  1.00  0.00     0.167 HD
ATOM     58  C   UNL     1       8.791 -13.011   2.682  1.00  0.00     0.031 A 
ATOM     59  C   UNL     1       8.187  -7.413   6.745  1.00  0.00     0.031 A 
ATOM     60  C   UNL     1       9.437 -13.129   3.959  1.00  0.00     0.049 A 
ATOM     61  C   UNL     1       8.830  -8.682   7.245  1.00  0.00     0.074 A 
ATOM     62  C   UNL     1      10.172 -14.191   4.457  1.00  0.00     0.029 A 
ATOM     63  N   UNL     1       9.412 -12.161   4.951  1.00  0.00    -0.354 N 
ATOM     64  N   UNL     1       9.056  -9.802   6.601  1.00  0.00    -0.248 NA
ATOM     65  C   UNL     1       9.329  -8.675   8.629  1.00  0.00     0.031 C 
ATOM     66  C   UNL     1      10.542 -13.889   5.772  1.00  0.00     0.029 A 
ATOM     67  C   UNL     1      10.093 -12.612   6.069  1.00  0.00     0.049 A 
ATOM     68  H   UNL     1       8.975 -11.283   4.872  1.00  0.00     0.167 HD
ATOM     69  C   UNL     1       9.777 -10.606   7.480  1.00  0.00     0.074 A 
ATOM     70  C   UNL     1       9.950  -9.844   8.698  1.00  0.00     0.031 C 
ATOM     71  C   UNL     1      10.266 -11.856   7.284  1.00  0.00     0.031 A 
BRANCH  58  72
ATOM     72  C   UNL     1       8.894 -14.156   1.711  1.00  0.00    -0.014 A 
ATOM     73  C   UNL     1       9.666 -14.027   0.540  1.00  0.00     0.010 A 
ATOM     74  C   UNL     1       8.231 -15.368   1.967  1.00  0.00     0.010 A 
ATOM     75  C   UNL     1       9.736 -15.073  -0.380  1.00  0.00     0.020 A 
ATOM     76  C   UNL     1       8.323 -16.429   1.062  1.00  0.00     0.020 A 
ATOM     77  C   UNL     1       9.061 -16.267  -0.114  1.00  0.00     0.054 A 
BRANCH  77  78
ATOM     78  S   UNL     1       9.183 -17.614  -1.322  1.00  0.00     0.124 S 
ATOM     79  O   UNL     1       8.377 -17.100  -2.427  1.00  0.00    -0.237 OA
ATOM     80  O   UNL     1      10.619 -17.688  -1.573  1.00  0.00    -0.237 OA
ATOM     81  O   UNL     1       8.615 -18.762  -0.619  1.00  0.00    -0.744 OA
ENDBRANCH  77  78
ENDBRANCH  58  72
BRANCH  59  82
ATOM     82  C   UNL     1       8.010  -6.253   7.667  1.00  0.00    -0.014 A 
ATOM     83  C   UNL     1       9.115  -5.525   8.143  1.00  0.00     0.010 A 
ATOM     84  C   UNL     1       6.723  -5.906   8.120  1.00  0.00     0.010 A 
ATOM     85  C   UNL     1       8.943  -4.501   9.081  1.00  0.00     0.020 A 
ATOM     86  C   UNL     1       6.543  -4.866   9.038  1.00  0.00     0.020 A 
ATOM     87  C   UNL     1       7.657  -4.179   9.524  1.00  0.00     0.054 A 
BRANCH  87  88
ATOM     88  S   UNL     1       7.456  -2.829  10.722  1.00  0.00     0.124 S 
ATOM     89  O   UNL     1       8.020  -3.410  11.936  1.00  0.00    -0.237 OA
ATOM     90  O   UNL     1       8.234  -1.753  10.113  1.00  0.00    -0.237 OA
ATOM     91  O   UNL     1       6.012  -2.606  10.746  1.00  0.00    -0.744 OA
ENDBRANCH  87  88
ENDBRANCH  59  82
BRANCH  71  92
ATOM     92  C   UNL     1      11.083 -12.470   8.394  1.00  0.00    -0.014 A 
ATOM     93  C   UNL     1      10.501 -12.847   9.617  1.00  0.00     0.010 A 
ATOM     94  C   UNL     1      12.458 -12.701   8.194  1.00  0.00     0.010 A 
ATOM     95  C   UNL     1      11.286 -13.394  10.636  1.00  0.00     0.020 A 
ATOM     96  C   UNL     1      13.239 -13.280   9.198  1.00  0.00     0.020 A 
ATOM     97  C   UNL     1      12.652 -13.604  10.421  1.00  0.00     0.054 A 
BRANCH  97  98
ATOM     98  S   UNL     1      13.645 -14.331  11.754  1.00  0.00     0.124 S 
ATOM     99  O   UNL     1      13.752 -13.219  12.694  1.00  0.00    -0.237 OA
ATOM    100  O   UNL     1      12.818 -15.451  12.196  1.00  0.00    -0.237 OA
ATOM    101  O   UNL     1      14.891 -14.708  11.091  1.00  0.00    -0.744 OA
ENDBRANCH  97  98
ENDBRANCH  71  92
ENDBRANCH  45  46
ENDBRANCH  38  40
ENDBRANCH  37  38
ENDBRANCH  36  37
ENDBRANCH  35  36
ENDBRANCH  34  35
ENDBRANCH  33  34
ENDBRANCH   1  33
TORSDOF 25
