REMARK SMILES Cc1ccc(NC(=O)C[C@H]([NH2+]Cc2cccnc2)C(=O)OCCOCCOCCOCCOC(=O)c2ccc(-c3c4nc(c(-c5ccc(S(=O)(=O)[O-])cc5)c5ccc([nH]5)c(-c5ccc(S(=O)(=O)[O-])cc5)c5nc(c(-c6ccc(S(=O)(=O)[O-])cc6)c6ccc3[nH]6)C=C5)C=C4)cc2)cc1Cl
REMARK SMILES IDX 27 1 26 2 25 3 24 4 23 5 22 6 21 7 19 8 20 9 10 10 9 11 7 12
REMARK SMILES IDX 6 13 8 15 5 16 1 17 2 18 3 19 97 20 4 21 96 22 98 23 11 24
REMARK SMILES IDX 12 27 13 28 14 29 18 30 15 31 17 32 16 33 28 34 29 35 30 36
REMARK SMILES IDX 31 37 32 38 33 39 34 40 35 41 36 42 37 43 95 44 38 45 94 46
REMARK SMILES IDX 39 47 40 48 41 49 88 50 42 51 93 52 87 53 89 54 43 55 92 56
REMARK SMILES IDX 86 57 85 58 44 60 74 61 55 62 73 63 56 64 59 65 72 66 90 67
REMARK SMILES IDX 57 68 58 69 71 71 91 72 60 73 45 74 46 75 54 76 47 77 53 78
REMARK SMILES IDX 48 79 49 80 50 81 51 82 52 83 75 84 76 85 84 86 77 87 83 88
REMARK SMILES IDX 78 89 79 90 80 91 81 92 82 93 61 94 62 95 70 96 63 97 69 98
REMARK SMILES IDX 64 99 65 100 66 101 67 102 68 103
REMARK H PARENT 6 14 11 25 11 26 89 59 59 70
REMARK Flexibility Score: inf
ROOT
ATOM      1  O   UNL     1       2.921  -4.851   0.317  1.00  0.00    -0.377 OA
ENDROOT
BRANCH   1   2
ATOM      2  C   UNL     1       2.205  -5.385  -0.772  1.00  0.00     0.188 C 
BRANCH   2   3
ATOM      3  C   UNL     1       2.936  -5.349  -2.111  1.00  0.00     0.188 C 
BRANCH   3   4
ATOM      4  O   UNL     1       3.894  -4.345  -2.422  1.00  0.00    -0.376 OA
BRANCH   4   5
ATOM      5  C   UNL     1       4.178  -3.308  -1.498  1.00  0.00     0.202 C 
BRANCH   5   6
ATOM      6  C   UNL     1       3.158  -2.161  -1.438  1.00  0.00     0.261 C 
BRANCH   6   7
ATOM      7  O   UNL     1       1.807  -2.450  -1.012  1.00  0.00    -0.459 OA
BRANCH   7   8
ATOM      8  C   UNL     1       0.851  -2.589  -1.971  1.00  0.00     0.365 C 
ATOM      9  O   UNL     1       1.085  -2.825  -3.152  1.00  0.00    -0.245 OA
BRANCH   8  10
ATOM     10  C   UNL     1      -0.589  -2.328  -1.451  1.00  0.00     0.303 C 
BRANCH  10  11
ATOM     11  C   UNL     1      -0.621  -0.975  -0.754  1.00  0.00     0.177 C 
BRANCH  11  12
ATOM     12  C   UNL     1       0.155  -0.532   0.481  1.00  0.00     0.231 C 
ATOM     13  N   UNL     1       0.325  -1.114   1.690  1.00  0.00    -0.326 N 
ATOM     14  H   UNL     1       0.590  -0.436   2.352  1.00  0.00     0.169 HD
ATOM     15  O   UNL     1       0.539   0.655   0.451  1.00  0.00    -0.274 OA
BRANCH  13  16
ATOM     16  C   UNL     1       0.245  -2.375   2.305  1.00  0.00     0.042 A 
ATOM     17  C   UNL     1      -0.227  -6.126   4.457  1.00  0.00     0.046 C 
ATOM     18  C   UNL     1      -0.004  -4.842   3.717  1.00  0.00    -0.032 A 
ATOM     19  C   UNL     1       0.117  -3.629   4.402  1.00  0.00     0.007 A 
ATOM     20  C   UNL     1       0.045  -4.804   2.326  1.00  0.00     0.046 A 
ATOM     21  C   UNL     1       0.229  -2.414   3.703  1.00  0.00     0.026 A 
ATOM     22  C   UNL     1       0.245  -3.590   1.654  1.00  0.00     0.047 A 
ATOM     23  Cl  UNL     1      -0.200  -6.245   1.394  1.00  0.00    -0.084 Cl
ENDBRANCH  13  16
ENDBRANCH  11  12
ENDBRANCH  10  11
BRANCH  10  24
ATOM     24  N   UNL     1      -1.267  -3.461  -0.775  1.00  0.00    -0.330 N 
ATOM     25  H   UNL     1      -0.750  -3.673   0.079  1.00  0.00     0.347 HD
ATOM     26  H   UNL     1      -1.275  -4.226  -1.449  1.00  0.00     0.347 HD
BRANCH  24  27
ATOM     27  C   UNL     1      -2.670  -3.227  -0.410  1.00  0.00     0.299 C 
BRANCH  27  28
ATOM     28  C   UNL     1      -3.094  -3.920   0.865  1.00  0.00     0.024 A 
ATOM     29  C   UNL     1      -3.431  -5.275   0.912  1.00  0.00     0.013 A 
ATOM     30  C   UNL     1      -3.175  -3.216   2.069  1.00  0.00     0.120 A 
ATOM     31  C   UNL     1      -3.808  -5.858   2.124  1.00  0.00     0.021 A 
ATOM     32  N   UNL     1      -3.558  -3.749   3.255  1.00  0.00    -0.264 NA
ATOM     33  C   UNL     1      -3.853  -5.063   3.257  1.00  0.00     0.111 A 
ENDBRANCH  27  28
ENDBRANCH  24  27
ENDBRANCH  10  24
ENDBRANCH   8  10
ENDBRANCH   7   8
ENDBRANCH   6   7
ENDBRANCH   5   6
ENDBRANCH   4   5
ENDBRANCH   3   4
ENDBRANCH   2   3
ENDBRANCH   1   2
BRANCH   1  34
ATOM     34  C   UNL     1       3.460  -5.765   1.254  1.00  0.00     0.188 C 
BRANCH  34  35
ATOM     35  C   UNL     1       4.348  -6.875   0.686  1.00  0.00     0.188 C 
BRANCH  35  36
ATOM     36  O   UNL     1       3.767  -7.907  -0.096  1.00  0.00    -0.376 OA
BRANCH  36  37
ATOM     37  C   UNL     1       2.643  -8.674   0.299  1.00  0.00     0.202 C 
BRANCH  37  38
ATOM     38  C   UNL     1       2.260  -9.060   1.736  1.00  0.00     0.261 C 
BRANCH  38  39
ATOM     39  O   UNL     1       2.611  -8.154   2.778  1.00  0.00    -0.460 OA
BRANCH  39  40
ATOM     40  C   UNL     1       3.736  -8.476   3.444  1.00  0.00     0.338 C 
ATOM     41  O   UNL     1       4.468  -9.440   3.227  1.00  0.00    -0.246 OA
BRANCH  40  42
ATOM     42  C   UNL     1       4.079  -7.405   4.388  1.00  0.00     0.060 A 
ATOM     43  C   UNL     1       5.353  -6.838   4.290  1.00  0.00     0.016 A 
ATOM     44  C   UNL     1       3.211  -7.038   5.420  1.00  0.00     0.016 A 
ATOM     45  C   UNL     1       5.798  -5.963   5.273  1.00  0.00     0.010 A 
ATOM     46  C   UNL     1       3.658  -6.157   6.408  1.00  0.00     0.010 A 
ATOM     47  C   UNL     1       4.978  -5.674   6.371  1.00  0.00    -0.014 A 
BRANCH  47  48
ATOM     48  C   UNL     1       5.607  -5.090   7.579  1.00  0.00     0.031 A 
ATOM     49  C   UNL     1       5.984  -6.018   8.706  1.00  0.00     0.074 A 
ATOM     50  C   UNL     1       5.929  -3.786   7.633  1.00  0.00     0.049 A 
ATOM     51  N   UNL     1       6.601  -5.753   9.828  1.00  0.00    -0.248 NA
ATOM     52  C   UNL     1       5.619  -7.437   8.544  1.00  0.00     0.031 C 
ATOM     53  C   UNL     1       5.665  -2.805   6.582  1.00  0.00     0.029 A 
ATOM     54  N   UNL     1       6.566  -3.070   8.613  1.00  0.00    -0.354 N 
ATOM     55  C   UNL     1       6.691  -6.964  10.505  1.00  0.00     0.074 A 
ATOM     56  C   UNL     1       6.030  -7.958   9.690  1.00  0.00     0.031 C 
ATOM     57  C   UNL     1       6.146  -1.611   6.972  1.00  0.00     0.029 A 
ATOM     58  C   UNL     1       6.723  -1.740   8.309  1.00  0.00     0.049 A 
ATOM     59  H   UNL     1       6.881  -3.471   9.455  1.00  0.00     0.167 HD
ATOM     60  C   UNL     1       7.283  -7.231  11.693  1.00  0.00     0.031 A 
ATOM     61  C   UNL     1       7.264  -0.740   9.033  1.00  0.00     0.031 A 
ATOM     62  C   UNL     1       7.934  -6.238  12.504  1.00  0.00     0.049 A 
ATOM     63  C   UNL     1       7.856  -1.048  10.385  1.00  0.00     0.074 A 
ATOM     64  C   UNL     1       8.573  -6.405  13.720  1.00  0.00     0.029 A 
ATOM     65  N   UNL     1       8.025  -4.892  12.185  1.00  0.00    -0.354 N 
ATOM     66  N   UNL     1       7.951  -2.202  11.002  1.00  0.00    -0.248 NA
ATOM     67  C   UNL     1       8.428   0.082  11.130  1.00  0.00     0.031 C 
ATOM     68  C   UNL     1       8.993  -5.148  14.167  1.00  0.00     0.029 A 
ATOM     69  C   UNL     1       8.684  -4.210  13.194  1.00  0.00     0.049 A 
ATOM     70  H   UNL     1       7.672  -4.481  11.362  1.00  0.00     0.167 HD
ATOM     71  C   UNL     1       8.626  -1.942  12.192  1.00  0.00     0.074 A 
ATOM     72  C   UNL     1       8.926  -0.524  12.198  1.00  0.00     0.031 C 
ATOM     73  C   UNL     1       8.972  -2.798  13.186  1.00  0.00     0.031 A 
BRANCH  60  74
ATOM     74  C   UNL     1       7.215  -8.647  12.203  1.00  0.00    -0.014 A 
ATOM     75  C   UNL     1       7.933  -9.687  11.583  1.00  0.00     0.010 A 
ATOM     76  C   UNL     1       6.441  -8.937  13.341  1.00  0.00     0.010 A 
ATOM     77  C   UNL     1       7.846 -10.995  12.069  1.00  0.00     0.020 A 
ATOM     78  C   UNL     1       6.376 -10.237  13.849  1.00  0.00     0.020 A 
ATOM     79  C   UNL     1       7.067 -11.261  13.200  1.00  0.00     0.054 A 
BRANCH  79  80
ATOM     80  S   UNL     1       6.991 -12.963  13.823  1.00  0.00     0.124 S 
ATOM     81  O   UNL     1       6.193 -13.625  12.794  1.00  0.00    -0.237 OA
ATOM     82  O   UNL     1       8.399 -13.348  13.871  1.00  0.00    -0.237 OA
ATOM     83  O   UNL     1       6.340 -12.828  15.124  1.00  0.00    -0.744 OA
ENDBRANCH  79  80
ENDBRANCH  60  74
BRANCH  61  84
ATOM     84  C   UNL     1       7.263   0.650   8.498  1.00  0.00    -0.014 A 
ATOM     85  C   UNL     1       8.463   1.291   8.144  1.00  0.00     0.010 A 
ATOM     86  C   UNL     1       6.048   1.343   8.344  1.00  0.00     0.010 A 
ATOM     87  C   UNL     1       8.450   2.606   7.667  1.00  0.00     0.020 A 
ATOM     88  C   UNL     1       6.027   2.646   7.839  1.00  0.00     0.020 A 
ATOM     89  C   UNL     1       7.231   3.273   7.515  1.00  0.00     0.054 A 
BRANCH  89  90
ATOM     90  S   UNL     1       7.234   4.962   6.851  1.00  0.00     0.124 S 
ATOM     91  O   UNL     1       7.794   5.724   7.963  1.00  0.00    -0.237 OA
ATOM     92  O   UNL     1       8.091   4.834   5.675  1.00  0.00    -0.237 OA
ATOM     93  O   UNL     1       5.825   5.218   6.562  1.00  0.00    -0.744 OA
ENDBRANCH  89  90
ENDBRANCH  61  84
BRANCH  73  94
ATOM     94  C   UNL     1       9.756  -2.237  14.346  1.00  0.00    -0.014 A 
ATOM     95  C   UNL     1       9.172  -1.358  15.274  1.00  0.00     0.010 A 
ATOM     96  C   UNL     1      11.094  -2.636  14.529  1.00  0.00     0.010 A 
ATOM     97  C   UNL     1       9.926  -0.850  16.337  1.00  0.00     0.020 A 
ATOM     98  C   UNL     1      11.839  -2.158  15.610  1.00  0.00     0.020 A 
ATOM     99  C   UNL     1      11.256  -1.252  16.496  1.00  0.00     0.054 A 
BRANCH  99 100
ATOM    100  S   UNL     1      12.205  -0.596  17.895  1.00  0.00     0.124 S 
ATOM    101  O   UNL     1      12.431   0.787  17.486  1.00  0.00    -0.237 OA
ATOM    102  O   UNL     1      11.289  -0.779  19.018  1.00  0.00    -0.237 OA
ATOM    103  O   UNL     1      13.399  -1.438  17.930  1.00  0.00    -0.744 OA
ENDBRANCH  99 100
ENDBRANCH  73  94
ENDBRANCH  47  48
ENDBRANCH  40  42
ENDBRANCH  39  40
ENDBRANCH  38  39
ENDBRANCH  37  38
ENDBRANCH  36  37
ENDBRANCH  35  36
ENDBRANCH  34  35
ENDBRANCH   1  34
TORSDOF 29
