REMARK SMILES CC[C@H](NC(=O)N1CCO[C@@H](CC(=O)OCCOCCOCCOCCOC(=O)c2ccc(-c3c4nc(c(-c5ccc(S(=O)(=O)[O-])cc5)c5ccc([nH]5)c(-c5ccc(S(=O)(=O)[O-])cc5)c5nc(c(-c6ccc(S(=O)(=O)[O-])cc6)c6ccc3[nH]6)C=C5)C=C4)cc2)C1)c1cccs1
REMARK SMILES IDX 20 1 19 2 18 3 17 4 16 5 15 6 13 7 14 8 12 9 11 10 7 11 8 12
REMARK SMILES IDX 90 13 9 14 10 15 5 16 4 17 6 19 3 20 2 21 1 22 91 23 92 24
REMARK SMILES IDX 95 25 93 26 94 27 21 28 22 29 23 30 24 31 25 32 26 33 27 34
REMARK SMILES IDX 28 35 29 36 30 37 31 38 89 39 32 40 88 41 33 42 34 43 35 44
REMARK SMILES IDX 82 45 36 46 87 47 81 48 83 49 37 50 86 51 80 52 79 53 38 55
REMARK SMILES IDX 68 56 49 57 67 58 50 59 53 60 66 61 84 62 51 63 52 64 65 66
REMARK SMILES IDX 85 67 54 68 39 69 40 70 48 71 41 72 47 73 42 74 43 75 44 76
REMARK SMILES IDX 45 77 46 78 69 79 70 80 78 81 71 82 77 83 72 84 73 85 74 86
REMARK SMILES IDX 75 87 76 88 55 89 56 90 64 91 57 92 63 93 58 94 59 95 60 96
REMARK SMILES IDX 61 97 62 98
REMARK H PARENT 4 18 83 54 53 65
REMARK Flexibility Score: inf
ROOT
ATOM      1  C   UNL     1       1.301   0.987   3.718  1.00  0.00     0.188 C 
ENDROOT
BRANCH   1   2
ATOM      2  C   UNL     1       1.538   2.014   4.831  1.00  0.00     0.188 C 
BRANCH   2   3
ATOM      3  O   UNL     1       0.492   2.904   5.188  1.00  0.00    -0.376 OA
BRANCH   3   4
ATOM      4  C   UNL     1      -0.024   3.809   4.213  1.00  0.00     0.202 C 
BRANCH   4   5
ATOM      5  C   UNL     1       0.915   4.591   3.280  1.00  0.00     0.261 C 
BRANCH   5   6
ATOM      6  O   UNL     1       1.726   3.797   2.385  1.00  0.00    -0.463 OA
BRANCH   6   7
ATOM      7  C   UNL     1       3.063   3.951   2.497  1.00  0.00     0.308 C 
ATOM      8  O   UNL     1       3.608   4.647   3.351  1.00  0.00    -0.252 OA
BRANCH   7   9
ATOM      9  C   UNL     1       3.878   3.280   1.419  1.00  0.00     0.156 C 
BRANCH   9  10
ATOM     10  C   UNL     1       3.455   1.954   0.794  1.00  0.00     0.149 C 
ATOM     11  N   UNL     1       2.058   0.748  -0.848  1.00  0.00    -0.320 N 
ATOM     12  C   UNL     1       3.252   0.338  -1.575  1.00  0.00     0.150 C 
ATOM     13  C   UNL     1       2.240   2.036  -0.151  1.00  0.00     0.154 C 
ATOM     14  C   UNL     1       4.425   0.247  -0.605  1.00  0.00     0.182 C 
ATOM     15  O   UNL     1       4.635   1.502   0.058  1.00  0.00    -0.374 OA
BRANCH  11  16
ATOM     16  C   UNL     1       0.804   0.244  -0.992  1.00  0.00     0.318 C 
ATOM     17  N   UNL     1       0.578  -1.036  -1.334  1.00  0.00    -0.330 N 
ATOM     18  H   UNL     1      -0.303  -1.149  -1.759  1.00  0.00     0.166 HD
ATOM     19  O   UNL     1      -0.202   0.932  -0.804  1.00  0.00    -0.249 OA
BRANCH  17  20
ATOM     20  C   UNL     1       1.300  -2.306  -1.239  1.00  0.00     0.124 C 
BRANCH  20  21
ATOM     21  C   UNL     1       1.156  -2.891   0.184  1.00  0.00     0.027 C 
ATOM     22  C   UNL     1       2.252  -2.426   1.132  1.00  0.00     0.006 C 
ENDBRANCH  20  21
BRANCH  20  23
ATOM     23  C   UNL     1       0.745  -3.280  -2.281  1.00  0.00     0.027 A 
ATOM     24  C   UNL     1       0.954  -4.649  -2.367  1.00  0.00     0.017 A 
ATOM     25  S   UNL     1      -0.229  -2.748  -3.602  1.00  0.00    -0.147 S 
ATOM     26  C   UNL     1       0.266  -5.256  -3.457  1.00  0.00     0.012 A 
ATOM     27  C   UNL     1      -0.416  -4.330  -4.209  1.00  0.00     0.065 A 
ENDBRANCH  20  23
ENDBRANCH  17  20
ENDBRANCH  11  16
ENDBRANCH   9  10
ENDBRANCH   7   9
ENDBRANCH   6   7
ENDBRANCH   5   6
ENDBRANCH   4   5
ENDBRANCH   3   4
ENDBRANCH   2   3
ENDBRANCH   1   2
BRANCH   1  28
ATOM     28  O   UNL     1       0.458   1.454   2.690  1.00  0.00    -0.377 OA
BRANCH  28  29
ATOM     29  C   UNL     1      -0.889   0.986   2.640  1.00  0.00     0.188 C 
BRANCH  29  30
ATOM     30  C   UNL     1      -1.615   0.605   3.950  1.00  0.00     0.188 C 
BRANCH  30  31
ATOM     31  O   UNL     1      -0.940  -0.357   4.757  1.00  0.00    -0.376 OA
BRANCH  31  32
ATOM     32  C   UNL     1      -1.311  -1.722   4.589  1.00  0.00     0.202 C 
BRANCH  32  33
ATOM     33  C   UNL     1      -0.899  -2.344   3.250  1.00  0.00     0.261 C 
BRANCH  33  34
ATOM     34  O   UNL     1      -1.644  -1.860   2.121  1.00  0.00    -0.460 OA
BRANCH  34  35
ATOM     35  C   UNL     1      -2.966  -2.101   2.115  1.00  0.00     0.338 C 
ATOM     36  O   UNL     1      -3.582  -2.799   2.912  1.00  0.00    -0.246 OA
BRANCH  35  37
ATOM     37  C   UNL     1      -3.600  -1.231   1.110  1.00  0.00     0.060 A 
ATOM     38  C   UNL     1      -4.554  -0.310   1.555  1.00  0.00     0.016 A 
ATOM     39  C   UNL     1      -3.316  -1.358  -0.253  1.00  0.00     0.016 A 
ATOM     40  C   UNL     1      -5.284   0.432   0.631  1.00  0.00     0.010 A 
ATOM     41  C   UNL     1      -4.055  -0.612  -1.181  1.00  0.00     0.010 A 
ATOM     42  C   UNL     1      -5.081   0.244  -0.744  1.00  0.00    -0.014 A 
BRANCH  42  43
ATOM     43  C   UNL     1      -6.097   0.787  -1.684  1.00  0.00     0.031 A 
ATOM     44  C   UNL     1      -7.194  -0.129  -2.166  1.00  0.00     0.074 A 
ATOM     45  C   UNL     1      -6.115   2.090  -2.018  1.00  0.00     0.049 A 
ATOM     46  N   UNL     1      -8.258   0.151  -2.874  1.00  0.00    -0.248 NA
ATOM     47  C   UNL     1      -7.079  -1.549  -1.793  1.00  0.00     0.031 C 
ATOM     48  C   UNL     1      -5.131   3.086  -1.597  1.00  0.00     0.029 A 
ATOM     49  N   UNL     1      -7.013   2.802  -2.776  1.00  0.00    -0.354 N 
ATOM     50  C   UNL     1      -8.938  -1.052  -3.027  1.00  0.00     0.074 A 
ATOM     51  C   UNL     1      -8.150  -2.071  -2.371  1.00  0.00     0.031 C 
ATOM     52  C   UNL     1      -5.487   4.285  -2.092  1.00  0.00     0.029 A 
ATOM     53  C   UNL     1      -6.712   4.139  -2.878  1.00  0.00     0.049 A 
ATOM     54  H   UNL     1      -7.799   2.392  -3.205  1.00  0.00     0.167 HD
ATOM     55  C   UNL     1     -10.120  -1.290  -3.646  1.00  0.00     0.031 A 
ATOM     56  C   UNL     1      -7.350   5.132  -3.529  1.00  0.00     0.031 A 
ATOM     57  C   UNL     1     -10.899  -0.282  -4.314  1.00  0.00     0.049 A 
ATOM     58  C   UNL     1      -8.639   4.836  -4.253  1.00  0.00     0.074 A 
ATOM     59  C   UNL     1     -12.116  -0.422  -4.959  1.00  0.00     0.029 A 
ATOM     60  N   UNL     1     -10.534   1.050  -4.434  1.00  0.00    -0.354 N 
ATOM     61  N   UNL     1      -9.291   3.700  -4.350  1.00  0.00    -0.248 NA
ATOM     62  C   UNL     1      -9.289   5.962  -4.939  1.00  0.00     0.031 C 
ATOM     63  C   UNL     1     -12.460   0.814  -5.516  1.00  0.00     0.029 A 
ATOM     64  C   UNL     1     -11.489   1.738  -5.165  1.00  0.00     0.049 A 
ATOM     65  H   UNL     1      -9.718   1.448  -4.054  1.00  0.00     0.167 HD
ATOM     66  C   UNL     1     -10.438   3.982  -5.087  1.00  0.00     0.074 A 
ATOM     67  C   UNL     1     -10.400   5.397  -5.393  1.00  0.00     0.031 C 
ATOM     68  C   UNL     1     -11.434   3.145  -5.472  1.00  0.00     0.031 A 
BRANCH  55  69
ATOM     69  C   UNL     1     -10.620  -2.710  -3.658  1.00  0.00    -0.014 A 
ATOM     70  C   UNL     1     -11.108  -3.323  -2.489  1.00  0.00     0.010 A 
ATOM     71  C   UNL     1     -10.621  -3.436  -4.863  1.00  0.00     0.010 A 
ATOM     72  C   UNL     1     -11.549  -4.650  -2.517  1.00  0.00     0.020 A 
ATOM     73  C   UNL     1     -11.086  -4.753  -4.901  1.00  0.00     0.020 A 
ATOM     74  C   UNL     1     -11.529  -5.358  -3.723  1.00  0.00     0.054 A 
BRANCH  74  75
ATOM     75  S   UNL     1     -12.115  -7.075  -3.735  1.00  0.00     0.124 S 
ATOM     76  O   UNL     1     -11.021  -7.771  -3.062  1.00  0.00    -0.237 OA
ATOM     77  O   UNL     1     -13.365  -6.994  -2.983  1.00  0.00    -0.237 OA
ATOM     78  O   UNL     1     -12.266  -7.380  -5.156  1.00  0.00    -0.744 OA
ENDBRANCH  74  75
ENDBRANCH  55  69
BRANCH  56  79
ATOM     79  C   UNL     1      -6.777   6.507  -3.531  1.00  0.00    -0.014 A 
ATOM     80  C   UNL     1      -7.405   7.557  -2.838  1.00  0.00     0.010 A 
ATOM     81  C   UNL     1      -5.587   6.771  -4.235  1.00  0.00     0.010 A 
ATOM     82  C   UNL     1      -6.863   8.847  -2.862  1.00  0.00     0.020 A 
ATOM     83  C   UNL     1      -5.028   8.051  -4.239  1.00  0.00     0.020 A 
ATOM     84  C   UNL     1      -5.675   9.085  -3.560  1.00  0.00     0.054 A 
BRANCH  84  85
ATOM     85  S   UNL     1      -4.957  10.751  -3.529  1.00  0.00     0.124 S 
ATOM     86  O   UNL     1      -5.848  11.483  -4.423  1.00  0.00    -0.237 OA
ATOM     87  O   UNL     1      -5.045  11.107  -2.115  1.00  0.00    -0.237 OA
ATOM     88  O   UNL     1      -3.598  10.546  -4.027  1.00  0.00    -0.744 OA
ENDBRANCH  84  85
ENDBRANCH  56  79
BRANCH  68  89
ATOM     89  C   UNL     1     -12.584   3.743  -6.242  1.00  0.00    -0.014 A 
ATOM     90  C   UNL     1     -12.428   4.176  -7.572  1.00  0.00     0.010 A 
ATOM     91  C   UNL     1     -13.849   3.842  -5.635  1.00  0.00     0.010 A 
ATOM     92  C   UNL     1     -13.505   4.739  -8.262  1.00  0.00     0.020 A 
ATOM     93  C   UNL     1     -14.935   4.378  -6.332  1.00  0.00     0.020 A 
ATOM     94  C   UNL     1     -14.751   4.843  -7.635  1.00  0.00     0.054 A 
BRANCH  94  95
ATOM     95  S   UNL     1     -16.138   5.565  -8.555  1.00  0.00     0.124 S 
ATOM     96  O   UNL     1     -15.815   6.989  -8.523  1.00  0.00    -0.237 OA
ATOM     97  O   UNL     1     -16.026   4.924  -9.863  1.00  0.00    -0.237 OA
ATOM     98  O   UNL     1     -17.311   5.174  -7.776  1.00  0.00    -0.744 OA
ENDBRANCH  94  95
ENDBRANCH  68  89
ENDBRANCH  42  43
ENDBRANCH  35  37
ENDBRANCH  34  35
ENDBRANCH  33  34
ENDBRANCH  32  33
ENDBRANCH  31  32
ENDBRANCH  30  31
ENDBRANCH  29  30
ENDBRANCH  28  29
ENDBRANCH   1  28
TORSDOF 28
