REMARK SMILES O=C(C[C@H]1CN(c2nc(C3CC3)ns2)CCO1)OCCOCCOCCOCCOC(=O)c1ccc(-c2c3nc(c(-c4ccc(S(=O)(=O)[O-])cc4)c4ccc([nH]4)c(-c4ccc(S(=O)(=O)[O-])cc4)c4nc(c(-c5ccc(S(=O)(=O)[O-])cc5)c5ccc2[nH]5)C=C4)C=C3)cc1
REMARK SMILES IDX 24 1 23 2 22 3 21 4 20 5 19 6 18 7 2 8 1 9 3 10 4 11 5 12
REMARK SMILES IDX 17 13 6 14 16 15 15 16 7 17 8 18 14 19 9 20 13 21 10 22
REMARK SMILES IDX 11 23 12 24 25 25 26 26 27 27 28 28 29 29 30 30 31 31 32 32
REMARK SMILES IDX 33 33 34 34 92 35 35 36 91 37 36 38 37 39 38 40 85 41 39 42
REMARK SMILES IDX 90 43 84 44 86 45 40 46 89 47 83 48 82 49 41 51 71 52 52 53
REMARK SMILES IDX 70 54 53 55 56 56 69 57 87 58 54 59 55 60 68 62 88 63 57 64
REMARK SMILES IDX 42 65 43 66 51 67 44 68 50 69 45 70 46 71 47 72 48 73 49 74
REMARK SMILES IDX 72 75 73 76 81 77 74 78 80 79 75 80 76 81 77 82 78 83 79 84
REMARK SMILES IDX 58 85 59 86 67 87 60 88 66 89 61 90 62 91 63 92 64 93 65 94
REMARK H PARENT 86 50 56 61
REMARK Flexibility Score: inf
ROOT
ATOM      1  O   UNL     1       8.751   3.831  -3.412  1.00  0.00    -0.377 OA
ENDROOT
BRANCH   1   2
ATOM      2  C   UNL     1       8.027   2.611  -3.299  1.00  0.00     0.188 C 
BRANCH   2   3
ATOM      3  C   UNL     1       6.569   2.652  -3.782  1.00  0.00     0.188 C 
BRANCH   3   4
ATOM      4  O   UNL     1       5.791   3.719  -3.273  1.00  0.00    -0.376 OA
BRANCH   4   5
ATOM      5  C   UNL     1       5.344   3.728  -1.937  1.00  0.00     0.202 C 
BRANCH   5   6
ATOM      6  C   UNL     1       5.986   2.830  -0.897  1.00  0.00     0.261 C 
BRANCH   6   7
ATOM      7  O   UNL     1       6.226   1.472  -1.281  1.00  0.00    -0.463 OA
BRANCH   7   8
ATOM      8  C   UNL     1       5.341   0.474  -1.128  1.00  0.00     0.308 C 
ATOM      9  O   UNL     1       5.700  -0.700  -1.159  1.00  0.00    -0.252 OA
BRANCH   8  10
ATOM     10  C   UNL     1       3.894   0.843  -1.050  1.00  0.00     0.156 C 
BRANCH  10  11
ATOM     11  C   UNL     1       3.268   0.750   0.340  1.00  0.00     0.148 C 
ATOM     12  C   UNL     1       4.200   0.650   1.566  1.00  0.00     0.151 C 
ATOM     13  O   UNL     1       2.271   1.782   0.533  1.00  0.00    -0.374 OA
ATOM     14  N   UNL     1       4.757   1.949   1.935  1.00  0.00    -0.342 N 
ATOM     15  C   UNL     1       2.812   3.065   0.874  1.00  0.00     0.182 C 
ATOM     16  C   UNL     1       3.802   3.051   2.063  1.00  0.00     0.147 C 
BRANCH  14  17
ATOM     17  C   UNL     1       6.093   2.068   2.208  1.00  0.00     0.205 A 
ATOM     18  N   UNL     1       7.033   1.420   1.546  1.00  0.00    -0.203 NA
ATOM     19  S   UNL     1       6.809   3.170   3.340  1.00  0.00     0.004 S 
ATOM     20  C   UNL     1       8.290   1.842   1.971  1.00  0.00     0.147 A 
ATOM     21  N   UNL     1       8.371   2.734   2.956  1.00  0.00    -0.174 NA
BRANCH  20  22
ATOM     22  C   UNL     1       9.584   1.327   1.327  1.00  0.00     0.059 C 
ATOM     23  C   UNL     1       9.542   0.441   0.102  1.00  0.00     0.012 C 
ATOM     24  C   UNL     1      10.005   1.860  -0.025  1.00  0.00     0.012 C 
ENDBRANCH  20  22
ENDBRANCH  14  17
ENDBRANCH  10  11
ENDBRANCH   8  10
ENDBRANCH   7   8
ENDBRANCH   6   7
ENDBRANCH   5   6
ENDBRANCH   4   5
ENDBRANCH   3   4
ENDBRANCH   2   3
ENDBRANCH   1   2
BRANCH   1  25
ATOM     25  C   UNL     1       8.299   4.910  -2.607  1.00  0.00     0.188 C 
BRANCH  25  26
ATOM     26  C   UNL     1       7.414   5.974  -3.304  1.00  0.00     0.188 C 
BRANCH  26  27
ATOM     27  O   UNL     1       7.156   5.943  -4.698  1.00  0.00    -0.376 OA
BRANCH  27  28
ATOM     28  C   UNL     1       8.133   5.409  -5.569  1.00  0.00     0.202 C 
BRANCH  28  29
ATOM     29  C   UNL     1       9.546   6.018  -5.579  1.00  0.00     0.261 C 
BRANCH  29  30
ATOM     30  O   UNL     1      10.118   6.347  -4.299  1.00  0.00    -0.460 OA
BRANCH  30  31
ATOM     31  C   UNL     1       9.975   7.636  -3.906  1.00  0.00     0.338 C 
ATOM     32  O   UNL     1       9.462   8.541  -4.551  1.00  0.00    -0.246 OA
BRANCH  31  33
ATOM     33  C   UNL     1      10.332   7.783  -2.472  1.00  0.00     0.060 A 
ATOM     34  C   UNL     1       9.405   8.405  -1.618  1.00  0.00     0.016 A 
ATOM     35  C   UNL     1      11.562   7.355  -1.969  1.00  0.00     0.016 A 
ATOM     36  C   UNL     1       9.726   8.663  -0.287  1.00  0.00     0.010 A 
ATOM     37  C   UNL     1      11.902   7.652  -0.641  1.00  0.00     0.010 A 
ATOM     38  C   UNL     1      11.007   8.361   0.184  1.00  0.00    -0.014 A 
BRANCH  38  39
ATOM     39  C   UNL     1      11.493   9.066   1.398  1.00  0.00     0.031 A 
ATOM     40  C   UNL     1      12.268  10.345   1.195  1.00  0.00     0.074 A 
ATOM     41  C   UNL     1      11.193   8.648   2.641  1.00  0.00     0.049 A 
ATOM     42  N   UNL     1      12.807  11.143   2.080  1.00  0.00    -0.248 NA
ATOM     43  C   UNL     1      12.455  10.784  -0.200  1.00  0.00     0.031 C 
ATOM     44  C   UNL     1      10.395   7.469   2.973  1.00  0.00     0.029 A 
ATOM     45  N   UNL     1      11.531   9.180   3.861  1.00  0.00    -0.354 N 
ATOM     46  C   UNL     1      13.396  12.171   1.351  1.00  0.00     0.074 A 
ATOM     47  C   UNL     1      13.185  11.877  -0.048  1.00  0.00     0.031 C 
ATOM     48  C   UNL     1      10.320   7.358   4.312  1.00  0.00     0.029 A 
ATOM     49  C   UNL     1      11.088   8.439   4.931  1.00  0.00     0.049 A 
ATOM     50  H   UNL     1      12.044  10.015   3.960  1.00  0.00     0.167 HD
ATOM     51  C   UNL     1      14.044  13.271   1.801  1.00  0.00     0.031 A 
ATOM     52  C   UNL     1      11.300   8.603   6.253  1.00  0.00     0.031 A 
ATOM     53  C   UNL     1      14.272  13.554   3.192  1.00  0.00     0.049 A 
ATOM     54  C   UNL     1      12.110   9.785   6.729  1.00  0.00     0.074 A 
ATOM     55  C   UNL     1      14.935  14.631   3.754  1.00  0.00     0.029 A 
ATOM     56  N   UNL     1      13.846  12.754   4.241  1.00  0.00    -0.354 N 
ATOM     57  N   UNL     1      12.659  10.750   6.028  1.00  0.00    -0.248 NA
ATOM     58  C   UNL     1      12.318   9.907   8.180  1.00  0.00     0.031 C 
ATOM     59  C   UNL     1      14.959  14.451   5.140  1.00  0.00     0.029 A 
ATOM     60  C   UNL     1      14.248  13.302   5.446  1.00  0.00     0.049 A 
ATOM     61  H   UNL     1      13.333  11.919   4.143  1.00  0.00     0.167 HD
ATOM     62  C   UNL     1      13.248  11.607   6.955  1.00  0.00     0.074 A 
ATOM     63  C   UNL     1      12.967  11.059   8.265  1.00  0.00     0.031 C 
ATOM     64  C   UNL     1      13.957  12.745   6.744  1.00  0.00     0.031 A 
BRANCH  51  65
ATOM     65  C   UNL     1      14.576  14.235   0.772  1.00  0.00    -0.014 A 
ATOM     66  C   UNL     1      13.707  15.028  -0.000  1.00  0.00     0.010 A 
ATOM     67  C   UNL     1      15.965  14.376   0.598  1.00  0.00     0.010 A 
ATOM     68  C   UNL     1      14.216  15.921  -0.947  1.00  0.00     0.020 A 
ATOM     69  C   UNL     1      16.478  15.291  -0.325  1.00  0.00     0.020 A 
ATOM     70  C   UNL     1      15.599  16.049  -1.101  1.00  0.00     0.054 A 
BRANCH  70  71
ATOM     71  S   UNL     1      16.230  17.245  -2.310  1.00  0.00     0.124 S 
ATOM     72  O   UNL     1      15.865  16.616  -3.577  1.00  0.00    -0.237 OA
ATOM     73  O   UNL     1      15.489  18.458  -1.975  1.00  0.00    -0.237 OA
ATOM     74  O   UNL     1      17.664  17.297  -2.033  1.00  0.00    -0.744 OA
ENDBRANCH  70  71
ENDBRANCH  51  65
BRANCH  52  75
ATOM     75  C   UNL     1      10.773   7.605   7.228  1.00  0.00    -0.014 A 
ATOM     76  C   UNL     1       9.795   7.958   8.175  1.00  0.00     0.010 A 
ATOM     77  C   UNL     1      11.280   6.292   7.236  1.00  0.00     0.010 A 
ATOM     78  C   UNL     1       9.359   7.030   9.127  1.00  0.00     0.020 A 
ATOM     79  C   UNL     1      10.822   5.351   8.162  1.00  0.00     0.020 A 
ATOM     80  C   UNL     1       9.874   5.731   9.113  1.00  0.00     0.054 A 
BRANCH  80  81
ATOM     81  S   UNL     1       9.271   4.537  10.339  1.00  0.00     0.124 S 
ATOM     82  O   UNL     1       9.867   5.038  11.572  1.00  0.00    -0.237 OA
ATOM     83  O   UNL     1       7.821   4.684  10.231  1.00  0.00    -0.237 OA
ATOM     84  O   UNL     1       9.797   3.260   9.862  1.00  0.00    -0.744 OA
ENDBRANCH  80  81
ENDBRANCH  52  75
BRANCH  64  85
ATOM     85  C   UNL     1      14.438  13.502   7.957  1.00  0.00    -0.014 A 
ATOM     86  C   UNL     1      15.449  12.992   8.791  1.00  0.00     0.010 A 
ATOM     87  C   UNL     1      13.892  14.768   8.243  1.00  0.00     0.010 A 
ATOM     88  C   UNL     1      15.866  13.709   9.916  1.00  0.00     0.020 A 
ATOM     89  C   UNL     1      14.332  15.504   9.346  1.00  0.00     0.020 A 
ATOM     90  C   UNL     1      15.303  14.959  10.188  1.00  0.00     0.054 A 
BRANCH  90  91
ATOM     91  S   UNL     1      15.874  15.877  11.645  1.00  0.00     0.124 S 
ATOM     92  O   UNL     1      15.288  15.106  12.738  1.00  0.00    -0.237 OA
ATOM     93  O   UNL     1      17.327  15.794  11.525  1.00  0.00    -0.237 OA
ATOM     94  O   UNL     1      15.314  17.213  11.456  1.00  0.00    -0.744 OA
ENDBRANCH  90  91
ENDBRANCH  64  85
ENDBRANCH  38  39
ENDBRANCH  31  33
ENDBRANCH  30  31
ENDBRANCH  29  30
ENDBRANCH  28  29
ENDBRANCH  27  28
ENDBRANCH  26  27
ENDBRANCH  25  26
ENDBRANCH   1  25
TORSDOF 26
