REMARK SMILES CCc1cc(N2CCC[C@H](C(=O)OCCOCCOCCOCCOC(=O)c3ccc(-c4c5nc(c(-c6ccc(S(=O)(=O)[O-])cc6)c6ccc([nH]6)c(-c6ccc(S(=O)(=O)[O-])cc6)c6nc(c(-c7ccc(S(=O)(=O)[O-])cc7)c7ccc4[nH]7)C=C6)C=C5)cc3)C2)nc(-c2ccc(Cl)cc2)n1
REMARK SMILES IDX 20 1 19 2 18 3 17 4 16 5 15 6 14 7 13 8 11 9 12 10 10 11
REMARK SMILES IDX 6 12 7 13 88 14 8 15 9 16 5 17 3 18 4 19 98 20 90 21 89 22
REMARK SMILES IDX 2 23 1 24 91 25 92 26 97 27 93 28 96 29 94 30 95 31 21 32
REMARK SMILES IDX 22 33 23 34 24 35 25 36 26 37 27 38 28 39 29 40 87 41 30 42
REMARK SMILES IDX 86 43 31 44 32 45 33 46 80 47 34 48 85 49 79 50 81 51 35 52
REMARK SMILES IDX 84 53 78 54 77 55 36 57 66 58 47 59 65 60 48 61 51 62 64 63
REMARK SMILES IDX 82 64 49 65 50 66 63 68 83 69 52 70 37 71 38 72 46 73 39 74
REMARK SMILES IDX 45 75 40 76 41 77 42 78 43 79 44 80 67 81 68 82 76 83 69 84
REMARK SMILES IDX 75 85 70 86 71 87 72 88 73 89 74 90 53 91 54 92 62 93 55 94
REMARK SMILES IDX 61 95 56 96 57 97 58 98 59 99 60 100
REMARK H PARENT 81 56 51 67
REMARK Flexibility Score: inf
ROOT
ATOM      1  C   UNL     1       5.461   1.152  -8.912  1.00  0.00     0.188 C 
ENDROOT
BRANCH   1   2
ATOM      2  O   UNL     1       5.189   2.441  -8.362  1.00  0.00    -0.377 OA
BRANCH   2   3
ATOM      3  C   UNL     1       6.238   3.225  -7.811  1.00  0.00     0.188 C 
BRANCH   3   4
ATOM      4  C   UNL     1       7.153   2.636  -6.727  1.00  0.00     0.188 C 
BRANCH   4   5
ATOM      5  O   UNL     1       7.209   1.229  -6.726  1.00  0.00    -0.376 OA
BRANCH   5   6
ATOM      6  C   UNL     1       6.472   0.521  -5.748  1.00  0.00     0.202 C 
BRANCH   6   7
ATOM      7  C   UNL     1       5.026   0.892  -5.372  1.00  0.00     0.261 C 
BRANCH   7   8
ATOM      8  O   UNL     1       4.517   2.171  -5.758  1.00  0.00    -0.463 OA
BRANCH   8   9
ATOM      9  C   UNL     1       4.508   3.149  -4.834  1.00  0.00     0.310 C 
ATOM     10  O   UNL     1       5.141   3.106  -3.782  1.00  0.00    -0.252 OA
BRANCH   9  11
ATOM     11  C   UNL     1       3.607   4.324  -5.192  1.00  0.00     0.118 C 
ATOM     12  N   UNL     1       1.467   3.246  -4.680  1.00  0.00    -0.356 N 
ATOM     13  C   UNL     1       0.944   3.318  -6.037  1.00  0.00     0.118 C 
ATOM     14  C   UNL     1       2.416   4.267  -4.238  1.00  0.00     0.133 C 
ATOM     15  C   UNL     1       2.068   3.450  -7.054  1.00  0.00     0.022 C 
ATOM     16  C   UNL     1       3.083   4.507  -6.626  1.00  0.00     0.019 C 
BRANCH  12  17
ATOM     17  C   UNL     1       1.385   2.050  -3.981  1.00  0.00     0.132 A 
ATOM     18  C   UNL     1       0.972   0.930  -1.938  1.00  0.00     0.046 A 
ATOM     19  C   UNL     1       1.112   2.112  -2.627  1.00  0.00     0.070 A 
ATOM     20  N   UNL     1       1.104  -0.259  -2.544  1.00  0.00    -0.233 NA
ATOM     21  C   UNL     1       1.371  -0.242  -3.862  1.00  0.00     0.161 A 
ATOM     22  N   UNL     1       1.525   0.869  -4.614  1.00  0.00    -0.211 NA
BRANCH  18  23
ATOM     23  C   UNL     1       0.535   0.964  -0.498  1.00  0.00     0.053 C 
ATOM     24  C   UNL     1       1.089  -0.180   0.332  1.00  0.00     0.011 C 
ENDBRANCH  18  23
BRANCH  21  25
ATOM     25  C   UNL     1       1.507  -1.558  -4.498  1.00  0.00     0.019 A 
ATOM     26  C   UNL     1       0.382  -2.377  -4.700  1.00  0.00     0.013 A 
ATOM     27  C   UNL     1       2.766  -2.082  -4.837  1.00  0.00     0.013 A 
ATOM     28  C   UNL     1       0.507  -3.665  -5.236  1.00  0.00     0.021 A 
ATOM     29  C   UNL     1       2.897  -3.362  -5.387  1.00  0.00     0.021 A 
ATOM     30  C   UNL     1       1.764  -4.149  -5.585  1.00  0.00     0.041 A 
ATOM     31  Cl  UNL     1       1.932  -5.729  -6.242  1.00  0.00    -0.084 Cl
ENDBRANCH  21  25
ENDBRANCH  12  17
ENDBRANCH   9  11
ENDBRANCH   8   9
ENDBRANCH   7   8
ENDBRANCH   6   7
ENDBRANCH   5   6
ENDBRANCH   4   5
ENDBRANCH   3   4
ENDBRANCH   2   3
ENDBRANCH   1   2
BRANCH   1  32
ATOM     32  C   UNL     1       6.862   0.819  -9.465  1.00  0.00     0.188 C 
BRANCH  32  33
ATOM     33  O   UNL     1       7.710   1.939  -9.648  1.00  0.00    -0.376 OA
BRANCH  33  34
ATOM     34  C   UNL     1       7.757   2.528 -10.938  1.00  0.00     0.202 C 
BRANCH  34  35
ATOM     35  C   UNL     1       6.439   3.002 -11.572  1.00  0.00     0.261 C 
BRANCH  35  36
ATOM     36  O   UNL     1       5.427   2.004 -11.782  1.00  0.00    -0.460 OA
BRANCH  36  37
ATOM     37  C   UNL     1       5.751   0.925 -12.529  1.00  0.00     0.338 C 
ATOM     38  O   UNL     1       6.803   0.705 -13.089  1.00  0.00    -0.246 OA
BRANCH  37  39
ATOM     39  C   UNL     1       4.645  -0.047 -12.400  1.00  0.00     0.060 A 
ATOM     40  C   UNL     1       4.894  -1.295 -11.813  1.00  0.00     0.016 A 
ATOM     41  C   UNL     1       3.374   0.273 -12.879  1.00  0.00     0.016 A 
ATOM     42  C   UNL     1       3.877  -2.247 -11.745  1.00  0.00     0.010 A 
ATOM     43  C   UNL     1       2.364  -0.689 -12.829  1.00  0.00     0.010 A 
ATOM     44  C   UNL     1       2.623  -1.966 -12.300  1.00  0.00    -0.014 A 
BRANCH  44  45
ATOM     45  C   UNL     1       1.656  -3.065 -12.533  1.00  0.00     0.031 A 
ATOM     46  C   UNL     1       1.589  -3.667 -13.912  1.00  0.00     0.074 A 
ATOM     47  C   UNL     1       0.866  -3.529 -11.550  1.00  0.00     0.049 A 
ATOM     48  N   UNL     1       0.780  -4.580 -14.382  1.00  0.00    -0.248 NA
ATOM     49  C   UNL     1       2.566  -3.165 -14.894  1.00  0.00     0.031 C 
ATOM     50  C   UNL     1       0.879  -3.071 -10.161  1.00  0.00     0.029 A 
ATOM     51  N   UNL     1      -0.113  -4.491 -11.579  1.00  0.00    -0.354 N 
ATOM     52  C   UNL     1       1.139  -4.750 -15.714  1.00  0.00     0.074 A 
ATOM     53  C   UNL     1       2.218  -3.827 -15.986  1.00  0.00     0.031 C 
ATOM     54  C   UNL     1      -0.059  -3.746  -9.473  1.00  0.00     0.029 A 
ATOM     55  C   UNL     1      -0.764  -4.651 -10.380  1.00  0.00     0.049 A 
ATOM     56  H   UNL     1      -0.328  -5.017 -12.383  1.00  0.00     0.167 HD
ATOM     57  C   UNL     1       0.620  -5.602 -16.629  1.00  0.00     0.031 A 
ATOM     58  C   UNL     1      -1.827  -5.418 -10.060  1.00  0.00     0.031 A 
ATOM     59  C   UNL     1      -0.464  -6.508 -16.356  1.00  0.00     0.049 A 
ATOM     60  C   UNL     1      -2.448  -6.296 -11.118  1.00  0.00     0.074 A 
ATOM     61  C   UNL     1      -1.058  -7.419 -17.211  1.00  0.00     0.029 A 
ATOM     62  N   UNL     1      -1.121  -6.612 -15.139  1.00  0.00    -0.354 N 
ATOM     63  N   UNL     1      -2.093  -6.457 -12.372  1.00  0.00    -0.248 NA
ATOM     64  C   UNL     1      -3.610  -7.101 -10.716  1.00  0.00     0.031 C 
ATOM     65  C   UNL     1      -2.119  -8.025 -16.531  1.00  0.00     0.029 A 
ATOM     66  C   UNL     1      -2.134  -7.551 -15.228  1.00  0.00     0.049 A 
ATOM     67  H   UNL     1      -0.899  -6.095 -14.331  1.00  0.00     0.167 HD
ATOM     68  C   UNL     1      -2.963  -7.410 -12.895  1.00  0.00     0.074 A 
ATOM     69  C   UNL     1      -3.856  -7.793 -11.821  1.00  0.00     0.031 C 
ATOM     70  C   UNL     1      -3.013  -7.927 -14.148  1.00  0.00     0.031 A 
BRANCH  57  71
ATOM     71  C   UNL     1       1.189  -5.561 -18.023  1.00  0.00    -0.014 A 
ATOM     72  C   UNL     1       2.492  -6.015 -18.299  1.00  0.00     0.010 A 
ATOM     73  C   UNL     1       0.392  -5.090 -19.083  1.00  0.00     0.010 A 
ATOM     74  C   UNL     1       2.999  -5.962 -19.600  1.00  0.00     0.020 A 
ATOM     75  C   UNL     1       0.884  -5.066 -20.391  1.00  0.00     0.020 A 
ATOM     76  C   UNL     1       2.191  -5.488 -20.638  1.00  0.00     0.054 A 
BRANCH  76  77
ATOM     77  S   UNL     1       2.867  -5.456 -22.321  1.00  0.00     0.124 S 
ATOM     78  O   UNL     1       3.852  -4.381 -22.230  1.00  0.00    -0.237 OA
ATOM     79  O   UNL     1       3.417  -6.801 -22.469  1.00  0.00    -0.237 OA
ATOM     80  O   UNL     1       1.705  -5.165 -23.157  1.00  0.00    -0.744 OA
ENDBRANCH  76  77
ENDBRANCH  57  71
BRANCH  58  81
ATOM     81  C   UNL     1      -2.390  -5.370  -8.682  1.00  0.00    -0.014 A 
ATOM     82  C   UNL     1      -2.304  -6.484  -7.829  1.00  0.00     0.010 A 
ATOM     83  C   UNL     1      -3.023  -4.203  -8.216  1.00  0.00     0.010 A 
ATOM     84  C   UNL     1      -2.856  -6.438  -6.545  1.00  0.00     0.020 A 
ATOM     85  C   UNL     1      -3.547  -4.141  -6.923  1.00  0.00     0.020 A 
ATOM     86  C   UNL     1      -3.470  -5.265  -6.099  1.00  0.00     0.054 A 
BRANCH  86  87
ATOM     87  S   UNL     1      -4.121  -5.207  -4.407  1.00  0.00     0.124 S 
ATOM     88  O   UNL     1      -5.278  -6.093  -4.494  1.00  0.00    -0.237 OA
ATOM     89  O   UNL     1      -2.993  -5.707  -3.626  1.00  0.00    -0.237 OA
ATOM     90  O   UNL     1      -4.427  -3.793  -4.207  1.00  0.00    -0.744 OA
ENDBRANCH  86  87
ENDBRANCH  58  81
BRANCH  70  91
ATOM     91  C   UNL     1      -4.030  -9.005 -14.425  1.00  0.00    -0.014 A 
ATOM     92  C   UNL     1      -5.405  -8.723 -14.496  1.00  0.00     0.010 A 
ATOM     93  C   UNL     1      -3.587 -10.315 -14.693  1.00  0.00     0.010 A 
ATOM     94  C   UNL     1      -6.320  -9.736 -14.800  1.00  0.00     0.020 A 
ATOM     95  C   UNL     1      -4.494 -11.322 -15.029  1.00  0.00     0.020 A 
ATOM     96  C   UNL     1      -5.858 -11.029 -15.069  1.00  0.00     0.054 A 
BRANCH  96  97
ATOM     97  S   UNL     1      -7.061 -12.311 -15.512  1.00  0.00     0.124 S 
ATOM     98  O   UNL     1      -7.739 -12.546 -14.241  1.00  0.00    -0.237 OA
ATOM     99  O   UNL     1      -7.864 -11.654 -16.541  1.00  0.00    -0.237 OA
ATOM    100  O   UNL     1      -6.232 -13.416 -15.989  1.00  0.00    -0.744 OA
ENDBRANCH  96  97
ENDBRANCH  70  91
ENDBRANCH  44  45
ENDBRANCH  37  39
ENDBRANCH  36  37
ENDBRANCH  35  36
ENDBRANCH  34  35
ENDBRANCH  33  34
ENDBRANCH  32  33
ENDBRANCH   1  32
TORSDOF 26
