REMARK SMILES C[C@H]1[NH2+]CC[C@H]1C(=O)N1CC(C(=O)OCCOCCOCCOCCOC(=O)c2ccc(-c3c4nc(c(-c5ccc(S(=O)(=O)[O-])cc5)c5ccc([nH]5)c(-c5ccc(S(=O)(=O)[O-])cc5)c5nc(c(-c6ccc(S(=O)(=O)[O-])cc6)c6ccc3[nH]6)C=C5)C=C4)cc2)C1
REMARK SMILES IDX 21 1 20 2 19 3 18 4 17 5 16 6 15 7 14 8 12 9 13 10 11 11
REMARK SMILES IDX 7 12 8 13 9 14 10 15 89 16 6 17 1 18 2 19 3 20 4 21 5 24
REMARK SMILES IDX 22 25 23 26 24 27 25 28 26 29 27 30 28 31 29 32 30 33 88 34
REMARK SMILES IDX 31 35 87 36 32 37 33 38 34 39 81 40 35 41 86 42 80 43 82 44
REMARK SMILES IDX 36 45 85 46 79 47 78 48 37 50 67 51 48 52 66 53 49 54 52 55
REMARK SMILES IDX 65 56 83 57 50 58 51 59 64 61 84 62 53 63 38 64 39 65 47 66
REMARK SMILES IDX 40 67 46 68 41 69 42 70 43 71 44 72 45 73 68 74 69 75 77 76
REMARK SMILES IDX 70 77 76 78 71 79 72 80 73 81 74 82 75 83 54 84 55 85 63 86
REMARK SMILES IDX 56 87 62 88 57 89 58 90 59 91 60 92 61 93
REMARK H PARENT 3 22 3 23 82 49 52 60
REMARK Flexibility Score: inf
ROOT
ATOM      1  C   UNL     1       4.831   0.059   5.567  1.00  0.00     0.188 C 
ENDROOT
BRANCH   1   2
ATOM      2  O   UNL     1       4.078   1.048   4.873  1.00  0.00    -0.377 OA
BRANCH   2   3
ATOM      3  C   UNL     1       4.734   1.663   3.785  1.00  0.00     0.188 C 
BRANCH   3   4
ATOM      4  C   UNL     1       5.256   3.082   4.070  1.00  0.00     0.188 C 
BRANCH   4   5
ATOM      5  O   UNL     1       5.404   3.567   5.398  1.00  0.00    -0.376 OA
BRANCH   5   6
ATOM      6  C   UNL     1       4.415   3.334   6.392  1.00  0.00     0.202 C 
BRANCH   6   7
ATOM      7  C   UNL     1       2.917   3.558   6.128  1.00  0.00     0.261 C 
BRANCH   7   8
ATOM      8  O   UNL     1       2.480   3.288   4.792  1.00  0.00    -0.463 OA
BRANCH   8   9
ATOM      9  C   UNL     1       2.182   4.355   4.000  1.00  0.00     0.312 C 
ATOM     10  O   UNL     1       2.203   5.519   4.396  1.00  0.00    -0.252 OA
BRANCH   9  11
ATOM     11  C   UNL     1       1.907   3.946   2.544  1.00  0.00     0.138 C 
ATOM     12  C   UNL     1       0.606   2.498   0.031  1.00  0.00     0.231 C 
ATOM     13  O   UNL     1       1.120   3.262  -0.783  1.00  0.00    -0.274 OA
ATOM     14  N   UNL     1       0.650   2.724   1.392  1.00  0.00    -0.340 N 
ATOM     15  C   UNL     1       0.474   4.035   2.039  1.00  0.00     0.136 C 
ATOM     16  C   UNL     1       1.875   2.474   2.151  1.00  0.00     0.136 C 
BRANCH  12  17
ATOM     17  C   UNL     1      -0.099   1.215  -0.390  1.00  0.00     0.142 C 
ATOM     18  C   UNL     1       1.794  -0.351   0.519  1.00  0.00     0.076 C 
ATOM     19  C   UNL     1       0.733  -0.060  -0.539  1.00  0.00     0.192 C 
ATOM     20  N   UNL     1      -0.273  -1.142  -0.536  1.00  0.00    -0.343 N 
ATOM     21  C   UNL     1      -1.481  -0.661   0.139  1.00  0.00     0.261 C 
ATOM     22  H   UNL     1       0.097  -1.953  -0.041  1.00  0.00     0.346 HD
ATOM     23  H   UNL     1      -0.495  -1.411  -1.495  1.00  0.00     0.346 HD
ATOM     24  C   UNL     1      -1.241   0.787   0.517  1.00  0.00     0.081 C 
ENDBRANCH  12  17
ENDBRANCH   9  11
ENDBRANCH   8   9
ENDBRANCH   7   8
ENDBRANCH   6   7
ENDBRANCH   5   6
ENDBRANCH   4   5
ENDBRANCH   3   4
ENDBRANCH   2   3
ENDBRANCH   1   2
BRANCH   1  25
ATOM     25  C   UNL     1       6.326   0.351   5.832  1.00  0.00     0.188 C 
BRANCH  25  26
ATOM     26  O   UNL     1       7.059   0.745   4.677  1.00  0.00    -0.376 OA
BRANCH  26  27
ATOM     27  C   UNL     1       7.849  -0.229   4.008  1.00  0.00     0.202 C 
BRANCH  27  28
ATOM     28  C   UNL     1       7.110  -1.368   3.282  1.00  0.00     0.261 C 
BRANCH  28  29
ATOM     29  O   UNL     1       6.236  -2.173   4.087  1.00  0.00    -0.460 OA
BRANCH  29  30
ATOM     30  C   UNL     1       6.788  -2.818   5.134  1.00  0.00     0.338 C 
ATOM     31  O   UNL     1       7.972  -2.840   5.436  1.00  0.00    -0.246 OA
BRANCH  30  32
ATOM     32  C   UNL     1       5.702  -3.332   5.992  1.00  0.00     0.060 A 
ATOM     33  C   UNL     1       5.685  -2.960   7.342  1.00  0.00     0.016 A 
ATOM     34  C   UNL     1       4.731  -4.198   5.483  1.00  0.00     0.016 A 
ATOM     35  C   UNL     1       4.743  -3.514   8.206  1.00  0.00     0.010 A 
ATOM     36  C   UNL     1       3.798  -4.768   6.354  1.00  0.00     0.010 A 
ATOM     37  C   UNL     1       3.841  -4.473   7.729  1.00  0.00    -0.014 A 
BRANCH  37  38
ATOM     38  C   UNL     1       3.153  -5.354   8.706  1.00  0.00     0.031 A 
ATOM     39  C   UNL     1       3.758  -6.707   8.982  1.00  0.00     0.074 A 
ATOM     40  C   UNL     1       2.064  -4.947   9.383  1.00  0.00     0.049 A 
ATOM     41  N   UNL     1       3.355  -7.649   9.794  1.00  0.00    -0.248 NA
ATOM     42  C   UNL     1       4.986  -7.042   8.238  1.00  0.00     0.031 C 
ATOM     43  C   UNL     1       1.419  -3.643   9.250  1.00  0.00     0.029 A 
ATOM     44  N   UNL     1       1.313  -5.600  10.328  1.00  0.00    -0.354 N 
ATOM     45  C   UNL     1       4.271  -8.686   9.653  1.00  0.00     0.074 A 
ATOM     46  C   UNL     1       5.226  -8.276   8.649  1.00  0.00     0.031 C 
ATOM     47  C   UNL     1       0.366  -3.591  10.086  1.00  0.00     0.029 A 
ATOM     48  C   UNL     1       0.246  -4.868  10.788  1.00  0.00     0.049 A 
ATOM     49  H   UNL     1       1.521  -6.508  10.647  1.00  0.00     0.167 HD
ATOM     50  C   UNL     1       4.323  -9.870  10.307  1.00  0.00     0.031 A 
ATOM     51  C   UNL     1      -0.723  -5.197  11.666  1.00  0.00     0.031 A 
ATOM     52  C   UNL     1       3.364 -10.282  11.297  1.00  0.00     0.049 A 
ATOM     53  C   UNL     1      -0.688  -6.553  12.328  1.00  0.00     0.074 A 
ATOM     54  C   UNL     1       3.325 -11.462  12.018  1.00  0.00     0.029 A 
ATOM     55  N   UNL     1       2.273  -9.529  11.701  1.00  0.00    -0.354 N 
ATOM     56  N   UNL     1       0.188  -7.521  12.189  1.00  0.00    -0.248 NA
ATOM     57  C   UNL     1      -1.766  -6.851  13.282  1.00  0.00     0.031 C 
ATOM     58  C   UNL     1       2.175 -11.448  12.814  1.00  0.00     0.029 A 
ATOM     59  C   UNL     1       1.543 -10.226  12.649  1.00  0.00     0.049 A 
ATOM     60  H   UNL     1       2.050  -8.631  11.365  1.00  0.00     0.167 HD
ATOM     61  C   UNL     1      -0.208  -8.522  13.072  1.00  0.00     0.074 A 
ATOM     62  C   UNL     1      -1.395  -8.036  13.745  1.00  0.00     0.031 C 
ATOM     63  C   UNL     1       0.363  -9.729  13.313  1.00  0.00     0.031 A 
BRANCH  50  64
ATOM     64  C   UNL     1       5.436 -10.818   9.940  1.00  0.00    -0.014 A 
ATOM     65  C   UNL     1       6.777 -10.536  10.261  1.00  0.00     0.010 A 
ATOM     66  C   UNL     1       5.130 -12.024   9.283  1.00  0.00     0.010 A 
ATOM     67  C   UNL     1       7.794 -11.423   9.895  1.00  0.00     0.020 A 
ATOM     68  C   UNL     1       6.141 -12.929   8.946  1.00  0.00     0.020 A 
ATOM     69  C   UNL     1       7.468 -12.614   9.239  1.00  0.00     0.054 A 
BRANCH  69  70
ATOM     70  S   UNL     1       8.806 -13.757   8.799  1.00  0.00     0.124 S 
ATOM     71  O   UNL     1       9.478 -13.033   7.723  1.00  0.00    -0.237 OA
ATOM     72  O   UNL     1       9.556 -13.865  10.047  1.00  0.00    -0.237 OA
ATOM     73  O   UNL     1       8.105 -14.971   8.388  1.00  0.00    -0.744 OA
ENDBRANCH  69  70
ENDBRANCH  50  64
BRANCH  51  74
ATOM     74  C   UNL     1      -1.816  -4.231  11.973  1.00  0.00    -0.014 A 
ATOM     75  C   UNL     1      -1.933  -3.655  13.251  1.00  0.00     0.010 A 
ATOM     76  C   UNL     1      -2.761  -3.897  10.986  1.00  0.00     0.010 A 
ATOM     77  C   UNL     1      -2.987  -2.783  13.543  1.00  0.00     0.020 A 
ATOM     78  C   UNL     1      -3.797  -3.000  11.264  1.00  0.00     0.020 A 
ATOM     79  C   UNL     1      -3.910  -2.458  12.545  1.00  0.00     0.054 A 
BRANCH  79  80
ATOM     80  S   UNL     1      -5.242  -1.289  12.933  1.00  0.00     0.124 S 
ATOM     81  O   UNL     1      -6.092  -2.078  13.819  1.00  0.00    -0.237 OA
ATOM     82  O   UNL     1      -4.518  -0.188  13.563  1.00  0.00    -0.237 OA
ATOM     83  O   UNL     1      -5.816  -0.979  11.625  1.00  0.00    -0.744 OA
ENDBRANCH  79  80
ENDBRANCH  51  74
BRANCH  63  84
ATOM     84  C   UNL     1      -0.244 -10.583  14.398  1.00  0.00    -0.014 A 
ATOM     85  C   UNL     1      -1.516 -11.167  14.262  1.00  0.00     0.010 A 
ATOM     86  C   UNL     1       0.493 -10.822  15.574  1.00  0.00     0.010 A 
ATOM     87  C   UNL     1      -2.064 -11.920  15.306  1.00  0.00     0.020 A 
ATOM     88  C   UNL     1      -0.034 -11.605  16.603  1.00  0.00     0.020 A 
ATOM     89  C   UNL     1      -1.321 -12.128  16.472  1.00  0.00     0.054 A 
BRANCH  89  90
ATOM     90  S   UNL     1      -2.053 -13.107  17.812  1.00  0.00     0.124 S 
ATOM     91  O   UNL     1      -3.061 -12.192  18.341  1.00  0.00    -0.237 OA
ATOM     92  O   UNL     1      -2.573 -14.276  17.108  1.00  0.00    -0.237 OA
ATOM     93  O   UNL     1      -0.925 -13.373  18.703  1.00  0.00    -0.744 OA
ENDBRANCH  89  90
ENDBRANCH  63  84
ENDBRANCH  37  38
ENDBRANCH  30  32
ENDBRANCH  29  30
ENDBRANCH  28  29
ENDBRANCH  27  28
ENDBRANCH  26  27
ENDBRANCH  25  26
ENDBRANCH   1  25
TORSDOF 24
