REMARK SMILES O=C(OCCOCCOCCOCCOC(=O)[C@H]1CC=CC[C@H]1C(=O)Nc1ccc(S(=O)(=O)N2CCc3ccccc32)cc1)c1ccc(-c2c3nc(c(-c4ccc(S(=O)(=O)[O-])cc4)c4ccc([nH]4)c(-c4ccc(S(=O)(=O)[O-])cc4)c4nc(c(-c5ccc(S(=O)(=O)[O-])cc5)c5ccc2[nH]5)C=C4)C=C3)cc1
REMARK SMILES IDX 10 1 9 2 8 3 7 4 6 5 5 6 4 7 3 8 2 9 1 10 45 11 46 12 104 13
REMARK SMILES IDX 47 14 103 15 48 16 49 17 50 18 97 19 51 20 102 21 96 22
REMARK SMILES IDX 98 23 52 24 101 25 95 26 94 27 53 29 83 30 64 31 82 32 65 33
REMARK SMILES IDX 68 34 81 35 99 36 66 37 67 38 80 40 100 41 69 42 54 43 55 44
REMARK SMILES IDX 63 45 56 46 62 47 57 48 58 49 59 50 60 51 61 52 84 53 85 54
REMARK SMILES IDX 93 55 86 56 92 57 87 58 88 59 89 60 90 61 91 62 70 63 71 64
REMARK SMILES IDX 79 65 72 66 78 67 73 68 74 69 75 70 76 71 77 72 11 73 12 74
REMARK SMILES IDX 13 75 14 76 15 77 16 78 17 79 18 80 19 81 23 82 20 83 22 84
REMARK SMILES IDX 21 85 24 86 25 87 26 88 27 90 28 91 44 92 29 93 43 94 30 95
REMARK SMILES IDX 31 96 32 97 33 98 34 99 35 100 42 101 36 102 37 103 41 104
REMARK SMILES IDX 38 105 40 106 39 107
REMARK H PARENT 98 28 68 39 26 89
REMARK Flexibility Score: inf
ROOT
ATOM      1  C   UNL     1       4.716  -1.564  -1.254  1.00  0.00     0.188 C 
ENDROOT
BRANCH   1   2
ATOM      2  O   UNL     1       3.741  -2.438  -0.684  1.00  0.00    -0.377 OA
BRANCH   2   3
ATOM      3  C   UNL     1       2.586  -2.015   0.047  1.00  0.00     0.188 C 
BRANCH   3   4
ATOM      4  C   UNL     1       2.407  -0.559   0.414  1.00  0.00     0.188 C 
BRANCH   4   5
ATOM      5  O   UNL     1       3.638   0.045   0.721  1.00  0.00    -0.376 OA
BRANCH   5   6
ATOM      6  C   UNL     1       4.368  -0.451   1.820  1.00  0.00     0.202 C 
BRANCH   6   7
ATOM      7  C   UNL     1       4.424   0.632   2.883  1.00  0.00     0.261 C 
BRANCH   7   8
ATOM      8  O   UNL     1       3.195   1.379   2.988  1.00  0.00    -0.460 OA
BRANCH   8   9
ATOM      9  C   UNL     1       2.576   2.209   2.109  1.00  0.00     0.338 C 
ATOM     10  O   UNL     1       1.404   2.500   2.362  1.00  0.00    -0.246 OA
BRANCH   9  11
ATOM     11  C   UNL     1       3.169   2.815   0.854  1.00  0.00     0.060 A 
ATOM     12  C   UNL     1       4.409   2.513   0.268  1.00  0.00     0.016 A 
ATOM     13  C   UNL     1       2.371   3.779   0.202  1.00  0.00     0.016 A 
ATOM     14  C   UNL     1       4.837   3.123  -0.916  1.00  0.00     0.010 A 
ATOM     15  C   UNL     1       2.833   4.474  -0.921  1.00  0.00     0.010 A 
ATOM     16  C   UNL     1       4.101   4.187  -1.435  1.00  0.00    -0.014 A 
BRANCH  16  17
ATOM     17  C   UNL     1       4.865   5.273  -2.090  1.00  0.00     0.031 A 
ATOM     18  C   UNL     1       5.558   6.230  -1.153  1.00  0.00     0.074 A 
ATOM     19  C   UNL     1       4.972   5.384  -3.422  1.00  0.00     0.049 A 
ATOM     20  N   UNL     1       6.235   7.313  -1.414  1.00  0.00    -0.248 NA
ATOM     21  C   UNL     1       5.482   5.913   0.287  1.00  0.00     0.031 C 
ATOM     22  C   UNL     1       4.422   4.448  -4.395  1.00  0.00     0.029 A 
ATOM     23  N   UNL     1       5.586   6.340  -4.187  1.00  0.00    -0.354 N 
ATOM     24  C   UNL     1       6.643   7.801  -0.176  1.00  0.00     0.074 A 
ATOM     25  C   UNL     1       6.156   6.904   0.836  1.00  0.00     0.031 C 
ATOM     26  C   UNL     1       4.709   4.885  -5.636  1.00  0.00     0.029 A 
ATOM     27  C   UNL     1       5.424   6.148  -5.539  1.00  0.00     0.049 A 
ATOM     28  H   UNL     1       6.093   7.092  -3.806  1.00  0.00     0.167 HD
ATOM     29  C   UNL     1       7.336   8.928   0.096  1.00  0.00     0.031 A 
ATOM     30  C   UNL     1       5.780   6.937  -6.570  1.00  0.00     0.031 A 
ATOM     31  C   UNL     1       7.718   9.851  -0.929  1.00  0.00     0.049 A 
ATOM     32  C   UNL     1       6.441   8.246  -6.244  1.00  0.00     0.074 A 
ATOM     33  C   UNL     1       8.346  11.073  -0.804  1.00  0.00     0.029 A 
ATOM     34  N   UNL     1       7.475   9.648  -2.282  1.00  0.00    -0.354 N 
ATOM     35  N   UNL     1       6.766   8.732  -5.067  1.00  0.00    -0.248 NA
ATOM     36  C   UNL     1       6.768   9.120  -7.375  1.00  0.00     0.031 C 
ATOM     37  C   UNL     1       8.423  11.639  -2.080  1.00  0.00     0.029 A 
ATOM     38  C   UNL     1       7.921  10.733  -3.006  1.00  0.00     0.049 A 
ATOM     39  H   UNL     1       7.047   8.849  -2.667  1.00  0.00     0.167 HD
ATOM     40  C   UNL     1       7.356   9.962  -5.316  1.00  0.00     0.074 A 
ATOM     41  C   UNL     1       7.342  10.143  -6.757  1.00  0.00     0.031 C 
ATOM     42  C   UNL     1       7.872  10.860  -4.441  1.00  0.00     0.031 A 
BRANCH  29  43
ATOM     43  C   UNL     1       7.582   9.242   1.547  1.00  0.00    -0.014 A 
ATOM     44  C   UNL     1       8.443   8.456   2.338  1.00  0.00     0.010 A 
ATOM     45  C   UNL     1       6.873  10.296   2.152  1.00  0.00     0.010 A 
ATOM     46  C   UNL     1       8.548   8.686   3.714  1.00  0.00     0.020 A 
ATOM     47  C   UNL     1       7.000  10.549   3.521  1.00  0.00     0.020 A 
ATOM     48  C   UNL     1       7.820   9.728   4.297  1.00  0.00     0.054 A 
BRANCH  48  49
ATOM     49  S   UNL     1       7.966   9.998   6.085  1.00  0.00     0.124 S 
ATOM     50  O   UNL     1       7.242   8.849   6.624  1.00  0.00    -0.237 OA
ATOM     51  O   UNL     1       9.412   9.981   6.293  1.00  0.00    -0.237 OA
ATOM     52  O   UNL     1       7.324  11.293   6.294  1.00  0.00    -0.744 OA
ENDBRANCH  48  49
ENDBRANCH  29  43
BRANCH  30  53
ATOM     53  C   UNL     1       5.450   6.566  -7.973  1.00  0.00    -0.014 A 
ATOM     54  C   UNL     1       6.434   6.072  -8.848  1.00  0.00     0.010 A 
ATOM     55  C   UNL     1       4.134   6.714  -8.444  1.00  0.00     0.010 A 
ATOM     56  C   UNL     1       6.104   5.721 -10.164  1.00  0.00     0.020 A 
ATOM     57  C   UNL     1       3.802   6.367  -9.758  1.00  0.00     0.020 A 
ATOM     58  C   UNL     1       4.786   5.863 -10.609  1.00  0.00     0.054 A 
BRANCH  58  59
ATOM     59  S   UNL     1       4.355   5.321 -12.288  1.00  0.00     0.124 S 
ATOM     60  O   UNL     1       5.003   6.331 -13.118  1.00  0.00    -0.237 OA
ATOM     61  O   UNL     1       4.936   3.981 -12.351  1.00  0.00    -0.237 OA
ATOM     62  O   UNL     1       2.893   5.351 -12.298  1.00  0.00    -0.744 OA
ENDBRANCH  58  59
ENDBRANCH  30  53
BRANCH  42  63
ATOM     63  C   UNL     1       8.513  12.083  -5.023  1.00  0.00    -0.014 A 
ATOM     64  C   UNL     1       7.744  13.130  -5.555  1.00  0.00     0.010 A 
ATOM     65  C   UNL     1       9.910  12.214  -4.936  1.00  0.00     0.010 A 
ATOM     66  C   UNL     1       8.370  14.290  -6.009  1.00  0.00     0.020 A 
ATOM     67  C   UNL     1      10.535  13.385  -5.357  1.00  0.00     0.020 A 
ATOM     68  C   UNL     1       9.761  14.412  -5.899  1.00  0.00     0.054 A 
BRANCH  68  69
ATOM     69  S   UNL     1      10.541  15.961  -6.420  1.00  0.00     0.124 S 
ATOM     70  O   UNL     1      10.433  15.880  -7.874  1.00  0.00    -0.237 OA
ATOM     71  O   UNL     1       9.701  16.971  -5.781  1.00  0.00    -0.237 OA
ATOM     72  O   UNL     1      11.898  15.861  -5.889  1.00  0.00    -0.744 OA
ENDBRANCH  68  69
ENDBRANCH  42  63
ENDBRANCH  16  17
ENDBRANCH   9  11
ENDBRANCH   8   9
ENDBRANCH   7   8
ENDBRANCH   6   7
ENDBRANCH   5   6
ENDBRANCH   4   5
ENDBRANCH   3   4
ENDBRANCH   2   3
ENDBRANCH   1   2
BRANCH   1  73
ATOM     73  C   UNL     1       5.036  -1.473  -2.796  1.00  0.00     0.188 C 
BRANCH  73  74
ATOM     74  O   UNL     1       4.049  -1.480  -3.967  1.00  0.00    -0.376 OA
BRANCH  74  75
ATOM     75  C   UNL     1       2.713  -2.446  -5.097  1.00  0.00     0.202 C 
BRANCH  75  76
ATOM     76  C   UNL     1       2.718  -3.955  -5.824  1.00  0.00     0.261 C 
BRANCH  76  77
ATOM     77  O   UNL     1       3.120  -5.103  -5.027  1.00  0.00    -0.463 OA
BRANCH  77  78
ATOM     78  C   UNL     1       4.231  -5.740  -5.482  1.00  0.00     0.310 C 
ATOM     79  O   UNL     1       4.527  -5.777  -6.673  1.00  0.00    -0.252 OA
BRANCH  78  80
ATOM     80  C   UNL     1       5.127  -6.353  -4.379  1.00  0.00     0.116 C 
ATOM     81  C   UNL     1       6.589  -6.448  -4.918  1.00  0.00     0.043 C 
ATOM     82  C   UNL     1       5.156  -5.850  -2.897  1.00  0.00     0.097 C 
ATOM     83  C   UNL     1       7.460  -5.258  -4.621  1.00  0.00    -0.030 C 
ATOM     84  C   UNL     1       6.379  -5.012  -2.408  1.00  0.00     0.041 C 
ATOM     85  C   UNL     1       7.379  -4.615  -3.451  1.00  0.00    -0.030 C 
BRANCH  82  86
ATOM     86  C   UNL     1       3.869  -5.404  -2.192  1.00  0.00     0.228 C 
ATOM     87  O   UNL     1       3.418  -6.138  -1.297  1.00  0.00    -0.274 OA
ATOM     88  N   UNL     1       3.208  -4.238  -2.384  1.00  0.00    -0.326 N 
ATOM     89  H   UNL     1       2.424  -4.134  -1.798  1.00  0.00     0.169 HD
BRANCH  88  90
ATOM     90  C   UNL     1       3.404  -3.151  -3.240  1.00  0.00     0.041 A 
ATOM     91  C   UNL     1       2.360  -1.648  -3.087  1.00  0.00     0.027 A 
ATOM     92  C   UNL     1       4.678  -3.197  -4.534  1.00  0.00     0.027 A 
ATOM     93  C   UNL     1       2.571  -0.306  -4.287  1.00  0.00     0.024 A 
ATOM     94  C   UNL     1       4.845  -1.887  -5.710  1.00  0.00     0.024 A 
ATOM     95  C   UNL     1       3.820  -0.459  -5.573  1.00  0.00     0.088 A 
BRANCH  95  96
ATOM     96  S   UNL     1       4.126   0.773  -6.765  1.00  0.00     0.264 S 
ATOM     97  O   UNL     1       3.692   1.991  -6.116  1.00  0.00    -0.201 OA
ATOM     98  O   UNL     1       5.487   0.580  -7.209  1.00  0.00    -0.201 OA
BRANCH  96  99
ATOM     99  N   UNL     1       3.001   0.218  -7.973  1.00  0.00    -0.266 N 
ATOM    100  C   UNL     1       3.663  -0.355  -9.219  1.00  0.00     0.140 C 
ATOM    101  C   UNL     1       2.162   1.281  -8.428  1.00  0.00     0.055 A 
ATOM    102  C   UNL     1       3.002   0.334 -10.426  1.00  0.00     0.060 C 
ATOM    103  C   UNL     1       2.342   1.502  -9.782  1.00  0.00    -0.022 A 
ATOM    104  C   UNL     1       1.395   2.111  -7.631  1.00  0.00     0.027 A 
ATOM    105  C   UNL     1       1.952   2.704 -10.330  1.00  0.00     0.006 A 
ATOM    106  C   UNL     1       1.014   3.333  -8.166  1.00  0.00     0.002 A 
ATOM    107  C   UNL     1       1.331   3.642  -9.496  1.00  0.00     0.000 A 
ENDBRANCH  96  99
ENDBRANCH  95  96
ENDBRANCH  88  90
ENDBRANCH  82  86
ENDBRANCH  78  80
ENDBRANCH  77  78
ENDBRANCH  76  77
ENDBRANCH  75  76
ENDBRANCH  74  75
ENDBRANCH  73  74
ENDBRANCH   1  73
TORSDOF 27
