REMARK SMILES O=C(OCCOCCOCCOCCOC(=O)[C@@H]1[C@@H](C(=O)Nc2cccc([N+](=O)[O-])c2)[C@H]2C=C[C@@H]1O2)c1ccc(-c2c3nc(c(-c4ccc(S(=O)(=O)[O-])cc4)c4ccc([nH]4)c(-c4ccc(S(=O)(=O)[O-])cc4)c4nc(c(-c5ccc(S(=O)(=O)[O-])cc5)c5ccc2[nH]5)C=C4)C=C3)cc1
REMARK SMILES IDX 9 1 8 2 7 3 6 4 5 5 4 6 3 7 2 8 1 9 37 10 38 11 96 12 39 13
REMARK SMILES IDX 95 14 40 15 41 16 42 17 89 18 43 19 94 20 88 21 90 22 44 23
REMARK SMILES IDX 93 24 87 25 86 26 45 28 75 29 56 30 74 31 57 32 60 33 73 34
REMARK SMILES IDX 91 35 58 36 59 37 72 39 92 40 61 41 46 42 47 43 55 44 48 45
REMARK SMILES IDX 54 46 49 47 50 48 51 49 52 50 53 51 76 52 77 53 85 54 78 55
REMARK SMILES IDX 84 56 79 57 80 58 81 59 82 60 83 61 62 62 63 63 71 64 64 65
REMARK SMILES IDX 70 66 65 67 66 68 67 69 68 70 69 71 10 72 11 73 12 74 13 75
REMARK SMILES IDX 14 76 15 77 16 78 17 79 18 80 19 81 35 82 32 83 34 84 36 85
REMARK SMILES IDX 33 86 20 87 21 88 22 89 23 91 24 92 31 93 25 94 27 95 26 96
REMARK SMILES IDX 28 97 29 98 30 99
REMARK H PARENT 90 27 60 38 22 90
REMARK Flexibility Score: inf
ROOT
ATOM      1  O   UNL     1       2.557  -3.058  -2.421  1.00  0.00    -0.377 OA
ENDROOT
BRANCH   1   2
ATOM      2  C   UNL     1       1.793  -1.977  -1.886  1.00  0.00     0.188 C 
BRANCH   2   3
ATOM      3  C   UNL     1       2.273  -1.442  -0.536  1.00  0.00     0.188 C 
BRANCH   3   4
ATOM      4  O   UNL     1       3.537  -0.811  -0.714  1.00  0.00    -0.376 OA
BRANCH   4   5
ATOM      5  C   UNL     1       4.469  -0.834   0.361  1.00  0.00     0.202 C 
BRANCH   5   6
ATOM      6  C   UNL     1       4.104  -0.013   1.594  1.00  0.00     0.261 C 
BRANCH   6   7
ATOM      7  O   UNL     1       2.694   0.224   1.725  1.00  0.00    -0.460 OA
BRANCH   7   8
ATOM      8  C   UNL     1       2.006   1.286   1.232  1.00  0.00     0.338 C 
ATOM      9  O   UNL     1       0.806   1.400   1.481  1.00  0.00    -0.246 OA
BRANCH   8  10
ATOM     10  C   UNL     1       2.667   2.345   0.429  1.00  0.00     0.060 A 
ATOM     11  C   UNL     1       3.598   2.091  -0.574  1.00  0.00     0.016 A 
ATOM     12  C   UNL     1       2.282   3.669   0.651  1.00  0.00     0.016 A 
ATOM     13  C   UNL     1       4.295   3.098  -1.198  1.00  0.00     0.010 A 
ATOM     14  C   UNL     1       2.899   4.701  -0.057  1.00  0.00     0.010 A 
ATOM     15  C   UNL     1       3.950   4.411  -0.940  1.00  0.00    -0.014 A 
BRANCH  15  16
ATOM     16  C   UNL     1       4.837   5.454  -1.463  1.00  0.00     0.031 A 
ATOM     17  C   UNL     1       5.646   6.213  -0.462  1.00  0.00     0.074 A 
ATOM     18  C   UNL     1       5.003   5.603  -2.788  1.00  0.00     0.049 A 
ATOM     19  N   UNL     1       6.324   7.313  -0.613  1.00  0.00    -0.248 NA
ATOM     20  C   UNL     1       5.687   5.659   0.906  1.00  0.00     0.031 C 
ATOM     21  C   UNL     1       4.401   4.755  -3.826  1.00  0.00     0.029 A 
ATOM     22  N   UNL     1       5.748   6.506  -3.492  1.00  0.00    -0.354 N 
ATOM     23  C   UNL     1       6.793   7.631   0.654  1.00  0.00     0.074 A 
ATOM     24  C   UNL     1       6.346   6.601   1.560  1.00  0.00     0.031 C 
ATOM     25  C   UNL     1       4.817   5.172  -5.031  1.00  0.00     0.029 A 
ATOM     26  C   UNL     1       5.609   6.380  -4.853  1.00  0.00     0.049 A 
ATOM     27  H   UNL     1       6.327   7.179  -3.067  1.00  0.00     0.167 HD
ATOM     28  C   UNL     1       7.509   8.719   1.014  1.00  0.00     0.031 A 
ATOM     29  C   UNL     1       6.016   7.205  -5.834  1.00  0.00     0.031 A 
ATOM     30  C   UNL     1       7.923   9.703   0.054  1.00  0.00     0.049 A 
ATOM     31  C   UNL     1       6.725   8.461  -5.411  1.00  0.00     0.074 A 
ATOM     32  C   UNL     1       8.583  10.897   0.259  1.00  0.00     0.029 A 
ATOM     33  N   UNL     1       7.713   9.583  -1.317  1.00  0.00    -0.354 N 
ATOM     34  N   UNL     1       7.055   8.847  -4.198  1.00  0.00    -0.248 NA
ATOM     35  C   UNL     1       7.096   9.402  -6.470  1.00  0.00     0.031 C 
ATOM     36  C   UNL     1       8.727  11.521  -0.986  1.00  0.00     0.029 A 
ATOM     37  C   UNL     1       8.220  10.685  -1.973  1.00  0.00     0.049 A 
ATOM     38  H   UNL     1       7.267   8.822  -1.754  1.00  0.00     0.167 HD
ATOM     39  C   UNL     1       7.691  10.070  -4.346  1.00  0.00     0.074 A 
ATOM     40  C   UNL     1       7.710  10.350  -5.773  1.00  0.00     0.031 C 
ATOM     41  C   UNL     1       8.213  10.893  -3.402  1.00  0.00     0.031 A 
BRANCH  28  42
ATOM     42  C   UNL     1       7.753   8.922   2.483  1.00  0.00    -0.014 A 
ATOM     43  C   UNL     1       8.607   8.082   3.222  1.00  0.00     0.010 A 
ATOM     44  C   UNL     1       7.045   9.935   3.157  1.00  0.00     0.010 A 
ATOM     45  C   UNL     1       8.701   8.213   4.612  1.00  0.00     0.020 A 
ATOM     46  C   UNL     1       7.159  10.089   4.541  1.00  0.00     0.020 A 
ATOM     47  C   UNL     1       7.968   9.211   5.263  1.00  0.00     0.054 A 
BRANCH  47  48
ATOM     48  S   UNL     1       8.090   9.346   7.068  1.00  0.00     0.124 S 
ATOM     49  O   UNL     1       7.326   8.182   7.509  1.00  0.00    -0.237 OA
ATOM     50  O   UNL     1       9.531   9.274   7.298  1.00  0.00    -0.237 OA
ATOM     51  O   UNL     1       7.479  10.640   7.361  1.00  0.00    -0.744 OA
ENDBRANCH  47  48
ENDBRANCH  28  42
BRANCH  29  52
ATOM     52  C   UNL     1       5.678   6.909  -7.254  1.00  0.00    -0.014 A 
ATOM     53  C   UNL     1       6.681   6.606  -8.188  1.00  0.00     0.010 A 
ATOM     54  C   UNL     1       4.332   6.881  -7.673  1.00  0.00     0.010 A 
ATOM     55  C   UNL     1       6.348   6.286  -9.511  1.00  0.00     0.020 A 
ATOM     56  C   UNL     1       3.992   6.532  -8.983  1.00  0.00     0.020 A 
ATOM     57  C   UNL     1       5.005   6.246  -9.898  1.00  0.00     0.054 A 
BRANCH  57  58
ATOM     58  S   UNL     1       4.596   5.771 -11.601  1.00  0.00     0.124 S 
ATOM     59  O   UNL     1       5.033   6.941 -12.356  1.00  0.00    -0.237 OA
ATOM     60  O   UNL     1       5.394   4.561 -11.789  1.00  0.00    -0.237 OA
ATOM     61  O   UNL     1       3.152   5.555 -11.560  1.00  0.00    -0.744 OA
ENDBRANCH  57  58
ENDBRANCH  29  52
BRANCH  41  62
ATOM     62  C   UNL     1       8.897  12.132  -3.895  1.00  0.00    -0.014 A 
ATOM     63  C   UNL     1       8.162  13.233  -4.364  1.00  0.00     0.010 A 
ATOM     64  C   UNL     1      10.298  12.216  -3.798  1.00  0.00     0.010 A 
ATOM     65  C   UNL     1       8.824  14.399  -4.746  1.00  0.00     0.020 A 
ATOM     66  C   UNL     1      10.958  13.391  -4.150  1.00  0.00     0.020 A 
ATOM     67  C   UNL     1      10.217  14.472  -4.631  1.00  0.00     0.054 A 
BRANCH  67  68
ATOM     68  S   UNL     1      11.046  16.023  -5.063  1.00  0.00     0.124 S 
ATOM     69  O   UNL     1      10.970  16.009  -6.521  1.00  0.00    -0.237 OA
ATOM     70  O   UNL     1      10.216  17.024  -4.398  1.00  0.00    -0.237 OA
ATOM     71  O   UNL     1      12.387  15.865  -4.506  1.00  0.00    -0.744 OA
ENDBRANCH  67  68
ENDBRANCH  41  62
ENDBRANCH  15  16
ENDBRANCH   8  10
ENDBRANCH   7   8
ENDBRANCH   6   7
ENDBRANCH   5   6
ENDBRANCH   4   5
ENDBRANCH   3   4
ENDBRANCH   2   3
ENDBRANCH   1   2
BRANCH   1  72
ATOM     72  C   UNL     1       3.963  -2.922  -2.304  1.00  0.00     0.188 C 
BRANCH  72  73
ATOM     73  C   UNL     1       4.732  -1.974  -3.253  1.00  0.00     0.188 C 
BRANCH  73  74
ATOM     74  O   UNL     1       4.069  -0.803  -3.673  1.00  0.00    -0.376 OA
BRANCH  74  75
ATOM     75  C   UNL     1       3.238  -0.804  -4.829  1.00  0.00     0.202 C 
BRANCH  75  76
ATOM     76  C   UNL     1       2.975  -2.027  -5.736  1.00  0.00     0.261 C 
BRANCH  76  77
ATOM     77  O   UNL     1       3.151  -3.307  -5.120  1.00  0.00    -0.463 OA
BRANCH  77  78
ATOM     78  C   UNL     1       4.069  -4.150  -5.663  1.00  0.00     0.312 C 
ATOM     79  O   UNL     1       4.670  -3.948  -6.726  1.00  0.00    -0.252 OA
BRANCH  78  80
ATOM     80  C   UNL     1       4.452  -5.220  -4.672  1.00  0.00     0.147 C 
ATOM     81  C   UNL     1       5.327  -6.348  -5.242  1.00  0.00     0.129 C 
ATOM     82  C   UNL     1       3.220  -5.967  -4.153  1.00  0.00     0.157 C 
ATOM     83  C   UNL     1       4.444  -7.575  -4.962  1.00  0.00     0.155 C 
ATOM     84  C   UNL     1       3.587  -6.842  -2.987  1.00  0.00     0.004 C 
ATOM     85  O   UNL     1       3.124  -6.995  -5.177  1.00  0.00    -0.365 OA
ATOM     86  C   UNL     1       4.331  -7.838  -3.488  1.00  0.00     0.004 C 
BRANCH  81  87
ATOM     87  C   UNL     1       6.748  -6.545  -4.702  1.00  0.00     0.231 C 
ATOM     88  O   UNL     1       7.369  -7.572  -4.994  1.00  0.00    -0.274 OA
ATOM     89  N   UNL     1       7.446  -5.479  -4.188  1.00  0.00    -0.325 N 
ATOM     90  H   UNL     1       8.104  -5.073  -4.798  1.00  0.00     0.169 HD
BRANCH  89  91
ATOM     91  C   UNL     1       7.357  -4.880  -2.908  1.00  0.00     0.048 A 
ATOM     92  C   UNL     1       8.113  -3.719  -2.689  1.00  0.00     0.026 A 
ATOM     93  C   UNL     1       6.586  -5.385  -1.860  1.00  0.00     0.111 A 
ATOM     94  C   UNL     1       8.055  -3.032  -1.469  1.00  0.00     0.009 A 
ATOM     95  C   UNL     1       6.512  -4.680  -0.642  1.00  0.00     0.271 A 
ATOM     96  C   UNL     1       7.241  -3.503  -0.442  1.00  0.00     0.086 A 
BRANCH  95  97
ATOM     97  N   UNL     1       5.597  -5.141   0.408  1.00  0.00     0.062 N 
ATOM     98  O   UNL     1       5.233  -4.312   1.255  1.00  0.00    -0.258 OA
ATOM     99  O   UNL     1       5.225  -6.321   0.370  1.00  0.00    -0.258 OA
ENDBRANCH  95  97
ENDBRANCH  89  91
ENDBRANCH  81  87
ENDBRANCH  78  80
ENDBRANCH  77  78
ENDBRANCH  76  77
ENDBRANCH  75  76
ENDBRANCH  74  75
ENDBRANCH  73  74
ENDBRANCH  72  73
ENDBRANCH   1  72
TORSDOF 26
