REMARK SMILES O=C(OCCOCCOCCOCCOC(=O)c1cccn1CC(=O)N1CCc2ccccc2C1)c1ccc(-c2c3nc(c(-c4ccc(S(=O)(=O)[O-])cc4)c4ccc([nH]4)c(-c4ccc(S(=O)(=O)[O-])cc4)c4nc(c(-c5ccc(S(=O)(=O)[O-])cc5)c5ccc2[nH]5)C=C4)C=C3)cc1
REMARK SMILES IDX 9 1 8 2 7 3 6 4 5 5 4 6 3 7 2 8 1 9 36 10 37 11 95 12 38 13
REMARK SMILES IDX 94 14 39 15 40 16 41 17 88 18 42 19 93 20 87 21 89 22 43 23
REMARK SMILES IDX 92 24 86 25 85 26 44 28 74 29 55 30 73 31 56 32 59 33 72 34
REMARK SMILES IDX 90 35 57 36 58 37 71 39 91 40 60 41 45 42 46 43 54 44 47 45
REMARK SMILES IDX 53 46 48 47 49 48 50 49 51 50 52 51 75 52 76 53 84 54 77 55
REMARK SMILES IDX 83 56 78 57 79 58 80 59 81 60 82 61 61 62 62 63 70 64 63 65
REMARK SMILES IDX 69 66 64 67 65 68 66 69 67 70 68 71 10 72 11 73 12 74 13 75
REMARK SMILES IDX 14 76 15 77 16 78 17 79 18 80 19 81 22 82 20 83 21 84 23 85
REMARK SMILES IDX 24 86 25 87 26 88 27 89 35 90 28 91 34 92 29 93 33 94 30 95
REMARK SMILES IDX 32 96 31 97
REMARK H PARENT 89 27 59 38
REMARK Flexibility Score: inf
ROOT
ATOM      1  O   UNL     1       2.613   1.139  -2.895  1.00  0.00    -0.377 OA
ENDROOT
BRANCH   1   2
ATOM      2  C   UNL     1       2.313   0.907  -1.536  1.00  0.00     0.188 C 
BRANCH   2   3
ATOM      3  C   UNL     1       3.061   1.823  -0.562  1.00  0.00     0.188 C 
BRANCH   3   4
ATOM      4  O   UNL     1       4.450   1.698  -0.269  1.00  0.00    -0.376 OA
BRANCH   4   5
ATOM      5  C   UNL     1       5.211   0.504  -0.206  1.00  0.00     0.202 C 
BRANCH   5   6
ATOM      6  C   UNL     1       4.777  -0.720   0.606  1.00  0.00     0.261 C 
BRANCH   6   7
ATOM      7  O   UNL     1       3.423  -1.120   0.344  1.00  0.00    -0.460 OA
BRANCH   7   8
ATOM      8  C   UNL     1       2.306  -0.815   1.055  1.00  0.00     0.338 C 
ATOM      9  O   UNL     1       1.192  -1.061   0.603  1.00  0.00    -0.246 OA
BRANCH   8  10
ATOM     10  C   UNL     1       2.422  -0.219   2.396  1.00  0.00     0.060 A 
ATOM     11  C   UNL     1       3.452   0.650   2.743  1.00  0.00     0.016 A 
ATOM     12  C   UNL     1       1.464  -0.582   3.348  1.00  0.00     0.016 A 
ATOM     13  C   UNL     1       3.739   0.869   4.061  1.00  0.00     0.010 A 
ATOM     14  C   UNL     1       1.653  -0.226   4.673  1.00  0.00     0.010 A 
ATOM     15  C   UNL     1       2.837   0.425   5.024  1.00  0.00    -0.014 A 
BRANCH  15  16
ATOM     16  C   UNL     1       3.133   0.873   6.385  1.00  0.00     0.031 A 
ATOM     17  C   UNL     1       3.102   2.396   6.453  1.00  0.00     0.074 A 
ATOM     18  C   UNL     1       3.526  -0.080   7.271  1.00  0.00     0.049 A 
ATOM     19  N   UNL     1       3.902   3.206   7.074  1.00  0.00    -0.248 NA
ATOM     20  C   UNL     1       2.172   3.125   5.545  1.00  0.00     0.031 C 
ATOM     21  C   UNL     1       3.599  -1.527   6.975  1.00  0.00     0.029 A 
ATOM     22  N   UNL     1       3.959  -0.038   8.573  1.00  0.00    -0.354 N 
ATOM     23  C   UNL     1       3.445   4.508   6.800  1.00  0.00     0.074 A 
ATOM     24  C   UNL     1       2.530   4.399   5.704  1.00  0.00     0.031 C 
ATOM     25  C   UNL     1       4.079  -2.206   8.036  1.00  0.00     0.029 A 
ATOM     26  C   UNL     1       4.348  -1.280   9.119  1.00  0.00     0.049 A 
ATOM     27  H   UNL     1       3.995   0.800   9.089  1.00  0.00     0.167 HD
ATOM     28  C   UNL     1       3.670   5.569   7.626  1.00  0.00     0.031 A 
ATOM     29  C   UNL     1       4.887  -1.539  10.346  1.00  0.00     0.031 A 
ATOM     30  C   UNL     1       4.446   5.168   8.755  1.00  0.00     0.049 A 
ATOM     31  C   UNL     1       4.896  -0.256  11.080  1.00  0.00     0.074 A 
ATOM     32  C   UNL     1       5.758   4.815   8.936  1.00  0.00     0.029 A 
ATOM     33  N   UNL     1       3.724   4.766   9.858  1.00  0.00    -0.354 N 
ATOM     34  N   UNL     1       3.842   0.379  11.499  1.00  0.00    -0.248 NA
ATOM     35  C   UNL     1       6.177   0.433  11.289  1.00  0.00     0.031 C 
ATOM     36  C   UNL     1       5.708   3.821   9.943  1.00  0.00     0.029 A 
ATOM     37  C   UNL     1       4.396   3.705  10.415  1.00  0.00     0.049 A 
ATOM     38  H   UNL     1       2.885   5.164  10.184  1.00  0.00     0.167 HD
ATOM     39  C   UNL     1       4.302   1.665  11.659  1.00  0.00     0.074 A 
ATOM     40  C   UNL     1       5.736   1.569  11.824  1.00  0.00     0.031 C 
ATOM     41  C   UNL     1       3.614   2.702  11.113  1.00  0.00     0.031 A 
BRANCH  28  42
ATOM     42  C   UNL     1       2.938   6.883   7.711  1.00  0.00    -0.014 A 
ATOM     43  C   UNL     1       3.468   7.851   8.599  1.00  0.00     0.010 A 
ATOM     44  C   UNL     1       1.624   7.071   7.258  1.00  0.00     0.010 A 
ATOM     45  C   UNL     1       2.667   8.853   9.147  1.00  0.00     0.020 A 
ATOM     46  C   UNL     1       0.826   8.104   7.767  1.00  0.00     0.020 A 
ATOM     47  C   UNL     1       1.334   8.941   8.758  1.00  0.00     0.054 A 
BRANCH  47  48
ATOM     48  S   UNL     1       0.246  10.093   9.634  1.00  0.00     0.124 S 
ATOM     49  O   UNL     1      -0.005   9.380  10.882  1.00  0.00    -0.237 OA
ATOM     50  O   UNL     1       1.077  11.290   9.752  1.00  0.00    -0.237 OA
ATOM     51  O   UNL     1      -0.899  10.227   8.737  1.00  0.00    -0.744 OA
ENDBRANCH  47  48
ENDBRANCH  28  42
BRANCH  29  52
ATOM     52  C   UNL     1       5.556  -2.715  11.009  1.00  0.00    -0.014 A 
ATOM     53  C   UNL     1       5.713  -3.992  10.454  1.00  0.00     0.010 A 
ATOM     54  C   UNL     1       6.200  -2.502  12.257  1.00  0.00     0.010 A 
ATOM     55  C   UNL     1       6.583  -4.942  11.034  1.00  0.00     0.020 A 
ATOM     56  C   UNL     1       7.100  -3.411  12.817  1.00  0.00     0.020 A 
ATOM     57  C   UNL     1       7.310  -4.623  12.183  1.00  0.00     0.054 A 
BRANCH  57  58
ATOM     58  S   UNL     1       8.630  -5.710  12.788  1.00  0.00     0.124 S 
ATOM     59  O   UNL     1       7.929  -6.537  13.765  1.00  0.00    -0.237 OA
ATOM     60  O   UNL     1       9.071  -6.399  11.578  1.00  0.00    -0.237 OA
ATOM     61  O   UNL     1       9.603  -4.770  13.344  1.00  0.00    -0.744 OA
ENDBRANCH  57  58
ENDBRANCH  29  52
BRANCH  41  62
ATOM     62  C   UNL     1       2.127   2.445  10.885  1.00  0.00    -0.014 A 
ATOM     63  C   UNL     1       1.272   2.149  11.960  1.00  0.00     0.010 A 
ATOM     64  C   UNL     1       1.565   2.399   9.596  1.00  0.00     0.010 A 
ATOM     65  C   UNL     1      -0.076   1.803  11.750  1.00  0.00     0.020 A 
ATOM     66  C   UNL     1       0.224   2.050   9.368  1.00  0.00     0.020 A 
ATOM     67  C   UNL     1      -0.592   1.749  10.453  1.00  0.00     0.054 A 
BRANCH  67  68
ATOM     68  S   UNL     1      -2.321   1.245  10.204  1.00  0.00     0.124 S 
ATOM     69  O   UNL     1      -2.386  -0.042  10.893  1.00  0.00    -0.237 OA
ATOM     70  O   UNL     1      -3.062   2.330  10.839  1.00  0.00    -0.237 OA
ATOM     71  O   UNL     1      -2.458   1.167   8.750  1.00  0.00    -0.744 OA
ENDBRANCH  67  68
ENDBRANCH  41  62
ENDBRANCH  15  16
ENDBRANCH   8  10
ENDBRANCH   7   8
ENDBRANCH   6   7
ENDBRANCH   5   6
ENDBRANCH   4   5
ENDBRANCH   3   4
ENDBRANCH   2   3
ENDBRANCH   1   2
BRANCH   1  72
ATOM     72  C   UNL     1       3.853   0.597  -3.303  1.00  0.00     0.188 C 
BRANCH  72  73
ATOM     73  C   UNL     1       4.891   1.696  -3.544  1.00  0.00     0.188 C 
BRANCH  73  74
ATOM     74  O   UNL     1       4.559   2.804  -4.375  1.00  0.00    -0.376 OA
BRANCH  74  75
ATOM     75  C   UNL     1       3.370   2.772  -5.145  1.00  0.00     0.202 C 
BRANCH  75  76
ATOM     76  C   UNL     1       3.477   2.019  -6.475  1.00  0.00     0.261 C 
BRANCH  76  77
ATOM     77  O   UNL     1       3.659   0.590  -6.401  1.00  0.00    -0.459 OA
BRANCH  77  78
ATOM     78  C   UNL     1       4.933   0.117  -6.435  1.00  0.00     0.355 C 
ATOM     79  O   UNL     1       5.953   0.809  -6.419  1.00  0.00    -0.244 OA
BRANCH  78  80
ATOM     80  C   UNL     1       4.936  -1.329  -6.472  1.00  0.00     0.128 A 
ATOM     81  C   UNL     1       4.290  -2.140  -7.397  1.00  0.00     0.035 A 
ATOM     82  N   UNL     1       5.628  -2.189  -5.626  1.00  0.00    -0.333 N 
ATOM     83  C   UNL     1       4.742  -3.467  -7.214  1.00  0.00     0.020 A 
ATOM     84  C   UNL     1       5.609  -3.461  -6.147  1.00  0.00     0.087 A 
BRANCH  82  85
ATOM     85  C   UNL     1       6.326  -1.826  -4.400  1.00  0.00     0.222 C 
BRANCH  85  86
ATOM     86  C   UNL     1       6.043  -2.577  -3.095  1.00  0.00     0.242 C 
ATOM     87  O   UNL     1       6.982  -2.615  -2.281  1.00  0.00    -0.273 OA
BRANCH  86  88
ATOM     88  N   UNL     1       4.811  -3.102  -2.720  1.00  0.00    -0.336 N 
ATOM     89  C   UNL     1       3.630  -3.248  -3.569  1.00  0.00     0.124 C 
ATOM     90  C   UNL     1       4.799  -3.863  -1.459  1.00  0.00     0.155 C 
ATOM     91  C   UNL     1       2.303  -3.136  -2.823  1.00  0.00     0.057 C 
ATOM     92  C   UNL     1       3.455  -4.293  -0.925  1.00  0.00    -0.025 A 
ATOM     93  C   UNL     1       2.264  -4.002  -1.601  1.00  0.00    -0.041 A 
ATOM     94  C   UNL     1       3.390  -4.996   0.291  1.00  0.00     0.006 A 
ATOM     95  C   UNL     1       1.036  -4.430  -1.077  1.00  0.00     0.004 A 
ATOM     96  C   UNL     1       2.165  -5.418   0.808  1.00  0.00     0.000 A 
ATOM     97  C   UNL     1       0.988  -5.145   0.118  1.00  0.00     0.000 A 
ENDBRANCH  86  88
ENDBRANCH  85  86
ENDBRANCH  82  85
ENDBRANCH  78  80
ENDBRANCH  77  78
ENDBRANCH  76  77
ENDBRANCH  75  76
ENDBRANCH  74  75
ENDBRANCH  73  74
ENDBRANCH  72  73
ENDBRANCH   1  72
TORSDOF 26
