REMARK SMILES Cc1cc(N2N=C(C(=O)OCCOCCOCCOCCOC(=O)c3ccc(-c4c5nc(c(-c6ccc(S(=O)(=O)[O-])cc6)c6ccc([nH]6)c(-c6ccc(S(=O)(=O)[O-])cc6)c6nc(c(-c7ccc(S(=O)(=O)[O-])cc7)c7ccc4[nH]7)C=C6)C=C5)cc3)C[C@H]2c2ccccc2)c([N+](=O)[O-])cc1C
REMARK SMILES IDX 17 1 16 2 15 3 14 4 13 5 12 6 11 7 10 8 8 9 9 10 7 11 5 12
REMARK SMILES IDX 6 13 86 14 85 15 4 16 1 17 2 18 3 19 98 20 97 21 99 22 93 23
REMARK SMILES IDX 94 24 95 25 96 26 87 27 88 28 92 29 89 30 91 31 90 32 18 33
REMARK SMILES IDX 19 34 20 35 21 36 22 37 23 38 24 39 25 40 26 41 84 42 27 43
REMARK SMILES IDX 83 44 28 45 29 46 30 47 77 48 31 49 82 50 76 51 78 52 32 53
REMARK SMILES IDX 81 54 75 55 74 56 33 58 63 59 44 60 62 61 45 62 48 63 61 64
REMARK SMILES IDX 79 65 46 66 47 67 60 69 80 70 49 71 34 72 35 73 43 74 36 75
REMARK SMILES IDX 42 76 37 77 38 78 39 79 40 80 41 81 64 82 65 83 73 84 66 85
REMARK SMILES IDX 72 86 67 87 68 88 69 89 70 90 71 91 50 92 51 93 59 94 52 95
REMARK SMILES IDX 58 96 53 97 54 98 55 99 56 100 57 101
REMARK H PARENT 78 57 48 68
REMARK Flexibility Score: inf
ROOT
ATOM      1  C   UNL     1      -9.500   0.720   0.615  1.00  0.00     0.188 C 
ENDROOT
BRANCH   1   2
ATOM      2  O   UNL     1      -8.160   1.208   0.559  1.00  0.00    -0.377 OA
BRANCH   2   3
ATOM      3  C   UNL     1      -7.118   0.346   0.986  1.00  0.00     0.188 C 
BRANCH   3   4
ATOM      4  C   UNL     1      -6.852   0.408   2.499  1.00  0.00     0.188 C 
BRANCH   4   5
ATOM      5  O   UNL     1      -7.962   0.827   3.270  1.00  0.00    -0.376 OA
BRANCH   5   6
ATOM      6  C   UNL     1      -8.243   2.198   3.513  1.00  0.00     0.202 C 
BRANCH   6   7
ATOM      7  C   UNL     1      -7.794   3.392   2.645  1.00  0.00     0.261 C 
BRANCH   7   8
ATOM      8  O   UNL     1      -6.763   3.150   1.695  1.00  0.00    -0.459 OA
BRANCH   8   9
ATOM      9  C   UNL     1      -5.501   3.375   2.078  1.00  0.00     0.354 C 
ATOM     10  O   UNL     1      -5.101   3.846   3.123  1.00  0.00    -0.245 OA
BRANCH   9  11
ATOM     11  C   UNL     1      -4.598   2.781   1.026  1.00  0.00     0.148 C 
ATOM     12  N   UNL     1      -3.000   1.734   0.134  1.00  0.00    -0.250 N 
ATOM     13  N   UNL     1      -3.575   2.037   1.329  1.00  0.00    -0.169 NA
ATOM     14  C   UNL     1      -3.507   2.571  -0.976  1.00  0.00     0.144 C 
ATOM     15  C   UNL     1      -4.900   2.925  -0.440  1.00  0.00     0.098 C 
BRANCH  12  16
ATOM     16  C   UNL     1      -1.890   0.910   0.108  1.00  0.00     0.138 A 
ATOM     17  C   UNL     1       1.876   1.502   0.244  1.00  0.00     0.045 C 
ATOM     18  C   UNL     1       0.576   0.749   0.184  1.00  0.00    -0.046 A 
ATOM     19  C   UNL     1      -0.620   1.485   0.271  1.00  0.00     0.039 A 
ATOM     20  C   UNL     1       0.514  -0.644   0.031  1.00  0.00    -0.041 A 
ATOM     21  C   UNL     1      -0.747  -1.255  -0.056  1.00  0.00     0.091 A 
ATOM     22  C   UNL     1       1.736  -1.520  -0.013  1.00  0.00     0.045 C 
ATOM     23  C   UNL     1      -1.929  -0.484  -0.030  1.00  0.00     0.294 A 
BRANCH  23  24
ATOM     24  N   UNL     1      -3.198  -1.204  -0.149  1.00  0.00     0.065 N 
ATOM     25  O   UNL     1      -3.249  -2.344   0.342  1.00  0.00    -0.258 OA
ATOM     26  O   UNL     1      -4.120  -0.683  -0.794  1.00  0.00    -0.258 OA
ENDBRANCH  23  24
ENDBRANCH  12  16
BRANCH  14  27
ATOM     27  C   UNL     1      -2.625   3.790  -1.256  1.00  0.00    -0.023 A 
ATOM     28  C   UNL     1      -2.958   5.096  -0.850  1.00  0.00     0.006 A 
ATOM     29  C   UNL     1      -1.416   3.619  -1.953  1.00  0.00     0.006 A 
ATOM     30  C   UNL     1      -2.114   6.176  -1.113  1.00  0.00     0.000 A 
ATOM     31  C   UNL     1      -0.548   4.692  -2.172  1.00  0.00     0.000 A 
ATOM     32  C   UNL     1      -0.900   5.971  -1.756  1.00  0.00     0.000 A 
ENDBRANCH  14  27
ENDBRANCH   9  11
ENDBRANCH   8   9
ENDBRANCH   7   8
ENDBRANCH   6   7
ENDBRANCH   5   6
ENDBRANCH   4   5
ENDBRANCH   3   4
ENDBRANCH   2   3
ENDBRANCH   1   2
BRANCH   1  33
ATOM     33  C   UNL     1      -9.896  -0.445   1.552  1.00  0.00     0.188 C 
BRANCH  33  34
ATOM     34  O   UNL     1      -8.959  -1.512   1.604  1.00  0.00    -0.376 OA
BRANCH  34  35
ATOM     35  C   UNL     1      -9.229  -2.684   0.851  1.00  0.00     0.202 C 
BRANCH  35  36
ATOM     36  C   UNL     1      -9.233  -2.543  -0.678  1.00  0.00     0.261 C 
BRANCH  36  37
ATOM     37  O   UNL     1     -10.190  -1.623  -1.224  1.00  0.00    -0.460 OA
BRANCH  37  38
ATOM     38  C   UNL     1     -11.501  -1.862  -0.980  1.00  0.00     0.338 C 
ATOM     39  O   UNL     1     -11.977  -2.798  -0.382  1.00  0.00    -0.246 OA
BRANCH  38  40
ATOM     40  C   UNL     1     -12.251  -0.661  -1.416  1.00  0.00     0.060 A 
ATOM     41  C   UNL     1     -12.995   0.056  -0.471  1.00  0.00     0.016 A 
ATOM     42  C   UNL     1     -12.203  -0.240  -2.747  1.00  0.00     0.016 A 
ATOM     43  C   UNL     1     -13.713   1.189  -0.862  1.00  0.00     0.010 A 
ATOM     44  C   UNL     1     -12.937   0.882  -3.139  1.00  0.00     0.010 A 
ATOM     45  C   UNL     1     -13.715   1.589  -2.205  1.00  0.00    -0.014 A 
BRANCH  45  46
ATOM     46  C   UNL     1     -14.639   2.655  -2.667  1.00  0.00     0.031 A 
ATOM     47  C   UNL     1     -15.928   2.255  -3.333  1.00  0.00     0.074 A 
ATOM     48  C   UNL     1     -14.337   3.956  -2.506  1.00  0.00     0.049 A 
ATOM     49  N   UNL     1     -16.850   3.008  -3.872  1.00  0.00    -0.248 NA
ATOM     50  C   UNL     1     -16.211   0.811  -3.402  1.00  0.00     0.031 C 
ATOM     51  C   UNL     1     -13.140   4.473  -1.846  1.00  0.00     0.029 A 
ATOM     52  N   UNL     1     -15.015   5.083  -2.904  1.00  0.00    -0.354 N 
ATOM     53  C   UNL     1     -17.815   2.133  -4.358  1.00  0.00     0.074 A 
ATOM     54  C   UNL     1     -17.356   0.792  -4.068  1.00  0.00     0.031 C 
ATOM     55  C   UNL     1     -13.159   5.817  -1.898  1.00  0.00     0.029 A 
ATOM     56  C   UNL     1     -14.348   6.254  -2.630  1.00  0.00     0.049 A 
ATOM     57  H   UNL     1     -15.895   5.055  -3.345  1.00  0.00     0.167 HD
ATOM     58  C   UNL     1     -18.978   2.421  -4.989  1.00  0.00     0.031 A 
ATOM     59  C   UNL     1     -14.644   7.528  -2.958  1.00  0.00     0.031 A 
ATOM     60  C   UNL     1     -19.425   3.756  -5.288  1.00  0.00     0.049 A 
ATOM     61  C   UNL     1     -15.908   7.818  -3.729  1.00  0.00     0.074 A 
ATOM     62  C   UNL     1     -20.604   4.151  -5.895  1.00  0.00     0.029 A 
ATOM     63  N   UNL     1     -18.707   4.912  -5.020  1.00  0.00    -0.354 N 
ATOM     64  N   UNL     1     -16.834   6.984  -4.139  1.00  0.00    -0.248 NA
ATOM     65  C   UNL     1     -16.167   9.223  -4.077  1.00  0.00     0.031 C 
ATOM     66  C   UNL     1     -20.567   5.538  -6.060  1.00  0.00     0.029 A 
ATOM     67  C   UNL     1     -19.399   6.017  -5.488  1.00  0.00     0.049 A 
ATOM     68  H   UNL     1     -17.835   4.943  -4.564  1.00  0.00     0.167 HD
ATOM     69  C   UNL     1     -17.794   7.766  -4.776  1.00  0.00     0.074 A 
ATOM     70  C   UNL     1     -17.348   9.140  -4.676  1.00  0.00     0.031 C 
ATOM     71  C   UNL     1     -18.941   7.380  -5.389  1.00  0.00     0.031 A 
BRANCH  58  72
ATOM     72  C   UNL     1     -19.834   1.267  -5.441  1.00  0.00    -0.014 A 
ATOM     73  C   UNL     1     -20.530   0.464  -4.520  1.00  0.00     0.010 A 
ATOM     74  C   UNL     1     -19.985   1.017  -6.817  1.00  0.00     0.010 A 
ATOM     75  C   UNL     1     -21.337  -0.586  -4.966  1.00  0.00     0.020 A 
ATOM     76  C   UNL     1     -20.813  -0.014  -7.269  1.00  0.00     0.020 A 
ATOM     77  C   UNL     1     -21.474  -0.818  -6.339  1.00  0.00     0.054 A 
BRANCH  77  78
ATOM     78  S   UNL     1     -22.556  -2.166  -6.889  1.00  0.00     0.124 S 
ATOM     79  O   UNL     1     -21.793  -3.346  -6.493  1.00  0.00    -0.237 OA
ATOM     80  O   UNL     1     -23.779  -1.924  -6.128  1.00  0.00    -0.237 OA
ATOM     81  O   UNL     1     -22.670  -1.954  -8.330  1.00  0.00    -0.744 OA
ENDBRANCH  77  78
ENDBRANCH  58  72
BRANCH  59  82
ATOM     82  C   UNL     1     -13.705   8.629  -2.598  1.00  0.00    -0.014 A 
ATOM     83  C   UNL     1     -14.066   9.610  -1.659  1.00  0.00     0.010 A 
ATOM     84  C   UNL     1     -12.440   8.705  -3.210  1.00  0.00     0.010 A 
ATOM     85  C   UNL     1     -13.187  10.653  -1.349  1.00  0.00     0.020 A 
ATOM     86  C   UNL     1     -11.546   9.727  -2.880  1.00  0.00     0.020 A 
ATOM     87  C   UNL     1     -11.930  10.701  -1.958  1.00  0.00     0.054 A 
BRANCH  87  88
ATOM     88  S   UNL     1     -10.784  12.031  -1.500  1.00  0.00     0.124 S 
ATOM     89  O   UNL     1     -11.396  13.194  -2.135  1.00  0.00    -0.237 OA
ATOM     90  O   UNL     1     -10.839  12.003  -0.040  1.00  0.00    -0.237 OA
ATOM     91  O   UNL     1      -9.511  11.599  -2.074  1.00  0.00    -0.744 OA
ENDBRANCH  87  88
ENDBRANCH  59  82
BRANCH  71  92
ATOM     92  C   UNL     1     -19.812   8.457  -5.985  1.00  0.00    -0.014 A 
ATOM     93  C   UNL     1     -19.424   9.152  -7.144  1.00  0.00     0.010 A 
ATOM     94  C   UNL     1     -21.069   8.731  -5.414  1.00  0.00     0.010 A 
ATOM     95  C   UNL     1     -20.262  10.120  -7.704  1.00  0.00     0.020 A 
ATOM     96  C   UNL     1     -21.924   9.676  -5.988  1.00  0.00     0.020 A 
ATOM     97  C   UNL     1     -21.509  10.375  -7.123  1.00  0.00     0.054 A 
BRANCH  97  98
ATOM     98  S   UNL     1     -22.597  11.602  -7.898  1.00  0.00     0.124 S 
ATOM     99  O   UNL     1     -21.917  12.855  -7.581  1.00  0.00    -0.237 OA
ATOM    100  O   UNL     1     -22.570  11.210  -9.305  1.00  0.00    -0.237 OA
ATOM    101  O   UNL     1     -23.879  11.402  -7.226  1.00  0.00    -0.744 OA
ENDBRANCH  97  98
ENDBRANCH  71  92
ENDBRANCH  45  46
ENDBRANCH  38  40
ENDBRANCH  37  38
ENDBRANCH  36  37
ENDBRANCH  35  36
ENDBRANCH  34  35
ENDBRANCH  33  34
ENDBRANCH   1  33
TORSDOF 26
