REMARK SMILES O=C(OCCOCCOCCOCCOC(=O)c1ccc(-c2c3nc(c(-c4ccc(S(=O)(=O)[O-])cc4)c4ccc([nH]4)c(-c4ccc(S(=O)(=O)[O-])cc4)c4nc(c(-c5ccc(S(=O)(=O)[O-])cc5)c5ccc2[nH]5)C=C4)C=C3)cc1)C1=Cc2cc(Cl)cc(Cl)c2O[C@@H]1C(F)(F)F
REMARK SMILES IDX 10 1 9 2 8 3 7 4 6 5 5 6 4 7 3 8 2 9 1 10 78 11 79 12 89 13
REMARK SMILES IDX 80 14 88 15 81 16 87 17 82 18 85 19 83 20 84 21 86 22 90 23
REMARK SMILES IDX 91 24 92 25 93 26 11 27 12 28 13 29 14 30 15 31 16 32 17 33
REMARK SMILES IDX 18 34 19 35 77 36 20 37 76 38 21 39 22 40 23 41 70 42 24 43
REMARK SMILES IDX 75 44 69 45 71 46 25 47 74 48 68 49 67 50 26 52 56 53 37 54
REMARK SMILES IDX 55 55 38 56 41 57 54 58 72 59 39 60 40 61 53 63 73 64 42 65
REMARK SMILES IDX 27 66 28 67 36 68 29 69 35 70 30 71 31 72 32 73 33 74 34 75
REMARK SMILES IDX 57 76 58 77 66 78 59 79 65 80 60 81 61 82 62 83 63 84 64 85
REMARK SMILES IDX 43 86 44 87 52 88 45 89 51 90 46 91 47 92 48 93 49 94 50 95
REMARK H PARENT 71 51 41 62
REMARK Flexibility Score: inf
ROOT
ATOM      1  C   UNL     1       4.049  -0.839  -3.665  1.00  0.00     0.188 C 
ENDROOT
BRANCH   1   2
ATOM      2  O   UNL     1       2.709  -0.685  -4.071  1.00  0.00    -0.377 OA
BRANCH   2   3
ATOM      3  C   UNL     1       1.861  -0.409  -2.984  1.00  0.00     0.188 C 
BRANCH   3   4
ATOM      4  C   UNL     1       2.177   0.894  -2.240  1.00  0.00     0.188 C 
BRANCH   4   5
ATOM      5  O   UNL     1       3.497   1.249  -1.700  1.00  0.00    -0.376 OA
BRANCH   5   6
ATOM      6  C   UNL     1       4.252   0.964  -0.253  1.00  0.00     0.202 C 
BRANCH   6   7
ATOM      7  C   UNL     1       3.535  -0.281   1.391  1.00  0.00     0.261 C 
BRANCH   7   8
ATOM      8  O   UNL     1       2.617   0.153   2.515  1.00  0.00    -0.460 OA
BRANCH   8   9
ATOM      9  C   UNL     1       2.806   1.431   2.861  1.00  0.00     0.338 C 
ATOM     10  O   UNL     1       2.136   2.113   3.597  1.00  0.00    -0.246 OA
BRANCH   9  11
ATOM     11  C   UNL     1       3.668   1.793   1.746  1.00  0.00     0.087 C 
ATOM     12  C   UNL     1       5.053   1.324   1.874  1.00  0.00     0.027 C 
ATOM     13  C   UNL     1       2.414   1.159   0.437  1.00  0.00     0.316 C 
ATOM     14  C   UNL     1       5.732  -0.088   0.984  1.00  0.00     0.020 A 
ATOM     15  O   UNL     1       3.064  -0.457  -0.440  1.00  0.00    -0.474 OA
ATOM     16  C   UNL     1       7.022  -0.473   1.234  1.00  0.00     0.032 A 
ATOM     17  C   UNL     1       4.765  -1.062  -0.077  1.00  0.00     0.146 A 
ATOM     18  C   UNL     1       7.439  -1.643   0.575  1.00  0.00     0.043 A 
ATOM     19  C   UNL     1       5.253  -2.227  -0.618  1.00  0.00     0.085 A 
ATOM     20  Cl  UNL     1       9.077  -2.145   0.856  1.00  0.00    -0.084 Cl
ATOM     21  C   UNL     1       6.612  -2.473  -0.289  1.00  0.00     0.045 A 
ATOM     22  Cl  UNL     1       4.358  -3.380  -1.494  1.00  0.00    -0.080 Cl
BRANCH  13  23
ATOM     23  C   UNL     1       2.105   2.703  -0.124  1.00  0.00     0.430 C 
ATOM     24  F   UNL     1       1.218   2.857  -1.124  1.00  0.00    -0.167 F 
ATOM     25  F   UNL     1       1.540   3.388   0.920  1.00  0.00    -0.167 F 
ATOM     26  F   UNL     1       3.205   3.433  -0.437  1.00  0.00    -0.167 F 
ENDBRANCH  13  23
ENDBRANCH   9  11
ENDBRANCH   8   9
ENDBRANCH   7   8
ENDBRANCH   6   7
ENDBRANCH   5   6
ENDBRANCH   4   5
ENDBRANCH   3   4
ENDBRANCH   2   3
ENDBRANCH   1   2
BRANCH   1  27
ATOM     27  C   UNL     1       5.030   0.246  -4.121  1.00  0.00     0.188 C 
BRANCH  27  28
ATOM     28  O   UNL     1       4.610   1.484  -4.667  1.00  0.00    -0.376 OA
BRANCH  28  29
ATOM     29  C   UNL     1       3.417   1.592  -5.421  1.00  0.00     0.202 C 
BRANCH  29  30
ATOM     30  C   UNL     1       3.164   0.751  -6.683  1.00  0.00     0.261 C 
BRANCH  30  31
ATOM     31  O   UNL     1       3.461  -0.648  -6.600  1.00  0.00    -0.460 OA
BRANCH  31  32
ATOM     32  C   UNL     1       4.717  -0.996  -6.956  1.00  0.00     0.338 C 
ATOM     33  O   UNL     1       5.581  -0.257  -7.397  1.00  0.00    -0.246 OA
BRANCH  32  34
ATOM     34  C   UNL     1       4.980  -2.396  -6.551  1.00  0.00     0.060 A 
ATOM     35  C   UNL     1       6.162  -2.668  -5.843  1.00  0.00     0.016 A 
ATOM     36  C   UNL     1       4.100  -3.432  -6.870  1.00  0.00     0.016 A 
ATOM     37  C   UNL     1       6.494  -3.973  -5.495  1.00  0.00     0.010 A 
ATOM     38  C   UNL     1       4.457  -4.748  -6.564  1.00  0.00     0.010 A 
ATOM     39  C   UNL     1       5.677  -5.024  -5.919  1.00  0.00    -0.014 A 
BRANCH  39  40
ATOM     40  C   UNL     1       6.223  -6.401  -5.913  1.00  0.00     0.031 A 
ATOM     41  C   UNL     1       6.796  -6.934  -7.199  1.00  0.00     0.074 A 
ATOM     42  C   UNL     1       6.251  -7.143  -4.793  1.00  0.00     0.049 A 
ATOM     43  N   UNL     1       7.276  -8.120  -7.463  1.00  0.00    -0.248 NA
ATOM     44  C   UNL     1       6.829  -6.003  -8.342  1.00  0.00     0.031 C 
ATOM     45  C   UNL     1       5.787  -6.705  -3.478  1.00  0.00     0.029 A 
ATOM     46  N   UNL     1       6.684  -8.428  -4.588  1.00  0.00    -0.354 N 
ATOM     47  C   UNL     1       7.645  -8.086  -8.803  1.00  0.00     0.074 A 
ATOM     48  C   UNL     1       7.312  -6.772  -9.305  1.00  0.00     0.031 C 
ATOM     49  C   UNL     1       5.949  -7.712  -2.602  1.00  0.00     0.029 A 
ATOM     50  C   UNL     1       6.482  -8.878  -3.305  1.00  0.00     0.049 A 
ATOM     51  H   UNL     1       7.100  -8.976  -5.292  1.00  0.00     0.167 HD
ATOM     52  C   UNL     1       8.210  -9.065  -9.547  1.00  0.00     0.031 A 
ATOM     53  C   UNL     1       6.674 -10.101  -2.771  1.00  0.00     0.031 A 
ATOM     54  C   UNL     1       8.523 -10.374  -9.039  1.00  0.00     0.049 A 
ATOM     55  C   UNL     1       7.219 -11.203  -3.646  1.00  0.00     0.074 A 
ATOM     56  C   UNL     1       9.109 -11.435  -9.705  1.00  0.00     0.029 A 
ATOM     57  N   UNL     1       8.266 -10.804  -7.746  1.00  0.00    -0.354 N 
ATOM     58  N   UNL     1       7.582 -11.154  -4.906  1.00  0.00    -0.248 NA
ATOM     59  C   UNL     1       7.389 -12.523  -3.023  1.00  0.00     0.031 C 
ATOM     60  C   UNL     1       9.132 -12.531  -8.840  1.00  0.00     0.029 A 
ATOM     61  C   UNL     1       8.648 -12.127  -7.605  1.00  0.00     0.049 A 
ATOM     62  H   UNL     1       7.870 -10.251  -7.034  1.00  0.00     0.167 HD
ATOM     63  C   UNL     1       8.058 -12.426  -5.214  1.00  0.00     0.074 A 
ATOM     64  C   UNL     1       7.952 -13.214  -4.004  1.00  0.00     0.031 C 
ATOM     65  C   UNL     1       8.542 -12.897  -6.391  1.00  0.00     0.031 A 
BRANCH  52  66
ATOM     66  C   UNL     1       8.482  -8.776 -11.001  1.00  0.00    -0.014 A 
ATOM     67  C   UNL     1       9.472  -7.859 -11.398  1.00  0.00     0.010 A 
ATOM     68  C   UNL     1       7.770  -9.482 -11.989  1.00  0.00     0.010 A 
ATOM     69  C   UNL     1       9.726  -7.635 -12.754  1.00  0.00     0.020 A 
ATOM     70  C   UNL     1       8.045  -9.287 -13.345  1.00  0.00     0.020 A 
ATOM     71  C   UNL     1       9.015  -8.356 -13.719  1.00  0.00     0.054 A 
BRANCH  71  72
ATOM     72  S   UNL     1       9.406  -8.084 -15.469  1.00  0.00     0.124 S 
ATOM     73  O   UNL     1       8.928  -6.719 -15.677  1.00  0.00    -0.237 OA
ATOM     74  O   UNL     1      10.857  -8.252 -15.499  1.00  0.00    -0.237 OA
ATOM     75  O   UNL     1       8.646  -9.121 -16.161  1.00  0.00    -0.744 OA
ENDBRANCH  71  72
ENDBRANCH  52  66
BRANCH  53  76
ATOM     76  C   UNL     1       6.316 -10.365  -1.348  1.00  0.00    -0.014 A 
ATOM     77  C   UNL     1       7.303 -10.705  -0.406  1.00  0.00     0.010 A 
ATOM     78  C   UNL     1       4.974 -10.297  -0.930  1.00  0.00     0.010 A 
ATOM     79  C   UNL     1       6.953 -10.998   0.915  1.00  0.00     0.020 A 
ATOM     80  C   UNL     1       4.623 -10.551   0.398  1.00  0.00     0.020 A 
ATOM     81  C   UNL     1       5.615 -10.913   1.310  1.00  0.00     0.054 A 
BRANCH  81  82
ATOM     82  S   UNL     1       5.192 -11.255   3.041  1.00  0.00     0.124 S 
ATOM     83  O   UNL     1       5.447 -12.688   3.140  1.00  0.00    -0.237 OA
ATOM     84  O   UNL     1       6.124 -10.393   3.764  1.00  0.00    -0.237 OA
ATOM     85  O   UNL     1       3.789 -10.859   3.135  1.00  0.00    -0.744 OA
ENDBRANCH  81  82
ENDBRANCH  53  76
BRANCH  65  86
ATOM     86  C   UNL     1       9.053 -14.316  -6.419  1.00  0.00    -0.014 A 
ATOM     87  C   UNL     1       8.187 -15.418  -6.297  1.00  0.00     0.010 A 
ATOM     88  C   UNL     1      10.425 -14.547  -6.633  1.00  0.00     0.010 A 
ATOM     89  C   UNL     1       8.690 -16.721  -6.352  1.00  0.00     0.020 A 
ATOM     90  C   UNL     1      10.926 -15.848  -6.728  1.00  0.00     0.020 A 
ATOM     91  C   UNL     1      10.056 -16.927  -6.572  1.00  0.00     0.054 A 
BRANCH  91  92
ATOM     92  S   UNL     1      10.673 -18.628  -6.685  1.00  0.00     0.124 S 
ATOM     93  O   UNL     1      10.521 -19.100  -5.312  1.00  0.00    -0.237 OA
ATOM     94  O   UNL     1       9.767 -19.230  -7.661  1.00  0.00    -0.237 OA
ATOM     95  O   UNL     1      12.053 -18.469  -7.139  1.00  0.00    -0.744 OA
ENDBRANCH  91  92
ENDBRANCH  65  86
ENDBRANCH  39  40
ENDBRANCH  32  34
ENDBRANCH  31  32
ENDBRANCH  30  31
ENDBRANCH  29  30
ENDBRANCH  28  29
ENDBRANCH  27  28
ENDBRANCH   1  27
TORSDOF 24
