REMARK SMILES C[C@@H](C(=O)OCCOCCOCCOCCOC(=O)c1ccc(-c2c3nc(c(-c4ccc(S(=O)(=O)[O-])cc4)c4ccc([nH]4)c(-c4ccc(S(=O)(=O)[O-])cc4)c4nc(c(-c5ccc(S(=O)(=O)[O-])cc5)c5ccc2[nH]5)C=C4)C=C3)cc1)c1cc(/C=C/S(C)(=O)=O)cc(C(=O)c2ccccc2)c1
REMARK SMILES IDX 11 1 10 2 9 3 8 4 7 5 6 6 5 7 3 8 4 9 2 10 1 11 80 12 81 13
REMARK SMILES IDX 99 14 82 15 90 16 89 17 83 18 84 19 85 20 86 21 87 22 88 23
REMARK SMILES IDX 91 24 92 25 93 26 94 27 98 28 95 29 97 30 96 31 12 32 13 33
REMARK SMILES IDX 14 34 15 35 16 36 17 37 18 38 19 39 20 40 21 41 79 42 22 43
REMARK SMILES IDX 78 44 23 45 24 46 25 47 72 48 26 49 77 50 71 51 73 52 27 53
REMARK SMILES IDX 76 54 70 55 69 56 28 58 58 59 39 60 57 61 40 62 43 63 56 64
REMARK SMILES IDX 74 65 41 66 42 67 55 69 75 70 44 71 29 72 30 73 38 74 31 75
REMARK SMILES IDX 37 76 32 77 33 78 34 79 35 80 36 81 59 82 60 83 68 84 61 85
REMARK SMILES IDX 67 86 62 87 63 88 64 89 65 90 66 91 45 92 46 93 54 94 47 95
REMARK SMILES IDX 53 96 48 97 49 98 50 99 51 100 52 101
REMARK H PARENT 73 57 43 68
REMARK Flexibility Score: inf
ROOT
ATOM      1  O   UNL     1       2.313   0.525   2.791  1.00  0.00    -0.377 OA
ENDROOT
BRANCH   1   2
ATOM      2  C   UNL     1       0.916   0.588   2.611  1.00  0.00     0.188 C 
BRANCH   2   3
ATOM      3  C   UNL     1       0.097  -0.415   3.442  1.00  0.00     0.188 C 
BRANCH   3   4
ATOM      4  O   UNL     1       0.698  -1.105   4.524  1.00  0.00    -0.376 OA
BRANCH   4   5
ATOM      5  C   UNL     1       1.955  -1.750   4.362  1.00  0.00     0.202 C 
BRANCH   5   6
ATOM      6  C   UNL     1       2.365  -2.484   3.067  1.00  0.00     0.261 C 
BRANCH   6   7
ATOM      7  O   UNL     1       1.942  -1.892   1.825  1.00  0.00    -0.463 OA
BRANCH   7   8
ATOM      8  C   UNL     1       1.061  -2.600   1.083  1.00  0.00     0.313 C 
ATOM      9  O   UNL     1       0.661  -3.718   1.397  1.00  0.00    -0.252 OA
BRANCH   8  10
ATOM     10  C   UNL     1       0.502  -1.839  -0.150  1.00  0.00     0.126 C 
ATOM     11  C   UNL     1       1.365  -0.702  -0.707  1.00  0.00     0.025 C 
BRANCH  10  12
ATOM     12  C   UNL     1      -1.000  -1.565   0.040  1.00  0.00    -0.033 A 
ATOM     13  C   UNL     1      -1.607  -0.314   0.278  1.00  0.00     0.012 A 
ATOM     14  C   UNL     1      -1.815  -2.705   0.111  1.00  0.00     0.016 A 
ATOM     15  C   UNL     1      -2.963  -0.215   0.665  1.00  0.00    -0.024 A 
ATOM     16  C   UNL     1      -3.144  -2.639   0.523  1.00  0.00     0.023 A 
ATOM     17  C   UNL     1      -3.719  -1.395   0.783  1.00  0.00     0.020 A 
BRANCH  15  18
ATOM     18  C   UNL     1      -3.656   1.056   0.974  1.00  0.00     0.020 C 
ATOM     19  C   UNL     1      -3.094   2.255   1.196  1.00  0.00     0.106 C 
BRANCH  19  20
ATOM     20  S   UNL     1      -4.114   3.626   1.553  1.00  0.00     0.168 S 
ATOM     21  C   UNL     1      -3.360   4.287   3.017  1.00  0.00     0.163 C 
ATOM     22  O   UNL     1      -3.932   4.610   0.502  1.00  0.00    -0.225 OA
ATOM     23  O   UNL     1      -5.446   3.187   1.927  1.00  0.00    -0.225 OA
ENDBRANCH  19  20
ENDBRANCH  15  18
BRANCH  16  24
ATOM     24  C   UNL     1      -3.939  -3.887   0.704  1.00  0.00     0.193 C 
ATOM     25  O   UNL     1      -5.164  -3.855   0.697  1.00  0.00    -0.289 OA
BRANCH  24  26
ATOM     26  C   UNL     1      -3.240  -5.187   0.848  1.00  0.00     0.022 A 
ATOM     27  C   UNL     1      -3.506  -6.194  -0.084  1.00  0.00     0.012 A 
ATOM     28  C   UNL     1      -2.262  -5.373   1.833  1.00  0.00     0.012 A 
ATOM     29  C   UNL     1      -2.761  -7.374  -0.054  1.00  0.00     0.001 A 
ATOM     30  C   UNL     1      -1.520  -6.554   1.855  1.00  0.00     0.001 A 
ATOM     31  C   UNL     1      -1.765  -7.550   0.909  1.00  0.00     0.000 A 
ENDBRANCH  24  26
ENDBRANCH  16  24
ENDBRANCH  10  12
ENDBRANCH   8  10
ENDBRANCH   7   8
ENDBRANCH   6   7
ENDBRANCH   5   6
ENDBRANCH   4   5
ENDBRANCH   3   4
ENDBRANCH   2   3
ENDBRANCH   1   2
BRANCH   1  32
ATOM     32  C   UNL     1       2.897   1.407   3.735  1.00  0.00     0.188 C 
BRANCH  32  33
ATOM     33  C   UNL     1       2.061   1.844   4.952  1.00  0.00     0.188 C 
BRANCH  33  34
ATOM     34  O   UNL     1       0.750   2.300   4.630  1.00  0.00    -0.376 OA
BRANCH  34  35
ATOM     35  C   UNL     1       0.538   3.699   4.509  1.00  0.00     0.202 C 
BRANCH  35  36
ATOM     36  C   UNL     1       1.182   4.407   3.304  1.00  0.00     0.261 C 
BRANCH  36  37
ATOM     37  O   UNL     1       2.614   4.368   3.230  1.00  0.00    -0.460 OA
BRANCH  37  38
ATOM     38  C   UNL     1       3.312   4.839   4.285  1.00  0.00     0.338 C 
ATOM     39  O   UNL     1       2.855   5.366   5.285  1.00  0.00    -0.246 OA
BRANCH  38  40
ATOM     40  C   UNL     1       4.718   4.414   4.126  1.00  0.00     0.060 A 
ATOM     41  C   UNL     1       5.301   3.622   5.123  1.00  0.00     0.016 A 
ATOM     42  C   UNL     1       5.452   4.786   2.997  1.00  0.00     0.016 A 
ATOM     43  C   UNL     1       6.636   3.233   5.015  1.00  0.00     0.010 A 
ATOM     44  C   UNL     1       6.796   4.416   2.901  1.00  0.00     0.010 A 
ATOM     45  C   UNL     1       7.404   3.670   3.928  1.00  0.00    -0.014 A 
BRANCH  45  46
ATOM     46  C   UNL     1       8.880   3.533   3.969  1.00  0.00     0.031 A 
ATOM     47  C   UNL     1       9.691   4.723   4.408  1.00  0.00     0.074 A 
ATOM     48  C   UNL     1       9.491   2.378   3.650  1.00  0.00     0.049 A 
ATOM     49  N   UNL     1      10.989   4.863   4.479  1.00  0.00    -0.248 NA
ATOM     50  C   UNL     1       8.932   5.917   4.818  1.00  0.00     0.031 C 
ATOM     51  C   UNL     1       8.816   1.141   3.261  1.00  0.00     0.029 A 
ATOM     52  N   UNL     1      10.826   2.064   3.598  1.00  0.00    -0.354 N 
ATOM     53  C   UNL     1      11.203   6.160   4.933  1.00  0.00     0.074 A 
ATOM     54  C   UNL     1       9.903   6.776   5.088  1.00  0.00     0.031 C 
ATOM     55  C   UNL     1       9.744   0.204   2.998  1.00  0.00     0.029 A 
ATOM     56  C   UNL     1      11.076   0.784   3.163  1.00  0.00     0.049 A 
ATOM     57  H   UNL     1      11.538   2.696   3.849  1.00  0.00     0.167 HD
ATOM     58  C   UNL     1      12.375   6.781   5.203  1.00  0.00     0.031 A 
ATOM     59  C   UNL     1      12.245   0.163   2.904  1.00  0.00     0.031 A 
ATOM     60  C   UNL     1      13.666   6.172   5.028  1.00  0.00     0.049 A 
ATOM     61  C   UNL     1      13.540   0.903   3.128  1.00  0.00     0.074 A 
ATOM     62  C   UNL     1      14.913   6.715   5.277  1.00  0.00     0.029 A 
ATOM     63  N   UNL     1      13.876   4.887   4.549  1.00  0.00    -0.354 N 
ATOM     64  N   UNL     1      13.727   2.122   3.576  1.00  0.00    -0.248 NA
ATOM     65  C   UNL     1      14.782   0.179   2.820  1.00  0.00     0.031 C 
ATOM     66  C   UNL     1      15.880   5.783   4.887  1.00  0.00     0.029 A 
ATOM     67  C   UNL     1      15.234   4.630   4.468  1.00  0.00     0.049 A 
ATOM     68  H   UNL     1      13.165   4.252   4.304  1.00  0.00     0.167 HD
ATOM     69  C   UNL     1      15.107   2.299   3.632  1.00  0.00     0.074 A 
ATOM     70  C   UNL     1      15.705   1.057   3.187  1.00  0.00     0.031 C 
ATOM     71  C   UNL     1      15.816   3.389   4.022  1.00  0.00     0.031 A 
BRANCH  58  72
ATOM     72  C   UNL     1      12.310   8.209   5.678  1.00  0.00    -0.014 A 
ATOM     73  C   UNL     1      11.805   8.536   6.950  1.00  0.00     0.010 A 
ATOM     74  C   UNL     1      12.790   9.239   4.848  1.00  0.00     0.010 A 
ATOM     75  C   UNL     1      11.743   9.869   7.366  1.00  0.00     0.020 A 
ATOM     76  C   UNL     1      12.759  10.570   5.273  1.00  0.00     0.020 A 
ATOM     77  C   UNL     1      12.220  10.878   6.524  1.00  0.00     0.054 A 
BRANCH  77  78
ATOM     78  S   UNL     1      12.146  12.596   7.099  1.00  0.00     0.124 S 
ATOM     79  O   UNL     1      10.710  12.865   7.058  1.00  0.00    -0.237 OA
ATOM     80  O   UNL     1      12.731  12.511   8.434  1.00  0.00    -0.237 OA
ATOM     81  O   UNL     1      12.943  13.326   6.117  1.00  0.00    -0.744 OA
ENDBRANCH  77  78
ENDBRANCH  58  72
BRANCH  59  82
ATOM     82  C   UNL     1      12.246  -1.230   2.375  1.00  0.00    -0.014 A 
ATOM     83  C   UNL     1      12.738  -2.297   3.147  1.00  0.00     0.010 A 
ATOM     84  C   UNL     1      11.753  -1.496   1.083  1.00  0.00     0.010 A 
ATOM     85  C   UNL     1      12.749  -3.599   2.635  1.00  0.00     0.020 A 
ATOM     86  C   UNL     1      11.733  -2.800   0.579  1.00  0.00     0.020 A 
ATOM     87  C   UNL     1      12.240  -3.842   1.356  1.00  0.00     0.054 A 
BRANCH  87  88
ATOM     88  S   UNL     1      12.209  -5.547   0.736  1.00  0.00     0.124 S 
ATOM     89  O   UNL     1      13.624  -5.811   0.499  1.00  0.00    -0.237 OA
ATOM     90  O   UNL     1      11.606  -6.274   1.851  1.00  0.00    -0.237 OA
ATOM     91  O   UNL     1      11.377  -5.460  -0.462  1.00  0.00    -0.744 OA
ENDBRANCH  87  88
ENDBRANCH  59  82
BRANCH  71  92
ATOM     92  C   UNL     1      17.320   3.281   4.028  1.00  0.00    -0.014 A 
ATOM     93  C   UNL     1      18.059   3.223   2.833  1.00  0.00     0.010 A 
ATOM     94  C   UNL     1      18.008   3.303   5.256  1.00  0.00     0.010 A 
ATOM     95  C   UNL     1      19.455   3.155   2.868  1.00  0.00     0.020 A 
ATOM     96  C   UNL     1      19.404   3.269   5.294  1.00  0.00     0.020 A 
ATOM     97  C   UNL     1      20.119   3.180   4.098  1.00  0.00     0.054 A 
BRANCH  97  98
ATOM     98  S   UNL     1      21.932   3.135   4.113  1.00  0.00     0.124 S 
ATOM     99  O   UNL     1      22.205   1.758   3.711  1.00  0.00    -0.237 OA
ATOM    100  O   UNL     1      22.285   4.158   3.131  1.00  0.00    -0.237 OA
ATOM    101  O   UNL     1      22.277   3.461   5.495  1.00  0.00    -0.744 OA
ENDBRANCH  97  98
ENDBRANCH  71  92
ENDBRANCH  45  46
ENDBRANCH  38  40
ENDBRANCH  37  38
ENDBRANCH  36  37
ENDBRANCH  35  36
ENDBRANCH  34  35
ENDBRANCH  33  34
ENDBRANCH  32  33
ENDBRANCH   1  32
TORSDOF 28
