REMARK SMILES CC[C@@H](C(=O)OCCOCCOCCOCCOC(=O)c1ccc(-c2c3nc(c(-c4ccc(S(=O)(=O)[O-])cc4)c4ccc([nH]4)c(-c4ccc(S(=O)(=O)[O-])cc4)c4nc(c(-c5ccc(S(=O)(=O)[O-])cc5)c5ccc2[nH]5)C=C4)C=C3)cc1)N1C(=O)/C(=C/C(C)=C/c2ccccc2)SC1=S
REMARK SMILES IDX 12 1 11 2 10 3 9 4 8 5 7 6 6 7 4 8 5 9 3 10 2 11 1 12 81 13
REMARK SMILES IDX 82 14 96 15 83 16 84 17 95 18 97 19 85 20 86 21 87 22 88 23
REMARK SMILES IDX 89 24 90 25 94 26 91 27 93 28 92 29 13 30 14 31 15 32 16 33
REMARK SMILES IDX 17 34 18 35 19 36 20 37 21 38 22 39 80 40 23 41 79 42 24 43
REMARK SMILES IDX 25 44 26 45 73 46 27 47 78 48 72 49 74 50 28 51 77 52 71 53
REMARK SMILES IDX 70 54 29 56 59 57 40 58 58 59 41 60 44 61 57 62 75 63 42 64
REMARK SMILES IDX 43 65 56 67 76 68 45 69 30 70 31 71 39 72 32 73 38 74 33 75
REMARK SMILES IDX 34 76 35 77 36 78 37 79 60 80 61 81 69 82 62 83 68 84 63 85
REMARK SMILES IDX 64 86 65 87 66 88 67 89 46 90 47 91 55 92 48 93 54 94 49 95
REMARK SMILES IDX 50 96 51 97 52 98 53 99
REMARK H PARENT 74 55 44 66
REMARK Flexibility Score: inf
ROOT
ATOM      1  O   UNL     1      -1.386  -1.522   0.161  1.00  0.00    -0.377 OA
ENDROOT
BRANCH   1   2
ATOM      2  C   UNL     1      -1.732  -1.786  -1.189  1.00  0.00     0.188 C 
BRANCH   2   3
ATOM      3  C   UNL     1      -1.635  -3.232  -1.712  1.00  0.00     0.188 C 
BRANCH   3   4
ATOM      4  O   UNL     1      -1.664  -4.211  -0.692  1.00  0.00    -0.376 OA
BRANCH   4   5
ATOM      5  C   UNL     1      -0.452  -4.843  -0.311  1.00  0.00     0.202 C 
BRANCH   5   6
ATOM      6  C   UNL     1       0.861  -4.050  -0.165  1.00  0.00     0.261 C 
BRANCH   6   7
ATOM      7  O   UNL     1       0.886  -2.821  -0.905  1.00  0.00    -0.462 OA
BRANCH   7   8
ATOM      8  C   UNL     1       1.949  -2.541  -1.694  1.00  0.00     0.329 C 
ATOM      9  O   UNL     1       2.901  -3.290  -1.871  1.00  0.00    -0.250 OA
BRANCH   8  10
ATOM     10  C   UNL     1       1.805  -1.161  -2.388  1.00  0.00     0.201 C 
BRANCH  10  11
ATOM     11  C   UNL     1       1.505  -0.023  -1.357  1.00  0.00     0.034 C 
ATOM     12  C   UNL     1       1.868  -0.197   0.112  1.00  0.00     0.007 C 
ENDBRANCH  10  11
BRANCH  10  13
ATOM     13  N   UNL     1       0.879  -1.131  -3.593  1.00  0.00    -0.278 N 
ATOM     14  C   UNL     1       0.667  -2.280  -4.355  1.00  0.00     0.266 C 
ATOM     15  C   UNL     1       0.431   0.015  -4.230  1.00  0.00     0.149 C 
ATOM     16  O   UNL     1       1.111  -3.397  -4.135  1.00  0.00    -0.268 OA
ATOM     17  C   UNL     1      -0.180  -1.994  -5.564  1.00  0.00     0.080 C 
ATOM     18  S   UNL     1      -0.786  -0.405  -5.428  1.00  0.00    -0.054 SA
ATOM     19  S   UNL     1       0.910   1.607  -4.092  1.00  0.00    -0.052 S 
ATOM     20  C   UNL     1      -0.313  -2.868  -6.578  1.00  0.00     0.024 C 
BRANCH  20  21
ATOM     21  C   UNL     1      -0.987  -2.756  -7.888  1.00  0.00    -0.049 C 
ATOM     22  C   UNL     1      -1.319  -4.082  -8.537  1.00  0.00     0.044 C 
ATOM     23  C   UNL     1      -1.146  -1.582  -8.538  1.00  0.00     0.011 C 
BRANCH  23  24
ATOM     24  C   UNL     1      -1.762  -1.270  -9.846  1.00  0.00    -0.025 A 
ATOM     25  C   UNL     1      -1.231  -0.190 -10.572  1.00  0.00     0.008 A 
ATOM     26  C   UNL     1      -2.917  -1.891 -10.336  1.00  0.00     0.008 A 
ATOM     27  C   UNL     1      -1.825   0.247 -11.758  1.00  0.00     0.001 A 
ATOM     28  C   UNL     1      -3.506  -1.461 -11.533  1.00  0.00     0.001 A 
ATOM     29  C   UNL     1      -2.963  -0.391 -12.241  1.00  0.00     0.000 A 
ENDBRANCH  23  24
ENDBRANCH  20  21
ENDBRANCH  10  13
ENDBRANCH   8  10
ENDBRANCH   7   8
ENDBRANCH   6   7
ENDBRANCH   5   6
ENDBRANCH   4   5
ENDBRANCH   3   4
ENDBRANCH   2   3
ENDBRANCH   1   2
BRANCH   1  30
ATOM     30  C   UNL     1      -2.057  -2.218   1.211  1.00  0.00     0.188 C 
BRANCH  30  31
ATOM     31  C   UNL     1      -3.440  -2.872   0.983  1.00  0.00     0.188 C 
BRANCH  31  32
ATOM     32  O   UNL     1      -4.122  -2.449  -0.187  1.00  0.00    -0.376 OA
BRANCH  32  33
ATOM     33  C   UNL     1      -5.125  -1.457  -0.037  1.00  0.00     0.202 C 
BRANCH  33  34
ATOM     34  C   UNL     1      -4.689  -0.093   0.521  1.00  0.00     0.261 C 
BRANCH  34  35
ATOM     35  O   UNL     1      -4.109  -0.100   1.835  1.00  0.00    -0.460 OA
BRANCH  35  36
ATOM     36  C   UNL     1      -4.861  -0.593   2.847  1.00  0.00     0.338 C 
ATOM     37  O   UNL     1      -5.999  -1.005   2.784  1.00  0.00    -0.246 OA
BRANCH  36  38
ATOM     38  C   UNL     1      -3.981  -0.726   4.028  1.00  0.00     0.060 A 
ATOM     39  C   UNL     1      -3.750  -1.999   4.567  1.00  0.00     0.016 A 
ATOM     40  C   UNL     1      -3.394   0.404   4.599  1.00  0.00     0.016 A 
ATOM     41  C   UNL     1      -2.958  -2.140   5.707  1.00  0.00     0.010 A 
ATOM     42  C   UNL     1      -2.621   0.264   5.754  1.00  0.00     0.010 A 
ATOM     43  C   UNL     1      -2.430  -1.004   6.333  1.00  0.00    -0.014 A 
BRANCH  43  44
ATOM     44  C   UNL     1      -1.860  -1.114   7.698  1.00  0.00     0.031 A 
ATOM     45  C   UNL     1      -2.740  -0.754   8.866  1.00  0.00     0.074 A 
ATOM     46  C   UNL     1      -0.601  -1.540   7.905  1.00  0.00     0.049 A 
ATOM     47  N   UNL     1      -2.455  -0.723  10.142  1.00  0.00    -0.248 NA
ATOM     48  C   UNL     1      -4.128  -0.376   8.549  1.00  0.00     0.031 C 
ATOM     49  C   UNL     1       0.331  -1.969   6.863  1.00  0.00     0.029 A 
ATOM     50  N   UNL     1       0.111  -1.675   9.071  1.00  0.00    -0.354 N 
ATOM     51  C   UNL     1      -3.621  -0.312  10.778  1.00  0.00     0.074 A 
ATOM     52  C   UNL     1      -4.607  -0.076   9.746  1.00  0.00     0.031 C 
ATOM     53  C   UNL     1       1.496  -2.314   7.438  1.00  0.00     0.029 A 
ATOM     54  C   UNL     1       1.407  -2.092   8.881  1.00  0.00     0.049 A 
ATOM     55  H   UNL     1      -0.271  -1.491   9.959  1.00  0.00     0.167 HD
ATOM     56  C   UNL     1      -3.853  -0.150  12.102  1.00  0.00     0.031 A 
ATOM     57  C   UNL     1       2.410  -2.253   9.768  1.00  0.00     0.031 A 
ATOM     58  C   UNL     1      -2.863  -0.367  13.123  1.00  0.00     0.049 A 
ATOM     59  C   UNL     1       2.155  -1.981  11.229  1.00  0.00     0.074 A 
ATOM     60  C   UNL     1      -3.001  -0.239  14.494  1.00  0.00     0.029 A 
ATOM     61  N   UNL     1      -1.550  -0.747  12.886  1.00  0.00    -0.354 N 
ATOM     62  N   UNL     1       1.042  -1.613  11.819  1.00  0.00    -0.248 NA
ATOM     63  C   UNL     1       3.292  -2.153  12.146  1.00  0.00     0.031 C 
ATOM     64  C   UNL     1      -1.753  -0.475  15.081  1.00  0.00     0.029 A 
ATOM     65  C   UNL     1      -0.858  -0.827  14.082  1.00  0.00     0.049 A 
ATOM     66  H   UNL     1      -1.167  -0.933  11.998  1.00  0.00     0.167 HD
ATOM     67  C   UNL     1       1.337  -1.543  13.178  1.00  0.00     0.074 A 
ATOM     68  C   UNL     1       2.728  -1.919  13.323  1.00  0.00     0.031 C 
ATOM     69  C   UNL     1       0.528  -1.203  14.213  1.00  0.00     0.031 A 
BRANCH  56  70
ATOM     70  C   UNL     1      -5.221   0.326  12.515  1.00  0.00    -0.014 A 
ATOM     71  C   UNL     1      -6.355  -0.496  12.383  1.00  0.00     0.010 A 
ATOM     72  C   UNL     1      -5.369   1.610  13.073  1.00  0.00     0.010 A 
ATOM     73  C   UNL     1      -7.616  -0.028  12.763  1.00  0.00     0.020 A 
ATOM     74  C   UNL     1      -6.623   2.069  13.484  1.00  0.00     0.020 A 
ATOM     75  C   UNL     1      -7.742   1.252  13.310  1.00  0.00     0.054 A 
BRANCH  75  76
ATOM     76  S   UNL     1      -9.388   1.824  13.813  1.00  0.00     0.124 S 
ATOM     77  O   UNL     1     -10.048   2.014  12.524  1.00  0.00    -0.237 OA
ATOM     78  O   UNL     1      -9.883   0.707  14.614  1.00  0.00    -0.237 OA
ATOM     79  O   UNL     1      -9.117   3.051  14.559  1.00  0.00    -0.744 OA
ENDBRANCH  75  76
ENDBRANCH  56  70
BRANCH  57  80
ATOM     80  C   UNL     1       3.760  -2.677   9.298  1.00  0.00    -0.014 A 
ATOM     81  C   UNL     1       4.282  -3.935   9.648  1.00  0.00     0.010 A 
ATOM     82  C   UNL     1       4.535  -1.817   8.499  1.00  0.00     0.010 A 
ATOM     83  C   UNL     1       5.558  -4.318   9.221  1.00  0.00     0.020 A 
ATOM     84  C   UNL     1       5.798  -2.208   8.043  1.00  0.00     0.020 A 
ATOM     85  C   UNL     1       6.305  -3.453   8.416  1.00  0.00     0.054 A 
BRANCH  85  86
ATOM     86  S   UNL     1       7.933  -3.996   7.827  1.00  0.00     0.124 S 
ATOM     87  O   UNL     1       8.727  -3.960   9.050  1.00  0.00    -0.237 OA
ATOM     88  O   UNL     1       7.646  -5.327   7.296  1.00  0.00    -0.237 OA
ATOM     89  O   UNL     1       8.284  -2.996   6.822  1.00  0.00    -0.744 OA
ENDBRANCH  85  86
ENDBRANCH  57  80
BRANCH  69  90
ATOM     90  C   UNL     1       1.107  -1.263  15.605  1.00  0.00    -0.014 A 
ATOM     91  C   UNL     1       2.067  -0.334  16.043  1.00  0.00     0.010 A 
ATOM     92  C   UNL     1       0.631  -2.232  16.509  1.00  0.00     0.010 A 
ATOM     93  C   UNL     1       2.565  -0.395  17.349  1.00  0.00     0.020 A 
ATOM     94  C   UNL     1       1.101  -2.275  17.824  1.00  0.00     0.020 A 
ATOM     95  C   UNL     1       2.076  -1.364  18.231  1.00  0.00     0.054 A 
BRANCH  95  96
ATOM     96  S   UNL     1       2.707  -1.392  19.932  1.00  0.00     0.124 S 
ATOM     97  O   UNL     1       4.067  -1.888  19.745  1.00  0.00    -0.237 OA
ATOM     98  O   UNL     1       2.598   0.008  20.336  1.00  0.00    -0.237 OA
ATOM     99  O   UNL     1       1.800  -2.306  20.624  1.00  0.00    -0.744 OA
ENDBRANCH  95  96
ENDBRANCH  69  90
ENDBRANCH  43  44
ENDBRANCH  36  38
ENDBRANCH  35  36
ENDBRANCH  34  35
ENDBRANCH  33  34
ENDBRANCH  32  33
ENDBRANCH  31  32
ENDBRANCH  30  31
ENDBRANCH   1  30
TORSDOF 27
