REMARK SMILES CC1(C)CCC[C@@]1(CC(=O)OCCOCCOCCOCCOC(=O)c1ccc(-c2c3nc(c(-c4ccc(S(=O)(=O)[O-])cc4)c4ccc([nH]4)c(-c4ccc(S(=O)(=O)[O-])cc4)c4nc(c(-c5ccc(S(=O)(=O)[O-])cc5)c5ccc2[nH]5)C=C4)C=C3)cc1)[NH+]1CCCCC1
REMARK SMILES IDX 18 1 17 2 16 3 15 4 14 5 13 6 12 7 11 8 9 9 10 10 8 11 7 12
REMARK SMILES IDX 1 13 2 14 3 15 4 16 5 17 6 18 86 19 87 20 91 21 88 23 90 24
REMARK SMILES IDX 89 25 19 26 20 27 21 28 22 29 23 30 24 31 25 32 26 33 27 34
REMARK SMILES IDX 85 35 28 36 84 37 29 38 30 39 31 40 78 41 32 42 83 43 77 44
REMARK SMILES IDX 79 45 33 46 82 47 76 48 75 49 34 51 64 52 45 53 63 54 46 55
REMARK SMILES IDX 49 56 62 57 80 58 47 59 48 60 61 62 81 63 50 64 35 65 36 66
REMARK SMILES IDX 44 67 37 68 43 69 38 70 39 71 40 72 41 73 42 74 65 75 66 76
REMARK SMILES IDX 74 77 67 78 73 79 68 80 69 81 70 82 71 83 72 84 51 85 52 86
REMARK SMILES IDX 60 87 53 88 59 89 54 90 55 91 56 92 57 93 58 94
REMARK H PARENT 86 22 79 50 49 61
REMARK Flexibility Score: inf
ROOT
ATOM      1  C   UNL     1      -4.717   3.100  -0.168  1.00  0.00     0.188 C 
ENDROOT
BRANCH   1   2
ATOM      2  O   UNL     1      -3.382   3.436  -0.524  1.00  0.00    -0.377 OA
BRANCH   2   3
ATOM      3  C   UNL     1      -2.678   4.427   0.200  1.00  0.00     0.188 C 
BRANCH   3   4
ATOM      4  C   UNL     1      -1.909   5.420  -0.682  1.00  0.00     0.188 C 
BRANCH   4   5
ATOM      5  O   UNL     1      -2.539   5.830  -1.889  1.00  0.00    -0.376 OA
BRANCH   5   6
ATOM      6  C   UNL     1      -2.845   4.798  -2.835  1.00  0.00     0.202 C 
BRANCH   6   7
ATOM      7  C   UNL     1      -1.732   3.777  -3.176  1.00  0.00     0.261 C 
BRANCH   7   8
ATOM      8  O   UNL     1      -1.281   3.010  -2.029  1.00  0.00    -0.463 OA
BRANCH   8   9
ATOM      9  C   UNL     1       0.039   2.693  -1.944  1.00  0.00     0.312 C 
ATOM     10  O   UNL     1       0.849   2.898  -2.840  1.00  0.00    -0.252 OA
BRANCH   9  11
ATOM     11  C   UNL     1       0.456   2.292  -0.518  1.00  0.00     0.191 C 
BRANCH  11  12
ATOM     12  C   UNL     1       0.034   0.936   0.187  1.00  0.00     0.113 C 
ATOM     13  C   UNL     1       2.358  -0.329   0.307  1.00  0.00     0.018 C 
ATOM     14  C   UNL     1       0.971  -0.255  -0.361  1.00  0.00     0.020 C 
ATOM     15  C   UNL     1       1.246  -0.188  -1.889  1.00  0.00     0.018 C 
ATOM     16  C   UNL     1       0.128  -1.531  -0.148  1.00  0.00     0.013 C 
ATOM     17  C   UNL     1      -1.299  -1.101  -0.450  1.00  0.00     0.007 C 
ATOM     18  C   UNL     1      -1.362   0.422  -0.274  1.00  0.00     0.070 C 
BRANCH  12  19
ATOM     19  N   UNL     1       0.175   1.094   1.707  1.00  0.00    -0.329 N 
ATOM     20  C   UNL     1       0.019  -0.035   2.642  1.00  0.00     0.262 C 
ATOM     21  C   UNL     1      -0.406   2.260   2.387  1.00  0.00     0.262 C 
ATOM     22  H   UNL     1       1.172   1.219   1.529  1.00  0.00     0.348 HD
ATOM     23  C   UNL     1      -1.420  -0.378   3.027  1.00  0.00     0.062 C 
ATOM     24  C   UNL     1      -1.872   2.083   2.767  1.00  0.00     0.062 C 
ATOM     25  C   UNL     1      -2.154   0.832   3.583  1.00  0.00     0.012 C 
ENDBRANCH  12  19
ENDBRANCH  11  12
ENDBRANCH   9  11
ENDBRANCH   8   9
ENDBRANCH   7   8
ENDBRANCH   6   7
ENDBRANCH   5   6
ENDBRANCH   4   5
ENDBRANCH   3   4
ENDBRANCH   2   3
ENDBRANCH   1   2
BRANCH   1  26
ATOM     26  C   UNL     1      -5.605   4.234   0.368  1.00  0.00     0.188 C 
BRANCH  26  27
ATOM     27  O   UNL     1      -5.397   4.702   1.707  1.00  0.00    -0.376 OA
BRANCH  27  28
ATOM     28  C   UNL     1      -4.868   3.799   2.671  1.00  0.00     0.202 C 
BRANCH  28  29
ATOM     29  C   UNL     1      -5.874   2.908   3.385  1.00  0.00     0.261 C 
BRANCH  29  30
ATOM     30  O   UNL     1      -6.331   1.873   2.501  1.00  0.00    -0.460 OA
BRANCH  30  31
ATOM     31  C   UNL     1      -7.567   2.079   2.001  1.00  0.00     0.338 C 
ATOM     32  O   UNL     1      -8.350   2.966   2.309  1.00  0.00    -0.246 OA
BRANCH  31  33
ATOM     33  C   UNL     1      -7.791   1.187   0.853  1.00  0.00     0.060 A 
ATOM     34  C   UNL     1      -8.312   1.772  -0.306  1.00  0.00     0.016 A 
ATOM     35  C   UNL     1      -7.576  -0.193   0.925  1.00  0.00     0.016 A 
ATOM     36  C   UNL     1      -8.686   0.978  -1.378  1.00  0.00     0.010 A 
ATOM     37  C   UNL     1      -7.977  -0.996  -0.146  1.00  0.00     0.010 A 
ATOM     38  C   UNL     1      -8.582  -0.413  -1.274  1.00  0.00    -0.014 A 
BRANCH  38  39
ATOM     39  C   UNL     1      -9.332  -1.234  -2.247  1.00  0.00     0.031 A 
ATOM     40  C   UNL     1     -10.706  -1.712  -1.857  1.00  0.00     0.074 A 
ATOM     41  C   UNL     1      -8.844  -1.457  -3.478  1.00  0.00     0.049 A 
ATOM     42  N   UNL     1     -11.558  -2.423  -2.544  1.00  0.00    -0.248 NA
ATOM     43  C   UNL     1     -11.187  -1.328  -0.517  1.00  0.00     0.031 C 
ATOM     44  C   UNL     1      -7.559  -0.969  -3.980  1.00  0.00     0.029 A 
ATOM     45  N   UNL     1      -9.380  -2.146  -4.534  1.00  0.00    -0.354 N 
ATOM     46  C   UNL     1     -12.665  -2.585  -1.719  1.00  0.00     0.074 A 
ATOM     47  C   UNL     1     -12.374  -1.914  -0.473  1.00  0.00     0.031 C 
ATOM     48  C   UNL     1      -7.402  -1.387  -5.248  1.00  0.00     0.029 A 
ATOM     49  C   UNL     1      -8.555  -2.198  -5.631  1.00  0.00     0.049 A 
ATOM     50  H   UNL     1     -10.271  -2.563  -4.509  1.00  0.00     0.167 HD
ATOM     51  C   UNL     1     -13.821  -3.236  -1.981  1.00  0.00     0.031 A 
ATOM     52  C   UNL     1      -8.707  -2.853  -6.799  1.00  0.00     0.031 A 
ATOM     53  C   UNL     1     -14.098  -3.899  -3.226  1.00  0.00     0.049 A 
ATOM     54  C   UNL     1      -9.972  -3.641  -7.030  1.00  0.00     0.074 A 
ATOM     55  C   UNL     1     -15.244  -4.577  -3.600  1.00  0.00     0.029 A 
ATOM     56  N   UNL     1     -13.218  -3.974  -4.295  1.00  0.00    -0.354 N 
ATOM     57  N   UNL     1     -11.019  -3.769  -6.249  1.00  0.00    -0.248 NA
ATOM     58  C   UNL     1     -10.079  -4.366  -8.304  1.00  0.00     0.031 C 
ATOM     59  C   UNL     1     -15.029  -5.123  -4.869  1.00  0.00     0.029 A 
ATOM     60  C   UNL     1     -13.781  -4.719  -5.315  1.00  0.00     0.049 A 
ATOM     61  H   UNL     1     -12.326  -3.559  -4.323  1.00  0.00     0.167 HD
ATOM     62  C   UNL     1     -11.921  -4.562  -6.952  1.00  0.00     0.074 A 
ATOM     63  C   UNL     1     -11.304  -4.866  -8.226  1.00  0.00     0.031 C 
ATOM     64  C   UNL     1     -13.150  -5.001  -6.579  1.00  0.00     0.031 A 
BRANCH  51  65
ATOM     65  C   UNL     1     -14.858  -3.308  -0.892  1.00  0.00    -0.014 A 
ATOM     66  C   UNL     1     -15.621  -2.185  -0.526  1.00  0.00     0.010 A 
ATOM     67  C   UNL     1     -15.128  -4.547  -0.283  1.00  0.00     0.010 A 
ATOM     68  C   UNL     1     -16.630  -2.300   0.435  1.00  0.00     0.020 A 
ATOM     69  C   UNL     1     -16.152  -4.672   0.658  1.00  0.00     0.020 A 
ATOM     70  C   UNL     1     -16.895  -3.546   1.014  1.00  0.00     0.054 A 
BRANCH  70  71
ATOM     71  S   UNL     1     -18.258  -3.680   2.203  1.00  0.00     0.124 S 
ATOM     72  O   UNL     1     -17.732  -2.946   3.351  1.00  0.00    -0.237 OA
ATOM     73  O   UNL     1     -19.361  -3.034   1.496  1.00  0.00    -0.237 OA
ATOM     74  O   UNL     1     -18.407  -5.120   2.401  1.00  0.00    -0.744 OA
ENDBRANCH  70  71
ENDBRANCH  51  65
BRANCH  52  75
ATOM     75  C   UNL     1      -7.619  -2.841  -7.816  1.00  0.00    -0.014 A 
ATOM     76  C   UNL     1      -7.810  -2.256  -9.080  1.00  0.00     0.010 A 
ATOM     77  C   UNL     1      -6.386  -3.459  -7.530  1.00  0.00     0.010 A 
ATOM     78  C   UNL     1      -6.806  -2.326 -10.051  1.00  0.00     0.020 A 
ATOM     79  C   UNL     1      -5.368  -3.499  -8.485  1.00  0.00     0.020 A 
ATOM     80  C   UNL     1      -5.592  -2.950  -9.748  1.00  0.00     0.054 A 
BRANCH  80  81
ATOM     81  S   UNL     1      -4.301  -3.024 -11.020  1.00  0.00     0.124 S 
ATOM     82  O   UNL     1      -4.849  -4.005 -11.951  1.00  0.00    -0.237 OA
ATOM     83  O   UNL     1      -4.258  -1.646 -11.504  1.00  0.00    -0.237 OA
ATOM     84  O   UNL     1      -3.117  -3.454 -10.280  1.00  0.00    -0.744 OA
ENDBRANCH  80  81
ENDBRANCH  52  75
BRANCH  64  85
ATOM     85  C   UNL     1     -13.929  -5.816  -7.577  1.00  0.00    -0.014 A 
ATOM     86  C   UNL     1     -13.551  -7.130  -7.906  1.00  0.00     0.010 A 
ATOM     87  C   UNL     1     -15.097  -5.276  -8.148  1.00  0.00     0.010 A 
ATOM     88  C   UNL     1     -14.305  -7.873  -8.817  1.00  0.00     0.020 A 
ATOM     89  C   UNL     1     -15.873  -6.028  -9.031  1.00  0.00     0.020 A 
ATOM     90  C   UNL     1     -15.463  -7.318  -9.372  1.00  0.00     0.054 A 
BRANCH  90  91
ATOM     91  S   UNL     1     -16.447  -8.321 -10.518  1.00  0.00     0.124 S 
ATOM     92  O   UNL     1     -15.597  -8.346 -11.706  1.00  0.00    -0.237 OA
ATOM     93  O   UNL     1     -16.571  -9.590  -9.806  1.00  0.00    -0.237 OA
ATOM     94  O   UNL     1     -17.691  -7.567 -10.659  1.00  0.00    -0.744 OA
ENDBRANCH  90  91
ENDBRANCH  64  85
ENDBRANCH  38  39
ENDBRANCH  31  33
ENDBRANCH  30  31
ENDBRANCH  29  30
ENDBRANCH  28  29
ENDBRANCH  27  28
ENDBRANCH  26  27
ENDBRANCH   1  26
TORSDOF 25
