REMARK SMILES CC(C)(C)c1cc2c(cc1Cl)C=C(C(=O)OCCOCCOCCOCCOC(=O)c1ccc(-c3c4nc(c(-c5ccc(S(=O)(=O)[O-])cc5)c5ccc([nH]5)c(-c5ccc(S(=O)(=O)[O-])cc5)c5nc(c(-c6ccc(S(=O)(=O)[O-])cc6)c6ccc3[nH]6)C=C5)C=C4)cc1)[C@H](C(F)(F)F)O2
REMARK SMILES IDX 23 1 22 2 21 3 20 4 19 5 18 6 17 7 16 8 14 9 15 10 13 11
REMARK SMILES IDX 5 12 6 13 10 14 7 15 9 16 11 17 8 18 96 19 12 20 91 21 2 22
REMARK SMILES IDX 1 23 3 24 4 25 92 26 93 27 94 28 95 29 24 30 25 31 26 32
REMARK SMILES IDX 27 33 28 34 29 35 30 36 31 37 32 38 90 39 33 40 89 41 34 42
REMARK SMILES IDX 35 43 36 44 83 45 37 46 88 47 82 48 84 49 38 50 87 51 81 52
REMARK SMILES IDX 80 53 39 55 69 56 50 57 68 58 51 59 54 60 67 61 85 62 52 63
REMARK SMILES IDX 53 64 66 66 86 67 55 68 40 69 41 70 49 71 42 72 48 73 43 74
REMARK SMILES IDX 44 75 45 76 46 77 47 78 70 79 71 80 79 81 72 82 78 83 73 84
REMARK SMILES IDX 74 85 75 86 76 87 77 88 56 89 57 90 65 91 58 92 64 93 59 94
REMARK SMILES IDX 60 95 61 96 62 97 63 98
REMARK H PARENT 84 54 54 65
REMARK Flexibility Score: inf
ROOT
ATOM      1  C   UNL     1       3.696   9.851  -1.233  1.00  0.00     0.188 C 
ENDROOT
BRANCH   1   2
ATOM      2  O   UNL     1       3.153   8.774  -2.000  1.00  0.00    -0.377 OA
BRANCH   2   3
ATOM      3  C   UNL     1       3.962   8.126  -2.964  1.00  0.00     0.188 C 
BRANCH   3   4
ATOM      4  C   UNL     1       3.629   8.461  -4.423  1.00  0.00     0.188 C 
BRANCH   4   5
ATOM      5  O   UNL     1       3.508   9.826  -4.791  1.00  0.00    -0.376 OA
BRANCH   5   6
ATOM      6  C   UNL     1       2.411  10.587  -4.285  1.00  0.00     0.202 C 
BRANCH   6   7
ATOM      7  C   UNL     1       0.993   9.988  -4.268  1.00  0.00     0.261 C 
BRANCH   7   8
ATOM      8  O   UNL     1       0.856   8.850  -3.393  1.00  0.00    -0.460 OA
BRANCH   8   9
ATOM      9  C   UNL     1       0.422   7.712  -3.974  1.00  0.00     0.338 C 
ATOM     10  O   UNL     1       0.041   7.586  -5.128  1.00  0.00    -0.246 OA
BRANCH   9  11
ATOM     11  C   UNL     1       0.629   6.550  -3.093  1.00  0.00     0.087 C 
ATOM     12  C   UNL     1       0.900   1.637  -1.902  1.00  0.00    -0.020 A 
ATOM     13  C   UNL     1       0.196   2.773  -1.419  1.00  0.00     0.053 A 
ATOM     14  C   UNL     1       1.922   1.903  -2.838  1.00  0.00     0.045 A 
ATOM     15  C   UNL     1       0.389   4.059  -1.929  1.00  0.00     0.128 A 
ATOM     16  C   UNL     1       2.114   3.201  -3.352  1.00  0.00     0.032 A 
ATOM     17  Cl  UNL     1       3.040   0.737  -3.450  1.00  0.00    -0.084 Cl
ATOM     18  C   UNL     1       1.322   4.268  -2.932  1.00  0.00     0.019 A 
ATOM     19  O   UNL     1      -0.447   5.038  -1.463  1.00  0.00    -0.475 OA
ATOM     20  C   UNL     1       1.349   5.547  -3.619  1.00  0.00     0.027 C 
ATOM     21  C   UNL     1      -0.125   6.424  -1.801  1.00  0.00     0.316 C 
BRANCH  12  22
ATOM     22  C   UNL     1       0.456   0.250  -1.368  1.00  0.00    -0.012 C 
ATOM     23  C   UNL     1       0.986   0.081   0.070  1.00  0.00     0.016 C 
ATOM     24  C   UNL     1       0.896  -0.989  -2.178  1.00  0.00     0.016 C 
ATOM     25  C   UNL     1      -1.098   0.160  -1.343  1.00  0.00     0.016 C 
ENDBRANCH  12  22
BRANCH  21  26
ATOM     26  C   UNL     1       0.556   7.092  -0.595  1.00  0.00     0.430 C 
ATOM     27  F   UNL     1       0.533   8.440  -0.677  1.00  0.00    -0.167 F 
ATOM     28  F   UNL     1      -0.091   6.770   0.557  1.00  0.00    -0.167 F 
ATOM     29  F   UNL     1       1.841   6.696  -0.440  1.00  0.00    -0.167 F 
ENDBRANCH  21  26
ENDBRANCH   9  11
ENDBRANCH   8   9
ENDBRANCH   7   8
ENDBRANCH   6   7
ENDBRANCH   5   6
ENDBRANCH   4   5
ENDBRANCH   3   4
ENDBRANCH   2   3
ENDBRANCH   1   2
BRANCH   1  30
ATOM     30  C   UNL     1       5.095  10.376  -1.590  1.00  0.00     0.188 C 
BRANCH  30  31
ATOM     31  O   UNL     1       6.215   9.515  -1.352  1.00  0.00    -0.376 OA
BRANCH  31  32
ATOM     32  C   UNL     1       6.118   8.528  -0.328  1.00  0.00     0.202 C 
BRANCH  32  33
ATOM     33  C   UNL     1       6.465   9.025   1.073  1.00  0.00     0.261 C 
BRANCH  33  34
ATOM     34  O   UNL     1       5.461   9.920   1.570  1.00  0.00    -0.460 OA
BRANCH  34  35
ATOM     35  C   UNL     1       5.756  11.237   1.471  1.00  0.00     0.338 C 
ATOM     36  O   UNL     1       6.794  11.733   1.064  1.00  0.00    -0.246 OA
BRANCH  35  37
ATOM     37  C   UNL     1       4.542  12.019   1.776  1.00  0.00     0.060 A 
ATOM     38  C   UNL     1       3.706  11.668   2.839  1.00  0.00     0.016 A 
ATOM     39  C   UNL     1       4.266  13.150   0.998  1.00  0.00     0.016 A 
ATOM     40  C   UNL     1       2.621  12.484   3.154  1.00  0.00     0.010 A 
ATOM     41  C   UNL     1       3.183  13.968   1.315  1.00  0.00     0.010 A 
ATOM     42  C   UNL     1       2.378  13.659   2.420  1.00  0.00    -0.014 A 
BRANCH  42  43
ATOM     43  C   UNL     1       1.435  14.669   2.954  1.00  0.00     0.031 A 
ATOM     44  C   UNL     1       0.085  14.894   2.354  1.00  0.00     0.074 A 
ATOM     45  C   UNL     1       1.847  15.395   4.012  1.00  0.00     0.049 A 
ATOM     46  N   UNL     1      -0.877  15.664   2.788  1.00  0.00    -0.248 NA
ATOM     47  C   UNL     1      -0.229  14.176   1.109  1.00  0.00     0.031 C 
ATOM     48  C   UNL     1       3.166  15.277   4.641  1.00  0.00     0.029 A 
ATOM     49  N   UNL     1       1.209  16.353   4.757  1.00  0.00    -0.354 N 
ATOM     50  C   UNL     1      -1.923  15.510   1.890  1.00  0.00     0.074 A 
ATOM     51  C   UNL     1      -1.459  14.611   0.854  1.00  0.00     0.031 C 
ATOM     52  C   UNL     1       3.220  16.090   5.703  1.00  0.00     0.029 A 
ATOM     53  C   UNL     1       1.960  16.817   5.812  1.00  0.00     0.049 A 
ATOM     54  H   UNL     1       0.301  16.677   4.556  1.00  0.00     0.167 HD
ATOM     55  C   UNL     1      -3.161  16.056   1.948  1.00  0.00     0.031 A 
ATOM     56  C   UNL     1       1.667  17.717   6.771  1.00  0.00     0.031 A 
ATOM     57  C   UNL     1      -3.592  16.964   2.984  1.00  0.00     0.049 A 
ATOM     58  C   UNL     1       0.296  18.328   6.792  1.00  0.00     0.074 A 
ATOM     59  C   UNL     1      -4.843  17.532   3.155  1.00  0.00     0.029 A 
ATOM     60  N   UNL     1      -2.795  17.447   4.012  1.00  0.00    -0.354 N 
ATOM     61  N   UNL     1      -0.718  18.096   5.992  1.00  0.00    -0.248 NA
ATOM     62  C   UNL     1       0.019  19.308   7.850  1.00  0.00     0.031 C 
ATOM     63  C   UNL     1      -4.779  18.419   4.231  1.00  0.00     0.029 A 
ATOM     64  C   UNL     1      -3.514  18.339   4.792  1.00  0.00     0.049 A 
ATOM     65  H   UNL     1      -1.856  17.192   4.166  1.00  0.00     0.167 HD
ATOM     66  C   UNL     1      -1.757  18.892   6.456  1.00  0.00     0.074 A 
ATOM     67  C   UNL     1      -1.260  19.586   7.627  1.00  0.00     0.031 C 
ATOM     68  C   UNL     1      -3.007  19.039   5.949  1.00  0.00     0.031 A 
BRANCH  55  69
ATOM     69  C   UNL     1      -4.168  15.680   0.889  1.00  0.00    -0.014 A 
ATOM     70  C   UNL     1      -4.689  16.667   0.031  1.00  0.00     0.010 A 
ATOM     71  C   UNL     1      -4.720  14.387   0.854  1.00  0.00     0.010 A 
ATOM     72  C   UNL     1      -5.773  16.383  -0.805  1.00  0.00     0.020 A 
ATOM     73  C   UNL     1      -5.784  14.090  -0.004  1.00  0.00     0.020 A 
ATOM     74  C   UNL     1      -6.323  15.098  -0.806  1.00  0.00     0.054 A 
BRANCH  74  75
ATOM     75  S   UNL     1      -7.770  14.767  -1.849  1.00  0.00     0.124 S 
ATOM     76  O   UNL     1      -8.826  15.495  -1.153  1.00  0.00    -0.237 OA
ATOM     77  O   UNL     1      -7.364  15.319  -3.139  1.00  0.00    -0.237 OA
ATOM     78  O   UNL     1      -7.889  13.310  -1.816  1.00  0.00    -0.744 OA
ENDBRANCH  74  75
ENDBRANCH  55  69
BRANCH  56  79
ATOM     79  C   UNL     1       2.689  18.026   7.810  1.00  0.00    -0.014 A 
ATOM     80  C   UNL     1       3.902  18.647   7.453  1.00  0.00     0.010 A 
ATOM     81  C   UNL     1       2.502  17.612   9.140  1.00  0.00     0.010 A 
ATOM     82  C   UNL     1       4.931  18.787   8.386  1.00  0.00     0.020 A 
ATOM     83  C   UNL     1       3.517  17.785  10.087  1.00  0.00     0.020 A 
ATOM     84  C   UNL     1       4.736  18.341   9.695  1.00  0.00     0.054 A 
BRANCH  84  85
ATOM     85  S   UNL     1       6.110  18.476  10.872  1.00  0.00     0.124 S 
ATOM     86  O   UNL     1       7.008  17.423  10.404  1.00  0.00    -0.237 OA
ATOM     87  O   UNL     1       6.578  19.843  10.659  1.00  0.00    -0.237 OA
ATOM     88  O   UNL     1       5.479  18.229  12.166  1.00  0.00    -0.744 OA
ENDBRANCH  84  85
ENDBRANCH  56  79
BRANCH  68  89
ATOM     89  C   UNL     1      -3.937  20.010   6.635  1.00  0.00    -0.014 A 
ATOM     90  C   UNL     1      -5.120  19.544   7.241  1.00  0.00     0.010 A 
ATOM     91  C   UNL     1      -3.703  21.395   6.574  1.00  0.00     0.010 A 
ATOM     92  C   UNL     1      -6.068  20.444   7.734  1.00  0.00     0.020 A 
ATOM     93  C   UNL     1      -4.631  22.298   7.101  1.00  0.00     0.020 A 
ATOM     94  C   UNL     1      -5.821  21.817   7.652  1.00  0.00     0.054 A 
BRANCH  94  95
ATOM     95  S   UNL     1      -7.080  22.969   8.265  1.00  0.00     0.124 S 
ATOM     96  O   UNL     1      -8.109  22.878   7.233  1.00  0.00    -0.237 OA
ATOM     97  O   UNL     1      -7.435  22.395   9.561  1.00  0.00    -0.237 OA
ATOM     98  O   UNL     1      -6.374  24.247   8.331  1.00  0.00    -0.744 OA
ENDBRANCH  94  95
ENDBRANCH  68  89
ENDBRANCH  42  43
ENDBRANCH  35  37
ENDBRANCH  34  35
ENDBRANCH  33  34
ENDBRANCH  32  33
ENDBRANCH  31  32
ENDBRANCH  30  31
ENDBRANCH   1  30
TORSDOF 25
