REMARK SMILES COc1ccccc1N1C(=O)[C@@H]2[C@@H](C1=O)[C@@](Cc1ccccc1)(C(=O)OCCOCCOCCOCCOC(=O)c1ccc(-c3c4nc(c(-c5ccc(S(=O)(=O)[O-])cc5)c5ccc([nH]5)c(-c5ccc(S(=O)(=O)[O-])cc5)c5nc(c(-c6ccc(S(=O)(=O)[O-])cc6)c6ccc3[nH]6)C=C5)C=C4)cc1)[NH2+][C@H]2c1ccc(C)cc1
REMARK SMILES IDX 33 1 32 2 31 3 30 4 29 5 28 6 27 7 26 8 24 9 25 10 16 11
REMARK SMILES IDX 9 12 10 13 14 14 11 15 12 16 13 17 15 18 102 19 101 20 8 23
REMARK SMILES IDX 3 24 4 25 5 26 7 27 6 28 2 29 1 30 103 31 104 32 109 33
REMARK SMILES IDX 105 34 108 35 106 36 107 37 17 38 18 39 19 40 23 41 20 42
REMARK SMILES IDX 22 43 21 44 34 45 35 46 36 47 37 48 38 49 39 50 40 51 41 52
REMARK SMILES IDX 42 53 100 54 43 55 99 56 44 57 45 58 46 59 93 60 47 61 98 62
REMARK SMILES IDX 92 63 94 64 48 65 97 66 91 67 90 68 49 70 79 71 60 72 78 73
REMARK SMILES IDX 61 74 64 75 77 76 95 77 62 78 63 79 76 81 96 82 65 83 50 84
REMARK SMILES IDX 51 85 59 86 52 87 58 88 53 89 54 90 55 91 56 92 57 93 80 94
REMARK SMILES IDX 81 95 89 96 82 97 88 98 83 99 84 100 85 101 86 102 87 103
REMARK SMILES IDX 66 104 67 105 75 106 68 107 74 108 69 109 70 110 71 111
REMARK SMILES IDX 72 112 73 113
REMARK H PARENT 101 21 101 22 94 69 64 80
REMARK Flexibility Score: inf
ROOT
ATOM      1  C   UNL     1       9.899  -3.308   0.216  1.00  0.00     0.188 C 
ENDROOT
BRANCH   1   2
ATOM      2  O   UNL     1       8.847  -3.557   1.134  1.00  0.00    -0.377 OA
BRANCH   2   3
ATOM      3  C   UNL     1       7.556  -3.600   0.561  1.00  0.00     0.188 C 
BRANCH   3   4
ATOM      4  C   UNL     1       7.342  -4.600  -0.582  1.00  0.00     0.188 C 
BRANCH   4   5
ATOM      5  O   UNL     1       8.057  -4.256  -1.773  1.00  0.00    -0.376 OA
BRANCH   5   6
ATOM      6  C   UNL     1       7.314  -3.600  -2.800  1.00  0.00     0.202 C 
BRANCH   6   7
ATOM      7  C   UNL     1       7.098  -2.102  -2.553  1.00  0.00     0.261 C 
BRANCH   7   8
ATOM      8  O   UNL     1       6.285  -1.834  -1.398  1.00  0.00    -0.459 OA
BRANCH   8   9
ATOM      9  C   UNL     1       5.005  -2.276  -1.424  1.00  0.00     0.369 C 
ATOM     10  O   UNL     1       4.497  -2.710  -2.446  1.00  0.00    -0.245 OA
BRANCH   9  11
ATOM     11  C   UNL     1       4.284  -2.113  -0.049  1.00  0.00     0.211 C 
ATOM     12  N   UNL     1       2.765   1.056  -1.079  1.00  0.00    -0.246 N 
ATOM     13  C   UNL     1       3.646   1.435  -0.070  1.00  0.00     0.244 C 
ATOM     14  C   UNL     1       2.761  -0.319  -1.284  1.00  0.00     0.245 C 
ATOM     15  O   UNL     1       3.721   2.480   0.548  1.00  0.00    -0.273 OA
ATOM     16  C   UNL     1       4.506   0.234   0.124  1.00  0.00     0.162 C 
ATOM     17  C   UNL     1       3.455  -0.866  -0.092  1.00  0.00     0.172 C 
ATOM     18  O   UNL     1       2.251  -0.984  -2.166  1.00  0.00    -0.273 OA
ATOM     19  C   UNL     1       5.112  -0.259   1.402  1.00  0.00     0.228 C 
ATOM     20  N   UNL     1       5.238  -1.713   1.084  1.00  0.00    -0.324 N 
ATOM     21  H   UNL     1       6.197  -1.910   0.798  1.00  0.00     0.347 HD
ATOM     22  H   UNL     1       4.997  -2.250   1.917  1.00  0.00     0.347 HD
BRANCH  12  23
ATOM     23  C   UNL     1       1.913   1.931  -1.773  1.00  0.00     0.094 A 
ATOM     24  C   UNL     1       0.572   1.588  -2.020  1.00  0.00     0.143 A 
ATOM     25  C   UNL     1      -0.203   2.360  -2.882  1.00  0.00     0.048 A 
ATOM     26  C   UNL     1       0.335   3.510  -3.457  1.00  0.00     0.004 A 
ATOM     27  C   UNL     1       2.426   3.121  -2.302  1.00  0.00     0.031 A 
ATOM     28  C   UNL     1       1.641   3.899  -3.155  1.00  0.00     0.002 A 
BRANCH  24  29
ATOM     29  O   UNL     1      -0.039   0.487  -1.473  1.00  0.00    -0.495 OA
ATOM     30  C   UNL     1      -0.191   0.581  -0.058  1.00  0.00     0.278 C 
ENDBRANCH  24  29
ENDBRANCH  12  23
BRANCH  19  31
ATOM     31  C   UNL     1       6.447   0.273   1.873  1.00  0.00     0.010 A 
ATOM     32  C   UNL     1       7.580   0.304   1.048  1.00  0.00     0.010 A 
ATOM     33  C   UNL     1       6.610   0.644   3.219  1.00  0.00     0.010 A 
ATOM     34  C   UNL     1       8.833   0.679   1.549  1.00  0.00     0.004 A 
ATOM     35  C   UNL     1       7.860   1.028   3.720  1.00  0.00     0.004 A 
ATOM     36  C   UNL     1       8.981   1.055   2.887  1.00  0.00    -0.051 A 
ATOM     37  C   UNL     1      10.330   1.408   3.437  1.00  0.00     0.044 C 
ENDBRANCH  19  31
BRANCH  11  38
ATOM     38  C   UNL     1       3.619  -3.429   0.447  1.00  0.00     0.117 C 
BRANCH  38  39
ATOM     39  C   UNL     1       2.564  -4.187  -0.324  1.00  0.00    -0.041 A 
ATOM     40  C   UNL     1       1.286  -4.367   0.228  1.00  0.00     0.004 A 
ATOM     41  C   UNL     1       2.865  -4.875  -1.507  1.00  0.00     0.004 A 
ATOM     42  C   UNL     1       0.336  -5.174  -0.406  1.00  0.00     0.000 A 
ATOM     43  C   UNL     1       1.906  -5.649  -2.163  1.00  0.00     0.000 A 
ATOM     44  C   UNL     1       0.640  -5.802  -1.611  1.00  0.00     0.000 A 
ENDBRANCH  38  39
ENDBRANCH  11  38
ENDBRANCH   9  11
ENDBRANCH   8   9
ENDBRANCH   7   8
ENDBRANCH   6   7
ENDBRANCH   5   6
ENDBRANCH   4   5
ENDBRANCH   3   4
ENDBRANCH   2   3
ENDBRANCH   1   2
BRANCH   1  45
ATOM     45  C   UNL     1      10.633  -4.607  -0.156  1.00  0.00     0.188 C 
BRANCH  45  46
ATOM     46  O   UNL     1      11.058  -5.527   0.855  1.00  0.00    -0.376 OA
BRANCH  46  47
ATOM     47  C   UNL     1      10.403  -5.540   2.114  1.00  0.00     0.202 C 
BRANCH  47  48
ATOM     48  C   UNL     1      11.054  -4.617   3.160  1.00  0.00     0.261 C 
BRANCH  48  49
ATOM     49  O   UNL     1      11.582  -3.384   2.647  1.00  0.00    -0.460 OA
BRANCH  49  50
ATOM     50  C   UNL     1      12.798  -3.466   2.048  1.00  0.00     0.338 C 
ATOM     51  O   UNL     1      13.529  -4.439   1.986  1.00  0.00    -0.246 OA
BRANCH  50  52
ATOM     52  C   UNL     1      13.076  -2.189   1.350  1.00  0.00     0.060 A 
ATOM     53  C   UNL     1      13.464  -2.221   0.005  1.00  0.00     0.016 A 
ATOM     54  C   UNL     1      12.966  -0.968   2.020  1.00  0.00     0.016 A 
ATOM     55  C   UNL     1      13.772  -1.035  -0.665  1.00  0.00     0.010 A 
ATOM     56  C   UNL     1      13.299   0.218   1.357  1.00  0.00     0.010 A 
ATOM     57  C   UNL     1      13.736   0.186   0.021  1.00  0.00    -0.014 A 
BRANCH  57  58
ATOM     58  C   UNL     1      14.388   1.376  -0.577  1.00  0.00     0.031 A 
ATOM     59  C   UNL     1      15.831   1.634  -0.233  1.00  0.00     0.074 A 
ATOM     60  C   UNL     1      13.741   2.192  -1.428  1.00  0.00     0.049 A 
ATOM     61  N   UNL     1      16.627   2.585  -0.648  1.00  0.00    -0.248 NA
ATOM     62  C   UNL     1      16.459   0.688   0.706  1.00  0.00     0.031 C 
ATOM     63  C   UNL     1      12.355   2.038  -1.867  1.00  0.00     0.029 A 
ATOM     64  N   UNL     1      14.177   3.319  -2.081  1.00  0.00    -0.354 N 
ATOM     65  C   UNL     1      17.847   2.351  -0.023  1.00  0.00     0.074 A 
ATOM     66  C   UNL     1      17.677   1.192   0.825  1.00  0.00     0.031 C 
ATOM     67  C   UNL     1      12.054   3.035  -2.719  1.00  0.00     0.029 A 
ATOM     68  C   UNL     1      13.218   3.908  -2.870  1.00  0.00     0.049 A 
ATOM     69  H   UNL     1      15.091   3.672  -1.991  1.00  0.00     0.167 HD
ATOM     70  C   UNL     1      19.011   3.030  -0.149  1.00  0.00     0.031 A 
ATOM     71  C   UNL     1      13.274   5.026  -3.623  1.00  0.00     0.031 A 
ATOM     72  C   UNL     1      19.180   4.195  -0.972  1.00  0.00     0.049 A 
ATOM     73  C   UNL     1      14.561   5.809  -3.695  1.00  0.00     0.074 A 
ATOM     74  C   UNL     1      20.322   4.949  -1.174  1.00  0.00     0.029 A 
ATOM     75  N   UNL     1      18.172   4.783  -1.721  1.00  0.00    -0.354 N 
ATOM     76  N   UNL     1      15.716   5.553  -3.127  1.00  0.00    -0.248 NA
ATOM     77  C   UNL     1      14.553   7.027  -4.519  1.00  0.00     0.031 C 
ATOM     78  C   UNL     1      19.992   6.023  -2.007  1.00  0.00     0.029 A 
ATOM     79  C   UNL     1      18.658   5.907  -2.367  1.00  0.00     0.049 A 
ATOM     80  H   UNL     1      17.248   4.450  -1.785  1.00  0.00     0.167 HD
ATOM     81  C   UNL     1      16.577   6.565  -3.543  1.00  0.00     0.074 A 
ATOM     82  C   UNL     1      15.813   7.429  -4.420  1.00  0.00     0.031 C 
ATOM     83  C   UNL     1      17.883   6.760  -3.231  1.00  0.00     0.031 A 
BRANCH  70  84
ATOM     84  C   UNL     1      20.179   2.537   0.660  1.00  0.00    -0.014 A 
ATOM     85  C   UNL     1      20.840   1.341   0.326  1.00  0.00     0.010 A 
ATOM     86  C   UNL     1      20.618   3.277   1.772  1.00  0.00     0.010 A 
ATOM     87  C   UNL     1      21.889   0.869   1.120  1.00  0.00     0.020 A 
ATOM     88  C   UNL     1      21.683   2.822   2.553  1.00  0.00     0.020 A 
ATOM     89  C   UNL     1      22.298   1.609   2.233  1.00  0.00     0.054 A 
BRANCH  89  90
ATOM     90  S   UNL     1      23.662   0.976   3.248  1.00  0.00     0.124 S 
ATOM     91  O   UNL     1      23.012  -0.105   3.983  1.00  0.00    -0.237 OA
ATOM     92  O   UNL     1      24.640   0.556   2.248  1.00  0.00    -0.237 OA
ATOM     93  O   UNL     1      24.057   2.128   4.054  1.00  0.00    -0.744 OA
ENDBRANCH  89  90
ENDBRANCH  70  84
BRANCH  71  94
ATOM     94  C   UNL     1      12.069   5.481  -4.370  1.00  0.00    -0.014 A 
ATOM     95  C   UNL     1      12.016   5.389  -5.772  1.00  0.00     0.010 A 
ATOM     96  C   UNL     1      10.965   6.012  -3.678  1.00  0.00     0.010 A 
ATOM     97  C   UNL     1      10.884   5.825  -6.469  1.00  0.00     0.020 A 
ATOM     98  C   UNL     1       9.823   6.427  -4.369  1.00  0.00     0.020 A 
ATOM     99  C   UNL     1       9.793   6.338  -5.762  1.00  0.00     0.054 A 
BRANCH  99 100
ATOM    100  S   UNL     1       8.306   6.833  -6.679  1.00  0.00     0.124 S 
ATOM    101  O   UNL     1       8.719   8.105  -7.264  1.00  0.00    -0.237 OA
ATOM    102  O   UNL     1       8.132   5.729  -7.619  1.00  0.00    -0.237 OA
ATOM    103  O   UNL     1       7.280   6.923  -5.641  1.00  0.00    -0.744 OA
ENDBRANCH  99 100
ENDBRANCH  71  94
BRANCH  83 104
ATOM    104  C   UNL     1      18.580   7.939  -3.856  1.00  0.00    -0.014 A 
ATOM    105  C   UNL     1      18.320   9.251  -3.423  1.00  0.00     0.010 A 
ATOM    106  C   UNL     1      19.554   7.724  -4.848  1.00  0.00     0.010 A 
ATOM    107  C   UNL     1      19.000  10.331  -3.994  1.00  0.00     0.020 A 
ATOM    108  C   UNL     1      20.255   8.798  -5.403  1.00  0.00     0.020 A 
ATOM    109  C   UNL     1      19.962  10.097  -4.983  1.00  0.00     0.054 A 
BRANCH 109 110
ATOM    110  S   UNL     1      20.862  11.510  -5.680  1.00  0.00     0.124 S 
ATOM    111  O   UNL     1      19.864  12.094  -6.572  1.00  0.00    -0.237 OA
ATOM    112  O   UNL     1      21.187  12.302  -4.497  1.00  0.00    -0.237 OA
ATOM    113  O   UNL     1      22.009  10.895  -6.345  1.00  0.00    -0.744 OA
ENDBRANCH 109 110
ENDBRANCH  83 104
ENDBRANCH  57  58
ENDBRANCH  50  52
ENDBRANCH  49  50
ENDBRANCH  48  49
ENDBRANCH  47  48
ENDBRANCH  46  47
ENDBRANCH  45  46
ENDBRANCH   1  45
TORSDOF 28
