REMARK SMILES C[C@@H]1[C@H](C)CCC[C@H]1NC(=O)C[N@@H+]1CCC[C@@H]1C(=O)OCCOCCOCCOCCOC(=O)c1ccc(-c2c3nc(c(-c4ccc(S(=O)(=O)[O-])cc4)c4ccc([nH]4)c(-c4ccc(S(=O)(=O)[O-])cc4)c4nc(c(-c5ccc(S(=O)(=O)[O-])cc5)c5ccc2[nH]5)C=C4)C=C3)cc1
REMARK SMILES IDX 26 1 25 2 24 3 23 4 22 5 21 6 20 7 18 8 19 9 17 10 13 11
REMARK SMILES IDX 14 12 15 14 16 15 12 16 10 17 9 18 11 20 8 21 1 22 2 23 3 24
REMARK SMILES IDX 4 25 5 26 7 27 6 28 27 29 28 30 29 31 30 32 31 33 32 34
REMARK SMILES IDX 33 35 34 36 35 37 36 38 94 39 37 40 93 41 38 42 39 43 40 44
REMARK SMILES IDX 87 45 41 46 92 47 86 48 88 49 42 50 91 51 85 52 84 53 43 55
REMARK SMILES IDX 73 56 54 57 72 58 55 59 58 60 71 61 89 62 56 63 57 64 70 66
REMARK SMILES IDX 90 67 59 68 44 69 45 70 53 71 46 72 52 73 47 74 48 75 49 76
REMARK SMILES IDX 50 77 51 78 74 79 75 80 83 81 76 82 82 83 77 84 78 85 79 86
REMARK SMILES IDX 80 87 81 88 60 89 61 90 69 91 62 92 68 93 63 94 64 95 65 96
REMARK SMILES IDX 66 97 67 98
REMARK H PARENT 13 13 9 19 88 54 58 65
REMARK Flexibility Score: inf
ROOT
ATOM      1  O   UNL     1      -3.916   2.128   6.281  1.00  0.00    -0.377 OA
ENDROOT
BRANCH   1   2
ATOM      2  C   UNL     1      -2.677   2.796   6.393  1.00  0.00     0.188 C 
BRANCH   2   3
ATOM      3  C   UNL     1      -2.555   4.084   5.566  1.00  0.00     0.188 C 
BRANCH   3   4
ATOM      4  O   UNL     1      -3.694   4.710   4.995  1.00  0.00    -0.376 OA
BRANCH   4   5
ATOM      5  C   UNL     1      -4.708   3.964   4.334  1.00  0.00     0.202 C 
BRANCH   5   6
ATOM      6  C   UNL     1      -4.371   2.897   3.283  1.00  0.00     0.261 C 
BRANCH   6   7
ATOM      7  O   UNL     1      -3.530   1.825   3.735  1.00  0.00    -0.459 OA
BRANCH   7   8
ATOM      8  C   UNL     1      -2.243   1.833   3.306  1.00  0.00     0.365 C 
ATOM      9  O   UNL     1      -1.765   2.692   2.570  1.00  0.00    -0.245 OA
BRANCH   8  10
ATOM     10  C   UNL     1      -1.452   0.589   3.753  1.00  0.00     0.295 C 
ATOM     11  N   UNL     1      -1.480  -0.480   2.728  1.00  0.00    -0.315 N 
ATOM     12  C   UNL     1      -0.976  -1.666   3.435  1.00  0.00     0.263 C 
ATOM     13  H   UNL     1      -0.915  -0.257   1.908  1.00  0.00     0.349 HD
ATOM     14  C   UNL     1      -1.632  -1.615   4.794  1.00  0.00     0.068 C 
ATOM     15  C   UNL     1      -1.759  -0.125   5.075  1.00  0.00     0.083 C 
BRANCH  11  16
ATOM     16  C   UNL     1      -2.855  -0.682   2.200  1.00  0.00     0.364 C 
BRANCH  16  17
ATOM     17  C   UNL     1      -2.890  -1.805   1.182  1.00  0.00     0.275 C 
ATOM     18  N   UNL     1      -2.104  -1.709   0.073  1.00  0.00    -0.348 N 
ATOM     19  H   UNL     1      -2.235  -2.414  -0.602  1.00  0.00     0.163 HD
ATOM     20  O   UNL     1      -3.614  -2.790   1.325  1.00  0.00    -0.268 OA
BRANCH  18  21
ATOM     21  C   UNL     1      -1.089  -0.700  -0.258  1.00  0.00     0.085 C 
ATOM     22  C   UNL     1       1.383  -0.127  -0.020  1.00  0.00     0.010 C 
ATOM     23  C   UNL     1       0.333  -1.248   0.033  1.00  0.00     0.011 C 
ATOM     24  C   UNL     1       0.642  -2.437  -0.908  1.00  0.00    -0.009 C 
ATOM     25  C   UNL     1       2.022  -3.047  -0.662  1.00  0.00     0.008 C 
ATOM     26  C   UNL     1       0.456  -2.059  -2.386  1.00  0.00     0.004 C 
ATOM     27  C   UNL     1      -1.248  -0.289  -1.723  1.00  0.00     0.025 C 
ATOM     28  C   UNL     1      -0.908  -1.432  -2.675  1.00  0.00     0.002 C 
ENDBRANCH  18  21
ENDBRANCH  16  17
ENDBRANCH  11  16
ENDBRANCH   8  10
ENDBRANCH   7   8
ENDBRANCH   6   7
ENDBRANCH   5   6
ENDBRANCH   4   5
ENDBRANCH   3   4
ENDBRANCH   2   3
ENDBRANCH   1   2
BRANCH   1  29
ATOM     29  C   UNL     1      -4.892   2.366   7.287  1.00  0.00     0.188 C 
BRANCH  29  30
ATOM     30  C   UNL     1      -4.933   3.766   7.928  1.00  0.00     0.188 C 
BRANCH  30  31
ATOM     31  O   UNL     1      -3.671   4.218   8.401  1.00  0.00    -0.376 OA
BRANCH  31  32
ATOM     32  C   UNL     1      -3.317   3.980   9.756  1.00  0.00     0.202 C 
BRANCH  32  33
ATOM     33  C   UNL     1      -3.218   2.527  10.255  1.00  0.00     0.261 C 
BRANCH  33  34
ATOM     34  O   UNL     1      -4.400   1.716  10.167  1.00  0.00    -0.460 OA
BRANCH  34  35
ATOM     35  C   UNL     1      -5.541   2.182  10.724  1.00  0.00     0.338 C 
ATOM     36  O   UNL     1      -5.675   3.197  11.371  1.00  0.00    -0.246 OA
BRANCH  35  37
ATOM     37  C   UNL     1      -6.654   1.339  10.229  1.00  0.00     0.060 A 
ATOM     38  C   UNL     1      -7.701   1.947   9.522  1.00  0.00     0.016 A 
ATOM     39  C   UNL     1      -6.670  -0.036  10.470  1.00  0.00     0.016 A 
ATOM     40  C   UNL     1      -8.791   1.188   9.097  1.00  0.00     0.010 A 
ATOM     41  C   UNL     1      -7.774  -0.791  10.063  1.00  0.00     0.010 A 
ATOM     42  C   UNL     1      -8.857  -0.175   9.411  1.00  0.00    -0.014 A 
BRANCH  42  43
ATOM     43  C   UNL     1     -10.139  -0.905   9.254  1.00  0.00     0.031 A 
ATOM     44  C   UNL     1     -11.012  -1.078  10.469  1.00  0.00     0.074 A 
ATOM     45  C   UNL     1     -10.535  -1.388   8.063  1.00  0.00     0.049 A 
ATOM     46  N   UNL     1     -12.148  -1.714  10.592  1.00  0.00    -0.248 NA
ATOM     47  C   UNL     1     -10.534  -0.450  11.712  1.00  0.00     0.031 C 
ATOM     48  C   UNL     1      -9.808  -1.237   6.804  1.00  0.00     0.029 A 
ATOM     49  N   UNL     1     -11.651  -2.111   7.725  1.00  0.00    -0.354 N 
ATOM     50  C   UNL     1     -12.513  -1.576  11.927  1.00  0.00     0.074 A 
ATOM     51  C   UNL     1     -11.463  -0.824  12.578  1.00  0.00     0.031 C 
ATOM     52  C   UNL     1     -10.496  -1.856   5.829  1.00  0.00     0.029 A 
ATOM     53  C   UNL     1     -11.689  -2.480   6.401  1.00  0.00     0.049 A 
ATOM     54  H   UNL     1     -12.358  -2.343   8.369  1.00  0.00     0.167 HD
ATOM     55  C   UNL     1     -13.623  -2.033  12.555  1.00  0.00     0.031 A 
ATOM     56  C   UNL     1     -12.572  -3.252   5.735  1.00  0.00     0.031 A 
ATOM     57  C   UNL     1     -14.653  -2.800  11.907  1.00  0.00     0.049 A 
ATOM     58  C   UNL     1     -13.755  -3.825   6.473  1.00  0.00     0.074 A 
ATOM     59  C   UNL     1     -15.824  -3.299  12.451  1.00  0.00     0.029 A 
ATOM     60  N   UNL     1     -14.631  -3.192  10.577  1.00  0.00    -0.354 N 
ATOM     61  N   UNL     1     -14.101  -3.668   7.729  1.00  0.00    -0.248 NA
ATOM     62  C   UNL     1     -14.671  -4.675   5.699  1.00  0.00     0.031 C 
ATOM     63  C   UNL     1     -16.474  -4.052  11.468  1.00  0.00     0.029 A 
ATOM     64  C   UNL     1     -15.749  -3.957  10.290  1.00  0.00     0.049 A 
ATOM     65  H   UNL     1     -13.924  -2.961   9.932  1.00  0.00     0.167 HD
ATOM     66  C   UNL     1     -15.291  -4.373   7.888  1.00  0.00     0.074 A 
ATOM     67  C   UNL     1     -15.611  -4.945   6.596  1.00  0.00     0.031 C 
ATOM     68  C   UNL     1     -16.054  -4.526   9.000  1.00  0.00     0.031 A 
BRANCH  55  69
ATOM     69  C   UNL     1     -13.747  -1.756  14.032  1.00  0.00    -0.014 A 
ATOM     70  C   UNL     1     -13.946  -0.452  14.522  1.00  0.00     0.010 A 
ATOM     71  C   UNL     1     -13.675  -2.824  14.945  1.00  0.00     0.010 A 
ATOM     72  C   UNL     1     -14.018  -0.216  15.898  1.00  0.00     0.020 A 
ATOM     73  C   UNL     1     -13.780  -2.597  16.320  1.00  0.00     0.020 A 
ATOM     74  C   UNL     1     -13.930  -1.290  16.788  1.00  0.00     0.054 A 
BRANCH  74  75
ATOM     75  S   UNL     1     -14.029  -0.956  18.568  1.00  0.00     0.124 S 
ATOM     76  O   UNL     1     -12.751  -0.294  18.821  1.00  0.00    -0.237 OA
ATOM     77  O   UNL     1     -15.208  -0.100  18.667  1.00  0.00    -0.237 OA
ATOM     78  O   UNL     1     -14.171  -2.281  19.165  1.00  0.00    -0.744 OA
ENDBRANCH  74  75
ENDBRANCH  55  69
BRANCH  56  79
ATOM     79  C   UNL     1     -12.364  -3.535   4.287  1.00  0.00    -0.014 A 
ATOM     80  C   UNL     1     -13.239  -3.008   3.321  1.00  0.00     0.010 A 
ATOM     81  C   UNL     1     -11.281  -4.328   3.865  1.00  0.00     0.010 A 
ATOM     82  C   UNL     1     -13.040  -3.273   1.963  1.00  0.00     0.020 A 
ATOM     83  C   UNL     1     -11.060  -4.571   2.506  1.00  0.00     0.020 A 
ATOM     84  C   UNL     1     -11.946  -4.046   1.563  1.00  0.00     0.054 A 
BRANCH  84  85
ATOM     85  S   UNL     1     -11.675  -4.319  -0.210  1.00  0.00     0.124 S 
ATOM     86  O   UNL     1     -12.787  -5.198  -0.557  1.00  0.00    -0.237 OA
ATOM     87  O   UNL     1     -11.748  -2.963  -0.749  1.00  0.00    -0.237 OA
ATOM     88  O   UNL     1     -10.351  -4.934  -0.265  1.00  0.00    -0.744 OA
ENDBRANCH  84  85
ENDBRANCH  56  79
BRANCH  68  89
ATOM     89  C   UNL     1     -17.334  -5.314   8.869  1.00  0.00    -0.014 A 
ATOM     90  C   UNL     1     -17.326  -6.706   8.671  1.00  0.00     0.010 A 
ATOM     91  C   UNL     1     -18.569  -4.652   9.008  1.00  0.00     0.010 A 
ATOM     92  C   UNL     1     -18.528  -7.415   8.583  1.00  0.00     0.020 A 
ATOM     93  C   UNL     1     -19.771  -5.362   8.954  1.00  0.00     0.020 A 
ATOM     94  C   UNL     1     -19.743  -6.738   8.727  1.00  0.00     0.054 A 
BRANCH  94  95
ATOM     95  S   UNL     1     -21.286  -7.689   8.653  1.00  0.00     0.124 S 
ATOM     96  O   UNL     1     -21.360  -8.041   7.238  1.00  0.00    -0.237 OA
ATOM     97  O   UNL     1     -21.020  -8.800   9.564  1.00  0.00    -0.237 OA
ATOM     98  O   UNL     1     -22.300  -6.743   9.113  1.00  0.00    -0.744 OA
ENDBRANCH  94  95
ENDBRANCH  68  89
ENDBRANCH  42  43
ENDBRANCH  35  37
ENDBRANCH  34  35
ENDBRANCH  33  34
ENDBRANCH  32  33
ENDBRANCH  31  32
ENDBRANCH  30  31
ENDBRANCH  29  30
ENDBRANCH   1  29
TORSDOF 26
