REMARK SMILES C[C@H]1[C@H](C)CC[C@@]2(C(=O)OCCOCCOCCOCCOC(=O)c3ccc(-c4c5nc(c(-c6ccc(S(=O)(=O)[O-])cc6)c6ccc([nH]6)c(-c6ccc(S(=O)(=O)[O-])cc6)c6nc(c(-c7ccc(S(=O)(=O)[O-])cc7)c7ccc4[nH]7)C=C6)C=C5)cc3)CC[C@@]3(C)C(=CC[C@@H]4[C@@]5(C)CC[C@H](O)C(C)(C)[C@@H]5CC[C@]43C)[C@H]12
REMARK SMILES IDX 17 1 16 2 15 3 14 4 13 5 12 6 11 7 10 8 8 9 9 10 7 11 1 12
REMARK SMILES IDX 2 13 3 14 107 15 4 16 5 17 89 18 6 19 85 20 87 21 90 22
REMARK SMILES IDX 86 23 88 24 105 25 91 26 92 27 104 28 106 29 93 30 103 31
REMARK SMILES IDX 94 32 95 33 102 34 96 35 99 36 97 37 100 38 101 39 98 40
REMARK SMILES IDX 18 42 19 43 20 44 21 45 22 46 23 47 24 48 25 49 26 50 84 51
REMARK SMILES IDX 27 52 83 53 28 54 29 55 30 56 77 57 31 58 82 59 76 60 78 61
REMARK SMILES IDX 32 62 81 63 75 64 74 65 33 67 63 68 44 69 62 70 45 71 48 72
REMARK SMILES IDX 61 73 79 74 46 75 47 76 60 78 80 79 49 80 34 81 35 82 43 83
REMARK SMILES IDX 36 84 42 85 37 86 38 87 39 88 40 89 41 90 64 91 65 92 73 93
REMARK SMILES IDX 66 94 72 95 67 96 68 97 69 98 70 99 71 100 50 101 51 102
REMARK SMILES IDX 59 103 52 104 58 105 53 106 54 107 55 108 56 109 57 110
REMARK H PARENT 98 41 78 66 48 77
REMARK Flexibility Score: inf
ROOT
ATOM      1  C   UNL     1      -4.605   0.829   1.483  1.00  0.00     0.188 C 
ENDROOT
BRANCH   1   2
ATOM      2  O   UNL     1      -4.049   1.804   2.326  1.00  0.00    -0.377 OA
BRANCH   2   3
ATOM      3  C   UNL     1      -3.040   2.611   1.768  1.00  0.00     0.188 C 
BRANCH   3   4
ATOM      4  C   UNL     1      -3.163   3.029   0.287  1.00  0.00     0.188 C 
BRANCH   4   5
ATOM      5  O   UNL     1      -3.369   2.004  -0.674  1.00  0.00    -0.376 OA
BRANCH   5   6
ATOM      6  C   UNL     1      -2.388   1.010  -0.865  1.00  0.00     0.202 C 
BRANCH   6   7
ATOM      7  C   UNL     1      -1.302   0.821   0.176  1.00  0.00     0.261 C 
BRANCH   7   8
ATOM      8  O   UNL     1      -0.305   1.888   0.333  1.00  0.00    -0.463 OA
BRANCH   8   9
ATOM      9  C   UNL     1       0.006   3.026   0.997  1.00  0.00     0.312 C 
ATOM     10  O   UNL     1      -0.745   3.799   1.575  1.00  0.00    -0.252 OA
BRANCH   9  11
ATOM     11  C   UNL     1       1.538   3.208   1.064  1.00  0.00     0.075 C 
ATOM     12  C   UNL     1       2.971  -0.128  -0.539  1.00  0.00     0.008 C 
ATOM     13  C   UNL     1       2.122   0.786   0.341  1.00  0.00    -0.003 C 
ATOM     14  C   UNL     1       2.326   0.442   1.872  1.00  0.00    -0.011 C 
ATOM     15  C   UNL     1       2.218   2.358  -0.057  1.00  0.00     0.036 C 
ATOM     16  C   UNL     1       1.815  -0.959   2.269  1.00  0.00     0.008 C 
ATOM     17  C   UNL     1       1.627   1.404   2.833  1.00  0.00     0.005 C 
ATOM     18  C   UNL     1       1.583   2.981  -1.407  1.00  0.00    -0.063 C 
ATOM     19  C   UNL     1       1.952   2.834   2.497  1.00  0.00     0.020 C 
ATOM     20  C   UNL     1       1.939   4.689   0.912  1.00  0.00     0.020 C 
ATOM     21  C   UNL     1       1.765   4.535  -1.668  1.00  0.00    -0.006 C 
ATOM     22  C   UNL     1       0.691   2.303  -2.162  1.00  0.00    -0.027 C 
ATOM     23  C   UNL     1       1.450   5.327  -0.372  1.00  0.00     0.013 C 
ATOM     24  C   UNL     1       3.257   4.761  -2.011  1.00  0.00     0.017 C 
ATOM     25  C   UNL     1       0.803   5.122  -2.887  1.00  0.00    -0.020 C 
ATOM     26  C   UNL     1      -0.387   2.964  -3.005  1.00  0.00     0.032 C 
ATOM     27  C   UNL     1      -0.606   4.465  -2.688  1.00  0.00     0.006 C 
ATOM     28  C   UNL     1       0.653   6.666  -2.894  1.00  0.00     0.008 C 
ATOM     29  C   UNL     1       1.416   4.755  -4.274  1.00  0.00     0.012 C 
ATOM     30  C   UNL     1      -1.919   5.145  -3.350  1.00  0.00    -0.025 C 
ATOM     31  C   UNL     1      -0.426   7.171  -3.873  1.00  0.00     0.005 C 
ATOM     32  C   UNL     1      -2.220   4.466  -4.701  1.00  0.00     0.012 C 
ATOM     33  C   UNL     1      -3.168   4.900  -2.435  1.00  0.00     0.010 C 
ATOM     34  C   UNL     1      -1.807   6.714  -3.393  1.00  0.00     0.003 C 
ATOM     35  C   UNL     1      -4.462   5.603  -2.870  1.00  0.00     0.033 C 
ATOM     36  C   UNL     1      -3.057   7.477  -4.004  1.00  0.00    -0.006 C 
ATOM     37  C   UNL     1      -4.300   7.102  -3.138  1.00  0.00     0.120 C 
ATOM     38  C   UNL     1      -3.312   7.220  -5.505  1.00  0.00     0.014 C 
ATOM     39  C   UNL     1      -2.870   9.015  -3.887  1.00  0.00     0.014 C 
BRANCH  37  40
ATOM     40  O   UNL     1      -5.505   7.621  -3.707  1.00  0.00    -0.393 OA
ATOM     41  H   UNL     1      -5.664   7.200  -4.566  1.00  0.00     0.210 HD
ENDBRANCH  37  40
ENDBRANCH   9  11
ENDBRANCH   8   9
ENDBRANCH   7   8
ENDBRANCH   6   7
ENDBRANCH   5   6
ENDBRANCH   4   5
ENDBRANCH   3   4
ENDBRANCH   2   3
ENDBRANCH   1   2
BRANCH   1  42
ATOM     42  C   UNL     1      -5.815   1.302   0.658  1.00  0.00     0.188 C 
BRANCH  42  43
ATOM     43  O   UNL     1      -6.457   2.553   0.881  1.00  0.00    -0.376 OA
BRANCH  43  44
ATOM     44  C   UNL     1      -6.247   3.312   2.057  1.00  0.00     0.202 C 
BRANCH  44  45
ATOM     45  C   UNL     1      -6.613   2.746   3.442  1.00  0.00     0.261 C 
BRANCH  45  46
ATOM     46  O   UNL     1      -6.368   1.354   3.675  1.00  0.00    -0.460 OA
BRANCH  46  47
ATOM     47  C   UNL     1      -7.337   0.493   3.288  1.00  0.00     0.338 C 
ATOM     48  O   UNL     1      -8.435   0.779   2.837  1.00  0.00    -0.246 OA
BRANCH  47  49
ATOM     49  C   UNL     1      -6.752  -0.874   3.262  1.00  0.00     0.060 A 
ATOM     50  C   UNL     1      -6.904  -1.632   2.087  1.00  0.00     0.016 A 
ATOM     51  C   UNL     1      -5.930  -1.344   4.295  1.00  0.00     0.016 A 
ATOM     52  C   UNL     1      -6.245  -2.850   1.942  1.00  0.00     0.010 A 
ATOM     53  C   UNL     1      -5.335  -2.606   4.185  1.00  0.00     0.010 A 
ATOM     54  C   UNL     1      -5.532  -3.378   3.026  1.00  0.00    -0.014 A 
BRANCH  54  55
ATOM     55  C   UNL     1      -5.416  -4.853   3.103  1.00  0.00     0.031 A 
ATOM     56  C   UNL     1      -6.650  -5.577   3.583  1.00  0.00     0.074 A 
ATOM     57  C   UNL     1      -4.317  -5.532   2.732  1.00  0.00     0.049 A 
ATOM     58  N   UNL     1      -6.865  -6.857   3.721  1.00  0.00    -0.248 NA
ATOM     59  C   UNL     1      -7.807  -4.733   3.941  1.00  0.00     0.031 C 
ATOM     60  C   UNL     1      -3.087  -4.950   2.198  1.00  0.00     0.029 A 
ATOM     61  N   UNL     1      -4.069  -6.883   2.752  1.00  0.00    -0.354 N 
ATOM     62  C   UNL     1      -8.178  -6.964   4.167  1.00  0.00     0.074 A 
ATOM     63  C   UNL     1      -8.707  -5.630   4.298  1.00  0.00     0.031 C 
ATOM     64  C   UNL     1      -2.208  -5.941   1.953  1.00  0.00     0.029 A 
ATOM     65  C   UNL     1      -2.804  -7.221   2.336  1.00  0.00     0.049 A 
ATOM     66  H   UNL     1      -4.737  -7.547   3.037  1.00  0.00     0.167 HD
ATOM     67  C   UNL     1      -8.889  -8.076   4.452  1.00  0.00     0.031 A 
ATOM     68  C   UNL     1      -2.201  -8.427   2.292  1.00  0.00     0.031 A 
ATOM     69  C   UNL     1      -8.345  -9.399   4.386  1.00  0.00     0.049 A 
ATOM     70  C   UNL     1      -2.978  -9.651   2.720  1.00  0.00     0.074 A 
ATOM     71  C   UNL     1      -8.963 -10.598   4.682  1.00  0.00     0.029 A 
ATOM     72  N   UNL     1      -7.041  -9.691   4.018  1.00  0.00    -0.354 N 
ATOM     73  N   UNL     1      -4.226  -9.740   3.118  1.00  0.00    -0.248 NA
ATOM     74  C   UNL     1      -2.265 -10.937   2.687  1.00  0.00     0.031 C 
ATOM     75  C   UNL     1      -8.012 -11.615   4.546  1.00  0.00     0.029 A 
ATOM     76  C   UNL     1      -6.824 -11.052   4.103  1.00  0.00     0.049 A 
ATOM     77  H   UNL     1      -6.370  -9.027   3.737  1.00  0.00     0.167 HD
ATOM     78  C   UNL     1      -4.455 -11.093   3.354  1.00  0.00     0.074 A 
ATOM     79  C   UNL     1      -3.221 -11.784   3.043  1.00  0.00     0.031 C 
ATOM     80  C   UNL     1      -5.583 -11.712   3.786  1.00  0.00     0.031 A 
BRANCH  67  81
ATOM     81  C   UNL     1     -10.303  -7.881   4.919  1.00  0.00    -0.014 A 
ATOM     82  C   UNL     1     -11.310  -7.457   4.033  1.00  0.00     0.010 A 
ATOM     83  C   UNL     1     -10.625  -8.108   6.269  1.00  0.00     0.010 A 
ATOM     84  C   UNL     1     -12.609  -7.233   4.496  1.00  0.00     0.020 A 
ATOM     85  C   UNL     1     -11.928  -7.911   6.730  1.00  0.00     0.020 A 
ATOM     86  C   UNL     1     -12.909  -7.462   5.843  1.00  0.00     0.054 A 
BRANCH  86  87
ATOM     87  S   UNL     1     -14.609  -7.193   6.412  1.00  0.00     0.124 S 
ATOM     88  O   UNL     1     -14.702  -5.735   6.407  1.00  0.00    -0.237 OA
ATOM     89  O   UNL     1     -15.399  -7.876   5.392  1.00  0.00    -0.237 OA
ATOM     90  O   UNL     1     -14.633  -7.814   7.734  1.00  0.00    -0.744 OA
ENDBRANCH  86  87
ENDBRANCH  67  81
BRANCH  68  91
ATOM     91  C   UNL     1      -0.780  -8.545   1.856  1.00  0.00    -0.014 A 
ATOM     92  C   UNL     1      -0.442  -9.193   0.655  1.00  0.00     0.010 A 
ATOM     93  C   UNL     1       0.252  -8.022   2.659  1.00  0.00     0.010 A 
ATOM     94  C   UNL     1       0.898  -9.327   0.271  1.00  0.00     0.020 A 
ATOM     95  C   UNL     1       1.589  -8.130   2.266  1.00  0.00     0.020 A 
ATOM     96  C   UNL     1       1.905  -8.791   1.078  1.00  0.00     0.054 A 
BRANCH  96  97
ATOM     97  S   UNL     1       3.632  -8.925   0.534  1.00  0.00     0.124 S 
ATOM     98  O   UNL     1       3.914 -10.339   0.759  1.00  0.00    -0.237 OA
ATOM     99  O   UNL     1       3.553  -8.509  -0.864  1.00  0.00    -0.237 OA
ATOM    100  O   UNL     1       4.339  -7.996   1.412  1.00  0.00    -0.744 OA
ENDBRANCH  96  97
ENDBRANCH  68  91
BRANCH  80 101
ATOM    101  C   UNL     1      -5.554 -13.211   3.912  1.00  0.00    -0.014 A 
ATOM    102  C   UNL     1      -4.848 -13.843   4.950  1.00  0.00     0.010 A 
ATOM    103  C   UNL     1      -6.315 -13.992   3.022  1.00  0.00     0.010 A 
ATOM    104  C   UNL     1      -4.878 -15.234   5.076  1.00  0.00     0.020 A 
ATOM    105  C   UNL     1      -6.371 -15.379   3.163  1.00  0.00     0.020 A 
ATOM    106  C   UNL     1      -5.640 -15.993   4.181  1.00  0.00     0.054 A 
BRANCH 106 107
ATOM    107  S   UNL     1      -5.698 -17.793   4.392  1.00  0.00     0.124 S 
ATOM    108  O   UNL     1      -4.377 -18.197   3.918  1.00  0.00    -0.237 OA
ATOM    109  O   UNL     1      -5.923 -17.941   5.828  1.00  0.00    -0.237 OA
ATOM    110  O   UNL     1      -6.816 -18.206   3.547  1.00  0.00    -0.744 OA
ENDBRANCH 106 107
ENDBRANCH  80 101
ENDBRANCH  54  55
ENDBRANCH  47  49
ENDBRANCH  46  47
ENDBRANCH  45  46
ENDBRANCH  44  45
ENDBRANCH  43  44
ENDBRANCH  42  43
ENDBRANCH   1  42
TORSDOF 24
