REMARK SMILES O=C(OCCOCCOCCOCCOC(=O)[C@H](c1c[nH]c2cc(F)ccc12)[NH+]1CCN(c2ccccc2)CC1)c1ccc(-c2c3nc(c(-c4ccc(S(=O)(=O)[O-])cc4)c4ccc([nH]4)c(-c4ccc(S(=O)(=O)[O-])cc4)c4nc(c(-c5ccc(S(=O)(=O)[O-])cc5)c5ccc2[nH]5)C=C4)C=C3)cc1
REMARK SMILES IDX 8 1 7 2 6 3 5 4 4 5 3 6 2 7 1 8 41 9 42 10 100 11 43 12
REMARK SMILES IDX 99 13 44 14 45 15 46 16 93 17 47 18 98 19 92 20 94 21 48 22
REMARK SMILES IDX 97 23 91 24 90 25 49 27 79 28 60 29 78 30 61 31 64 32 77 33
REMARK SMILES IDX 95 34 62 35 63 36 76 38 96 39 65 40 50 41 51 42 59 43 52 44
REMARK SMILES IDX 58 45 53 46 54 47 55 48 56 49 57 50 80 51 81 52 89 53 82 54
REMARK SMILES IDX 88 55 83 56 84 57 85 58 86 59 87 60 66 61 67 62 75 63 68 64
REMARK SMILES IDX 74 65 69 66 70 67 71 68 72 69 73 70 9 71 10 72 11 73 12 74
REMARK SMILES IDX 13 75 14 76 15 77 16 78 17 79 18 80 29 81 30 82 40 83 31 85
REMARK SMILES IDX 39 86 32 87 33 88 34 89 38 90 35 91 37 92 36 93 19 94 20 95
REMARK SMILES IDX 28 96 21 97 22 98 27 99 23 101 26 102 24 103 25 104
REMARK H PARENT 94 26 64 37 29 84 21 100
REMARK Flexibility Score: inf
ROOT
ATOM      1  C   UNL     1       5.896   2.115   1.982  1.00  0.00     0.188 C 
ENDROOT
BRANCH   1   2
ATOM      2  C   UNL     1       5.835   1.259   0.718  1.00  0.00     0.188 C 
BRANCH   2   3
ATOM      3  O   UNL     1       4.658   0.456   0.730  1.00  0.00    -0.376 OA
BRANCH   3   4
ATOM      4  C   UNL     1       4.782  -0.880   0.253  1.00  0.00     0.202 C 
BRANCH   4   5
ATOM      5  C   UNL     1       4.657  -0.988  -1.262  1.00  0.00     0.261 C 
BRANCH   5   6
ATOM      6  O   UNL     1       5.061   0.208  -1.942  1.00  0.00    -0.460 OA
BRANCH   6   7
ATOM      7  C   UNL     1       4.352   1.346  -2.142  1.00  0.00     0.338 C 
ATOM      8  O   UNL     1       4.930   2.284  -2.693  1.00  0.00    -0.246 OA
BRANCH   7   9
ATOM      9  C   UNL     1       2.918   1.558  -1.753  1.00  0.00     0.060 A 
ATOM     10  C   UNL     1       2.231   0.912  -0.722  1.00  0.00     0.016 A 
ATOM     11  C   UNL     1       2.239   2.579  -2.441  1.00  0.00     0.016 A 
ATOM     12  C   UNL     1       0.933   1.259  -0.371  1.00  0.00     0.010 A 
ATOM     13  C   UNL     1       0.928   2.930  -2.109  1.00  0.00     0.010 A 
ATOM     14  C   UNL     1       0.274   2.259  -1.072  1.00  0.00    -0.014 A 
BRANCH  14  15
ATOM     15  C   UNL     1      -1.158   2.454  -0.804  1.00  0.00     0.031 A 
ATOM     16  C   UNL     1      -2.124   1.854  -1.777  1.00  0.00     0.074 A 
ATOM     17  C   UNL     1      -1.556   3.043   0.337  1.00  0.00     0.049 A 
ATOM     18  N   UNL     1      -3.419   1.974  -1.831  1.00  0.00    -0.248 NA
ATOM     19  C   UNL     1      -1.553   0.987  -2.826  1.00  0.00     0.031 C 
ATOM     20  C   UNL     1      -0.665   3.505   1.407  1.00  0.00     0.029 A 
ATOM     21  N   UNL     1      -2.810   3.342   0.796  1.00  0.00    -0.354 N 
ATOM     22  C   UNL     1      -3.812   1.246  -2.947  1.00  0.00     0.074 A 
ATOM     23  C   UNL     1      -2.627   0.664  -3.530  1.00  0.00     0.031 C 
ATOM     24  C   UNL     1      -1.405   4.038   2.393  1.00  0.00     0.029 A 
ATOM     25  C   UNL     1      -2.805   4.029   1.988  1.00  0.00     0.049 A 
ATOM     26  H   UNL     1      -3.634   3.090   0.320  1.00  0.00     0.167 HD
ATOM     27  C   UNL     1      -5.059   1.112  -3.445  1.00  0.00     0.031 A 
ATOM     28  C   UNL     1      -3.821   4.637   2.631  1.00  0.00     0.031 A 
ATOM     29  C   UNL     1      -6.206   1.715  -2.829  1.00  0.00     0.049 A 
ATOM     30  C   UNL     1      -5.183   4.569   1.988  1.00  0.00     0.074 A 
ATOM     31  C   UNL     1      -7.522   1.690  -3.246  1.00  0.00     0.029 A 
ATOM     32  N   UNL     1      -6.162   2.464  -1.661  1.00  0.00    -0.354 N 
ATOM     33  N   UNL     1      -5.552   3.911   0.911  1.00  0.00    -0.248 NA
ATOM     34  C   UNL     1      -6.259   5.338   2.624  1.00  0.00     0.031 C 
ATOM     35  C   UNL     1      -8.262   2.485  -2.366  1.00  0.00     0.029 A 
ATOM     36  C   UNL     1      -7.420   2.946  -1.363  1.00  0.00     0.049 A 
ATOM     37  H   UNL     1      -5.353   2.626  -1.124  1.00  0.00     0.167 HD
ATOM     38  C   UNL     1      -6.903   4.182   0.744  1.00  0.00     0.074 A 
ATOM     39  C   UNL     1      -7.293   5.035   1.851  1.00  0.00     0.031 C 
ATOM     40  C   UNL     1      -7.750   3.783  -0.237  1.00  0.00     0.031 A 
BRANCH  27  41
ATOM     41  C   UNL     1      -5.220   0.387  -4.750  1.00  0.00    -0.014 A 
ATOM     42  C   UNL     1      -5.114  -1.011  -4.844  1.00  0.00     0.010 A 
ATOM     43  C   UNL     1      -5.516   1.133  -5.906  1.00  0.00     0.010 A 
ATOM     44  C   UNL     1      -5.297  -1.649  -6.075  1.00  0.00     0.020 A 
ATOM     45  C   UNL     1      -5.722   0.498  -7.133  1.00  0.00     0.020 A 
ATOM     46  C   UNL     1      -5.608  -0.890  -7.210  1.00  0.00     0.054 A 
BRANCH  46  47
ATOM     47  S   UNL     1      -5.913  -1.751  -8.777  1.00  0.00     0.124 S 
ATOM     48  O   UNL     1      -4.576  -2.223  -9.129  1.00  0.00    -0.237 OA
ATOM     49  O   UNL     1      -6.863  -2.791  -8.388  1.00  0.00    -0.237 OA
ATOM     50  O   UNL     1      -6.454  -0.710  -9.647  1.00  0.00    -0.744 OA
ENDBRANCH  46  47
ENDBRANCH  27  41
BRANCH  28  51
ATOM     51  C   UNL     1      -3.576   5.457   3.853  1.00  0.00    -0.014 A 
ATOM     52  C   UNL     1      -4.195   5.150   5.077  1.00  0.00     0.010 A 
ATOM     53  C   UNL     1      -2.749   6.596   3.783  1.00  0.00     0.010 A 
ATOM     54  C   UNL     1      -4.028   5.987   6.188  1.00  0.00     0.020 A 
ATOM     55  C   UNL     1      -2.551   7.414   4.898  1.00  0.00     0.020 A 
ATOM     56  C   UNL     1      -3.212   7.118   6.089  1.00  0.00     0.054 A 
BRANCH  56  57
ATOM     57  S   UNL     1      -3.024   8.199   7.534  1.00  0.00     0.124 S 
ATOM     58  O   UNL     1      -4.327   8.852   7.595  1.00  0.00    -0.237 OA
ATOM     59  O   UNL     1      -2.740   7.248   8.605  1.00  0.00    -0.237 OA
ATOM     60  O   UNL     1      -1.906   9.066   7.169  1.00  0.00    -0.744 OA
ENDBRANCH  56  57
ENDBRANCH  28  51
BRANCH  40  61
ATOM     61  C   UNL     1      -9.173   4.249  -0.140  1.00  0.00    -0.014 A 
ATOM     62  C   UNL     1      -9.515   5.581  -0.426  1.00  0.00     0.010 A 
ATOM     63  C   UNL     1     -10.185   3.316   0.147  1.00  0.00     0.010 A 
ATOM     64  C   UNL     1     -10.852   5.978  -0.412  1.00  0.00     0.020 A 
ATOM     65  C   UNL     1     -11.525   3.702   0.129  1.00  0.00     0.020 A 
ATOM     66  C   UNL     1     -11.848   5.033  -0.143  1.00  0.00     0.054 A 
BRANCH  66  67
ATOM     67  S   UNL     1     -13.580   5.558  -0.211  1.00  0.00     0.124 S 
ATOM     68  O   UNL     1     -13.698   6.371   0.997  1.00  0.00    -0.237 OA
ATOM     69  O   UNL     1     -13.642   6.292  -1.472  1.00  0.00    -0.237 OA
ATOM     70  O   UNL     1     -14.324   4.301  -0.191  1.00  0.00    -0.744 OA
ENDBRANCH  66  67
ENDBRANCH  40  61
ENDBRANCH  14  15
ENDBRANCH   7   9
ENDBRANCH   6   7
ENDBRANCH   5   6
ENDBRANCH   4   5
ENDBRANCH   3   4
ENDBRANCH   2   3
ENDBRANCH   1   2
BRANCH   1  71
ATOM     71  O   UNL     1       6.112   1.372   3.177  1.00  0.00    -0.377 OA
BRANCH  71  72
ATOM     72  C   UNL     1       5.240   0.266   3.382  1.00  0.00     0.188 C 
BRANCH  72  73
ATOM     73  C   UNL     1       3.711   0.506   3.369  1.00  0.00     0.188 C 
BRANCH  73  74
ATOM     74  O   UNL     1       3.358   1.876   3.441  1.00  0.00    -0.376 OA
BRANCH  74  75
ATOM     75  C   UNL     1       2.953   2.331   4.726  1.00  0.00     0.202 C 
BRANCH  75  76
ATOM     76  C   UNL     1       4.017   2.250   5.832  1.00  0.00     0.261 C 
BRANCH  76  77
ATOM     77  O   UNL     1       4.594   0.949   6.093  1.00  0.00    -0.459 OA
BRANCH  77  78
ATOM     78  C   UNL     1       3.793  -0.103   6.452  1.00  0.00     0.370 C 
ATOM     79  O   UNL     1       2.610   0.004   6.725  1.00  0.00    -0.245 OA
BRANCH  78  80
ATOM     80  C   UNL     1       4.624  -1.438   6.380  1.00  0.00     0.328 C 
BRANCH  80  81
ATOM     81  N   UNL     1       4.516  -2.096   7.707  1.00  0.00    -0.316 N 
ATOM     82  C   UNL     1       4.402  -3.563   7.725  1.00  0.00     0.284 C 
ATOM     83  C   UNL     1       5.662  -1.705   8.566  1.00  0.00     0.284 C 
ATOM     84  H   UNL     1       3.621  -1.758   8.061  1.00  0.00     0.349 HD
ATOM     85  C   UNL     1       5.669  -4.335   7.316  1.00  0.00     0.178 C 
ATOM     86  C   UNL     1       7.000  -2.404   8.213  1.00  0.00     0.178 C 
ATOM     87  N   UNL     1       6.844  -3.854   8.059  1.00  0.00    -0.360 N 
BRANCH  87  88
ATOM     88  C   UNL     1       7.322  -4.755   8.993  1.00  0.00     0.037 A 
ATOM     89  C   UNL     1       7.833  -5.986   8.551  1.00  0.00     0.026 A 
ATOM     90  C   UNL     1       7.215  -4.536  10.367  1.00  0.00     0.026 A 
ATOM     91  C   UNL     1       8.187  -6.987   9.451  1.00  0.00     0.002 A 
ATOM     92  C   UNL     1       7.562  -5.538  11.274  1.00  0.00     0.002 A 
ATOM     93  C   UNL     1       8.039  -6.765  10.816  1.00  0.00     0.000 A 
ENDBRANCH  87  88
ENDBRANCH  80  81
BRANCH  80  94
ATOM     94  C   UNL     1       4.243  -2.331   5.188  1.00  0.00     0.046 A 
ATOM     95  C   UNL     1       2.975  -2.723   4.792  1.00  0.00     0.094 A 
ATOM     96  C   UNL     1       5.155  -2.962   4.242  1.00  0.00     0.009 A 
ATOM     97  N   UNL     1       3.076  -3.574   3.724  1.00  0.00    -0.361 N 
ATOM     98  C   UNL     1       4.394  -3.763   3.385  1.00  0.00     0.049 A 
ATOM     99  C   UNL     1       6.564  -2.965   4.066  1.00  0.00     0.014 A 
ATOM    100  H   UNL     1       2.312  -3.991   3.264  1.00  0.00     0.166 HD
ATOM    101  C   UNL     1       4.965  -4.585   2.401  1.00  0.00     0.065 A 
ATOM    102  C   UNL     1       7.149  -3.781   3.088  1.00  0.00     0.040 A 
ATOM    103  C   UNL     1       6.354  -4.581   2.283  1.00  0.00     0.125 A 
ATOM    104  F   UNL     1       6.934  -5.373   1.370  1.00  0.00    -0.207 F 
ENDBRANCH  80  94
ENDBRANCH  78  80
ENDBRANCH  77  78
ENDBRANCH  76  77
ENDBRANCH  75  76
ENDBRANCH  74  75
ENDBRANCH  73  74
ENDBRANCH  72  73
ENDBRANCH  71  72
ENDBRANCH   1  71
TORSDOF 26
