REMARK SMILES C[C@@H](C(=O)OCCOCCOCCOCCOC(=O)c1ccc(-c2c3nc(c(-c4ccc(S(=O)(=O)[O-])cc4)c4ccc([nH]4)c(-c4ccc(S(=O)(=O)[O-])cc4)c4nc(c(-c5ccc(S(=O)(=O)[O-])cc5)c5ccc2[nH]5)C=C4)C=C3)cc1)c1ccc(N[C@H]2CCC[C@@H]2O)cc1F
REMARK SMILES IDX 10 1 9 2 8 3 7 4 6 5 5 6 3 7 4 8 2 9 1 10 80 11 81 12 92 13
REMARK SMILES IDX 82 14 91 15 93 16 83 17 84 18 85 20 86 21 89 22 87 23 88 24
REMARK SMILES IDX 90 25 11 27 12 28 13 29 14 30 15 31 16 32 17 33 18 34 19 35
REMARK SMILES IDX 20 36 21 37 79 38 22 39 78 40 23 41 24 42 25 43 72 44 26 45
REMARK SMILES IDX 77 46 71 47 73 48 27 49 76 50 70 51 69 52 28 54 58 55 39 56
REMARK SMILES IDX 57 57 40 58 43 59 56 60 74 61 41 62 42 63 55 65 75 66 44 67
REMARK SMILES IDX 29 68 30 69 38 70 31 71 37 72 32 73 33 74 34 75 35 76 36 77
REMARK SMILES IDX 59 78 60 79 68 80 61 81 67 82 62 83 63 84 64 85 65 86 66 87
REMARK SMILES IDX 45 88 46 89 54 90 47 91 53 92 48 93 49 94 50 95 51 96 52 97
REMARK H PARENT 84 19 90 26 73 53 43 64
REMARK Flexibility Score: inf
ROOT
ATOM      1  C   UNL     1       0.760   2.045  -1.735  1.00  0.00     0.188 C 
ENDROOT
BRANCH   1   2
ATOM      2  C   UNL     1       0.081   3.348  -1.294  1.00  0.00     0.188 C 
BRANCH   2   3
ATOM      3  O   UNL     1       0.778   4.572  -1.421  1.00  0.00    -0.376 OA
BRANCH   3   4
ATOM      4  C   UNL     1       1.933   4.845  -0.637  1.00  0.00     0.202 C 
BRANCH   4   5
ATOM      5  C   UNL     1       2.362   4.070   0.629  1.00  0.00     0.261 C 
BRANCH   5   6
ATOM      6  O   UNL     1       1.836   2.747   0.781  1.00  0.00    -0.463 OA
BRANCH   6   7
ATOM      7  C   UNL     1       1.239   2.432   1.955  1.00  0.00     0.313 C 
ATOM      8  O   UNL     1       1.134   3.205   2.903  1.00  0.00    -0.252 OA
BRANCH   7   9
ATOM      9  C   UNL     1       0.560   1.053   1.931  1.00  0.00     0.129 C 
ATOM     10  C   UNL     1       1.363   0.001   1.143  1.00  0.00     0.025 C 
BRANCH   9  11
ATOM     11  C   UNL     1      -0.938   1.115   1.615  1.00  0.00     0.002 A 
ATOM     12  C   UNL     1      -1.643   2.327   1.613  1.00  0.00     0.010 A 
ATOM     13  C   UNL     1      -1.702  -0.035   1.406  1.00  0.00     0.129 A 
ATOM     14  C   UNL     1      -3.023   2.382   1.382  1.00  0.00     0.026 A 
ATOM     15  C   UNL     1      -3.091   0.019   1.209  1.00  0.00     0.065 A 
ATOM     16  F   UNL     1      -1.121  -1.244   1.428  1.00  0.00    -0.207 F 
ATOM     17  C   UNL     1      -3.786   1.234   1.202  1.00  0.00     0.037 A 
BRANCH  17  18
ATOM     18  N   UNL     1      -5.162   1.232   1.113  1.00  0.00    -0.380 N 
ATOM     19  H   UNL     1      -5.571   0.350   0.958  1.00  0.00     0.160 HD
BRANCH  18  20
ATOM     20  C   UNL     1      -6.105   2.349   1.214  1.00  0.00     0.107 C 
ATOM     21  C   UNL     1      -5.964   3.199   2.484  1.00  0.00     0.027 C 
ATOM     22  C   UNL     1      -6.049   3.326   0.025  1.00  0.00     0.136 C 
ATOM     23  C   UNL     1      -5.954   4.658   2.022  1.00  0.00     0.005 C 
ATOM     24  C   UNL     1      -6.536   4.641   0.619  1.00  0.00     0.034 C 
BRANCH  22  25
ATOM     25  O   UNL     1      -6.915   2.917  -1.030  1.00  0.00    -0.391 OA
ATOM     26  H   UNL     1      -7.822   2.847  -0.695  1.00  0.00     0.211 HD
ENDBRANCH  22  25
ENDBRANCH  18  20
ENDBRANCH  17  18
ENDBRANCH   9  11
ENDBRANCH   7   9
ENDBRANCH   6   7
ENDBRANCH   5   6
ENDBRANCH   4   5
ENDBRANCH   3   4
ENDBRANCH   2   3
ENDBRANCH   1   2
BRANCH   1  27
ATOM     27  O   UNL     1       2.172   2.085  -1.756  1.00  0.00    -0.377 OA
BRANCH  27  28
ATOM     28  C   UNL     1       2.815   2.593  -2.919  1.00  0.00     0.188 C 
BRANCH  28  29
ATOM     29  C   UNL     1       2.039   3.447  -3.945  1.00  0.00     0.188 C 
BRANCH  29  30
ATOM     30  O   UNL     1       0.715   3.010  -4.217  1.00  0.00    -0.376 OA
BRANCH  30  31
ATOM     31  C   UNL     1       0.488   2.197  -5.359  1.00  0.00     0.202 C 
BRANCH  31  32
ATOM     32  C   UNL     1       1.147   0.808  -5.389  1.00  0.00     0.261 C 
BRANCH  32  33
ATOM     33  O   UNL     1       2.580   0.779  -5.318  1.00  0.00    -0.460 OA
BRANCH  33  34
ATOM     34  C   UNL     1       3.274   1.457  -6.255  1.00  0.00     0.338 C 
ATOM     35  O   UNL     1       2.818   2.055  -7.216  1.00  0.00    -0.246 OA
BRANCH  34  36
ATOM     36  C   UNL     1       4.681   1.533  -5.809  1.00  0.00     0.060 A 
ATOM     37  C   UNL     1       5.262   2.792  -5.605  1.00  0.00     0.016 A 
ATOM     38  C   UNL     1       5.419   0.369  -5.582  1.00  0.00     0.016 A 
ATOM     39  C   UNL     1       6.598   2.891  -5.216  1.00  0.00     0.010 A 
ATOM     40  C   UNL     1       6.764   0.470  -5.215  1.00  0.00     0.010 A 
ATOM     41  C   UNL     1       7.369   1.732  -5.067  1.00  0.00    -0.014 A 
BRANCH  41  42
ATOM     42  C   UNL     1       8.846   1.838  -4.969  1.00  0.00     0.031 A 
ATOM     43  C   UNL     1       9.657   1.635  -6.221  1.00  0.00     0.074 A 
ATOM     44  C   UNL     1       9.457   2.132  -3.807  1.00  0.00     0.049 A 
ATOM     45  N   UNL     1      10.955   1.627  -6.378  1.00  0.00    -0.248 NA
ATOM     46  C   UNL     1       8.899   1.408  -7.464  1.00  0.00     0.031 C 
ATOM     47  C   UNL     1       8.783   2.402  -2.538  1.00  0.00     0.029 A 
ATOM     48  N   UNL     1      10.793   2.243  -3.509  1.00  0.00    -0.354 N 
ATOM     49  C   UNL     1      11.169   1.385  -7.730  1.00  0.00     0.074 A 
ATOM     50  C   UNL     1       9.870   1.220  -8.344  1.00  0.00     0.031 C 
ATOM     51  C   UNL     1       9.712   2.637  -1.594  1.00  0.00     0.029 A 
ATOM     52  C   UNL     1      11.044   2.495  -2.181  1.00  0.00     0.049 A 
ATOM     53  H   UNL     1      11.505   2.151  -4.184  1.00  0.00     0.167 HD
ATOM     54  C   UNL     1      12.341   1.312  -8.404  1.00  0.00     0.031 A 
ATOM     55  C   UNL     1      12.213   2.574  -1.513  1.00  0.00     0.031 A 
ATOM     56  C   UNL     1      13.632   1.458  -7.787  1.00  0.00     0.049 A 
ATOM     57  C   UNL     1      13.508   2.402  -2.267  1.00  0.00     0.074 A 
ATOM     58  C   UNL     1      14.880   1.407  -8.383  1.00  0.00     0.029 A 
ATOM     59  N   UNL     1      13.844   1.675  -6.433  1.00  0.00    -0.354 N 
ATOM     60  N   UNL     1      13.695   2.193  -3.550  1.00  0.00    -0.248 NA
ATOM     61  C   UNL     1      14.750   2.486  -1.485  1.00  0.00     0.031 C 
ATOM     62  C   UNL     1      15.847   1.526  -7.380  1.00  0.00     0.029 A 
ATOM     63  C   UNL     1      15.202   1.731  -6.170  1.00  0.00     0.049 A 
ATOM     64  H   UNL     1      13.133   1.776  -5.760  1.00  0.00     0.167 HD
ATOM     65  C   UNL     1      15.076   2.154  -3.731  1.00  0.00     0.074 A 
ATOM     66  C   UNL     1      15.673   2.375  -2.430  1.00  0.00     0.031 C 
ATOM     67  C   UNL     1      15.784   1.955  -4.870  1.00  0.00     0.031 A 
BRANCH  54  68
ATOM     68  C   UNL     1      12.280   1.023  -9.881  1.00  0.00    -0.014 A 
ATOM     69  C   UNL     1      11.786   1.973 -10.793  1.00  0.00     0.010 A 
ATOM     70  C   UNL     1      12.762  -0.206 -10.369  1.00  0.00     0.010 A 
ATOM     71  C   UNL     1      11.742   1.686 -12.160  1.00  0.00     0.020 A 
ATOM     72  C   UNL     1      12.749  -0.484 -11.738  1.00  0.00     0.020 A 
ATOM     73  C   UNL     1      12.225   0.459 -12.624  1.00  0.00     0.054 A 
BRANCH  73  74
ATOM     74  S   UNL     1      12.184   0.127 -14.406  1.00  0.00     0.124 S 
ATOM     75  O   UNL     1      10.752  -0.030 -14.651  1.00  0.00    -0.237 OA
ATOM     76  O   UNL     1      12.789   1.332 -14.968  1.00  0.00    -0.237 OA
ATOM     77  O   UNL     1      12.976  -1.092 -14.552  1.00  0.00    -0.744 OA
ENDBRANCH  73  74
ENDBRANCH  54  68
BRANCH  55  78
ATOM     78  C   UNL     1      12.217   2.800  -0.039  1.00  0.00    -0.014 A 
ATOM     79  C   UNL     1      12.725   3.991   0.509  1.00  0.00     0.010 A 
ATOM     80  C   UNL     1      11.720   1.810   0.829  1.00  0.00     0.010 A 
ATOM     81  C   UNL     1      12.754   4.179   1.895  1.00  0.00     0.020 A 
ATOM     82  C   UNL     1      11.717   2.007   2.213  1.00  0.00     0.020 A 
ATOM     83  C   UNL     1      12.245   3.188   2.738  1.00  0.00     0.054 A 
BRANCH  83  84
ATOM     84  S   UNL     1      12.249   3.476   4.529  1.00  0.00     0.124 S 
ATOM     85  O   UNL     1      13.669   3.381   4.850  1.00  0.00    -0.237 OA
ATOM     86  O   UNL     1      11.663   4.810   4.632  1.00  0.00    -0.237 OA
ATOM     87  O   UNL     1      11.415   2.395   5.051  1.00  0.00    -0.744 OA
ENDBRANCH  83  84
ENDBRANCH  55  78
BRANCH  67  88
ATOM     88  C   UNL     1      17.288   2.013  -4.781  1.00  0.00    -0.014 A 
ATOM     89  C   UNL     1      18.028   1.004  -4.139  1.00  0.00     0.010 A 
ATOM     90  C   UNL     1      17.977   3.069  -5.408  1.00  0.00     0.010 A 
ATOM     91  C   UNL     1      19.424   1.068  -4.097  1.00  0.00     0.020 A 
ATOM     92  C   UNL     1      19.373   3.119  -5.397  1.00  0.00     0.020 A 
ATOM     93  C   UNL     1      20.087   2.125  -4.728  1.00  0.00     0.054 A 
BRANCH  93  94
ATOM     94  S   UNL     1      21.901   2.160  -4.697  1.00  0.00     0.124 S 
ATOM     95  O   UNL     1      22.174   2.490  -3.301  1.00  0.00    -0.237 OA
ATOM     96  O   UNL     1      22.254   0.802  -5.103  1.00  0.00    -0.237 OA
ATOM     97  O   UNL     1      22.245   3.202  -5.661  1.00  0.00    -0.744 OA
ENDBRANCH  93  94
ENDBRANCH  67  88
ENDBRANCH  41  42
ENDBRANCH  34  36
ENDBRANCH  33  34
ENDBRANCH  32  33
ENDBRANCH  31  32
ENDBRANCH  30  31
ENDBRANCH  29  30
ENDBRANCH  28  29
ENDBRANCH  27  28
ENDBRANCH   1  27
TORSDOF 27
