REMARK SMILES O=C(OCCOCCOCCOCCOC(=O)[C@@]1(Cl)C[C@@H]2CC[C@H]1C2)c1ccc(-c2c3nc(c(-c4ccc(S(=O)(=O)[O-])cc4)c4ccc([nH]4)c(-c4ccc(S(=O)(=O)[O-])cc4)c4nc(c(-c5ccc(S(=O)(=O)[O-])cc5)c5ccc2[nH]5)C=C4)C=C3)cc1
REMARK SMILES IDX 7 1 6 2 5 3 4 4 3 5 2 6 1 7 26 8 27 9 85 10 28 11 84 12
REMARK SMILES IDX 29 13 30 14 31 15 78 16 32 17 83 18 77 19 79 20 33 21 82 22
REMARK SMILES IDX 76 23 75 24 34 26 64 27 45 28 63 29 46 30 49 31 62 32 80 33
REMARK SMILES IDX 47 34 48 35 61 37 81 38 50 39 35 40 36 41 44 42 37 43 43 44
REMARK SMILES IDX 38 45 39 46 40 47 41 48 42 49 65 50 66 51 74 52 67 53 73 54
REMARK SMILES IDX 68 55 69 56 70 57 71 58 72 59 51 60 52 61 60 62 53 63 59 64
REMARK SMILES IDX 54 65 55 66 56 67 57 68 58 69 8 70 9 71 10 72 11 73 12 74
REMARK SMILES IDX 13 75 14 76 15 77 16 78 17 79 18 80 20 81 24 82 19 83 21 84
REMARK SMILES IDX 23 85 25 86 22 87
REMARK H PARENT 79 25 49 36
REMARK Flexibility Score: inf
ROOT
ATOM      1  C   UNL     1       1.314  -0.023  -2.010  1.00  0.00     0.188 C 
ENDROOT
BRANCH   1   2
ATOM      2  O   UNL     1       0.882   1.240  -2.504  1.00  0.00    -0.376 OA
BRANCH   2   3
ATOM      3  C   UNL     1       1.150   2.398  -1.716  1.00  0.00     0.202 C 
BRANCH   3   4
ATOM      4  C   UNL     1       0.384   2.489  -0.400  1.00  0.00     0.261 C 
BRANCH   4   5
ATOM      5  O   UNL     1      -0.138   1.240   0.077  1.00  0.00    -0.460 OA
BRANCH   5   6
ATOM      6  C   UNL     1      -1.231   0.537  -0.305  1.00  0.00     0.338 C 
ATOM      7  O   UNL     1      -1.448  -0.533   0.265  1.00  0.00    -0.246 OA
BRANCH   6   8
ATOM      8  C   UNL     1      -2.187   0.946  -1.381  1.00  0.00     0.060 A 
ATOM      9  C   UNL     1      -1.912   1.825  -2.425  1.00  0.00     0.016 A 
ATOM     10  C   UNL     1      -3.457   0.344  -1.362  1.00  0.00     0.016 A 
ATOM     11  C   UNL     1      -2.860   2.175  -3.366  1.00  0.00     0.010 A 
ATOM     12  C   UNL     1      -4.432   0.687  -2.304  1.00  0.00     0.010 A 
ATOM     13  C   UNL     1      -4.141   1.654  -3.271  1.00  0.00    -0.014 A 
BRANCH  13  14
ATOM     14  C   UNL     1      -5.186   2.399  -3.988  1.00  0.00     0.031 A 
ATOM     15  C   UNL     1      -6.015   3.347  -3.168  1.00  0.00     0.074 A 
ATOM     16  C   UNL     1      -5.210   2.400  -5.332  1.00  0.00     0.049 A 
ATOM     17  N   UNL     1      -7.009   4.106  -3.533  1.00  0.00    -0.248 NA
ATOM     18  C   UNL     1      -5.662   3.468  -1.739  1.00  0.00     0.031 C 
ATOM     19  C   UNL     1      -4.280   1.664  -6.195  1.00  0.00     0.029 A 
ATOM     20  N   UNL     1      -6.005   3.085  -6.206  1.00  0.00    -0.354 N 
ATOM     21  C   UNL     1      -7.438   4.738  -2.371  1.00  0.00     0.074 A 
ATOM     22  C   UNL     1      -6.597   4.288  -1.290  1.00  0.00     0.031 C 
ATOM     23  C   UNL     1      -4.541   1.966  -7.478  1.00  0.00     0.029 A 
ATOM     24  C   UNL     1      -5.706   2.841  -7.525  1.00  0.00     0.049 A 
ATOM     25  H   UNL     1      -6.723   3.695  -5.919  1.00  0.00     0.167 HD
ATOM     26  C   UNL     1      -8.463   5.606  -2.229  1.00  0.00     0.031 A 
ATOM     27  C   UNL     1      -6.343   3.254  -8.636  1.00  0.00     0.031 A 
ATOM     28  C   UNL     1      -9.263   6.032  -3.341  1.00  0.00     0.049 A 
ATOM     29  C   UNL     1      -7.555   4.126  -8.444  1.00  0.00     0.074 A 
ATOM     30  C   UNL     1     -10.379   6.844  -3.348  1.00  0.00     0.029 A 
ATOM     31  N   UNL     1      -9.012   5.670  -4.661  1.00  0.00    -0.354 N 
ATOM     32  N   UNL     1      -8.039   4.628  -7.329  1.00  0.00    -0.248 NA
ATOM     33  C   UNL     1      -8.315   4.476  -9.647  1.00  0.00     0.031 C 
ATOM     34  C   UNL     1     -10.839   6.922  -4.667  1.00  0.00     0.029 A 
ATOM     35  C   UNL     1      -9.966   6.223  -5.490  1.00  0.00     0.049 A 
ATOM     36  H   UNL     1      -8.265   5.103  -4.958  1.00  0.00     0.167 HD
ATOM     37  C   UNL     1      -9.148   5.376  -7.699  1.00  0.00     0.074 A 
ATOM     38  C   UNL     1      -9.248   5.272  -9.144  1.00  0.00     0.031 C 
ATOM     39  C   UNL     1     -10.009   6.085  -6.926  1.00  0.00     0.031 A 
BRANCH  26  40
ATOM     40  C   UNL     1      -8.823   6.024  -0.829  1.00  0.00    -0.014 A 
ATOM     41  C   UNL     1      -8.001   6.869  -0.061  1.00  0.00     0.010 A 
ATOM     42  C   UNL     1      -9.997   5.506  -0.252  1.00  0.00     0.010 A 
ATOM     43  C   UNL     1      -8.325   7.151   1.272  1.00  0.00     0.020 A 
ATOM     44  C   UNL     1     -10.340   5.809   1.068  1.00  0.00     0.020 A 
ATOM     45  C   UNL     1      -9.491   6.615   1.828  1.00  0.00     0.054 A 
BRANCH  45  46
ATOM     46  S   UNL     1      -9.893   6.999   3.555  1.00  0.00     0.124 S 
ATOM     47  O   UNL     1      -8.893   6.220   4.279  1.00  0.00    -0.237 OA
ATOM     48  O   UNL     1      -9.719   8.448   3.608  1.00  0.00    -0.237 OA
ATOM     49  O   UNL     1     -11.271   6.535   3.703  1.00  0.00    -0.744 OA
ENDBRANCH  45  46
ENDBRANCH  26  40
BRANCH  27  50
ATOM     50  C   UNL     1      -5.899   2.796  -9.983  1.00  0.00    -0.014 A 
ATOM     51  C   UNL     1      -5.442   3.708 -10.949  1.00  0.00     0.010 A 
ATOM     52  C   UNL     1      -5.937   1.426 -10.311  1.00  0.00     0.010 A 
ATOM     53  C   UNL     1      -5.053   3.264 -12.219  1.00  0.00     0.020 A 
ATOM     54  C   UNL     1      -5.519   0.974 -11.566  1.00  0.00     0.020 A 
ATOM     55  C   UNL     1      -5.094   1.899 -12.519  1.00  0.00     0.054 A 
BRANCH  55  56
ATOM     56  S   UNL     1      -4.562   1.343 -14.163  1.00  0.00     0.124 S 
ATOM     57  O   UNL     1      -5.645   1.829 -15.013  1.00  0.00    -0.237 OA
ATOM     58  O   UNL     1      -3.278   2.019 -14.324  1.00  0.00    -0.237 OA
ATOM     59  O   UNL     1      -4.480  -0.110 -14.024  1.00  0.00    -0.744 OA
ENDBRANCH  55  56
ENDBRANCH  27  50
BRANCH  39  60
ATOM     60  C   UNL     1     -11.089   6.843  -7.643  1.00  0.00    -0.014 A 
ATOM     61  C   UNL     1     -12.174   6.183  -8.242  1.00  0.00     0.010 A 
ATOM     62  C   UNL     1     -11.033   8.249  -7.662  1.00  0.00     0.010 A 
ATOM     63  C   UNL     1     -13.168   6.918  -8.888  1.00  0.00     0.020 A 
ATOM     64  C   UNL     1     -12.043   8.987  -8.274  1.00  0.00     0.020 A 
ATOM     65  C   UNL     1     -13.095   8.315  -8.899  1.00  0.00     0.054 A 
BRANCH  65  66
ATOM     66  S   UNL     1     -14.417   9.249  -9.712  1.00  0.00     0.124 S 
ATOM     67  O   UNL     1     -14.128   9.014 -11.124  1.00  0.00    -0.237 OA
ATOM     68  O   UNL     1     -15.624   8.604  -9.201  1.00  0.00    -0.237 OA
ATOM     69  O   UNL     1     -14.207  10.619  -9.251  1.00  0.00    -0.744 OA
ENDBRANCH  65  66
ENDBRANCH  39  60
ENDBRANCH  13  14
ENDBRANCH   6   8
ENDBRANCH   5   6
ENDBRANCH   4   5
ENDBRANCH   3   4
ENDBRANCH   2   3
ENDBRANCH   1   2
BRANCH   1  70
ATOM     70  C   UNL     1       1.940  -0.879  -3.107  1.00  0.00     0.188 C 
BRANCH  70  71
ATOM     71  O   UNL     1       3.138  -0.353  -3.661  1.00  0.00    -0.377 OA
BRANCH  71  72
ATOM     72  C   UNL     1       3.093   1.019  -4.038  1.00  0.00     0.188 C 
BRANCH  72  73
ATOM     73  C   UNL     1       2.006   1.496  -5.034  1.00  0.00     0.188 C 
BRANCH  73  74
ATOM     74  O   UNL     1       1.222   0.435  -5.547  1.00  0.00    -0.376 OA
BRANCH  74  75
ATOM     75  C   UNL     1       1.558   0.018  -6.863  1.00  0.00     0.202 C 
BRANCH  75  76
ATOM     76  C   UNL     1       3.002  -0.460  -7.107  1.00  0.00     0.261 C 
BRANCH  76  77
ATOM     77  O   UNL     1       4.059   0.385  -6.596  1.00  0.00    -0.462 OA
BRANCH  77  78
ATOM     78  C   UNL     1       4.457   1.514  -7.249  1.00  0.00     0.327 C 
ATOM     79  O   UNL     1       4.019   1.858  -8.330  1.00  0.00    -0.250 OA
BRANCH  78  80
ATOM     80  C   UNL     1       5.467   2.340  -6.383  1.00  0.00     0.145 C 
ATOM     81  C   UNL     1       6.321   1.482  -5.402  1.00  0.00     0.039 C 
ATOM     82  C   UNL     1       6.565   3.010  -7.245  1.00  0.00     0.022 C 
ATOM     83  Cl  UNL     1       4.526   3.623  -5.530  1.00  0.00    -0.106 Cl
ATOM     84  C   UNL     1       7.760   1.697  -5.898  1.00  0.00    -0.008 C 
ATOM     85  C   UNL     1       7.421   4.008  -6.422  1.00  0.00     0.006 C 
ATOM     86  C   UNL     1       7.558   1.857  -7.403  1.00  0.00     0.009 C 
ATOM     87  C   UNL     1       8.210   3.099  -5.470  1.00  0.00     0.004 C 
ENDBRANCH  78  80
ENDBRANCH  77  78
ENDBRANCH  76  77
ENDBRANCH  75  76
ENDBRANCH  74  75
ENDBRANCH  73  74
ENDBRANCH  72  73
ENDBRANCH  71  72
ENDBRANCH  70  71
ENDBRANCH   1  70
TORSDOF 23
