REMARK SMILES Cc1cc2c(=O)cc(-c3ccc(F)cc3)oc2c(C(=O)OCCOCCOCCOCCOC(=O)c2ccc(-c3c4nc(c(-c5ccc(S(=O)(=O)[O-])cc5)c5ccc([nH]5)c(-c5ccc(S(=O)(=O)[O-])cc5)c5nc(c(-c6ccc(S(=O)(=O)[O-])cc6)c6ccc3[nH]6)C=C5)C=C4)cc2)c1C
REMARK SMILES IDX 28 1 27 2 26 3 25 4 24 5 23 6 22 7 21 8 19 9 20 10 18 11
REMARK SMILES IDX 1 12 2 13 3 14 96 15 4 16 97 17 5 18 17 19 6 20 7 21 16 22
REMARK SMILES IDX 8 23 9 24 10 25 15 26 11 27 14 28 12 29 13 30 29 31 30 32
REMARK SMILES IDX 31 33 32 34 33 35 34 36 35 37 36 38 37 39 95 40 38 41 94 42
REMARK SMILES IDX 39 43 40 44 41 45 88 46 42 47 93 48 87 49 89 50 43 51 92 52
REMARK SMILES IDX 86 53 85 54 44 56 74 57 55 58 73 59 56 60 59 61 72 62 90 63
REMARK SMILES IDX 57 64 58 65 71 67 91 68 60 69 45 70 46 71 54 72 47 73 53 74
REMARK SMILES IDX 48 75 49 76 50 77 51 78 52 79 75 80 76 81 84 82 77 83 83 84
REMARK SMILES IDX 78 85 79 86 80 87 81 88 82 89 61 90 62 91 70 92 63 93 69 94
REMARK SMILES IDX 64 95 65 96 66 97 67 98 68 99
REMARK H PARENT 89 55 59 66
REMARK Flexibility Score: inf
ROOT
ATOM      1  C   UNL     1       0.685   1.304  -6.984  1.00  0.00     0.188 C 
ENDROOT
BRANCH   1   2
ATOM      2  O   UNL     1       1.141   0.621  -5.829  1.00  0.00    -0.377 OA
BRANCH   2   3
ATOM      3  C   UNL     1       0.818  -0.751  -5.651  1.00  0.00     0.188 C 
BRANCH   3   4
ATOM      4  C   UNL     1      -0.305  -1.467  -6.441  1.00  0.00     0.188 C 
BRANCH   4   5
ATOM      5  O   UNL     1      -1.205  -0.628  -7.153  1.00  0.00    -0.376 OA
BRANCH   5   6
ATOM      6  C   UNL     1      -2.551  -0.615  -6.698  1.00  0.00     0.202 C 
BRANCH   6   7
ATOM      7  C   UNL     1      -2.754   0.225  -5.439  1.00  0.00     0.261 C 
BRANCH   7   8
ATOM      8  O   UNL     1      -1.869  -0.159  -4.378  1.00  0.00    -0.460 OA
BRANCH   8   9
ATOM      9  C   UNL     1      -2.211  -1.242  -3.649  1.00  0.00     0.342 C 
ATOM     10  O   UNL     1      -3.194  -1.944  -3.815  1.00  0.00    -0.246 OA
BRANCH   9  11
ATOM     11  C   UNL     1      -1.120  -1.524  -2.675  1.00  0.00     0.106 A 
ATOM     12  C   UNL     1       1.103   0.097   0.043  1.00  0.00     0.044 C 
ATOM     13  C   UNL     1       0.436  -0.867  -0.905  1.00  0.00    -0.046 A 
ATOM     14  C   UNL     1       0.870  -2.201  -0.836  1.00  0.00     0.019 A 
ATOM     15  C   UNL     1      -0.583  -0.514  -1.823  1.00  0.00    -0.030 A 
ATOM     16  C   UNL     1       0.377  -3.161  -1.719  1.00  0.00     0.066 A 
ATOM     17  C   UNL     1      -1.008   0.929  -1.987  1.00  0.00     0.046 C 
ATOM     18  C   UNL     1       0.936  -4.522  -1.702  1.00  0.00     0.193 A 
ATOM     19  C   UNL     1      -0.597  -2.831  -2.656  1.00  0.00     0.153 A 
ATOM     20  O   UNL     1       1.701  -4.913  -0.831  1.00  0.00    -0.289 OA
ATOM     21  C   UNL     1       0.567  -5.392  -2.824  1.00  0.00     0.100 A 
ATOM     22  O   UNL     1      -0.994  -3.732  -3.623  1.00  0.00    -0.455 OA
ATOM     23  C   UNL     1      -0.336  -4.945  -3.706  1.00  0.00     0.138 A 
BRANCH  23  24
ATOM     24  C   UNL     1      -0.675  -5.764  -4.875  1.00  0.00     0.018 A 
ATOM     25  C   UNL     1      -0.084  -5.497  -6.120  1.00  0.00     0.015 A 
ATOM     26  C   UNL     1      -1.545  -6.855  -4.746  1.00  0.00     0.015 A 
ATOM     27  C   UNL     1      -0.361  -6.314  -7.220  1.00  0.00     0.040 A 
ATOM     28  C   UNL     1      -1.820  -7.670  -5.847  1.00  0.00     0.040 A 
ATOM     29  C   UNL     1      -1.225  -7.392  -7.072  1.00  0.00     0.123 A 
ATOM     30  F   UNL     1      -1.483  -8.181  -8.124  1.00  0.00    -0.207 F 
ENDBRANCH  23  24
ENDBRANCH   9  11
ENDBRANCH   8   9
ENDBRANCH   7   8
ENDBRANCH   6   7
ENDBRANCH   5   6
ENDBRANCH   4   5
ENDBRANCH   3   4
ENDBRANCH   2   3
ENDBRANCH   1   2
BRANCH   1  31
ATOM     31  C   UNL     1       1.031   0.683  -8.350  1.00  0.00     0.188 C 
BRANCH  31  32
ATOM     32  O   UNL     1       1.752  -0.542  -8.253  1.00  0.00    -0.376 OA
BRANCH  32  33
ATOM     33  C   UNL     1       3.135  -0.484  -8.574  1.00  0.00     0.202 C 
BRANCH  33  34
ATOM     34  C   UNL     1       4.025   0.302  -7.602  1.00  0.00     0.261 C 
BRANCH  34  35
ATOM     35  O   UNL     1       3.695   1.685  -7.418  1.00  0.00    -0.460 OA
BRANCH  35  36
ATOM     36  C   UNL     1       3.724   2.504  -8.492  1.00  0.00     0.338 C 
ATOM     37  O   UNL     1       4.016   2.209  -9.638  1.00  0.00    -0.246 OA
BRANCH  36  38
ATOM     38  C   UNL     1       3.138   3.792  -8.060  1.00  0.00     0.060 A 
ATOM     39  C   UNL     1       3.618   4.423  -6.910  1.00  0.00     0.016 A 
ATOM     40  C   UNL     1       2.065   4.340  -8.777  1.00  0.00     0.016 A 
ATOM     41  C   UNL     1       3.045   5.623  -6.494  1.00  0.00     0.010 A 
ATOM     42  C   UNL     1       1.486   5.540  -8.352  1.00  0.00     0.010 A 
ATOM     43  C   UNL     1       1.993   6.204  -7.225  1.00  0.00    -0.014 A 
BRANCH  43  44
ATOM     44  C   UNL     1       1.618   7.610  -6.942  1.00  0.00     0.031 A 
ATOM     45  C   UNL     1       0.414   7.984  -6.136  1.00  0.00     0.074 A 
ATOM     46  C   UNL     1       2.438   8.565  -7.423  1.00  0.00     0.049 A 
ATOM     47  N   UNL     1       0.078   9.164  -5.681  1.00  0.00    -0.248 NA
ATOM     48  C   UNL     1      -0.534   6.914  -5.800  1.00  0.00     0.031 C 
ATOM     49  C   UNL     1       3.623   8.304  -8.244  1.00  0.00     0.029 A 
ATOM     50  N   UNL     1       2.426   9.927  -7.274  1.00  0.00    -0.354 N 
ATOM     51  C   UNL     1      -1.107   8.982  -4.981  1.00  0.00     0.074 A 
ATOM     52  C   UNL     1      -1.458   7.581  -5.114  1.00  0.00     0.031 C 
ATOM     53  C   UNL     1       4.249   9.462  -8.488  1.00  0.00     0.029 A 
ATOM     54  C   UNL     1       3.500  10.549  -7.865  1.00  0.00     0.049 A 
ATOM     55  H   UNL     1       1.718  10.412  -6.792  1.00  0.00     0.167 HD
ATOM     56  C   UNL     1      -1.818   9.900  -4.282  1.00  0.00     0.031 A 
ATOM     57  C   UNL     1       3.863  11.846  -7.889  1.00  0.00     0.031 A 
ATOM     58  C   UNL     1      -1.462  11.296  -4.185  1.00  0.00     0.049 A 
ATOM     59  C   UNL     1       3.043  12.846  -7.130  1.00  0.00     0.074 A 
ATOM     60  C   UNL     1      -2.090  12.290  -3.453  1.00  0.00     0.029 A 
ATOM     61  N   UNL     1      -0.402  11.902  -4.846  1.00  0.00    -0.354 N 
ATOM     62  N   UNL     1       1.981  12.640  -6.390  1.00  0.00    -0.248 NA
ATOM     63  C   UNL     1       3.476  14.248  -7.193  1.00  0.00     0.031 C 
ATOM     64  C   UNL     1      -1.461  13.506  -3.732  1.00  0.00     0.029 A 
ATOM     65  C   UNL     1      -0.389  13.263  -4.575  1.00  0.00     0.049 A 
ATOM     66  H   UNL     1       0.245  11.435  -5.422  1.00  0.00     0.167 HD
ATOM     67  C   UNL     1       1.618  13.886  -5.893  1.00  0.00     0.074 A 
ATOM     68  C   UNL     1       2.594  14.834  -6.393  1.00  0.00     0.031 C 
ATOM     69  C   UNL     1       0.568  14.210  -5.100  1.00  0.00     0.031 A 
BRANCH  56  70
ATOM     70  C   UNL     1      -3.048   9.445  -3.535  1.00  0.00    -0.014 A 
ATOM     71  C   UNL     1      -4.316   9.940  -3.896  1.00  0.00     0.010 A 
ATOM     72  C   UNL     1      -2.932   8.650  -2.381  1.00  0.00     0.010 A 
ATOM     73  C   UNL     1      -5.436   9.677  -3.101  1.00  0.00     0.020 A 
ATOM     74  C   UNL     1      -4.054   8.362  -1.598  1.00  0.00     0.020 A 
ATOM     75  C   UNL     1      -5.295   8.898  -1.950  1.00  0.00     0.054 A 
BRANCH  75  76
ATOM     76  S   UNL     1      -6.752   8.597  -0.910  1.00  0.00     0.124 S 
ATOM     77  O   UNL     1      -6.935   9.886  -0.252  1.00  0.00    -0.237 OA
ATOM     78  O   UNL     1      -7.774   8.235  -1.890  1.00  0.00    -0.237 OA
ATOM     79  O   UNL     1      -6.327   7.504  -0.037  1.00  0.00    -0.744 OA
ENDBRANCH  75  76
ENDBRANCH  56  70
BRANCH  57  80
ATOM     80  C   UNL     1       5.106  12.225  -8.614  1.00  0.00    -0.014 A 
ATOM     81  C   UNL     1       5.176  12.102 -10.015  1.00  0.00     0.010 A 
ATOM     82  C   UNL     1       6.261  12.586  -7.899  1.00  0.00     0.010 A 
ATOM     83  C   UNL     1       6.392  12.267 -10.680  1.00  0.00     0.020 A 
ATOM     84  C   UNL     1       7.473  12.784  -8.567  1.00  0.00     0.020 A 
ATOM     85  C   UNL     1       7.537  12.589  -9.948  1.00  0.00     0.054 A 
BRANCH  85  86
ATOM     86  S   UNL     1       9.120  12.721 -10.824  1.00  0.00     0.124 S 
ATOM     87  O   UNL     1       9.441  11.318 -11.072  1.00  0.00    -0.237 OA
ATOM     88  O   UNL     1       8.767  13.505 -12.005  1.00  0.00    -0.237 OA
ATOM     89  O   UNL     1       9.986  13.400  -9.864  1.00  0.00    -0.744 OA
ENDBRANCH  85  86
ENDBRANCH  57  80
BRANCH  69  90
ATOM     90  C   UNL     1       0.378  15.662  -4.741  1.00  0.00    -0.014 A 
ATOM     91  C   UNL     1       0.511  16.083  -3.405  1.00  0.00     0.010 A 
ATOM     92  C   UNL     1      -0.042  16.591  -5.711  1.00  0.00     0.010 A 
ATOM     93  C   UNL     1       0.194  17.394  -3.038  1.00  0.00     0.020 A 
ATOM     94  C   UNL     1      -0.329  17.912  -5.353  1.00  0.00     0.020 A 
ATOM     95  C   UNL     1      -0.234  18.298  -4.014  1.00  0.00     0.054 A 
BRANCH  95  96
ATOM     96  S   UNL     1      -0.668  19.987  -3.515  1.00  0.00     0.124 S 
ATOM     97  O   UNL     1      -1.969  19.795  -2.883  1.00  0.00    -0.237 OA
ATOM     98  O   UNL     1       0.424  20.346  -2.613  1.00  0.00    -0.237 OA
ATOM     99  O   UNL     1      -0.689  20.723  -4.777  1.00  0.00    -0.744 OA
ENDBRANCH  95  96
ENDBRANCH  69  90
ENDBRANCH  43  44
ENDBRANCH  36  38
ENDBRANCH  35  36
ENDBRANCH  34  35
ENDBRANCH  33  34
ENDBRANCH  32  33
ENDBRANCH  31  32
ENDBRANCH   1  31
TORSDOF 24
