REMARK SMILES O=C(OCCOCCOCCOCCOC(=O)[C@]1(CCCCO)CCc2ccccc2C1)c1ccc(-c2c3nc(c(-c4ccc(S(=O)(=O)[O-])cc4)c4ccc([nH]4)c(-c4ccc(S(=O)(=O)[O-])cc4)c4nc(c(-c5ccc(S(=O)(=O)[O-])cc5)c5ccc2[nH]5)C=C4)C=C3)cc1
REMARK SMILES IDX 10 1 9 2 8 3 7 4 6 5 5 6 4 7 3 8 2 9 1 10 33 11 34 12 92 13
REMARK SMILES IDX 35 14 91 15 36 16 37 17 38 18 85 19 39 20 90 21 84 22 86 23
REMARK SMILES IDX 40 24 89 25 83 26 82 27 41 29 71 30 52 31 70 32 53 33 56 34
REMARK SMILES IDX 69 35 87 36 54 37 55 38 68 40 88 41 57 42 42 43 43 44 51 45
REMARK SMILES IDX 44 46 50 47 45 48 46 49 47 50 48 51 49 52 72 53 73 54 81 55
REMARK SMILES IDX 74 56 80 57 75 58 76 59 77 60 78 61 79 62 58 63 59 64 67 65
REMARK SMILES IDX 60 66 66 67 61 68 62 69 63 70 64 71 65 72 11 73 12 74 13 75
REMARK SMILES IDX 14 76 15 77 16 78 17 79 18 80 24 81 32 82 25 83 31 84 26 85
REMARK SMILES IDX 30 86 27 87 29 88 28 89 19 90 20 91 21 92 22 93 23 94
REMARK H PARENT 86 28 56 39 23 95
REMARK Flexibility Score: inf
ROOT
ATOM      1  C   UNL     1       4.718   1.683  -2.601  1.00  0.00     0.188 C 
ENDROOT
BRANCH   1   2
ATOM      2  O   UNL     1       3.361   1.637  -3.046  1.00  0.00    -0.377 OA
BRANCH   2   3
ATOM      3  C   UNL     1       2.336   1.382  -2.096  1.00  0.00     0.188 C 
BRANCH   3   4
ATOM      4  C   UNL     1       2.587   0.157  -1.236  1.00  0.00     0.188 C 
BRANCH   4   5
ATOM      5  O   UNL     1       3.855   0.329  -0.642  1.00  0.00    -0.376 OA
BRANCH   5   6
ATOM      6  C   UNL     1       4.645  -0.741  -0.189  1.00  0.00     0.202 C 
BRANCH   6   7
ATOM      7  C   UNL     1       3.920  -1.935   0.381  1.00  0.00     0.261 C 
BRANCH   7   8
ATOM      8  O   UNL     1       2.582  -1.745   0.907  1.00  0.00    -0.460 OA
BRANCH   8   9
ATOM      9  C   UNL     1       1.974  -0.884   1.749  1.00  0.00     0.338 C 
ATOM     10  O   UNL     1       0.749  -0.954   1.889  1.00  0.00    -0.246 OA
BRANCH   9  11
ATOM     11  C   UNL     1       2.700   0.094   2.582  1.00  0.00     0.060 A 
ATOM     12  C   UNL     1       3.594   1.027   2.083  1.00  0.00     0.016 A 
ATOM     13  C   UNL     1       2.362   0.186   3.933  1.00  0.00     0.016 A 
ATOM     14  C   UNL     1       4.413   1.757   2.909  1.00  0.00     0.010 A 
ATOM     15  C   UNL     1       3.047   1.074   4.767  1.00  0.00     0.010 A 
ATOM     16  C   UNL     1       4.149   1.783   4.266  1.00  0.00    -0.014 A 
BRANCH  16  17
ATOM     17  C   UNL     1       5.163   2.391   5.141  1.00  0.00     0.031 A 
ATOM     18  C   UNL     1       5.894   1.468   6.071  1.00  0.00     0.074 A 
ATOM     19  C   UNL     1       5.535   3.673   4.966  1.00  0.00     0.049 A 
ATOM     20  N   UNL     1       6.731   1.751   7.027  1.00  0.00    -0.248 NA
ATOM     21  C   UNL     1       5.644   0.022   5.902  1.00  0.00     0.031 C 
ATOM     22  C   UNL     1       5.012   4.582   3.935  1.00  0.00     0.029 A 
ATOM     23  N   UNL     1       6.480   4.422   5.609  1.00  0.00    -0.354 N 
ATOM     24  C   UNL     1       7.035   0.533   7.624  1.00  0.00     0.074 A 
ATOM     25  C   UNL     1       6.306  -0.494   6.922  1.00  0.00     0.031 C 
ATOM     26  C   UNL     1       5.687   5.740   3.982  1.00  0.00     0.029 A 
ATOM     27  C   UNL     1       6.593   5.702   5.119  1.00  0.00     0.049 A 
ATOM     28  H   UNL     1       7.027   4.078   6.351  1.00  0.00     0.167 HD
ATOM     29  C   UNL     1       7.840   0.312   8.685  1.00  0.00     0.031 A 
ATOM     30  C   UNL     1       7.313   6.739   5.585  1.00  0.00     0.031 A 
ATOM     31  C   UNL     1       8.562   1.373   9.328  1.00  0.00     0.049 A 
ATOM     32  C   UNL     1       8.120   6.495   6.830  1.00  0.00     0.074 A 
ATOM     33  C   UNL     1       9.358   1.325  10.454  1.00  0.00     0.029 A 
ATOM     34  N   UNL     1       8.573   2.687   8.874  1.00  0.00    -0.354 N 
ATOM     35  N   UNL     1       8.301   5.368   7.484  1.00  0.00    -0.248 NA
ATOM     36  C   UNL     1       8.798   7.654   7.415  1.00  0.00     0.031 C 
ATOM     37  C   UNL     1       9.803   2.626  10.714  1.00  0.00     0.029 A 
ATOM     38  C   UNL     1       9.346   3.468   9.708  1.00  0.00     0.049 A 
ATOM     39  H   UNL     1       8.099   3.013   8.075  1.00  0.00     0.167 HD
ATOM     40  C   UNL     1       9.134   5.678   8.549  1.00  0.00     0.074 A 
ATOM     41  C   UNL     1       9.434   7.095   8.435  1.00  0.00     0.031 C 
ATOM     42  C   UNL     1       9.610   4.876   9.535  1.00  0.00     0.031 A 
BRANCH  29  43
ATOM     43  C   UNL     1       7.859  -1.081   9.254  1.00  0.00    -0.014 A 
ATOM     44  C   UNL     1       8.444  -2.165   8.575  1.00  0.00     0.010 A 
ATOM     45  C   UNL     1       7.207  -1.316  10.479  1.00  0.00     0.010 A 
ATOM     46  C   UNL     1       8.334  -3.463   9.086  1.00  0.00     0.020 A 
ATOM     47  C   UNL     1       7.121  -2.606  11.008  1.00  0.00     0.020 A 
ATOM     48  C   UNL     1       7.668  -3.675  10.297  1.00  0.00     0.054 A 
BRANCH  48  49
ATOM     49  S   UNL     1       7.537  -5.367  10.939  1.00  0.00     0.124 S 
ATOM     50  O   UNL     1       6.565  -5.962  10.026  1.00  0.00    -0.237 OA
ATOM     51  O   UNL     1       8.905  -5.863  10.811  1.00  0.00    -0.237 OA
ATOM     52  O   UNL     1       7.071  -5.182  12.312  1.00  0.00    -0.744 OA
ENDBRANCH  48  49
ENDBRANCH  29  43
BRANCH  30  53
ATOM     53  C   UNL     1       7.233   8.079   4.937  1.00  0.00    -0.014 A 
ATOM     54  C   UNL     1       8.368   8.673   4.357  1.00  0.00     0.010 A 
ATOM     55  C   UNL     1       6.010   8.778   4.894  1.00  0.00     0.010 A 
ATOM     56  C   UNL     1       8.286   9.941   3.769  1.00  0.00     0.020 A 
ATOM     57  C   UNL     1       5.916  10.030   4.279  1.00  0.00     0.020 A 
ATOM     58  C   UNL     1       7.060  10.612   3.734  1.00  0.00     0.054 A 
BRANCH  58  59
ATOM     59  S   UNL     1       6.973  12.244   2.945  1.00  0.00     0.124 S 
ATOM     60  O   UNL     1       7.695  13.081   3.898  1.00  0.00    -0.237 OA
ATOM     61  O   UNL     1       7.644  12.013   1.669  1.00  0.00    -0.237 OA
ATOM     62  O   UNL     1       5.537  12.502   2.848  1.00  0.00    -0.744 OA
ENDBRANCH  58  59
ENDBRANCH  30  53
BRANCH  42  63
ATOM     63  C   UNL     1      10.548   5.511  10.518  1.00  0.00    -0.014 A 
ATOM     64  C   UNL     1      10.086   6.413  11.491  1.00  0.00     0.010 A 
ATOM     65  C   UNL     1      11.905   5.144  10.494  1.00  0.00     0.010 A 
ATOM     66  C   UNL     1      10.981   6.971  12.403  1.00  0.00     0.020 A 
ATOM     67  C   UNL     1      12.794   5.671  11.427  1.00  0.00     0.020 A 
ATOM     68  C   UNL     1      12.329   6.595  12.365  1.00  0.00     0.054 A 
BRANCH  68  69
ATOM     69  S   UNL     1      13.463   7.301  13.587  1.00  0.00     0.124 S 
ATOM     70  O   UNL     1      13.623   8.666  13.097  1.00  0.00    -0.237 OA
ATOM     71  O   UNL     1      12.716   7.163  14.835  1.00  0.00    -0.237 OA
ATOM     72  O   UNL     1      14.652   6.457  13.483  1.00  0.00    -0.744 OA
ENDBRANCH  68  69
ENDBRANCH  42  63
ENDBRANCH  16  17
ENDBRANCH   9  11
ENDBRANCH   8   9
ENDBRANCH   7   8
ENDBRANCH   6   7
ENDBRANCH   5   6
ENDBRANCH   4   5
ENDBRANCH   3   4
ENDBRANCH   2   3
ENDBRANCH   1   2
BRANCH   1  73
ATOM     73  C   UNL     1       5.252   2.766  -1.661  1.00  0.00     0.188 C 
BRANCH  73  74
ATOM     74  O   UNL     1       4.298   3.446  -0.887  1.00  0.00    -0.376 OA
BRANCH  74  75
ATOM     75  C   UNL     1       3.585   4.518  -1.493  1.00  0.00     0.202 C 
BRANCH  75  76
ATOM     76  C   UNL     1       3.792   4.960  -2.960  1.00  0.00     0.261 C 
BRANCH  76  77
ATOM     77  O   UNL     1       3.880   3.913  -3.961  1.00  0.00    -0.463 OA
BRANCH  77  78
ATOM     78  C   UNL     1       4.837   4.051  -4.912  1.00  0.00     0.312 C 
ATOM     79  O   UNL     1       5.558   5.047  -4.948  1.00  0.00    -0.252 OA
BRANCH  78  80
ATOM     80  C   UNL     1       4.901   2.946  -6.036  1.00  0.00     0.072 C 
ATOM     81  C   UNL     1       4.892   1.427  -5.713  1.00  0.00     0.024 C 
ATOM     82  C   UNL     1       6.338   3.212  -6.624  1.00  0.00     0.054 C 
ATOM     83  C   UNL     1       5.154   0.516  -6.920  1.00  0.00     0.037 C 
ATOM     84  C   UNL     1       7.039   2.114  -7.387  1.00  0.00    -0.044 A 
ATOM     85  C   UNL     1       6.500   0.829  -7.513  1.00  0.00    -0.045 A 
ATOM     86  C   UNL     1       8.335   2.370  -7.863  1.00  0.00     0.004 A 
ATOM     87  C   UNL     1       7.242  -0.170  -8.158  1.00  0.00     0.004 A 
ATOM     88  C   UNL     1       9.076   1.367  -8.481  1.00  0.00     0.000 A 
ATOM     89  C   UNL     1       8.526   0.098  -8.636  1.00  0.00     0.000 A 
BRANCH  80  90
ATOM     90  C   UNL     1       3.783   3.288  -7.064  1.00  0.00     0.019 C 
BRANCH  90  91
ATOM     91  C   UNL     1       2.363   2.720  -6.814  1.00  0.00     0.004 C 
BRANCH  91  92
ATOM     92  C   UNL     1       1.501   3.322  -5.696  1.00  0.00     0.028 C 
BRANCH  92  93
ATOM     93  C   UNL     1       1.361   4.838  -5.721  1.00  0.00     0.156 C 
BRANCH  93  94
ATOM     94  O   UNL     1       0.696   5.258  -6.904  1.00  0.00    -0.396 OA
ATOM     95  H   UNL     1       1.211   4.982  -7.679  1.00  0.00     0.210 HD
ENDBRANCH  93  94
ENDBRANCH  92  93
ENDBRANCH  91  92
ENDBRANCH  90  91
ENDBRANCH  80  90
ENDBRANCH  78  80
ENDBRANCH  77  78
ENDBRANCH  76  77
ENDBRANCH  75  76
ENDBRANCH  74  75
ENDBRANCH  73  74
ENDBRANCH   1  73
TORSDOF 28
