REMARK SMILES COc1ccc(OC)c(/C=N/[NH+]=C2/NC(=O)[C@@H](CC(=O)OCCOCCOCCOCCOC(=O)c3ccc(-c4c5nc(c(-c6ccc(S(=O)(=O)[O-])cc6)c6ccc([nH]6)c(-c6ccc(S(=O)(=O)[O-])cc6)c6nc(c(-c7ccc(S(=O)(=O)[O-])cc7)c7ccc4[nH]7)C=C6)C=C5)cc3)S2)c1
REMARK SMILES IDX 26 1 25 2 24 3 23 4 22 5 21 6 19 7 20 8 18 9 17 10 12 11
REMARK SMILES IDX 13 12 14 14 96 15 15 16 16 18 11 19 10 20 9 21 3 22 4 23
REMARK SMILES IDX 97 24 5 25 6 26 2 27 1 28 7 29 8 30 27 31 28 32 29 33 30 34
REMARK SMILES IDX 31 35 32 36 33 37 34 38 35 39 36 40 37 41 95 42 38 43 94 44
REMARK SMILES IDX 39 45 40 46 41 47 88 48 42 49 93 50 87 51 89 52 43 53 92 54
REMARK SMILES IDX 86 55 85 56 44 58 74 59 55 60 73 61 56 62 59 63 72 64 90 65
REMARK SMILES IDX 57 66 58 67 71 69 91 70 60 71 45 72 46 73 54 74 47 75 53 76
REMARK SMILES IDX 48 77 49 78 50 79 51 80 52 81 75 82 76 83 84 84 77 85 83 86
REMARK SMILES IDX 78 87 79 88 80 89 81 90 82 91 61 92 62 93 70 94 63 95 69 96
REMARK SMILES IDX 64 97 65 98 66 99 67 100 68 101
REMARK H PARENT 12 13 14 17 89 57 59 68
REMARK Flexibility Score: inf
ROOT
ATOM      1  C   UNL     1       6.376  -0.817   0.862  1.00  0.00     0.188 C 
ENDROOT
BRANCH   1   2
ATOM      2  C   UNL     1       6.343  -0.506  -0.620  1.00  0.00     0.188 C 
BRANCH   2   3
ATOM      3  O   UNL     1       6.905  -1.357  -1.608  1.00  0.00    -0.376 OA
BRANCH   3   4
ATOM      4  C   UNL     1       7.199  -2.732  -1.408  1.00  0.00     0.202 C 
BRANCH   4   5
ATOM      5  C   UNL     1       8.555  -3.061  -0.761  1.00  0.00     0.261 C 
BRANCH   5   6
ATOM      6  O   UNL     1       8.714  -2.658   0.619  1.00  0.00    -0.463 OA
BRANCH   6   7
ATOM      7  C   UNL     1       9.408  -1.522   0.835  1.00  0.00     0.307 C 
ATOM      8  O   UNL     1       9.917  -0.846  -0.058  1.00  0.00    -0.252 OA
BRANCH   7   9
ATOM      9  C   UNL     1       9.458  -1.047   2.285  1.00  0.00     0.150 C 
BRANCH   9  10
ATOM     10  C   UNL     1       8.845  -1.796   3.493  1.00  0.00     0.184 C 
ATOM     11  N   UNL     1       5.460  -3.938   3.489  1.00  0.00    -0.142 N 
ATOM     12  C   UNL     1       6.617  -3.306   3.669  1.00  0.00     0.337 C 
ATOM     13  H   UNL     1       5.470  -4.902   3.291  1.00  0.00     0.343 HD
ATOM     14  N   UNL     1       7.829  -3.970   3.604  1.00  0.00    -0.202 N 
ATOM     15  S   UNL     1       7.072  -1.623   3.977  1.00  0.00    -0.020 SA
ATOM     16  C   UNL     1       9.024  -3.284   3.497  1.00  0.00     0.322 C 
ATOM     17  H   UNL     1       7.840  -4.954   3.635  1.00  0.00     0.316 HD
ATOM     18  O   UNL     1      10.139  -3.819   3.429  1.00  0.00    -0.246 OA
BRANCH  11  19
ATOM     19  N   UNL     1       4.151  -3.234   3.579  1.00  0.00    -0.093 NA
ATOM     20  C   UNL     1       2.927  -3.636   3.200  1.00  0.00     0.170 C 
BRANCH  20  21
ATOM     21  C   UNL     1       1.440  -2.905   3.435  1.00  0.00     0.042 A 
ATOM     22  C   UNL     1      -0.267  -1.542   2.217  1.00  0.00     0.119 A 
ATOM     23  C   UNL     1      -1.101  -1.503   3.310  1.00  0.00     0.050 A 
ATOM     24  C   UNL     1       0.882  -2.346   2.257  1.00  0.00     0.060 A 
ATOM     25  C   UNL     1      -0.690  -2.125   4.472  1.00  0.00     0.051 A 
ATOM     26  C   UNL     1       0.575  -2.758   4.571  1.00  0.00     0.128 A 
BRANCH  22  27
ATOM     27  O   UNL     1      -0.651  -0.789   1.140  1.00  0.00    -0.497 OA
ATOM     28  C   UNL     1       0.414  -0.300   0.323  1.00  0.00     0.278 C 
ENDBRANCH  22  27
BRANCH  26  29
ATOM     29  O   UNL     1       0.877  -2.997   5.892  1.00  0.00    -0.496 OA
ATOM     30  C   UNL     1       0.074  -4.013   6.518  1.00  0.00     0.278 C 
ENDBRANCH  26  29
ENDBRANCH  20  21
ENDBRANCH  11  19
ENDBRANCH   9  10
ENDBRANCH   7   9
ENDBRANCH   6   7
ENDBRANCH   5   6
ENDBRANCH   4   5
ENDBRANCH   3   4
ENDBRANCH   2   3
ENDBRANCH   1   2
BRANCH   1  31
ATOM     31  O   UNL     1       6.256  -2.178   1.185  1.00  0.00    -0.377 OA
BRANCH  31  32
ATOM     32  C   UNL     1       4.965  -2.695   1.027  1.00  0.00     0.188 C 
BRANCH  32  33
ATOM     33  C   UNL     1       3.821  -1.742   1.390  1.00  0.00     0.188 C 
BRANCH  33  34
ATOM     34  O   UNL     1       3.361  -1.088   2.605  1.00  0.00    -0.376 OA
BRANCH  34  35
ATOM     35  C   UNL     1       3.912  -0.888   3.950  1.00  0.00     0.202 C 
BRANCH  35  36
ATOM     36  C   UNL     1       3.645  -1.765   5.449  1.00  0.00     0.261 C 
BRANCH  36  37
ATOM     37  O   UNL     1       4.205  -3.176   5.857  1.00  0.00    -0.460 OA
BRANCH  37  38
ATOM     38  C   UNL     1       3.564  -4.403   5.772  1.00  0.00     0.338 C 
ATOM     39  O   UNL     1       2.371  -4.638   5.630  1.00  0.00    -0.246 OA
BRANCH  38  40
ATOM     40  C   UNL     1       4.258  -5.695   5.542  1.00  0.00     0.060 A 
ATOM     41  C   UNL     1       3.939  -6.373   4.330  1.00  0.00     0.016 A 
ATOM     42  C   UNL     1       4.673  -6.465   6.615  1.00  0.00     0.016 A 
ATOM     43  C   UNL     1       4.022  -7.737   4.162  1.00  0.00     0.010 A 
ATOM     44  C   UNL     1       4.782  -7.857   6.453  1.00  0.00     0.010 A 
ATOM     45  C   UNL     1       4.434  -8.488   5.240  1.00  0.00    -0.014 A 
BRANCH  45  46
ATOM     46  C   UNL     1       4.388  -9.948   5.103  1.00  0.00     0.031 A 
ATOM     47  C   UNL     1       3.302 -10.708   5.792  1.00  0.00     0.074 A 
ATOM     48  C   UNL     1       5.298 -10.546   4.318  1.00  0.00     0.049 A 
ATOM     49  N   UNL     1       3.207 -11.991   6.000  1.00  0.00    -0.248 NA
ATOM     50  C   UNL     1       2.173  -9.920   6.319  1.00  0.00     0.031 C 
ATOM     51  C   UNL     1       6.281  -9.853   3.478  1.00  0.00     0.029 A 
ATOM     52  N   UNL     1       5.560 -11.871   4.119  1.00  0.00    -0.354 N 
ATOM     53  C   UNL     1       2.040 -12.164   6.735  1.00  0.00     0.074 A 
ATOM     54  C   UNL     1       1.454 -10.855   6.926  1.00  0.00     0.031 C 
ATOM     55  C   UNL     1       7.073 -10.762   2.892  1.00  0.00     0.029 A 
ATOM     56  C   UNL     1       6.695 -12.083   3.376  1.00  0.00     0.049 A 
ATOM     57  H   UNL     1       4.996 -12.597   4.470  1.00  0.00     0.167 HD
ATOM     58  C   UNL     1       1.535 -13.322   7.218  1.00  0.00     0.031 A 
ATOM     59  C   UNL     1       7.389 -13.216   3.175  1.00  0.00     0.031 A 
ATOM     60  C   UNL     1       2.174 -14.596   7.006  1.00  0.00     0.049 A 
ATOM     61  C   UNL     1       6.875 -14.471   3.817  1.00  0.00     0.074 A 
ATOM     62  C   UNL     1       1.786 -15.844   7.455  1.00  0.00     0.029 A 
ATOM     63  N   UNL     1       3.345 -14.776   6.278  1.00  0.00    -0.354 N 
ATOM     64  N   UNL     1       5.808 -14.633   4.566  1.00  0.00    -0.248 NA
ATOM     65  C   UNL     1       7.650 -15.692   3.587  1.00  0.00     0.031 C 
ATOM     66  C   UNL     1       2.756 -16.768   7.050  1.00  0.00     0.029 A 
ATOM     67  C   UNL     1       3.709 -16.110   6.286  1.00  0.00     0.049 A 
ATOM     68  H   UNL     1       3.842 -14.058   5.823  1.00  0.00     0.167 HD
ATOM     69  C   UNL     1       5.763 -15.986   4.871  1.00  0.00     0.074 A 
ATOM     70  C   UNL     1       6.906 -16.594   4.213  1.00  0.00     0.031 C 
ATOM     71  C   UNL     1       4.861 -16.669   5.619  1.00  0.00     0.031 A 
BRANCH  58  72
ATOM     72  C   UNL     1       0.294 -13.250   8.069  1.00  0.00    -0.014 A 
ATOM     73  C   UNL     1      -0.957 -12.906   7.528  1.00  0.00     0.010 A 
ATOM     74  C   UNL     1       0.380 -13.554   9.442  1.00  0.00     0.010 A 
ATOM     75  C   UNL     1      -2.089 -12.833   8.348  1.00  0.00     0.020 A 
ATOM     76  C   UNL     1      -0.754 -13.511  10.259  1.00  0.00     0.020 A 
ATOM     77  C   UNL     1      -1.980 -13.135   9.709  1.00  0.00     0.054 A 
BRANCH  77  78
ATOM     78  S   UNL     1      -3.468 -13.052  10.742  1.00  0.00     0.124 S 
ATOM     79  O   UNL     1      -3.714 -11.613  10.803  1.00  0.00    -0.237 OA
ATOM     80  O   UNL     1      -4.438 -13.822   9.968  1.00  0.00    -0.237 OA
ATOM     81  O   UNL     1      -3.053 -13.665  12.002  1.00  0.00    -0.744 OA
ENDBRANCH  77  78
ENDBRANCH  58  72
BRANCH  59  82
ATOM     82  C   UNL     1       8.637 -13.184   2.371  1.00  0.00    -0.014 A 
ATOM     83  C   UNL     1       8.679 -13.802   1.111  1.00  0.00     0.010 A 
ATOM     84  C   UNL     1       9.772 -12.490   2.833  1.00  0.00     0.010 A 
ATOM     85  C   UNL     1       9.838 -13.739   0.333  1.00  0.00     0.020 A 
ATOM     86  C   UNL     1      10.921 -12.398   2.044  1.00  0.00     0.020 A 
ATOM     87  C   UNL     1      10.950 -13.034   0.802  1.00  0.00     0.054 A 
BRANCH  87  88
ATOM     88  S   UNL     1      12.420 -12.927  -0.254  1.00  0.00     0.124 S 
ATOM     89  O   UNL     1      12.934 -14.292  -0.195  1.00  0.00    -0.237 OA
ATOM     90  O   UNL     1      11.854 -12.517  -1.537  1.00  0.00    -0.237 OA
ATOM     91  O   UNL     1      13.244 -11.918   0.407  1.00  0.00    -0.744 OA
ENDBRANCH  87  88
ENDBRANCH  59  82
BRANCH  71  92
ATOM     92  C   UNL     1       5.059 -18.156   5.719  1.00  0.00    -0.014 A 
ATOM     93  C   UNL     1       6.112 -18.704   6.471  1.00  0.00     0.010 A 
ATOM     94  C   UNL     1       4.147 -19.014   5.078  1.00  0.00     0.010 A 
ATOM     95  C   UNL     1       6.271 -20.088   6.549  1.00  0.00     0.020 A 
ATOM     96  C   UNL     1       4.282 -20.398   5.184  1.00  0.00     0.020 A 
ATOM     97  C   UNL     1       5.354 -20.926   5.906  1.00  0.00     0.054 A 
BRANCH  97  98
ATOM     98  S   UNL     1       5.559 -22.720   6.060  1.00  0.00     0.124 S 
ATOM     99  O   UNL     1       6.727 -22.964   5.218  1.00  0.00    -0.237 OA
ATOM    100  O   UNL     1       5.769 -22.895   7.495  1.00  0.00    -0.237 OA
ATOM    101  O   UNL     1       4.300 -23.258   5.550  1.00  0.00    -0.744 OA
ENDBRANCH  97  98
ENDBRANCH  71  92
ENDBRANCH  45  46
ENDBRANCH  38  40
ENDBRANCH  37  38
ENDBRANCH  36  37
ENDBRANCH  35  36
ENDBRANCH  34  35
ENDBRANCH  33  34
ENDBRANCH  32  33
ENDBRANCH  31  32
ENDBRANCH   1  31
TORSDOF 28
