REMARK SMILES O=C(OCCOCCOCCOCCOC(=O)[C@@H](F)Oc1ccc(F)c(Cl)c1)c1ccc(-c2c3nc(c(-c4ccc(S(=O)(=O)[O-])cc4)c4ccc([nH]4)c(-c4ccc(S(=O)(=O)[O-])cc4)c4nc(c(-c5ccc(S(=O)(=O)[O-])cc5)c5ccc2[nH]5)C=C4)C=C3)cc1
REMARK SMILES IDX 8 1 7 2 6 3 5 4 4 5 3 6 2 7 1 8 29 9 30 10 88 11 31 12 87 13
REMARK SMILES IDX 32 14 33 15 34 16 81 17 35 18 86 19 80 20 82 21 36 22 85 23
REMARK SMILES IDX 79 24 78 25 37 27 67 28 48 29 66 30 49 31 52 32 65 33 83 34
REMARK SMILES IDX 50 35 51 36 64 38 84 39 53 40 38 41 39 42 47 43 40 44 46 45
REMARK SMILES IDX 41 46 42 47 43 48 44 49 45 50 68 51 69 52 77 53 70 54 76 55
REMARK SMILES IDX 71 56 72 57 73 58 74 59 75 60 54 61 55 62 63 63 56 64 62 65
REMARK SMILES IDX 57 66 58 67 59 68 60 69 61 70 9 71 10 72 11 73 12 74 13 75
REMARK SMILES IDX 14 76 15 77 16 78 17 79 18 80 19 81 20 82 21 83 22 84 28 85
REMARK SMILES IDX 23 86 26 87 24 88 27 89 25 90
REMARK H PARENT 82 26 52 37
REMARK Flexibility Score: inf
ROOT
ATOM      1  C   UNL     1       2.401   3.028   0.557  1.00  0.00     0.188 C 
ENDROOT
BRANCH   1   2
ATOM      2  C   UNL     1       2.669   1.783  -0.287  1.00  0.00     0.188 C 
BRANCH   2   3
ATOM      3  O   UNL     1       3.912   1.209   0.085  1.00  0.00    -0.376 OA
BRANCH   3   4
ATOM      4  C   UNL     1       4.630   0.427  -0.848  1.00  0.00     0.202 C 
BRANCH   4   5
ATOM      5  C   UNL     1       3.884  -0.704  -1.559  1.00  0.00     0.261 C 
BRANCH   5   6
ATOM      6  O   UNL     1       2.487  -0.852  -1.229  1.00  0.00    -0.460 OA
BRANCH   6   7
ATOM      7  C   UNL     1       1.920  -1.604  -0.252  1.00  0.00     0.338 C 
ATOM      8  O   UNL     1       0.718  -1.847  -0.280  1.00  0.00    -0.246 OA
BRANCH   7   9
ATOM      9  C   UNL     1       2.733  -2.150   0.855  1.00  0.00     0.060 A 
ATOM     10  C   UNL     1       3.673  -1.380   1.521  1.00  0.00     0.016 A 
ATOM     11  C   UNL     1       2.480  -3.439   1.329  1.00  0.00     0.016 A 
ATOM     12  C   UNL     1       4.551  -1.940   2.425  1.00  0.00     0.010 A 
ATOM     13  C   UNL     1       3.250  -3.962   2.377  1.00  0.00     0.010 A 
ATOM     14  C   UNL     1       4.342  -3.236   2.879  1.00  0.00    -0.014 A 
BRANCH  14  15
ATOM     15  C   UNL     1       5.346  -3.820   3.795  1.00  0.00     0.031 A 
ATOM     16  C   UNL     1       6.124  -5.018   3.329  1.00  0.00     0.074 A 
ATOM     17  C   UNL     1       5.658  -3.187   4.945  1.00  0.00     0.049 A 
ATOM     18  N   UNL     1       7.000  -5.736   3.978  1.00  0.00    -0.248 NA
ATOM     19  C   UNL     1       5.887  -5.471   1.946  1.00  0.00     0.031 C 
ATOM     20  C   UNL     1       5.039  -1.944   5.427  1.00  0.00     0.029 A 
ATOM     21  N   UNL     1       6.606  -3.464   5.895  1.00  0.00    -0.354 N 
ATOM     22  C   UNL     1       7.381  -6.744   3.101  1.00  0.00     0.074 A 
ATOM     23  C   UNL     1       6.632  -6.562   1.881  1.00  0.00     0.031 C 
ATOM     24  C   UNL     1       5.668  -1.536   6.539  1.00  0.00     0.029 A 
ATOM     25  C   UNL     1       6.649  -2.542   6.916  1.00  0.00     0.049 A 
ATOM     26  H   UNL     1       7.199  -4.248   5.851  1.00  0.00     0.167 HD
ATOM     27  C   UNL     1       8.282  -7.732   3.302  1.00  0.00     0.031 A 
ATOM     28  C   UNL     1       7.365  -2.539   8.056  1.00  0.00     0.031 A 
ATOM     29  C   UNL     1       9.021  -7.879   4.525  1.00  0.00     0.049 A 
ATOM     30  C   UNL     1       8.287  -3.702   8.296  1.00  0.00     0.074 A 
ATOM     31  C   UNL     1       9.898  -8.880   4.894  1.00  0.00     0.029 A 
ATOM     32  N   UNL     1       8.974  -6.973   5.577  1.00  0.00    -0.354 N 
ATOM     33  N   UNL     1       8.558  -4.714   7.503  1.00  0.00    -0.248 NA
ATOM     34  C   UNL     1       8.986  -3.738   9.585  1.00  0.00     0.031 C 
ATOM     35  C   UNL     1      10.348  -8.602   6.189  1.00  0.00     0.029 A 
ATOM     36  C   UNL     1       9.800  -7.395   6.601  1.00  0.00     0.049 A 
ATOM     37  H   UNL     1       8.432  -6.151   5.591  1.00  0.00     0.167 HD
ATOM     38  C   UNL     1       9.463  -5.506   8.195  1.00  0.00     0.074 A 
ATOM     39  C   UNL     1       9.722  -4.833   9.454  1.00  0.00     0.031 C 
ATOM     40  C   UNL     1      10.023  -6.689   7.837  1.00  0.00     0.031 A 
BRANCH  27  41
ATOM     41  C   UNL     1       8.453  -8.744   2.201  1.00  0.00    -0.014 A 
ATOM     42  C   UNL     1       9.098  -8.417   0.995  1.00  0.00     0.010 A 
ATOM     43  C   UNL     1       7.938 -10.042   2.371  1.00  0.00     0.010 A 
ATOM     44  C   UNL     1       9.193  -9.359  -0.034  1.00  0.00     0.020 A 
ATOM     45  C   UNL     1       8.055 -10.995   1.355  1.00  0.00     0.020 A 
ATOM     46  C   UNL     1       8.669 -10.642   0.152  1.00  0.00     0.054 A 
BRANCH  46  47
ATOM     47  S   UNL     1       8.823 -11.849  -1.193  1.00  0.00     0.124 S 
ATOM     48  O   UNL     1       7.874 -11.329  -2.175  1.00  0.00    -0.237 OA
ATOM     49  O   UNL     1      10.232 -11.738  -1.562  1.00  0.00    -0.237 OA
ATOM     50  O   UNL     1       8.442 -13.114  -0.570  1.00  0.00    -0.744 OA
ENDBRANCH  46  47
ENDBRANCH  27  41
BRANCH  28  51
ATOM     51  C   UNL     1       7.159  -1.476   9.083  1.00  0.00    -0.014 A 
ATOM     52  C   UNL     1       8.200  -0.614   9.470  1.00  0.00     0.010 A 
ATOM     53  C   UNL     1       5.901  -1.336   9.702  1.00  0.00     0.010 A 
ATOM     54  C   UNL     1       7.995   0.342  10.475  1.00  0.00     0.020 A 
ATOM     55  C   UNL     1       5.681  -0.360  10.677  1.00  0.00     0.020 A 
ATOM     56  C   UNL     1       6.737   0.460  11.073  1.00  0.00     0.054 A 
BRANCH  56  57
ATOM     57  S   UNL     1       6.485   1.710  12.364  1.00  0.00     0.124 S 
ATOM     58  O   UNL     1       7.194   1.122  13.496  1.00  0.00    -0.237 OA
ATOM     59  O   UNL     1       7.099   2.898  11.778  1.00  0.00    -0.237 OA
ATOM     60  O   UNL     1       5.031   1.772  12.499  1.00  0.00    -0.744 OA
ENDBRANCH  56  57
ENDBRANCH  28  51
BRANCH  40  61
ATOM     61  C   UNL     1      10.990  -7.295   8.812  1.00  0.00    -0.014 A 
ATOM     62  C   UNL     1      10.544  -7.863  10.019  1.00  0.00     0.010 A 
ATOM     63  C   UNL     1      12.359  -7.324   8.496  1.00  0.00     0.010 A 
ATOM     64  C   UNL     1      11.462  -8.411  10.915  1.00  0.00     0.020 A 
ATOM     65  C   UNL     1      13.275  -7.901   9.375  1.00  0.00     0.020 A 
ATOM     66  C   UNL     1      12.821  -8.423  10.588  1.00  0.00     0.054 A 
BRANCH  66  67
ATOM     67  S   UNL     1      13.991  -9.163  11.757  1.00  0.00     0.124 S 
ATOM     68  O   UNL     1      14.058  -8.145  12.802  1.00  0.00    -0.237 OA
ATOM     69  O   UNL     1      13.325 -10.408  12.132  1.00  0.00    -0.237 OA
ATOM     70  O   UNL     1      15.210  -9.329  10.969  1.00  0.00    -0.744 OA
ENDBRANCH  66  67
ENDBRANCH  40  61
ENDBRANCH  14  15
ENDBRANCH   7   9
ENDBRANCH   6   7
ENDBRANCH   5   6
ENDBRANCH   4   5
ENDBRANCH   3   4
ENDBRANCH   2   3
ENDBRANCH   1   2
BRANCH   1  71
ATOM     71  O   UNL     1       3.362   4.074   0.420  1.00  0.00    -0.377 OA
BRANCH  71  72
ATOM     72  C   UNL     1       4.741   3.736   0.588  1.00  0.00     0.188 C 
BRANCH  72  73
ATOM     73  C   UNL     1       5.213   3.157   1.943  1.00  0.00     0.188 C 
BRANCH  73  74
ATOM     74  O   UNL     1       4.219   2.405   2.625  1.00  0.00    -0.376 OA
BRANCH  74  75
ATOM     75  C   UNL     1       3.896   2.856   3.935  1.00  0.00     0.202 C 
BRANCH  75  76
ATOM     76  C   UNL     1       3.243   4.245   4.068  1.00  0.00     0.261 C 
BRANCH  76  77
ATOM     77  O   UNL     1       3.497   5.154   2.984  1.00  0.00    -0.458 OA
BRANCH  77  78
ATOM     78  C   UNL     1       4.389   6.167   3.178  1.00  0.00     0.381 C 
ATOM     79  O   UNL     1       5.025   6.332   4.201  1.00  0.00    -0.244 OA
BRANCH  78  80
ATOM     80  C   UNL     1       4.461   7.111   1.960  1.00  0.00     0.461 C 
ATOM     81  F   UNL     1       4.033   6.576   0.779  1.00  0.00    -0.189 F 
BRANCH  80  82
ATOM     82  O   UNL     1       3.805   8.368   2.142  1.00  0.00    -0.451 OA
BRANCH  82  83
ATOM     83  C   UNL     1       2.483   8.303   1.790  1.00  0.00     0.125 A 
ATOM     84  C   UNL     1       1.558   7.602   2.565  1.00  0.00     0.050 A 
ATOM     85  C   UNL     1       2.072   9.002   0.655  1.00  0.00     0.070 A 
ATOM     86  C   UNL     1       0.224   7.539   2.167  1.00  0.00     0.044 A 
ATOM     87  C   UNL     1       0.731   8.958   0.272  1.00  0.00     0.080 A 
ATOM     88  C   UNL     1      -0.183   8.218   1.023  1.00  0.00     0.142 A 
ATOM     89  Cl  UNL     1       0.217   9.829  -1.122  1.00  0.00    -0.081 Cl
ATOM     90  F   UNL     1      -1.475   8.161   0.668  1.00  0.00    -0.205 F 
ENDBRANCH  82  83
ENDBRANCH  80  82
ENDBRANCH  78  80
ENDBRANCH  77  78
ENDBRANCH  76  77
ENDBRANCH  75  76
ENDBRANCH  74  75
ENDBRANCH  73  74
ENDBRANCH  72  73
ENDBRANCH  71  72
ENDBRANCH   1  71
TORSDOF 25
