REMARK SMILES COc1ccc(S(=O)(=O)N[C@H]2C=C[C@@H](C(=O)OCCOCCOCCOCCOC(=O)c3ccc(-c4c5nc(c(-c6ccc(S(=O)(=O)[O-])cc6)c6ccc([nH]6)c(-c6ccc(S(=O)(=O)[O-])cc6)c6nc(c(-c7ccc(S(=O)(=O)[O-])cc7)c7ccc4[nH]7)C=C6)C=C5)cc3)C2)cc1
REMARK SMILES IDX 22 1 21 2 20 3 19 4 18 5 17 6 15 7 16 8 14 9 11 10 12 11
REMARK SMILES IDX 92 12 13 13 10 14 7 16 8 17 9 18 6 19 3 20 4 21 94 22 5 23
REMARK SMILES IDX 93 24 2 25 1 26 23 27 24 28 25 29 26 30 27 31 28 32 29 33
REMARK SMILES IDX 30 34 31 35 32 36 33 37 91 38 34 39 90 40 35 41 36 42 37 43
REMARK SMILES IDX 84 44 38 45 89 46 83 47 85 48 39 49 88 50 82 51 81 52 40 54
REMARK SMILES IDX 70 55 51 56 69 57 52 58 55 59 68 60 86 61 53 62 54 63 67 65
REMARK SMILES IDX 87 66 56 67 41 68 42 69 50 70 43 71 49 72 44 73 45 74 46 75
REMARK SMILES IDX 47 76 48 77 71 78 72 79 80 80 73 81 79 82 74 83 75 84 76 85
REMARK SMILES IDX 77 86 78 87 57 88 58 89 66 90 59 91 65 92 60 93 61 94 62 95
REMARK SMILES IDX 63 96 64 97
REMARK H PARENT 10 15 85 53 55 64
REMARK Flexibility Score: inf
ROOT
ATOM      1  C   UNL     1       7.049  -1.730  10.001  1.00  0.00     0.188 C 
ENDROOT
BRANCH   1   2
ATOM      2  C   UNL     1       7.799  -0.438  10.365  1.00  0.00     0.188 C 
BRANCH   2   3
ATOM      3  O   UNL     1       7.482   0.273  11.557  1.00  0.00    -0.376 OA
BRANCH   3   4
ATOM      4  C   UNL     1       6.119   0.547  11.872  1.00  0.00     0.202 C 
BRANCH   4   5
ATOM      5  C   UNL     1       5.229   1.238  10.830  1.00  0.00     0.261 C 
BRANCH   5   6
ATOM      6  O   UNL     1       5.264   0.624   9.531  1.00  0.00    -0.463 OA
BRANCH   6   7
ATOM      7  C   UNL     1       5.537   1.439   8.486  1.00  0.00     0.312 C 
ATOM      8  O   UNL     1       5.769   2.642   8.578  1.00  0.00    -0.252 OA
BRANCH   7   9
ATOM      9  C   UNL     1       5.601   0.715   7.146  1.00  0.00     0.123 C 
ATOM     10  C   UNL     1       4.551  -1.028   5.793  1.00  0.00     0.093 C 
ATOM     11  C   UNL     1       3.961   0.305   5.508  1.00  0.00    -0.011 C 
ATOM     12  C   UNL     1       5.315  -0.789   7.092  1.00  0.00     0.043 C 
ATOM     13  C   UNL     1       4.553   1.266   6.226  1.00  0.00    -0.015 C 
BRANCH  10  14
ATOM     14  N   UNL     1       3.659  -2.160   5.933  1.00  0.00    -0.204 NA
ATOM     15  H   UNL     1       3.794  -2.708   5.083  1.00  0.00     0.142 HD
BRANCH  14  16
ATOM     16  S   UNL     1       2.010  -2.116   6.156  1.00  0.00     0.241 S 
ATOM     17  O   UNL     1       1.721  -1.112   7.157  1.00  0.00    -0.207 OA
ATOM     18  O   UNL     1       1.606  -3.493   6.302  1.00  0.00    -0.207 OA
BRANCH  16  19
ATOM     19  C   UNL     1       1.391  -1.562   4.588  1.00  0.00     0.082 A 
ATOM     20  C   UNL     1       0.586  -0.391   2.186  1.00  0.00     0.118 A 
ATOM     21  C   UNL     1      -0.179  -0.228   3.347  1.00  0.00     0.048 A 
ATOM     22  C   UNL     1       1.744  -1.170   2.229  1.00  0.00     0.048 A 
ATOM     23  C   UNL     1       0.223  -0.803   4.554  1.00  0.00     0.025 A 
ATOM     24  C   UNL     1       2.140  -1.771   3.425  1.00  0.00     0.025 A 
BRANCH  20  25
ATOM     25  O   UNL     1       0.109   0.268   1.087  1.00  0.00    -0.497 OA
ATOM     26  C   UNL     1       0.848   0.119  -0.118  1.00  0.00     0.278 C 
ENDBRANCH  20  25
ENDBRANCH  16  19
ENDBRANCH  14  16
ENDBRANCH  10  14
ENDBRANCH   7   9
ENDBRANCH   6   7
ENDBRANCH   5   6
ENDBRANCH   4   5
ENDBRANCH   3   4
ENDBRANCH   2   3
ENDBRANCH   1   2
BRANCH   1  27
ATOM     27  O   UNL     1       5.830  -1.919  10.688  1.00  0.00    -0.377 OA
BRANCH  27  28
ATOM     28  C   UNL     1       5.814  -2.966  11.653  1.00  0.00     0.188 C 
BRANCH  28  29
ATOM     29  C   UNL     1       7.020  -3.040  12.606  1.00  0.00     0.188 C 
BRANCH  29  30
ATOM     30  O   UNL     1       8.246  -3.363  11.944  1.00  0.00    -0.376 OA
BRANCH  30  31
ATOM     31  C   UNL     1       8.643  -4.733  11.959  1.00  0.00     0.202 C 
BRANCH  31  32
ATOM     32  C   UNL     1       7.847  -5.660  11.024  1.00  0.00     0.261 C 
BRANCH  32  33
ATOM     33  O   UNL     1       6.481  -5.906  11.401  1.00  0.00    -0.460 OA
BRANCH  33  34
ATOM     34  C   UNL     1       6.244  -6.363  12.649  1.00  0.00     0.338 C 
ATOM     35  O   UNL     1       7.071  -6.709  13.472  1.00  0.00    -0.246 OA
BRANCH  34  36
ATOM     36  C   UNL     1       4.807  -6.183  12.937  1.00  0.00     0.060 A 
ATOM     37  C   UNL     1       4.444  -5.471  14.087  1.00  0.00     0.016 A 
ATOM     38  C   UNL     1       3.830  -6.731  12.101  1.00  0.00     0.016 A 
ATOM     39  C   UNL     1       3.099  -5.354  14.436  1.00  0.00     0.010 A 
ATOM     40  C   UNL     1       2.484  -6.628  12.462  1.00  0.00     0.010 A 
ATOM     41  C   UNL     1       2.118  -5.978  13.653  1.00  0.00    -0.014 A 
BRANCH  41  42
ATOM     42  C   UNL     1       0.751  -6.150  14.198  1.00  0.00     0.031 A 
ATOM     43  C   UNL     1       0.444  -7.418  14.950  1.00  0.00     0.074 A 
ATOM     44  C   UNL     1      -0.189  -5.200  14.060  1.00  0.00     0.049 A 
ATOM     45  N   UNL     1      -0.668  -7.796  15.523  1.00  0.00    -0.248 NA
ATOM     46  C   UNL     1       1.547  -8.388  15.073  1.00  0.00     0.031 C 
ATOM     47  C   UNL     1      -0.002  -3.910  13.400  1.00  0.00     0.029 A 
ATOM     48  N   UNL     1      -1.497  -5.181  14.476  1.00  0.00    -0.354 N 
ATOM     49  C   UNL     1      -0.400  -9.043  16.077  1.00  0.00     0.074 A 
ATOM     50  C   UNL     1       0.968  -9.372  15.743  1.00  0.00     0.031 C 
ATOM     51  C   UNL     1      -1.156  -3.220  13.460  1.00  0.00     0.029 A 
ATOM     52  C   UNL     1      -2.168  -4.032  14.135  1.00  0.00     0.049 A 
ATOM     53  H   UNL     1      -1.915  -5.921  14.973  1.00  0.00     0.167 HD
ATOM     54  C   UNL     1      -1.215  -9.843  16.804  1.00  0.00     0.031 A 
ATOM     55  C   UNL     1      -3.454  -3.683  14.337  1.00  0.00     0.031 A 
ATOM     56  C   UNL     1      -2.587  -9.536  17.104  1.00  0.00     0.049 A 
ATOM     57  C   UNL     1      -4.375  -4.637  15.056  1.00  0.00     0.074 A 
ATOM     58  C   UNL     1      -3.500 -10.283  17.825  1.00  0.00     0.029 A 
ATOM     59  N   UNL     1      -3.247  -8.392  16.682  1.00  0.00    -0.354 N 
ATOM     60  N   UNL     1      -4.102  -5.803  15.593  1.00  0.00    -0.248 NA
ATOM     61  C   UNL     1      -5.778  -4.222  15.199  1.00  0.00     0.031 C 
ATOM     62  C   UNL     1      -4.729  -9.613  17.797  1.00  0.00     0.029 A 
ATOM     63  C   UNL     1      -4.565  -8.423  17.105  1.00  0.00     0.049 A 
ATOM     64  H   UNL     1      -2.839  -7.664  16.159  1.00  0.00     0.167 HD
ATOM     65  C   UNL     1      -5.292  -6.246  16.164  1.00  0.00     0.074 A 
ATOM     66  C   UNL     1      -6.284  -5.220  15.911  1.00  0.00     0.031 C 
ATOM     67  C   UNL     1      -5.540  -7.394  16.843  1.00  0.00     0.031 A 
BRANCH  54  68
ATOM     68  C   UNL     1      -0.638 -11.149  17.280  1.00  0.00    -0.014 A 
ATOM     69  C   UNL     1       0.332 -11.185  18.299  1.00  0.00     0.010 A 
ATOM     70  C   UNL     1      -1.055 -12.353  16.686  1.00  0.00     0.010 A 
ATOM     71  C   UNL     1       0.917 -12.398  18.674  1.00  0.00     0.020 A 
ATOM     72  C   UNL     1      -0.491 -13.570  17.076  1.00  0.00     0.020 A 
ATOM     73  C   UNL     1       0.510 -13.581  18.051  1.00  0.00     0.054 A 
BRANCH  73  74
ATOM     74  S   UNL     1       1.300 -15.139  18.537  1.00  0.00     0.124 S 
ATOM     75  O   UNL     1       2.599 -15.035  17.876  1.00  0.00    -0.237 OA
ATOM     76  O   UNL     1       1.329 -15.046  19.994  1.00  0.00    -0.237 OA
ATOM     77  O   UNL     1       0.408 -16.163  17.999  1.00  0.00    -0.744 OA
ENDBRANCH  73  74
ENDBRANCH  54  68
BRANCH  55  78
ATOM     78  C   UNL     1      -3.954  -2.367  13.856  1.00  0.00    -0.014 A 
ATOM     79  C   UNL     1      -4.279  -1.351  14.773  1.00  0.00     0.010 A 
ATOM     80  C   UNL     1      -4.110  -2.120  12.480  1.00  0.00     0.010 A 
ATOM     81  C   UNL     1      -4.762  -0.119  14.323  1.00  0.00     0.020 A 
ATOM     82  C   UNL     1      -4.570  -0.881  12.025  1.00  0.00     0.020 A 
ATOM     83  C   UNL     1      -4.903   0.110  12.952  1.00  0.00     0.054 A 
BRANCH  83  84
ATOM     84  S   UNL     1      -5.483   1.736  12.391  1.00  0.00     0.124 S 
ATOM     85  O   UNL     1      -6.901   1.687  12.735  1.00  0.00    -0.237 OA
ATOM     86  O   UNL     1      -4.670   2.652  13.187  1.00  0.00    -0.237 OA
ATOM     87  O   UNL     1      -5.185   1.731  10.961  1.00  0.00    -0.744 OA
ENDBRANCH  83  84
ENDBRANCH  55  78
BRANCH  67  88
ATOM     88  C   UNL     1      -6.926  -7.590  17.396  1.00  0.00    -0.014 A 
ATOM     89  C   UNL     1      -8.010  -7.905  16.558  1.00  0.00     0.010 A 
ATOM     90  C   UNL     1      -7.133  -7.517  18.786  1.00  0.00     0.010 A 
ATOM     91  C   UNL     1      -9.283  -8.116  17.099  1.00  0.00     0.020 A 
ATOM     92  C   UNL     1      -8.398  -7.751  19.332  1.00  0.00     0.020 A 
ATOM     93  C   UNL     1      -9.468  -8.036  18.483  1.00  0.00     0.054 A 
BRANCH  93  94
ATOM     94  S   UNL     1     -11.117  -8.360  19.166  1.00  0.00     0.124 S 
ATOM     95  O   UNL     1     -11.829  -7.127  18.841  1.00  0.00    -0.237 OA
ATOM     96  O   UNL     1     -11.545  -9.546  18.427  1.00  0.00    -0.237 OA
ATOM     97  O   UNL     1     -10.866  -8.579  20.589  1.00  0.00    -0.744 OA
ENDBRANCH  93  94
ENDBRANCH  67  88
ENDBRANCH  41  42
ENDBRANCH  34  36
ENDBRANCH  33  34
ENDBRANCH  32  33
ENDBRANCH  31  32
ENDBRANCH  30  31
ENDBRANCH  29  30
ENDBRANCH  28  29
ENDBRANCH  27  28
ENDBRANCH   1  27
TORSDOF 27
