REMARK SMILES Cc1cc(Br)c(C)c([C@@H]2[NH2+][C@H](C(=O)OCCOCCOCCOCCOC(=O)c3ccc(-c4c5nc(c(-c6ccc(S(=O)(=O)[O-])cc6)c6ccc([nH]6)c(-c6ccc(S(=O)(=O)[O-])cc6)c6nc(c(-c7ccc(S(=O)(=O)[O-])cc7)c7ccc4[nH]7)C=C6)C=C5)cc3)CS2)c1O
REMARK SMILES IDX 21 1 20 2 19 3 18 4 17 5 16 6 15 7 14 8 12 9 13 10 11 11
REMARK SMILES IDX 9 12 10 13 90 14 89 17 8 18 1 19 2 20 3 21 91 22 4 23 5 24
REMARK SMILES IDX 6 25 7 26 92 27 22 29 23 30 24 31 25 32 26 33 27 34 28 35
REMARK SMILES IDX 29 36 30 37 88 38 31 39 87 40 32 41 33 42 34 43 81 44 35 45
REMARK SMILES IDX 86 46 80 47 82 48 36 49 85 50 79 51 78 52 37 54 67 55 48 56
REMARK SMILES IDX 66 57 49 58 52 59 65 60 83 61 50 62 51 63 64 65 84 66 53 67
REMARK SMILES IDX 38 68 39 69 47 70 40 71 46 72 41 73 42 74 43 75 44 76 45 77
REMARK SMILES IDX 68 78 69 79 77 80 70 81 76 82 71 83 72 84 73 85 74 86 75 87
REMARK SMILES IDX 54 88 55 89 63 90 56 91 62 92 57 93 58 94 59 95 60 96 61 97
REMARK H PARENT 10 15 10 16 92 28 82 53 52 64
REMARK Flexibility Score: inf
ROOT
ATOM      1  C   UNL     1      -2.268   1.327  -0.915  1.00  0.00     0.188 C 
ENDROOT
BRANCH   1   2
ATOM      2  O   UNL     1      -1.910   2.606  -1.408  1.00  0.00    -0.377 OA
BRANCH   2   3
ATOM      3  C   UNL     1      -0.606   2.683  -1.954  1.00  0.00     0.188 C 
BRANCH   3   4
ATOM      4  C   UNL     1      -0.367   2.114  -3.367  1.00  0.00     0.188 C 
BRANCH   4   5
ATOM      5  O   UNL     1      -0.250   0.705  -3.584  1.00  0.00    -0.376 OA
BRANCH   5   6
ATOM      6  C   UNL     1       0.424  -0.112  -2.641  1.00  0.00     0.202 C 
BRANCH   6   7
ATOM      7  C   UNL     1       1.883   0.202  -2.313  1.00  0.00     0.261 C 
BRANCH   7   8
ATOM      8  O   UNL     1       2.055   1.581  -1.974  1.00  0.00    -0.459 OA
BRANCH   8   9
ATOM      9  C   UNL     1       3.105   2.244  -2.508  1.00  0.00     0.365 C 
ATOM     10  O   UNL     1       3.943   1.722  -3.240  1.00  0.00    -0.245 OA
BRANCH   9  11
ATOM     11  C   UNL     1       3.167   3.735  -2.139  1.00  0.00     0.304 C 
ATOM     12  C   UNL     1       2.218   4.612  -0.080  1.00  0.00     0.278 C 
ATOM     13  N   UNL     1       1.952   4.300  -1.492  1.00  0.00    -0.319 N 
ATOM     14  S   UNL     1       3.975   4.917   0.135  1.00  0.00    -0.087 SA
ATOM     15  H   UNL     1       1.679   5.153  -1.979  1.00  0.00     0.348 HD
ATOM     16  H   UNL     1       1.202   3.611  -1.542  1.00  0.00     0.348 HD
ATOM     17  C   UNL     1       4.443   4.022  -1.359  1.00  0.00     0.153 C 
BRANCH  12  18
ATOM     18  C   UNL     1       1.521   3.668   0.899  1.00  0.00     0.066 A 
ATOM     19  C   UNL     1       1.654  -0.065   1.973  1.00  0.00     0.048 C 
ATOM     20  C   UNL     1       1.297   1.392   1.863  1.00  0.00    -0.008 A 
ATOM     21  C   UNL     1       0.163   1.817   2.550  1.00  0.00     0.023 A 
ATOM     22  C   UNL     1       1.983   2.334   1.080  1.00  0.00     0.128 A 
ATOM     23  C   UNL     1      -0.281   3.134   2.462  1.00  0.00     0.021 A 
ATOM     24  Br  UNL     1      -1.727   3.610   3.602  1.00  0.00    -0.051 Br
ATOM     25  C   UNL     1       0.340   4.065   1.603  1.00  0.00    -0.023 A 
ATOM     26  C   UNL     1      -0.307   5.428   1.486  1.00  0.00     0.046 C 
BRANCH  22  27
ATOM     27  O   UNL     1       3.146   1.974   0.452  1.00  0.00    -0.507 OA
ATOM     28  H   UNL     1       3.480   1.105   0.549  1.00  0.00     0.293 HD
ENDBRANCH  22  27
ENDBRANCH  12  18
ENDBRANCH   9  11
ENDBRANCH   8   9
ENDBRANCH   7   8
ENDBRANCH   6   7
ENDBRANCH   5   6
ENDBRANCH   4   5
ENDBRANCH   3   4
ENDBRANCH   2   3
ENDBRANCH   1   2
BRANCH   1  29
ATOM     29  C   UNL     1      -3.120   0.556  -1.927  1.00  0.00     0.188 C 
BRANCH  29  30
ATOM     30  O   UNL     1      -3.278   1.257  -3.156  1.00  0.00    -0.376 OA
BRANCH  30  31
ATOM     31  C   UNL     1      -4.431   2.088  -3.274  1.00  0.00     0.202 C 
BRANCH  31  32
ATOM     32  C   UNL     1      -4.593   3.283  -2.314  1.00  0.00     0.261 C 
BRANCH  32  33
ATOM     33  O   UNL     1      -4.697   2.995  -0.907  1.00  0.00    -0.460 OA
BRANCH  33  34
ATOM     34  C   UNL     1      -5.637   2.128  -0.477  1.00  0.00     0.338 C 
ATOM     35  O   UNL     1      -6.477   1.558  -1.150  1.00  0.00    -0.246 OA
BRANCH  34  36
ATOM     36  C   UNL     1      -5.355   1.836   0.948  1.00  0.00     0.060 A 
ATOM     37  C   UNL     1      -5.254   2.872   1.876  1.00  0.00     0.016 A 
ATOM     38  C   UNL     1      -5.162   0.507   1.355  1.00  0.00     0.016 A 
ATOM     39  C   UNL     1      -4.991   2.571   3.215  1.00  0.00     0.010 A 
ATOM     40  C   UNL     1      -4.880   0.212   2.695  1.00  0.00     0.010 A 
ATOM     41  C   UNL     1      -4.810   1.241   3.644  1.00  0.00    -0.014 A 
BRANCH  41  42
ATOM     42  C   UNL     1      -4.773   0.942   5.104  1.00  0.00     0.031 A 
ATOM     43  C   UNL     1      -3.531   0.521   5.836  1.00  0.00     0.074 A 
ATOM     44  C   UNL     1      -5.927   1.078   5.785  1.00  0.00     0.049 A 
ATOM     45  N   UNL     1      -3.334   0.425   7.128  1.00  0.00    -0.248 NA
ATOM     46  C   UNL     1      -2.359   0.163   5.029  1.00  0.00     0.031 C 
ATOM     47  C   UNL     1      -7.207   1.453   5.181  1.00  0.00     0.029 A 
ATOM     48  N   UNL     1      -6.213   0.941   7.119  1.00  0.00    -0.354 N 
ATOM     49  C   UNL     1      -2.003   0.058   7.292  1.00  0.00     0.074 A 
ATOM     50  C   UNL     1      -1.449  -0.098   5.963  1.00  0.00     0.031 C 
ATOM     51  C   UNL     1      -8.130   1.562   6.145  1.00  0.00     0.029 A 
ATOM     52  C   UNL     1      -7.522   1.221   7.428  1.00  0.00     0.049 A 
ATOM     53  H   UNL     1      -5.545   0.668   7.789  1.00  0.00     0.167 HD
ATOM     54  C   UNL     1      -1.314  -0.129   8.445  1.00  0.00     0.031 A 
ATOM     55  C   UNL     1      -8.173   1.213   8.607  1.00  0.00     0.031 A 
ATOM     56  C   UNL     1      -1.907  -0.067   9.760  1.00  0.00     0.049 A 
ATOM     57  C   UNL     1      -7.412   0.910   9.863  1.00  0.00     0.074 A 
ATOM     58  C   UNL     1      -1.287  -0.236  10.988  1.00  0.00     0.029 A 
ATOM     59  N   UNL     1      -3.253   0.143  10.024  1.00  0.00    -0.354 N 
ATOM     60  N   UNL     1      -6.130   0.673  10.006  1.00  0.00    -0.248 NA
ATOM     61  C   UNL     1      -8.175   0.886  11.117  1.00  0.00     0.031 C 
ATOM     62  C   UNL     1      -2.269  -0.226  11.981  1.00  0.00     0.029 A 
ATOM     63  C   UNL     1      -3.490   0.046  11.386  1.00  0.00     0.049 A 
ATOM     64  H   UNL     1      -3.939   0.332   9.343  1.00  0.00     0.167 HD
ATOM     65  C   UNL     1      -5.930   0.484  11.368  1.00  0.00     0.074 A 
ATOM     66  C   UNL     1      -7.218   0.654  12.008  1.00  0.00     0.031 C 
ATOM     67  C   UNL     1      -4.778   0.195  12.022  1.00  0.00     0.031 A 
BRANCH  54  68
ATOM     68  C   UNL     1       0.166  -0.427   8.372  1.00  0.00    -0.014 A 
ATOM     69  C   UNL     1       0.658  -1.671   8.810  1.00  0.00     0.010 A 
ATOM     70  C   UNL     1       1.083   0.586   8.036  1.00  0.00     0.010 A 
ATOM     71  C   UNL     1       2.033  -1.886   8.952  1.00  0.00     0.020 A 
ATOM     72  C   UNL     1       2.462   0.367   8.154  1.00  0.00     0.020 A 
ATOM     73  C   UNL     1       2.927  -0.860   8.634  1.00  0.00     0.054 A 
BRANCH  73  74
ATOM     74  S   UNL     1       4.704  -1.145   8.869  1.00  0.00     0.124 S 
ATOM     75  O   UNL     1       4.832  -1.139  10.323  1.00  0.00    -0.237 OA
ATOM     76  O   UNL     1       4.903  -2.441   8.222  1.00  0.00    -0.237 OA
ATOM     77  O   UNL     1       5.327  -0.016   8.181  1.00  0.00    -0.744 OA
ENDBRANCH  73  74
ENDBRANCH  54  68
BRANCH  55  78
ATOM     78  C   UNL     1      -9.622   1.553   8.619  1.00  0.00    -0.014 A 
ATOM     79  C   UNL     1     -10.550   0.708   7.981  1.00  0.00     0.010 A 
ATOM     80  C   UNL     1     -10.061   2.779   9.146  1.00  0.00     0.010 A 
ATOM     81  C   UNL     1     -11.873   1.115   7.802  1.00  0.00     0.020 A 
ATOM     82  C   UNL     1     -11.394   3.174   9.000  1.00  0.00     0.020 A 
ATOM     83  C   UNL     1     -12.282   2.355   8.298  1.00  0.00     0.054 A 
BRANCH  83  84
ATOM     84  S   UNL     1     -13.984   2.896   7.985  1.00  0.00     0.124 S 
ATOM     85  O   UNL     1     -13.924   3.271   6.575  1.00  0.00    -0.237 OA
ATOM     86  O   UNL     1     -14.760   1.695   8.284  1.00  0.00    -0.237 OA
ATOM     87  O   UNL     1     -14.168   4.003   8.920  1.00  0.00    -0.744 OA
ENDBRANCH  83  84
ENDBRANCH  55  78
BRANCH  67  88
ATOM     88  C   UNL     1      -4.835   0.016  13.519  1.00  0.00    -0.014 A 
ATOM     89  C   UNL     1      -4.160   0.922  14.359  1.00  0.00     0.010 A 
ATOM     90  C   UNL     1      -5.444  -1.118  14.086  1.00  0.00     0.010 A 
ATOM     91  C   UNL     1      -4.053   0.676  15.730  1.00  0.00     0.020 A 
ATOM     92  C   UNL     1      -5.367  -1.350  15.463  1.00  0.00     0.020 A 
ATOM     93  C   UNL     1      -4.648  -0.467  16.272  1.00  0.00     0.054 A 
BRANCH  93  94
ATOM     94  S   UNL     1      -4.460  -0.793  18.046  1.00  0.00     0.124 S 
ATOM     95  O   UNL     1      -3.076  -1.250  18.130  1.00  0.00    -0.237 OA
ATOM     96  O   UNL     1      -4.729   0.513  18.643  1.00  0.00    -0.237 OA
ATOM     97  O   UNL     1      -5.471  -1.812  18.317  1.00  0.00    -0.744 OA
ENDBRANCH  93  94
ENDBRANCH  67  88
ENDBRANCH  41  42
ENDBRANCH  34  36
ENDBRANCH  33  34
ENDBRANCH  32  33
ENDBRANCH  31  32
ENDBRANCH  30  31
ENDBRANCH  29  30
ENDBRANCH   1  29
TORSDOF 25
