REMARK SMILES Cc1ccc(CNC(=O)c2csc(/C=C/C(=O)OCCOCCOCCOCCOC(=O)c3ccc(-c4c5nc(c(-c6ccc(S(=O)(=O)[O-])cc6)c6ccc([nH]6)c(-c6ccc(S(=O)(=O)[O-])cc6)c6nc(c(-c7ccc(S(=O)(=O)[O-])cc7)c7ccc4[nH]7)C=C6)C=C5)cc3)c2)s1
REMARK SMILES IDX 23 1 22 2 21 3 20 4 19 5 18 6 16 7 17 8 15 9 14 10 13 11
REMARK SMILES IDX 10 12 11 13 93 14 12 15 8 16 7 17 9 19 6 20 5 21 1 22 2 23
REMARK SMILES IDX 3 24 94 25 4 26 24 27 25 28 26 29 27 30 28 31 29 32 30 33
REMARK SMILES IDX 31 34 32 35 33 36 34 37 92 38 35 39 91 40 36 41 37 42 38 43
REMARK SMILES IDX 85 44 39 45 90 46 84 47 86 48 40 49 89 50 83 51 82 52 41 54
REMARK SMILES IDX 71 55 52 56 70 57 53 58 56 59 69 60 87 61 54 62 55 63 68 65
REMARK SMILES IDX 88 66 57 67 42 68 43 69 51 70 44 71 50 72 45 73 46 74 47 75
REMARK SMILES IDX 48 76 49 77 72 78 73 79 81 80 74 81 80 82 75 83 76 84 77 85
REMARK SMILES IDX 78 86 79 87 58 88 59 89 67 90 60 91 66 92 61 93 62 94 63 95
REMARK SMILES IDX 64 96 65 97
REMARK H PARENT 7 18 86 53 56 64
REMARK Flexibility Score: inf
ROOT
ATOM      1  C   UNL     1      -7.526   5.017  -5.340  1.00  0.00     0.188 C 
ENDROOT
BRANCH   1   2
ATOM      2  C   UNL     1      -6.858   5.462  -6.654  1.00  0.00     0.188 C 
BRANCH   2   3
ATOM      3  O   UNL     1      -7.419   4.861  -7.806  1.00  0.00    -0.376 OA
BRANCH   3   4
ATOM      4  C   UNL     1      -6.792   3.751  -8.425  1.00  0.00     0.202 C 
BRANCH   4   5
ATOM      5  C   UNL     1      -6.238   2.557  -7.628  1.00  0.00     0.261 C 
BRANCH   5   6
ATOM      6  O   UNL     1      -5.679   2.840  -6.345  1.00  0.00    -0.460 OA
BRANCH   6   7
ATOM      7  C   UNL     1      -4.432   3.347  -6.310  1.00  0.00     0.330 C 
ATOM      8  O   UNL     1      -3.719   3.584  -7.272  1.00  0.00    -0.247 OA
BRANCH   7   9
ATOM      9  C   UNL     1      -4.075   3.755  -4.933  1.00  0.00     0.095 C 
ATOM     10  C   UNL     1      -4.709   3.320  -3.831  1.00  0.00     0.026 C 
BRANCH  10  11
ATOM     11  C   UNL     1      -4.340   3.734  -2.516  1.00  0.00     0.028 A 
ATOM     12  C   UNL     1      -3.777   3.564  -0.234  1.00  0.00     0.051 A 
ATOM     13  C   UNL     1      -3.335   4.837  -0.539  1.00  0.00     0.079 A 
ATOM     14  C   UNL     1      -4.520   3.026  -1.339  1.00  0.00     0.033 A 
ATOM     15  S   UNL     1      -3.622   5.260  -2.166  1.00  0.00    -0.144 S 
BRANCH  12  16
ATOM     16  C   UNL     1      -3.503   2.943   1.058  1.00  0.00     0.252 C 
ATOM     17  N   UNL     1      -3.167   1.613   1.097  1.00  0.00    -0.347 N 
ATOM     18  H   UNL     1      -3.082   1.225   1.997  1.00  0.00     0.164 HD
ATOM     19  O   UNL     1      -3.508   3.590   2.103  1.00  0.00    -0.269 OA
BRANCH  17  20
ATOM     20  C   UNL     1      -2.918   0.699   0.000  1.00  0.00     0.163 C 
BRANCH  20  21
ATOM     21  C   UNL     1      -1.570   0.067   0.124  1.00  0.00     0.024 A 
ATOM     22  C   UNL     1       2.343  -0.180   0.047  1.00  0.00     0.056 C 
ATOM     23  C   UNL     1       0.865  -0.350   0.100  1.00  0.00     0.002 A 
ATOM     24  C   UNL     1       0.136  -1.520   0.129  1.00  0.00     0.015 A 
ATOM     25  S   UNL     1      -0.149   1.026   0.107  1.00  0.00    -0.144 S 
ATOM     26  C   UNL     1      -1.268  -1.280   0.148  1.00  0.00     0.017 A 
ENDBRANCH  20  21
ENDBRANCH  17  20
ENDBRANCH  12  16
ENDBRANCH  10  11
ENDBRANCH   7   9
ENDBRANCH   6   7
ENDBRANCH   5   6
ENDBRANCH   4   5
ENDBRANCH   3   4
ENDBRANCH   2   3
ENDBRANCH   1   2
BRANCH   1  27
ATOM     27  O   UNL     1      -8.232   3.789  -5.386  1.00  0.00    -0.377 OA
BRANCH  27  28
ATOM     28  C   UNL     1      -9.427   3.691  -6.163  1.00  0.00     0.188 C 
BRANCH  28  29
ATOM     29  C   UNL     1     -10.032   4.883  -6.948  1.00  0.00     0.188 C 
BRANCH  29  30
ATOM     30  O   UNL     1      -9.661   6.167  -6.471  1.00  0.00    -0.376 OA
BRANCH  30  31
ATOM     31  C   UNL     1     -10.638   6.926  -5.782  1.00  0.00     0.202 C 
BRANCH  31  32
ATOM     32  C   UNL     1     -11.103   6.372  -4.429  1.00  0.00     0.261 C 
BRANCH  32  33
ATOM     33  O   UNL     1     -11.612   5.030  -4.442  1.00  0.00    -0.460 OA
BRANCH  33  34
ATOM     34  C   UNL     1     -12.751   4.808  -5.132  1.00  0.00     0.338 C 
ATOM     35  O   UNL     1     -13.408   5.631  -5.751  1.00  0.00    -0.246 OA
BRANCH  34  36
ATOM     36  C   UNL     1     -12.974   3.349  -5.170  1.00  0.00     0.060 A 
ATOM     37  C   UNL     1     -13.005   2.692  -6.407  1.00  0.00     0.016 A 
ATOM     38  C   UNL     1     -13.136   2.631  -3.983  1.00  0.00     0.016 A 
ATOM     39  C   UNL     1     -13.233   1.316  -6.461  1.00  0.00     0.010 A 
ATOM     40  C   UNL     1     -13.383   1.257  -4.040  1.00  0.00     0.010 A 
ATOM     41  C   UNL     1     -13.465   0.598  -5.280  1.00  0.00    -0.014 A 
BRANCH  41  42
ATOM     42  C   UNL     1     -13.982  -0.791  -5.344  1.00  0.00     0.031 A 
ATOM     43  C   UNL     1     -15.461  -1.010  -5.169  1.00  0.00     0.074 A 
ATOM     44  C   UNL     1     -13.164  -1.837  -5.562  1.00  0.00     0.049 A 
ATOM     45  N   UNL     1     -16.136  -2.130  -5.133  1.00  0.00    -0.248 NA
ATOM     46  C   UNL     1     -16.289   0.198  -5.011  1.00  0.00     0.031 C 
ATOM     47  C   UNL     1     -11.723  -1.754  -5.793  1.00  0.00     0.029 A 
ATOM     48  N   UNL     1     -13.437  -3.182  -5.617  1.00  0.00    -0.354 N 
ATOM     49  C   UNL     1     -17.463  -1.763  -4.937  1.00  0.00     0.074 A 
ATOM     50  C   UNL     1     -17.494  -0.321  -4.831  1.00  0.00     0.031 C 
ATOM     51  C   UNL     1     -11.236  -2.997  -5.957  1.00  0.00     0.029 A 
ATOM     52  C   UNL     1     -12.322  -3.964  -5.804  1.00  0.00     0.049 A 
ATOM     53  H   UNL     1     -14.345  -3.551  -5.530  1.00  0.00     0.167 HD
ATOM     54  C   UNL     1     -18.558  -2.555  -4.857  1.00  0.00     0.031 A 
ATOM     55  C   UNL     1     -12.190  -5.307  -5.824  1.00  0.00     0.031 A 
ATOM     56  C   UNL     1     -18.521  -3.990  -4.945  1.00  0.00     0.049 A 
ATOM     57  C   UNL     1     -13.412  -6.172  -5.647  1.00  0.00     0.074 A 
ATOM     58  C   UNL     1     -19.578  -4.882  -4.890  1.00  0.00     0.029 A 
ATOM     59  N   UNL     1     -17.368  -4.745  -5.096  1.00  0.00    -0.354 N 
ATOM     60  N   UNL     1     -14.664  -5.811  -5.490  1.00  0.00    -0.248 NA
ATOM     61  C   UNL     1     -13.204  -7.628  -5.659  1.00  0.00     0.031 C 
ATOM     62  C   UNL     1     -19.058  -6.178  -4.938  1.00  0.00     0.029 A 
ATOM     63  C   UNL     1     -17.684  -6.094  -5.101  1.00  0.00     0.049 A 
ATOM     64  H   UNL     1     -16.459  -4.378  -5.185  1.00  0.00     0.167 HD
ATOM     65  C   UNL     1     -15.395  -6.994  -5.415  1.00  0.00     0.074 A 
ATOM     66  C   UNL     1     -14.447  -8.079  -5.560  1.00  0.00     0.031 C 
ATOM     67  C   UNL     1     -16.730  -7.166  -5.245  1.00  0.00     0.031 A 
BRANCH  54  68
ATOM     68  C   UNL     1     -19.887  -1.884  -4.622  1.00  0.00    -0.014 A 
ATOM     69  C   UNL     1     -20.494  -1.093  -5.614  1.00  0.00     0.010 A 
ATOM     70  C   UNL     1     -20.555  -2.078  -3.399  1.00  0.00     0.010 A 
ATOM     71  C   UNL     1     -21.726  -0.478  -5.373  1.00  0.00     0.020 A 
ATOM     72  C   UNL     1     -21.801  -1.491  -3.165  1.00  0.00     0.020 A 
ATOM     73  C   UNL     1     -22.371  -0.681  -4.149  1.00  0.00     0.054 A 
BRANCH  73  74
ATOM     74  S   UNL     1     -23.981   0.109  -3.874  1.00  0.00     0.124 S 
ATOM     75  O   UNL     1     -23.609   1.517  -3.757  1.00  0.00    -0.237 OA
ATOM     76  O   UNL     1     -24.720  -0.247  -5.082  1.00  0.00    -0.237 OA
ATOM     77  O   UNL     1     -24.467  -0.511  -2.644  1.00  0.00    -0.744 OA
ENDBRANCH  73  74
ENDBRANCH  54  68
BRANCH  55  78
ATOM     78  C   UNL     1     -10.843  -5.922  -5.995  1.00  0.00    -0.014 A 
ATOM     79  C   UNL     1     -10.524  -6.650  -7.155  1.00  0.00     0.010 A 
ATOM     80  C   UNL     1      -9.870  -5.789  -4.986  1.00  0.00     0.010 A 
ATOM     81  C   UNL     1      -9.265  -7.244  -7.296  1.00  0.00     0.020 A 
ATOM     82  C   UNL     1      -8.601  -6.354  -5.138  1.00  0.00     0.020 A 
ATOM     83  C   UNL     1      -8.310  -7.087  -6.289  1.00  0.00     0.054 A 
BRANCH  83  84
ATOM     84  S   UNL     1      -6.665  -7.818  -6.520  1.00  0.00     0.124 S 
ATOM     85  O   UNL     1      -6.943  -9.244  -6.384  1.00  0.00    -0.237 OA
ATOM     86  O   UNL     1      -6.308  -7.366  -7.862  1.00  0.00    -0.237 OA
ATOM     87  O   UNL     1      -5.874  -7.228  -5.441  1.00  0.00    -0.744 OA
ENDBRANCH  83  84
ENDBRANCH  55  78
BRANCH  67  88
ATOM     88  C   UNL     1     -17.261  -8.578  -5.245  1.00  0.00    -0.014 A 
ATOM     89  C   UNL     1     -17.003  -9.460  -4.181  1.00  0.00     0.010 A 
ATOM     90  C   UNL     1     -18.084  -9.007  -6.304  1.00  0.00     0.010 A 
ATOM     91  C   UNL     1     -17.531 -10.755  -4.193  1.00  0.00     0.020 A 
ATOM     92  C   UNL     1     -18.640 -10.288  -6.303  1.00  0.00     0.020 A 
ATOM     93  C   UNL     1     -18.348 -11.160  -5.253  1.00  0.00     0.054 A 
BRANCH  93  94
ATOM     94  S   UNL     1     -19.054 -12.830  -5.222  1.00  0.00     0.124 S 
ATOM     95  O   UNL     1     -17.881 -13.662  -5.477  1.00  0.00    -0.237 OA
ATOM     96  O   UNL     1     -19.606 -12.918  -3.872  1.00  0.00    -0.237 OA
ATOM     97  O   UNL     1     -20.047 -12.809  -6.294  1.00  0.00    -0.744 OA
ENDBRANCH  93  94
ENDBRANCH  67  88
ENDBRANCH  41  42
ENDBRANCH  34  36
ENDBRANCH  33  34
ENDBRANCH  32  33
ENDBRANCH  31  32
ENDBRANCH  30  31
ENDBRANCH  29  30
ENDBRANCH  28  29
ENDBRANCH  27  28
ENDBRANCH   1  27
TORSDOF 27
