REMARK SMILES COc1ccc(/C=C2/C(=O)N(c3ccccc3)C(=O)N=C2OCCOCCOCCOCCOC(=O)c2ccc(-c3c4nc(c(-c5ccc(S(=O)(=O)[O-])cc5)c5ccc([nH]5)c(-c5ccc(S(=O)(=O)[O-])cc5)c5nc(c(-c6ccc(S(=O)(=O)[O-])cc6)c6ccc3[nH]6)C=C5)C=C4)cc2)cc1C(=O)[O-]
REMARK SMILES IDX 29 1 28 2 27 3 26 4 25 5 24 6 23 7 22 8 21 9 7 10 8 11 9 12
REMARK SMILES IDX 10 13 11 14 20 15 18 16 19 17 6 18 3 19 4 20 98 21 5 22
REMARK SMILES IDX 97 23 2 24 1 25 99 26 100 27 101 28 12 29 13 30 17 31 14 32
REMARK SMILES IDX 16 33 15 34 30 35 31 36 32 37 33 38 34 39 35 40 36 41 37 42
REMARK SMILES IDX 38 43 96 44 39 45 95 46 40 47 41 48 42 49 89 50 43 51 94 52
REMARK SMILES IDX 88 53 90 54 44 55 93 56 87 57 86 58 45 60 75 61 56 62 74 63
REMARK SMILES IDX 57 64 60 65 73 66 91 67 58 68 59 69 72 71 92 72 61 73 46 74
REMARK SMILES IDX 47 75 55 76 48 77 54 78 49 79 50 80 51 81 52 82 53 83 76 84
REMARK SMILES IDX 77 85 85 86 78 87 84 88 79 89 80 90 81 91 82 92 83 93 62 94
REMARK SMILES IDX 63 95 71 96 64 97 70 98 65 99 66 100 67 101 68 102 69 103
REMARK H PARENT 90 59 60 70
REMARK Flexibility Score: inf
ROOT
ATOM      1  C   UNL     1      -2.628  -1.087  -4.950  1.00  0.00     0.188 C 
ENDROOT
BRANCH   1   2
ATOM      2  O   UNL     1      -1.492  -1.207  -5.786  1.00  0.00    -0.377 OA
BRANCH   2   3
ATOM      3  C   UNL     1      -1.091  -2.539  -6.046  1.00  0.00     0.188 C 
BRANCH   3   4
ATOM      4  C   UNL     1      -2.027  -3.486  -6.821  1.00  0.00     0.188 C 
BRANCH   4   5
ATOM      5  O   UNL     1      -3.175  -4.118  -6.267  1.00  0.00    -0.376 OA
BRANCH   5   6
ATOM      6  C   UNL     1      -3.387  -4.430  -4.903  1.00  0.00     0.201 C 
BRANCH   6   7
ATOM      7  C   UNL     1      -2.503  -5.428  -4.154  1.00  0.00     0.260 C 
BRANCH   7   8
ATOM      8  O   UNL     1      -1.100  -5.151  -4.257  1.00  0.00    -0.475 OA
BRANCH   8   9
ATOM      9  C   UNL     1      -0.428  -5.710  -5.270  1.00  0.00     0.231 C 
ATOM     10  C   UNL     1       1.684  -4.340  -4.693  1.00  0.00     0.027 C 
ATOM     11  C   UNL     1       0.932  -5.175  -5.464  1.00  0.00     0.103 C 
ATOM     12  C   UNL     1       1.504  -5.544  -6.822  1.00  0.00     0.272 C 
ATOM     13  O   UNL     1       2.647  -5.217  -7.141  1.00  0.00    -0.268 OA
ATOM     14  N   UNL     1       0.617  -6.207  -7.670  1.00  0.00    -0.226 N 
ATOM     15  N   UNL     1      -1.042  -6.537  -6.028  1.00  0.00    -0.156 NA
ATOM     16  C   UNL     1      -0.525  -6.878  -7.232  1.00  0.00     0.358 C 
ATOM     17  O   UNL     1      -1.095  -7.732  -7.908  1.00  0.00    -0.245 OA
BRANCH  10  18
ATOM     18  C   UNL     1       1.546  -3.565  -3.409  1.00  0.00    -0.024 A 
ATOM     19  C   UNL     1       1.374  -1.826  -1.128  1.00  0.00     0.127 A 
ATOM     20  C   UNL     1       0.391  -2.771  -1.390  1.00  0.00     0.048 A 
ATOM     21  C   UNL     1       2.517  -1.824  -1.925  1.00  0.00     0.040 A 
ATOM     22  C   UNL     1       0.506  -3.651  -2.480  1.00  0.00     0.012 A 
ATOM     23  C   UNL     1       2.568  -2.644  -3.083  1.00  0.00     0.022 A 
BRANCH  19  24
ATOM     24  O   UNL     1       1.166  -1.047  -0.024  1.00  0.00    -0.496 OA
ATOM     25  C   UNL     1       1.043   0.342  -0.333  1.00  0.00     0.278 C 
ENDBRANCH  19  24
BRANCH  21  26
ATOM     26  C   UNL     1       3.740  -1.065  -1.582  1.00  0.00     0.075 C 
ATOM     27  O   UNL     1       4.564  -0.651  -2.380  1.00  0.00    -0.545 OA
ATOM     28  O   UNL     1       3.929  -0.975  -0.256  1.00  0.00    -0.545 OA
ENDBRANCH  21  26
ENDBRANCH  10  18
BRANCH  14  29
ATOM     29  C   UNL     1       0.919  -6.348  -9.054  1.00  0.00     0.054 A 
ATOM     30  C   UNL     1       0.071  -5.750 -10.002  1.00  0.00     0.027 A 
ATOM     31  C   UNL     1       1.944  -7.194  -9.477  1.00  0.00     0.027 A 
ATOM     32  C   UNL     1       0.253  -5.995 -11.363  1.00  0.00     0.002 A 
ATOM     33  C   UNL     1       2.101  -7.462 -10.839  1.00  0.00     0.002 A 
ATOM     34  C   UNL     1       1.260  -6.863 -11.780  1.00  0.00     0.000 A 
ENDBRANCH  14  29
ENDBRANCH   8   9
ENDBRANCH   7   8
ENDBRANCH   6   7
ENDBRANCH   5   6
ENDBRANCH   4   5
ENDBRANCH   3   4
ENDBRANCH   2   3
ENDBRANCH   1   2
BRANCH   1  35
ATOM     35  C   UNL     1      -3.924  -1.009  -5.769  1.00  0.00     0.188 C 
BRANCH  35  36
ATOM     36  O   UNL     1      -3.700  -1.179  -7.163  1.00  0.00    -0.376 OA
BRANCH  36  37
ATOM     37  C   UNL     1      -3.508  -0.011  -7.954  1.00  0.00     0.202 C 
BRANCH  37  38
ATOM     38  C   UNL     1      -2.359   0.958  -7.617  1.00  0.00     0.261 C 
BRANCH  38  39
ATOM     39  O   UNL     1      -2.348   1.521  -6.295  1.00  0.00    -0.460 OA
BRANCH  39  40
ATOM     40  C   UNL     1      -3.432   2.212  -5.886  1.00  0.00     0.338 C 
ATOM     41  O   UNL     1      -4.428   2.473  -6.534  1.00  0.00    -0.246 OA
BRANCH  40  42
ATOM     42  C   UNL     1      -3.293   2.415  -4.428  1.00  0.00     0.060 A 
ATOM     43  C   UNL     1      -4.303   1.939  -3.580  1.00  0.00     0.016 A 
ATOM     44  C   UNL     1      -2.156   3.032  -3.900  1.00  0.00     0.016 A 
ATOM     45  C   UNL     1      -4.193   2.111  -2.201  1.00  0.00     0.010 A 
ATOM     46  C   UNL     1      -2.061   3.230  -2.521  1.00  0.00     0.010 A 
ATOM     47  C   UNL     1      -3.096   2.802  -1.672  1.00  0.00    -0.014 A 
BRANCH  47  48
ATOM     48  C   UNL     1      -3.148   3.296  -0.276  1.00  0.00     0.031 A 
ATOM     49  C   UNL     1      -3.656   4.695  -0.051  1.00  0.00     0.074 A 
ATOM     50  C   UNL     1      -2.785   2.524   0.763  1.00  0.00     0.049 A 
ATOM     51  N   UNL     1      -3.753   5.372   1.062  1.00  0.00    -0.248 NA
ATOM     52  C   UNL     1      -4.125   5.422  -1.244  1.00  0.00     0.031 C 
ATOM     53  C   UNL     1      -2.349   1.132   0.679  1.00  0.00     0.029 A 
ATOM     54  N   UNL     1      -2.719   2.817   2.103  1.00  0.00    -0.354 N 
ATOM     55  C   UNL     1      -4.308   6.596   0.706  1.00  0.00     0.074 A 
ATOM     56  C   UNL     1      -4.484   6.588  -0.728  1.00  0.00     0.031 C 
ATOM     57  C   UNL     1      -2.032   0.699   1.913  1.00  0.00     0.029 A 
ATOM     58  C   UNL     1      -2.222   1.789   2.868  1.00  0.00     0.049 A 
ATOM     59  H   UNL     1      -3.001   3.681   2.480  1.00  0.00     0.167 HD
ATOM     60  C   UNL     1      -4.657   7.632   1.504  1.00  0.00     0.031 A 
ATOM     61  C   UNL     1      -1.933   1.747   4.184  1.00  0.00     0.031 A 
ATOM     62  C   UNL     1      -4.450   7.652   2.926  1.00  0.00     0.049 A 
ATOM     63  C   UNL     1      -2.207   2.964   5.035  1.00  0.00     0.074 A 
ATOM     64  C   UNL     1      -4.743   8.663   3.824  1.00  0.00     0.029 A 
ATOM     65  N   UNL     1      -3.895   6.613   3.655  1.00  0.00    -0.354 N 
ATOM     66  N   UNL     1      -2.735   4.114   4.686  1.00  0.00    -0.248 NA
ATOM     67  C   UNL     1      -1.858   2.872   6.460  1.00  0.00     0.031 C 
ATOM     68  C   UNL     1      -4.319   8.252   5.092  1.00  0.00     0.029 A 
ATOM     69  C   UNL     1      -3.820   6.962   4.991  1.00  0.00     0.049 A 
ATOM     70  H   UNL     1      -3.597   5.753   3.278  1.00  0.00     0.167 HD
ATOM     71  C   UNL     1      -2.826   4.861   5.857  1.00  0.00     0.074 A 
ATOM     72  C   UNL     1      -2.299   4.033   6.923  1.00  0.00     0.031 C 
ATOM     73  C   UNL     1      -3.308   6.116   6.039  1.00  0.00     0.031 A 
BRANCH  60  74
ATOM     74  C   UNL     1      -5.280   8.832   0.846  1.00  0.00    -0.014 A 
ATOM     75  C   UNL     1      -6.590   8.776   0.337  1.00  0.00     0.010 A 
ATOM     76  C   UNL     1      -4.562  10.038   0.759  1.00  0.00     0.010 A 
ATOM     77  C   UNL     1      -7.160   9.895  -0.274  1.00  0.00     0.020 A 
ATOM     78  C   UNL     1      -5.138  11.167   0.172  1.00  0.00     0.020 A 
ATOM     79  C   UNL     1      -6.429  11.084  -0.353  1.00  0.00     0.054 A 
BRANCH  79  80
ATOM     80  S   UNL     1      -7.207  12.530  -1.124  1.00  0.00     0.124 S 
ATOM     81  O   UNL     1      -7.204  12.156  -2.536  1.00  0.00    -0.237 OA
ATOM     82  O   UNL     1      -8.520  12.566  -0.486  1.00  0.00    -0.237 OA
ATOM     83  O   UNL     1      -6.315  13.632  -0.771  1.00  0.00    -0.744 OA
ENDBRANCH  79  80
ENDBRANCH  60  74
BRANCH  61  84
ATOM     84  C   UNL     1      -1.332   0.525   4.789  1.00  0.00    -0.014 A 
ATOM     85  C   UNL     1      -2.050  -0.242   5.723  1.00  0.00     0.010 A 
ATOM     86  C   UNL     1      -0.016   0.147   4.465  1.00  0.00     0.010 A 
ATOM     87  C   UNL     1      -1.451  -1.339   6.351  1.00  0.00     0.020 A 
ATOM     88  C   UNL     1       0.577  -0.967   5.068  1.00  0.00     0.020 A 
ATOM     89  C   UNL     1      -0.139  -1.692   6.022  1.00  0.00     0.054 A 
BRANCH  89  90
ATOM     90  S   UNL     1       0.615  -3.122   6.846  1.00  0.00     0.124 S 
ATOM     91  O   UNL     1       0.842  -2.611   8.194  1.00  0.00    -0.237 OA
ATOM     92  O   UNL     1      -0.426  -4.141   6.721  1.00  0.00    -0.237 OA
ATOM     93  O   UNL     1       1.821  -3.375   6.061  1.00  0.00    -0.744 OA
ENDBRANCH  89  90
ENDBRANCH  61  84
BRANCH  73  94
ATOM     94  C   UNL     1      -3.354   6.649   7.446  1.00  0.00    -0.014 A 
ATOM     95  C   UNL     1      -2.184   7.033   8.125  1.00  0.00     0.010 A 
ATOM     96  C   UNL     1      -4.601   6.826   8.074  1.00  0.00     0.010 A 
ATOM     97  C   UNL     1      -2.260   7.553   9.421  1.00  0.00     0.020 A 
ATOM     98  C   UNL     1      -4.683   7.372   9.357  1.00  0.00     0.020 A 
ATOM     99  C   UNL     1      -3.509   7.719  10.028  1.00  0.00     0.054 A 
BRANCH  99 100
ATOM    100  S   UNL     1      -3.583   8.437  11.692  1.00  0.00     0.124 S 
ATOM    101  O   UNL     1      -3.111   7.332  12.521  1.00  0.00    -0.237 OA
ATOM    102  O   UNL     1      -2.677   9.578  11.589  1.00  0.00    -0.237 OA
ATOM    103  O   UNL     1      -4.993   8.782  11.858  1.00  0.00    -0.744 OA
ENDBRANCH  99 100
ENDBRANCH  73  94
ENDBRANCH  47  48
ENDBRANCH  40  42
ENDBRANCH  39  40
ENDBRANCH  38  39
ENDBRANCH  37  38
ENDBRANCH  36  37
ENDBRANCH  35  36
ENDBRANCH   1  35
TORSDOF 26
