REMARK SMILES CC[NH2+][C@@]1(C(=O)OCCOCCOCCOCCOC(=O)c2ccc(-c3c4nc(c(-c5ccc(S(=O)(=O)[O-])cc5)c5ccc([nH]5)c(-c5ccc(S(=O)(=O)[O-])cc5)c5nc(c(-c6ccc(S(=O)(=O)[O-])cc6)c6ccc3[nH]6)C=C5)C=C4)cc2)CC[C@@H](SCC2CCCC2)C1
REMARK SMILES IDX 13 1 12 2 11 3 10 4 9 5 8 6 7 7 5 8 6 9 4 10 82 11 92 12
REMARK SMILES IDX 83 13 84 14 3 15 2 18 1 19 85 20 86 21 87 22 88 23 91 24
REMARK SMILES IDX 89 25 90 26 14 27 15 28 16 29 17 30 18 31 19 32 20 33 21 34
REMARK SMILES IDX 22 35 23 36 81 37 24 38 80 39 25 40 26 41 27 42 74 43 28 44
REMARK SMILES IDX 79 45 73 46 75 47 29 48 78 49 72 50 71 51 30 53 60 54 41 55
REMARK SMILES IDX 59 56 42 57 45 58 58 59 76 60 43 61 44 62 57 64 77 65 46 66
REMARK SMILES IDX 31 67 32 68 40 69 33 70 39 71 34 72 35 73 36 74 37 75 38 76
REMARK SMILES IDX 61 77 62 78 70 79 63 80 69 81 64 82 65 83 66 84 67 85 68 86
REMARK SMILES IDX 47 87 48 88 56 89 49 90 55 91 50 92 51 93 52 94 53 95 54 96
REMARK H PARENT 3 16 3 17 75 52 45 63
REMARK Flexibility Score: inf
ROOT
ATOM      1  O   UNL     1       3.055  -1.192   5.772  1.00  0.00    -0.377 OA
ENDROOT
BRANCH   1   2
ATOM      2  C   UNL     1       3.493  -0.660   4.542  1.00  0.00     0.188 C 
BRANCH   2   3
ATOM      3  C   UNL     1       3.860   0.829   4.537  1.00  0.00     0.188 C 
BRANCH   3   4
ATOM      4  O   UNL     1       4.111   1.543   5.729  1.00  0.00    -0.376 OA
BRANCH   4   5
ATOM      5  C   UNL     1       3.256   1.587   6.859  1.00  0.00     0.202 C 
BRANCH   5   6
ATOM      6  C   UNL     1       1.724   1.426   6.877  1.00  0.00     0.261 C 
BRANCH   6   7
ATOM      7  O   UNL     1       1.142   0.458   6.005  1.00  0.00    -0.459 OA
BRANCH   7   8
ATOM      8  C   UNL     1       0.809   0.968   4.803  1.00  0.00     0.368 C 
ATOM      9  O   UNL     1       0.993   2.148   4.496  1.00  0.00    -0.245 OA
BRANCH   8  10
ATOM     10  C   UNL     1       0.108  -0.027   3.829  1.00  0.00     0.195 C 
ATOM     11  C   UNL     1      -1.351   0.281   4.149  1.00  0.00     0.082 C 
ATOM     12  C   UNL     1       0.161  -1.569   4.013  1.00  0.00     0.095 C 
ATOM     13  C   UNL     1      -1.732  -0.699   5.268  1.00  0.00     0.022 C 
ATOM     14  C   UNL     1      -0.899  -1.948   5.044  1.00  0.00     0.053 C 
BRANCH  10  15
ATOM     15  N   UNL     1       0.497   0.449   2.466  1.00  0.00    -0.332 N 
ATOM     16  H   UNL     1      -0.094   1.253   2.255  1.00  0.00     0.347 HD
ATOM     17  H   UNL     1       1.500   0.614   2.552  1.00  0.00     0.347 HD
BRANCH  15  18
ATOM     18  C   UNL     1       0.405  -0.448   1.329  1.00  0.00     0.257 C 
ATOM     19  C   UNL     1       0.954   0.250   0.090  1.00  0.00     0.071 C 
ENDBRANCH  15  18
ENDBRANCH  10  15
BRANCH  14  20
ATOM     20  S   UNL     1      -1.858  -3.498   4.716  1.00  0.00    -0.158 SA
BRANCH  20  21
ATOM     21  C   UNL     1      -2.648  -3.306   3.063  1.00  0.00     0.073 C 
BRANCH  21  22
ATOM     22  C   UNL     1      -3.981  -2.539   3.048  1.00  0.00    -0.001 C 
ATOM     23  C   UNL     1      -3.830  -1.070   2.686  1.00  0.00     0.004 C 
ATOM     24  C   UNL     1      -4.950  -2.996   1.954  1.00  0.00     0.004 C 
ATOM     25  C   UNL     1      -5.126  -0.584   2.076  1.00  0.00     0.000 C 
ATOM     26  C   UNL     1      -5.939  -1.837   1.831  1.00  0.00     0.000 C 
ENDBRANCH  21  22
ENDBRANCH  20  21
ENDBRANCH  14  20
ENDBRANCH   8  10
ENDBRANCH   7   8
ENDBRANCH   6   7
ENDBRANCH   5   6
ENDBRANCH   4   5
ENDBRANCH   3   4
ENDBRANCH   2   3
ENDBRANCH   1   2
BRANCH   1  27
ATOM     27  C   UNL     1       4.026  -1.594   6.729  1.00  0.00     0.188 C 
BRANCH  27  28
ATOM     28  C   UNL     1       5.490  -1.142   6.564  1.00  0.00     0.188 C 
BRANCH  28  29
ATOM     29  O   UNL     1       5.978  -1.176   5.232  1.00  0.00    -0.376 OA
BRANCH  29  30
ATOM     30  C   UNL     1       6.625  -2.345   4.754  1.00  0.00     0.202 C 
BRANCH  30  31
ATOM     31  C   UNL     1       5.869  -3.684   4.797  1.00  0.00     0.261 C 
BRANCH  31  32
ATOM     32  O   UNL     1       5.446  -4.148   6.088  1.00  0.00    -0.460 OA
BRANCH  32  33
ATOM     33  C   UNL     1       6.373  -4.239   7.061  1.00  0.00     0.338 C 
ATOM     34  O   UNL     1       7.577  -4.052   6.948  1.00  0.00    -0.246 OA
BRANCH  33  35
ATOM     35  C   UNL     1       5.674  -4.389   8.352  1.00  0.00     0.060 A 
ATOM     36  C   UNL     1       5.915  -3.447   9.360  1.00  0.00     0.016 A 
ATOM     37  C   UNL     1       4.812  -5.465   8.578  1.00  0.00     0.016 A 
ATOM     38  C   UNL     1       5.350  -3.615  10.620  1.00  0.00     0.010 A 
ATOM     39  C   UNL     1       4.266  -5.647   9.851  1.00  0.00     0.010 A 
ATOM     40  C   UNL     1       4.578  -4.752  10.890  1.00  0.00    -0.014 A 
BRANCH  40  41
ATOM     41  C   UNL     1       4.328  -5.118  12.304  1.00  0.00     0.031 A 
ATOM     42  C   UNL     1       5.244  -6.129  12.946  1.00  0.00     0.074 A 
ATOM     43  C   UNL     1       3.368  -4.515  13.027  1.00  0.00     0.049 A 
ATOM     44  N   UNL     1       5.248  -6.584  14.171  1.00  0.00    -0.248 NA
ATOM     45  C   UNL     1       6.298  -6.699  12.089  1.00  0.00     0.031 C 
ATOM     46  C   UNL     1       2.458  -3.482  12.533  1.00  0.00     0.029 A 
ATOM     47  N   UNL     1       3.008  -4.683  14.340  1.00  0.00    -0.354 N 
ATOM     48  C   UNL     1       6.295  -7.498  14.229  1.00  0.00     0.074 A 
ATOM     49  C   UNL     1       6.880  -7.560  12.909  1.00  0.00     0.031 C 
ATOM     50  C   UNL     1       1.642  -3.108  13.535  1.00  0.00     0.029 A 
ATOM     51  C   UNL     1       1.952  -3.896  14.728  1.00  0.00     0.049 A 
ATOM     52  H   UNL     1       3.465  -5.310  14.947  1.00  0.00     0.167 HD
ATOM     53  C   UNL     1       6.738  -8.215  15.288  1.00  0.00     0.031 A 
ATOM     54  C   UNL     1       1.300  -3.830  15.906  1.00  0.00     0.031 A 
ATOM     55  C   UNL     1       6.145  -8.161  16.598  1.00  0.00     0.049 A 
ATOM     56  C   UNL     1       1.763  -4.696  17.051  1.00  0.00     0.074 A 
ATOM     57  C   UNL     1       6.524  -8.840  17.742  1.00  0.00     0.029 A 
ATOM     58  N   UNL     1       5.043  -7.389  16.936  1.00  0.00    -0.354 N 
ATOM     59  N   UNL     1       2.769  -5.538  17.098  1.00  0.00    -0.248 NA
ATOM     60  C   UNL     1       1.008  -4.590  18.308  1.00  0.00     0.031 C 
ATOM     61  C   UNL     1       5.610  -8.531  18.754  1.00  0.00     0.029 A 
ATOM     62  C   UNL     1       4.709  -7.600  18.263  1.00  0.00     0.049 A 
ATOM     63  H   UNL     1       4.569  -6.782  16.323  1.00  0.00     0.167 HD
ATOM     64  C   UNL     1       2.785  -6.039  18.397  1.00  0.00     0.074 A 
ATOM     65  C   UNL     1       1.703  -5.389  19.106  1.00  0.00     0.031 C 
ATOM     66  C   UNL     1       3.622  -6.951  18.954  1.00  0.00     0.031 A 
BRANCH  53  67
ATOM     67  C   UNL     1       7.895  -9.154  15.059  1.00  0.00    -0.014 A 
ATOM     68  C   UNL     1       9.193  -8.673  14.805  1.00  0.00     0.010 A 
ATOM     69  C   UNL     1       7.684 -10.543  15.129  1.00  0.00     0.010 A 
ATOM     70  C   UNL     1      10.248  -9.563  14.588  1.00  0.00     0.020 A 
ATOM     71  C   UNL     1       8.742 -11.436  14.945  1.00  0.00     0.020 A 
ATOM     72  C   UNL     1      10.015 -10.940  14.659  1.00  0.00     0.054 A 
BRANCH  72  73
ATOM     73  S   UNL     1      11.408 -12.072  14.400  1.00  0.00     0.124 S 
ATOM     74  O   UNL     1      11.663 -11.915  12.970  1.00  0.00    -0.237 OA
ATOM     75  O   UNL     1      12.433 -11.523  15.285  1.00  0.00    -0.237 OA
ATOM     76  O   UNL     1      10.878 -13.374  14.798  1.00  0.00    -0.744 OA
ENDBRANCH  72  73
ENDBRANCH  53  67
BRANCH  54  77
ATOM     77  C   UNL     1       0.130  -2.921  16.062  1.00  0.00    -0.014 A 
ATOM     78  C   UNL     1       0.187  -1.808  16.919  1.00  0.00     0.010 A 
ATOM     79  C   UNL     1      -1.060  -3.175  15.354  1.00  0.00     0.010 A 
ATOM     80  C   UNL     1      -0.927  -0.979  17.079  1.00  0.00     0.020 A 
ATOM     81  C   UNL     1      -2.164  -2.330  15.485  1.00  0.00     0.020 A 
ATOM     82  C   UNL     1      -2.095  -1.242  16.357  1.00  0.00     0.054 A 
BRANCH  82  83
ATOM     83  S   UNL     1      -3.509  -0.121  16.541  1.00  0.00     0.124 S 
ATOM     84  O   UNL     1      -3.969  -0.429  17.891  1.00  0.00    -0.237 OA
ATOM     85  O   UNL     1      -2.893   1.192  16.365  1.00  0.00    -0.237 OA
ATOM     86  O   UNL     1      -4.410  -0.526  15.464  1.00  0.00    -0.744 OA
ENDBRANCH  82  83
ENDBRANCH  54  77
BRANCH  66  87
ATOM     87  C   UNL     1       3.426  -7.272  20.415  1.00  0.00    -0.014 A 
ATOM     88  C   UNL     1       2.297  -7.977  20.868  1.00  0.00     0.010 A 
ATOM     89  C   UNL     1       4.412  -6.891  21.345  1.00  0.00     0.010 A 
ATOM     90  C   UNL     1       2.132  -8.248  22.230  1.00  0.00     0.020 A 
ATOM     91  C   UNL     1       4.269  -7.193  22.701  1.00  0.00     0.020 A 
ATOM     92  C   UNL     1       3.118  -7.851  23.138  1.00  0.00     0.054 A 
BRANCH  92  93
ATOM     93  S   UNL     1       2.889  -8.230  24.897  1.00  0.00     0.124 S 
ATOM     94  O   UNL     1       1.829  -7.299  25.272  1.00  0.00    -0.237 OA
ATOM     95  O   UNL     1       2.508  -9.640  24.873  1.00  0.00    -0.237 OA
ATOM     96  O   UNL     1       4.197  -7.954  25.485  1.00  0.00    -0.744 OA
ENDBRANCH  92  93
ENDBRANCH  66  87
ENDBRANCH  40  41
ENDBRANCH  33  35
ENDBRANCH  32  33
ENDBRANCH  31  32
ENDBRANCH  30  31
ENDBRANCH  29  30
ENDBRANCH  28  29
ENDBRANCH  27  28
ENDBRANCH   1  27
TORSDOF 28
