REMARK SMILES C[C@H]([NH2+]C1C(C)(C)C1(C)C)[C@H](C)C(=O)OCCOCCOCCOCCOC(=O)c1ccc(-c2c3nc(c(-c4ccc(S(=O)(=O)[O-])cc4)c4ccc([nH]4)c(-c4ccc(S(=O)(=O)[O-])cc4)c4nc(c(-c5ccc(S(=O)(=O)[O-])cc5)c5ccc2[nH]5)C=C4)C=C3)cc1
REMARK SMILES IDX 21 1 20 2 19 3 18 4 17 5 16 6 15 7 13 8 14 9 11 10 12 11
REMARK SMILES IDX 2 12 1 13 3 14 4 17 5 18 8 19 6 20 7 21 9 22 10 23 22 24
REMARK SMILES IDX 23 25 24 26 25 27 26 28 27 29 28 30 29 31 30 32 31 33 89 34
REMARK SMILES IDX 32 35 88 36 33 37 34 38 35 39 82 40 36 41 87 42 81 43 83 44
REMARK SMILES IDX 37 45 86 46 80 47 79 48 38 50 68 51 49 52 67 53 50 54 53 55
REMARK SMILES IDX 66 56 84 57 51 58 52 59 65 61 85 62 54 63 39 64 40 65 48 66
REMARK SMILES IDX 41 67 47 68 42 69 43 70 44 71 45 72 46 73 69 74 70 75 78 76
REMARK SMILES IDX 71 77 77 78 72 79 73 80 74 81 75 82 76 83 55 84 56 85 64 86
REMARK SMILES IDX 57 87 63 88 58 89 59 90 60 91 61 92 62 93
REMARK H PARENT 3 15 3 16 83 49 53 60
REMARK Flexibility Score: inf
ROOT
ATOM      1  O   UNL     1       0.249  -3.367   4.738  1.00  0.00    -0.377 OA
ENDROOT
BRANCH   1   2
ATOM      2  C   UNL     1      -0.369  -2.185   4.222  1.00  0.00     0.188 C 
BRANCH   2   3
ATOM      3  C   UNL     1      -1.849  -1.959   4.553  1.00  0.00     0.188 C 
BRANCH   3   4
ATOM      4  O   UNL     1      -2.713  -3.095   4.501  1.00  0.00    -0.376 OA
BRANCH   4   5
ATOM      5  C   UNL     1      -2.501  -4.052   3.465  1.00  0.00     0.202 C 
BRANCH   5   6
ATOM      6  C   UNL     1      -3.064  -3.635   2.114  1.00  0.00     0.261 C 
BRANCH   6   7
ATOM      7  O   UNL     1      -2.159  -2.761   1.419  1.00  0.00    -0.463 OA
BRANCH   7   8
ATOM      8  C   UNL     1      -2.611  -1.519   1.140  1.00  0.00     0.314 C 
ATOM      9  O   UNL     1      -3.633  -1.019   1.600  1.00  0.00    -0.252 OA
BRANCH   8  10
ATOM     10  C   UNL     1      -1.698  -0.760   0.200  1.00  0.00     0.154 C 
ATOM     11  C   UNL     1      -0.496  -0.196   0.946  1.00  0.00     0.026 C 
BRANCH  10  12
ATOM     12  C   UNL     1      -1.426  -1.459  -1.163  1.00  0.00     0.193 C 
ATOM     13  C   UNL     1      -2.778  -1.867  -1.787  1.00  0.00     0.076 C 
BRANCH  12  14
ATOM     14  N   UNL     1      -0.579  -2.652  -1.282  1.00  0.00    -0.340 N 
ATOM     15  H   UNL     1      -0.396  -2.784  -2.277  1.00  0.00     0.346 HD
ATOM     16  H   UNL     1      -1.121  -3.372  -0.804  1.00  0.00     0.346 HD
BRANCH  14  17
ATOM     17  C   UNL     1       0.715  -2.702  -0.605  1.00  0.00     0.195 C 
ATOM     18  C   UNL     1       1.009  -3.967   0.203  1.00  0.00     0.028 C 
ATOM     19  C   UNL     1       1.868  -3.611  -1.011  1.00  0.00     0.028 C 
ATOM     20  C   UNL     1       1.587  -3.815   1.588  1.00  0.00     0.018 C 
ATOM     21  C   UNL     1       0.093  -5.176   0.104  1.00  0.00     0.018 C 
ATOM     22  C   UNL     1       1.798  -4.476  -2.247  1.00  0.00     0.018 C 
ATOM     23  C   UNL     1       3.278  -3.110  -0.749  1.00  0.00     0.018 C 
ENDBRANCH  14  17
ENDBRANCH  12  14
ENDBRANCH  10  12
ENDBRANCH   8  10
ENDBRANCH   7   8
ENDBRANCH   6   7
ENDBRANCH   5   6
ENDBRANCH   4   5
ENDBRANCH   3   4
ENDBRANCH   2   3
ENDBRANCH   1   2
BRANCH   1  24
ATOM     24  C   UNL     1      -0.100  -3.751   6.060  1.00  0.00     0.188 C 
BRANCH  24  25
ATOM     25  C   UNL     1       0.565  -2.933   7.163  1.00  0.00     0.188 C 
BRANCH  25  26
ATOM     26  O   UNL     1       0.695  -1.560   6.804  1.00  0.00    -0.376 OA
BRANCH  26  27
ATOM     27  C   UNL     1       2.024  -1.067   6.962  1.00  0.00     0.202 C 
BRANCH  27  28
ATOM     28  C   UNL     1       3.035  -1.474   5.871  1.00  0.00     0.261 C 
BRANCH  28  29
ATOM     29  O   UNL     1       3.048  -2.858   5.475  1.00  0.00    -0.460 OA
BRANCH  29  30
ATOM     30  C   UNL     1       3.798  -3.705   6.206  1.00  0.00     0.338 C 
ATOM     31  O   UNL     1       4.374  -3.450   7.257  1.00  0.00    -0.246 OA
BRANCH  30  32
ATOM     32  C   UNL     1       3.834  -5.024   5.542  1.00  0.00     0.060 A 
ATOM     33  C   UNL     1       2.991  -6.055   5.972  1.00  0.00     0.016 A 
ATOM     34  C   UNL     1       4.786  -5.267   4.548  1.00  0.00     0.016 A 
ATOM     35  C   UNL     1       3.113  -7.337   5.418  1.00  0.00     0.010 A 
ATOM     36  C   UNL     1       4.912  -6.551   4.003  1.00  0.00     0.010 A 
ATOM     37  C   UNL     1       4.094  -7.603   4.452  1.00  0.00    -0.014 A 
BRANCH  37  38
ATOM     38  C   UNL     1       4.360  -8.994   3.999  1.00  0.00     0.031 A 
ATOM     39  C   UNL     1       5.458  -9.788   4.659  1.00  0.00     0.074 A 
ATOM     40  C   UNL     1       3.647  -9.549   3.000  1.00  0.00     0.049 A 
ATOM     41  N   UNL     1       5.892 -10.991   4.384  1.00  0.00    -0.248 NA
ATOM     42  C   UNL     1       6.157  -9.136   5.778  1.00  0.00     0.031 C 
ATOM     43  C   UNL     1       2.535  -8.912   2.298  1.00  0.00     0.029 A 
ATOM     44  N   UNL     1       3.767 -10.778   2.396  1.00  0.00    -0.354 N 
ATOM     45  C   UNL     1       6.914 -11.243   5.293  1.00  0.00     0.074 A 
ATOM     46  C   UNL     1       7.049 -10.058   6.113  1.00  0.00     0.031 C 
ATOM     47  C   UNL     1       2.083  -9.749   1.348  1.00  0.00     0.029 A 
ATOM     48  C   UNL     1       2.894 -10.967   1.351  1.00  0.00     0.049 A 
ATOM     49  H   UNL     1       4.417 -11.459   2.684  1.00  0.00     0.167 HD
ATOM     50  C   UNL     1       7.672 -12.358   5.435  1.00  0.00     0.031 A 
ATOM     51  C   UNL     1       2.778 -11.989   0.478  1.00  0.00     0.031 A 
ATOM     52  C   UNL     1       7.564 -13.527   4.603  1.00  0.00     0.049 A 
ATOM     53  C   UNL     1       3.700 -13.177   0.592  1.00  0.00     0.074 A 
ATOM     54  C   UNL     1       8.278 -14.711   4.686  1.00  0.00     0.029 A 
ATOM     55  N   UNL     1       6.703 -13.656   3.525  1.00  0.00    -0.354 N 
ATOM     56  N   UNL     1       4.635 -13.415   1.480  1.00  0.00    -0.248 NA
ATOM     57  C   UNL     1       3.550 -14.235  -0.420  1.00  0.00     0.031 C 
ATOM     58  C   UNL     1       7.890 -15.532   3.621  1.00  0.00     0.029 A 
ATOM     59  C   UNL     1       6.894 -14.882   2.909  1.00  0.00     0.049 A 
ATOM     60  H   UNL     1       6.051 -12.976   3.238  1.00  0.00     0.167 HD
ATOM     61  C   UNL     1       5.174 -14.653   1.143  1.00  0.00     0.074 A 
ATOM     62  C   UNL     1       4.449 -15.124  -0.018  1.00  0.00     0.031 C 
ATOM     63  C   UNL     1       6.179 -15.338   1.744  1.00  0.00     0.031 A 
BRANCH  50  64
ATOM     64  C   UNL     1       8.720 -12.350   6.516  1.00  0.00    -0.014 A 
ATOM     65  C   UNL     1       8.364 -12.454   7.873  1.00  0.00     0.010 A 
ATOM     66  C   UNL     1      10.081 -12.276   6.168  1.00  0.00     0.010 A 
ATOM     67  C   UNL     1       9.350 -12.445   8.864  1.00  0.00     0.020 A 
ATOM     68  C   UNL     1      11.070 -12.291   7.155  1.00  0.00     0.020 A 
ATOM     69  C   UNL     1      10.697 -12.359   8.499  1.00  0.00     0.054 A 
BRANCH  69  70
ATOM     70  S   UNL     1      11.956 -12.364   9.804  1.00  0.00     0.124 S 
ATOM     71  O   UNL     1      11.808 -11.025  10.370  1.00  0.00    -0.237 OA
ATOM     72  O   UNL     1      11.522 -13.460  10.666  1.00  0.00    -0.237 OA
ATOM     73  O   UNL     1      13.204 -12.600   9.082  1.00  0.00    -0.744 OA
ENDBRANCH  69  70
ENDBRANCH  50  64
BRANCH  51  74
ATOM     74  C   UNL     1       1.769 -11.921  -0.614  1.00  0.00    -0.014 A 
ATOM     75  C   UNL     1       0.642 -12.761  -0.605  1.00  0.00     0.010 A 
ATOM     76  C   UNL     1       1.937 -11.014  -1.677  1.00  0.00     0.010 A 
ATOM     77  C   UNL     1      -0.295 -12.701  -1.642  1.00  0.00     0.020 A 
ATOM     78  C   UNL     1       0.991 -10.934  -2.702  1.00  0.00     0.020 A 
ATOM     79  C   UNL     1      -0.116 -11.785  -2.683  1.00  0.00     0.054 A 
BRANCH  79  80
ATOM     80  S   UNL     1      -1.373 -11.681  -3.988  1.00  0.00     0.124 S 
ATOM     81  O   UNL     1      -1.100 -12.884  -4.768  1.00  0.00    -0.237 OA
ATOM     82  O   UNL     1      -2.620 -11.689  -3.227  1.00  0.00    -0.237 OA
ATOM     83  O   UNL     1      -1.068 -10.418  -4.655  1.00  0.00    -0.744 OA
ENDBRANCH  79  80
ENDBRANCH  51  74
BRANCH  63  84
ATOM     84  C   UNL     1       6.556 -16.676   1.164  1.00  0.00    -0.014 A 
ATOM     85  C   UNL     1       7.266 -16.768  -0.046  1.00  0.00     0.010 A 
ATOM     86  C   UNL     1       6.248 -17.855   1.868  1.00  0.00     0.010 A 
ATOM     87  C   UNL     1       7.640 -18.016  -0.554  1.00  0.00     0.020 A 
ATOM     88  C   UNL     1       6.641 -19.103   1.375  1.00  0.00     0.020 A 
ATOM     89  C   UNL     1       7.324 -19.176   0.160  1.00  0.00     0.054 A 
BRANCH  89  90
ATOM     90  S   UNL     1       7.862 -20.781  -0.496  1.00  0.00     0.124 S 
ATOM     91  O   UNL     1       6.925 -20.989  -1.596  1.00  0.00    -0.237 OA
ATOM     92  O   UNL     1       9.245 -20.521  -0.890  1.00  0.00    -0.237 OA
ATOM     93  O   UNL     1       7.704 -21.689   0.637  1.00  0.00    -0.744 OA
ENDBRANCH  89  90
ENDBRANCH  63  84
ENDBRANCH  37  38
ENDBRANCH  30  32
ENDBRANCH  29  30
ENDBRANCH  28  29
ENDBRANCH  27  28
ENDBRANCH  26  27
ENDBRANCH  25  26
ENDBRANCH  24  25
ENDBRANCH   1  24
TORSDOF 26
