REMARK SMILES CCn1nc(C(=O)OCCOCCOCCOCCOC(=O)c2ccc(-c3c4nc(c(-c5ccc(S(=O)(=O)[O-])cc5)c5ccc([nH]5)c(-c5ccc(S(=O)(=O)[O-])cc5)c5nc(c(-c6ccc(S(=O)(=O)[O-])cc6)c6ccc3[nH]6)C=C5)C=C4)cc2)c2c1CC[C@H]([NH2+]Cc1nn(CC)c3ccccc13)C2
REMARK SMILES IDX 13 1 12 2 11 3 10 4 9 5 8 6 6 7 7 8 5 9 3 10 4 11 84 12
REMARK SMILES IDX 83 13 85 14 101 15 86 16 87 17 2 18 1 19 88 20 89 23 90 24
REMARK SMILES IDX 91 25 100 26 92 27 95 28 99 29 96 30 98 31 97 32 93 33 94 34
REMARK SMILES IDX 14 35 15 36 16 37 17 38 18 39 19 40 20 41 21 42 22 43 23 44
REMARK SMILES IDX 24 45 82 46 25 47 81 48 26 49 27 50 28 51 75 52 29 53 80 54
REMARK SMILES IDX 74 55 76 56 30 57 79 58 73 59 72 60 31 62 61 63 42 64 60 65
REMARK SMILES IDX 43 66 46 67 59 68 77 69 44 70 45 71 58 73 78 74 47 75 32 76
REMARK SMILES IDX 33 77 41 78 34 79 40 80 35 81 36 82 37 83 38 84 39 85 62 86
REMARK SMILES IDX 63 87 71 88 64 89 70 90 65 91 66 92 67 93 68 94 69 95 48 96
REMARK SMILES IDX 49 97 57 98 50 99 56 100 51 101 52 102 53 103 54 104 55 105
REMARK H PARENT 88 21 88 22 76 61 46 72
REMARK Flexibility Score: inf
ROOT
ATOM      1  C   UNL     1      -1.672   5.612  -2.727  1.00  0.00     0.188 C 
ENDROOT
BRANCH   1   2
ATOM      2  C   UNL     1      -1.500   6.771  -1.719  1.00  0.00     0.188 C 
BRANCH   2   3
ATOM      3  O   UNL     1      -1.231   8.018  -2.329  1.00  0.00    -0.376 OA
BRANCH   3   4
ATOM      4  C   UNL     1       0.115   8.432  -2.406  1.00  0.00     0.202 C 
BRANCH   4   5
ATOM      5  C   UNL     1       1.102   7.442  -2.989  1.00  0.00     0.261 C 
BRANCH   5   6
ATOM      6  O   UNL     1       1.109   6.097  -2.500  1.00  0.00    -0.458 OA
BRANCH   6   7
ATOM      7  C   UNL     1       1.511   5.555  -1.318  1.00  0.00     0.359 C 
ATOM      8  O   UNL     1       1.949   6.173  -0.366  1.00  0.00    -0.244 OA
BRANCH   7   9
ATOM      9  C   UNL     1       1.318   4.086  -1.373  1.00  0.00     0.174 A 
ATOM     10  N   UNL     1       1.033   2.018  -0.869  1.00  0.00    -0.269 N 
ATOM     11  N   UNL     1       1.027   3.282  -0.343  1.00  0.00    -0.165 NA
ATOM     12  C   UNL     1       1.423   2.000  -2.186  1.00  0.00     0.043 A 
ATOM     13  C   UNL     1       1.449   3.317  -2.547  1.00  0.00     0.014 A 
ATOM     14  C   UNL     1       1.850   0.915  -3.118  1.00  0.00     0.062 C 
ATOM     15  C   UNL     1       1.859   3.839  -3.843  1.00  0.00     0.105 C 
ATOM     16  C   UNL     1       2.799   1.505  -4.235  1.00  0.00     0.072 C 
ATOM     17  C   UNL     1       2.334   2.853  -4.885  1.00  0.00     0.187 C 
BRANCH  10  18
ATOM     18  C   UNL     1       0.567   0.977   0.024  1.00  0.00     0.141 C 
ATOM     19  C   UNL     1       1.067  -0.432  -0.204  1.00  0.00     0.029 C 
ENDBRANCH  10  18
BRANCH  17  20
ATOM     20  N   UNL     1       3.400   3.537  -5.687  1.00  0.00    -0.338 N 
ATOM     21  H   UNL     1       3.575   2.978  -6.522  1.00  0.00     0.346 HD
ATOM     22  H   UNL     1       4.211   3.616  -5.074  1.00  0.00     0.346 HD
BRANCH  20  23
ATOM     23  C   UNL     1       3.070   4.934  -6.124  1.00  0.00     0.320 C 
BRANCH  23  24
ATOM     24  C   UNL     1       3.559   6.118  -5.239  1.00  0.00     0.124 A 
ATOM     25  N   UNL     1       4.231   6.005  -4.066  1.00  0.00    -0.171 NA
ATOM     26  C   UNL     1       3.304   7.502  -5.525  1.00  0.00     0.029 A 
ATOM     27  N   UNL     1       4.326   7.286  -3.589  1.00  0.00    -0.265 N 
ATOM     28  C   UNL     1       3.964   8.224  -4.529  1.00  0.00     0.069 A 
ATOM     29  C   UNL     1       2.557   8.214  -6.485  1.00  0.00     0.012 A 
ATOM     30  C   UNL     1       4.039   9.622  -4.525  1.00  0.00     0.028 A 
ATOM     31  C   UNL     1       2.493   9.612  -6.395  1.00  0.00     0.001 A 
ATOM     32  C   UNL     1       3.253  10.303  -5.454  1.00  0.00     0.002 A 
BRANCH  27  33
ATOM     33  C   UNL     1       4.696   7.562  -2.196  1.00  0.00     0.141 C 
ATOM     34  C   UNL     1       3.772   8.411  -1.285  1.00  0.00     0.029 C 
ENDBRANCH  27  33
ENDBRANCH  23  24
ENDBRANCH  20  23
ENDBRANCH  17  20
ENDBRANCH   7   9
ENDBRANCH   6   7
ENDBRANCH   5   6
ENDBRANCH   4   5
ENDBRANCH   3   4
ENDBRANCH   2   3
ENDBRANCH   1   2
BRANCH   1  35
ATOM     35  O   UNL     1      -2.321   5.859  -3.963  1.00  0.00    -0.377 OA
BRANCH  35  36
ATOM     36  C   UNL     1      -1.864   6.908  -4.796  1.00  0.00     0.188 C 
BRANCH  36  37
ATOM     37  C   UNL     1      -2.632   8.248  -4.720  1.00  0.00     0.188 C 
BRANCH  37  38
ATOM     38  O   UNL     1      -3.839   8.428  -3.981  1.00  0.00    -0.376 OA
BRANCH  38  39
ATOM     39  C   UNL     1      -4.485   7.362  -3.306  1.00  0.00     0.202 C 
BRANCH  39  40
ATOM     40  C   UNL     1      -5.175   6.260  -4.111  1.00  0.00     0.261 C 
BRANCH  40  41
ATOM     41  O   UNL     1      -4.548   5.957  -5.339  1.00  0.00    -0.460 OA
BRANCH  41  42
ATOM     42  C   UNL     1      -4.734   6.885  -6.291  1.00  0.00     0.338 C 
ATOM     43  O   UNL     1      -5.391   7.915  -6.211  1.00  0.00    -0.246 OA
BRANCH  42  44
ATOM     44  C   UNL     1      -4.111   6.402  -7.527  1.00  0.00     0.060 A 
ATOM     45  C   UNL     1      -4.437   7.161  -8.643  1.00  0.00     0.016 A 
ATOM     46  C   UNL     1      -3.737   5.049  -7.608  1.00  0.00     0.016 A 
ATOM     47  C   UNL     1      -4.833   6.464  -9.748  1.00  0.00     0.010 A 
ATOM     48  C   UNL     1      -4.117   4.355  -8.725  1.00  0.00     0.010 A 
ATOM     49  C   UNL     1      -4.789   5.060  -9.712  1.00  0.00    -0.014 A 
BRANCH  49  50
ATOM     50  C   UNL     1      -5.377   4.357 -10.822  1.00  0.00     0.031 A 
ATOM     51  C   UNL     1      -4.577   4.564 -12.035  1.00  0.00     0.074 A 
ATOM     52  C   UNL     1      -6.511   3.639 -10.755  1.00  0.00     0.049 A 
ATOM     53  N   UNL     1      -4.814   5.446 -12.944  1.00  0.00    -0.248 NA
ATOM     54  C   UNL     1      -3.241   3.955 -12.102  1.00  0.00     0.031 C 
ATOM     55  C   UNL     1      -7.280   3.208  -9.586  1.00  0.00     0.029 A 
ATOM     56  N   UNL     1      -7.191   3.078 -11.785  1.00  0.00    -0.354 N 
ATOM     57  C   UNL     1      -3.771   5.327 -13.842  1.00  0.00     0.074 A 
ATOM     58  C   UNL     1      -2.739   4.576 -13.170  1.00  0.00     0.031 C 
ATOM     59  C   UNL     1      -8.173   2.258  -9.966  1.00  0.00     0.029 A 
ATOM     60  C   UNL     1      -8.143   2.137 -11.416  1.00  0.00     0.049 A 
ATOM     61  H   UNL     1      -7.022   3.319 -12.725  1.00  0.00     0.167 HD
ATOM     62  C   UNL     1      -3.967   5.600 -15.158  1.00  0.00     0.031 A 
ATOM     63  C   UNL     1      -8.813   1.308 -12.259  1.00  0.00     0.031 A 
ATOM     64  C   UNL     1      -5.203   6.311 -15.374  1.00  0.00     0.049 A 
ATOM     65  C   UNL     1      -8.780   1.948 -13.600  1.00  0.00     0.074 A 
ATOM     66  C   UNL     1      -5.697   7.542 -14.993  1.00  0.00     0.029 A 
ATOM     67  N   UNL     1      -6.293   5.544 -15.720  1.00  0.00    -0.354 N 
ATOM     68  N   UNL     1      -9.396   3.066 -13.865  1.00  0.00    -0.248 NA
ATOM     69  C   UNL     1      -7.681   1.618 -14.496  1.00  0.00     0.031 C 
ATOM     70  C   UNL     1      -7.079   7.323 -14.722  1.00  0.00     0.029 A 
ATOM     71  C   UNL     1      -7.383   5.991 -15.017  1.00  0.00     0.049 A 
ATOM     72  H   UNL     1      -6.291   4.800 -16.364  1.00  0.00     0.167 HD
ATOM     73  C   UNL     1      -8.504   3.788 -14.647  1.00  0.00     0.074 A 
ATOM     74  C   UNL     1      -7.510   2.807 -15.084  1.00  0.00     0.031 C 
ATOM     75  C   UNL     1      -8.502   5.154 -14.630  1.00  0.00     0.031 A 
BRANCH  62  76
ATOM     76  C   UNL     1      -3.286   4.823 -16.245  1.00  0.00    -0.014 A 
ATOM     77  C   UNL     1      -3.476   5.224 -17.578  1.00  0.00     0.010 A 
ATOM     78  C   UNL     1      -2.695   3.560 -16.025  1.00  0.00     0.010 A 
ATOM     79  C   UNL     1      -3.130   4.380 -18.639  1.00  0.00     0.020 A 
ATOM     80  C   UNL     1      -2.308   2.730 -17.073  1.00  0.00     0.020 A 
ATOM     81  C   UNL     1      -2.553   3.136 -18.376  1.00  0.00     0.054 A 
BRANCH  81  82
ATOM     82  S   UNL     1      -2.169   2.032 -19.752  1.00  0.00     0.124 S 
ATOM     83  O   UNL     1      -3.496   1.736 -20.280  1.00  0.00    -0.237 OA
ATOM     84  O   UNL     1      -1.323   2.875 -20.592  1.00  0.00    -0.237 OA
ATOM     85  O   UNL     1      -1.483   0.912 -19.111  1.00  0.00    -0.744 OA
ENDBRANCH  81  82
ENDBRANCH  62  76
BRANCH  63  86
ATOM     86  C   UNL     1      -9.121  -0.136 -12.078  1.00  0.00    -0.014 A 
ATOM     87  C   UNL     1      -9.962  -0.818 -12.981  1.00  0.00     0.010 A 
ATOM     88  C   UNL     1      -8.341  -0.915 -11.200  1.00  0.00     0.010 A 
ATOM     89  C   UNL     1      -9.968  -2.224 -13.051  1.00  0.00     0.020 A 
ATOM     90  C   UNL     1      -8.344  -2.316 -11.263  1.00  0.00     0.020 A 
ATOM     91  C   UNL     1      -9.139  -2.965 -12.206  1.00  0.00     0.054 A 
BRANCH  91  92
ATOM     92  S   UNL     1      -9.005  -4.766 -12.428  1.00  0.00     0.124 S 
ATOM     93  O   UNL     1     -10.304  -5.237 -11.958  1.00  0.00    -0.237 OA
ATOM     94  O   UNL     1      -8.769  -4.894 -13.864  1.00  0.00    -0.237 OA
ATOM     95  O   UNL     1      -7.870  -5.134 -11.583  1.00  0.00    -0.744 OA
ENDBRANCH  91  92
ENDBRANCH  63  86
BRANCH  75  96
ATOM     96  C   UNL     1      -9.682   5.859 -13.996  1.00  0.00    -0.014 A 
ATOM     97  C   UNL     1     -10.042   5.752 -12.637  1.00  0.00     0.010 A 
ATOM     98  C   UNL     1     -10.379   6.777 -14.801  1.00  0.00     0.010 A 
ATOM     99  C   UNL     1     -11.094   6.524 -12.111  1.00  0.00     0.020 A 
ATOM    100  C   UNL     1     -11.411   7.559 -14.281  1.00  0.00     0.020 A 
ATOM    101  C   UNL     1     -11.774   7.421 -12.941  1.00  0.00     0.054 A 
BRANCH 101 102
ATOM    102  S   UNL     1     -13.119   8.435 -12.264  1.00  0.00     0.124 S 
ATOM    103  O   UNL     1     -14.154   7.445 -11.983  1.00  0.00    -0.237 OA
ATOM    104  O   UNL     1     -12.503   9.053 -11.092  1.00  0.00    -0.237 OA
ATOM    105  O   UNL     1     -13.434   9.365 -13.348  1.00  0.00    -0.744 OA
ENDBRANCH 101 102
ENDBRANCH  75  96
ENDBRANCH  49  50
ENDBRANCH  42  44
ENDBRANCH  41  42
ENDBRANCH  40  41
ENDBRANCH  39  40
ENDBRANCH  38  39
ENDBRANCH  37  38
ENDBRANCH  36  37
ENDBRANCH  35  36
ENDBRANCH   1  35
TORSDOF 28
