REMARK SMILES CC(C)C[N@@H+](C1CC1)[C@@H](C)c1ccc(C(=O)OCCOCCOCCOCCOC(=O)c2ccc(-c3c4nc(c(-c5ccc(S(=O)(=O)[O-])cc5)c5ccc([nH]5)c(-c5ccc(S(=O)(=O)[O-])cc5)c5nc(c(-c6ccc(S(=O)(=O)[O-])cc6)c6ccc3[nH]6)C=C5)C=C4)cc2)o1
REMARK SMILES IDX 22 1 21 2 20 3 19 4 18 5 17 6 15 7 16 8 14 9 11 10 12 11
REMARK SMILES IDX 92 12 13 13 9 14 10 15 5 16 4 18 2 19 1 20 3 21 6 22 7 23
REMARK SMILES IDX 8 24 23 25 24 26 25 27 26 28 27 29 28 30 29 31 30 32 31 33
REMARK SMILES IDX 32 34 33 35 91 36 34 37 90 38 35 39 36 40 37 41 84 42 38 43
REMARK SMILES IDX 89 44 83 45 85 46 39 47 88 48 82 49 81 50 40 52 70 53 51 54
REMARK SMILES IDX 69 55 52 56 55 57 68 58 86 59 53 60 54 61 67 63 87 64 56 65
REMARK SMILES IDX 41 66 42 67 50 68 43 69 49 70 44 71 45 72 46 73 47 74 48 75
REMARK SMILES IDX 71 76 72 77 80 78 73 79 79 80 74 81 75 82 76 83 77 84 78 85
REMARK SMILES IDX 57 86 58 87 66 88 59 89 65 90 60 91 61 92 62 93 63 94 64 95
REMARK H PARENT 5 17 85 51 55 62
REMARK Flexibility Score: inf
ROOT
ATOM      1  C   UNL     1       3.806  -2.779   1.285  1.00  0.00     0.188 C 
ENDROOT
BRANCH   1   2
ATOM      2  C   UNL     1       3.811  -4.233   0.786  1.00  0.00     0.188 C 
BRANCH   2   3
ATOM      3  O   UNL     1       5.118  -4.665   0.406  1.00  0.00    -0.376 OA
BRANCH   3   4
ATOM      4  C   UNL     1       5.358  -4.864  -0.978  1.00  0.00     0.202 C 
BRANCH   4   5
ATOM      5  C   UNL     1       5.656  -3.568  -1.740  1.00  0.00     0.261 C 
BRANCH   5   6
ATOM      6  O   UNL     1       4.584  -2.614  -1.806  1.00  0.00    -0.457 OA
BRANCH   6   7
ATOM      7  C   UNL     1       3.376  -3.012  -2.285  1.00  0.00     0.374 C 
ATOM      8  O   UNL     1       3.124  -4.130  -2.719  1.00  0.00    -0.242 OA
BRANCH   7   9
ATOM      9  C   UNL     1       2.442  -1.927  -2.122  1.00  0.00     0.212 A 
ATOM     10  C   UNL     1       0.504  -0.998  -1.606  1.00  0.00     0.162 A 
ATOM     11  C   UNL     1       1.351   0.026  -1.986  1.00  0.00     0.053 A 
ATOM     12  O   UNL     1       1.158  -2.197  -1.723  1.00  0.00    -0.448 OA
ATOM     13  C   UNL     1       2.603  -0.562  -2.265  1.00  0.00     0.059 A 
BRANCH  10  14
ATOM     14  C   UNL     1      -0.955  -1.041  -1.213  1.00  0.00     0.248 C 
ATOM     15  C   UNL     1      -1.751  -0.191  -2.217  1.00  0.00     0.084 C 
BRANCH  14  16
ATOM     16  N   UNL     1      -1.204  -0.731   0.216  1.00  0.00    -0.324 N 
ATOM     17  H   UNL     1      -0.477  -1.333   0.602  1.00  0.00     0.348 HD
BRANCH  16  18
ATOM     18  C   UNL     1      -0.866   0.623   0.692  1.00  0.00     0.265 C 
BRANCH  18  19
ATOM     19  C   UNL     1       0.224   0.674   1.795  1.00  0.00     0.038 C 
ATOM     20  C   UNL     1       1.630   0.410   1.261  1.00  0.00     0.013 C 
ATOM     21  C   UNL     1       0.215   2.056   2.463  1.00  0.00     0.013 C 
ENDBRANCH  18  19
ENDBRANCH  16  18
BRANCH  16  22
ATOM     22  C   UNL     1      -2.480  -1.224   0.809  1.00  0.00     0.185 C 
ATOM     23  C   UNL     1      -3.786  -0.526   0.489  1.00  0.00     0.071 C 
ATOM     24  C   UNL     1      -3.575  -1.947   0.065  1.00  0.00     0.071 C 
ENDBRANCH  16  22
ENDBRANCH  14  16
ENDBRANCH  10  14
ENDBRANCH   7   9
ENDBRANCH   6   7
ENDBRANCH   5   6
ENDBRANCH   4   5
ENDBRANCH   3   4
ENDBRANCH   2   3
ENDBRANCH   1   2
BRANCH   1  25
ATOM     25  O   UNL     1       4.565  -2.476   2.455  1.00  0.00    -0.377 OA
BRANCH  25  26
ATOM     26  C   UNL     1       5.915  -2.935   2.446  1.00  0.00     0.188 C 
BRANCH  26  27
ATOM     27  C   UNL     1       6.064  -4.320   3.106  1.00  0.00     0.188 C 
BRANCH  27  28
ATOM     28  O   UNL     1       4.822  -4.857   3.558  1.00  0.00    -0.376 OA
BRANCH  28  29
ATOM     29  C   UNL     1       4.508  -4.667   4.933  1.00  0.00     0.202 C 
BRANCH  29  30
ATOM     30  C   UNL     1       4.375  -3.222   5.441  1.00  0.00     0.261 C 
BRANCH  30  31
ATOM     31  O   UNL     1       5.567  -2.420   5.378  1.00  0.00    -0.460 OA
BRANCH  31  32
ATOM     32  C   UNL     1       6.670  -2.867   6.015  1.00  0.00     0.338 C 
ATOM     33  O   UNL     1       6.774  -3.862   6.708  1.00  0.00    -0.246 OA
BRANCH  32  34
ATOM     34  C   UNL     1       7.803  -2.034   5.564  1.00  0.00     0.060 A 
ATOM     35  C   UNL     1       8.913  -2.654   4.975  1.00  0.00     0.016 A 
ATOM     36  C   UNL     1       7.757  -0.644   5.704  1.00  0.00     0.016 A 
ATOM     37  C   UNL     1       9.997  -1.883   4.553  1.00  0.00     0.010 A 
ATOM     38  C   UNL     1       8.850   0.123   5.300  1.00  0.00     0.010 A 
ATOM     39  C   UNL     1       9.986  -0.496   4.753  1.00  0.00    -0.014 A 
BRANCH  39  40
ATOM     40  C   UNL     1      11.235   0.284   4.587  1.00  0.00     0.031 A 
ATOM     41  C   UNL     1      12.097   0.503   5.800  1.00  0.00     0.074 A 
ATOM     42  C   UNL     1      11.597   0.790   3.396  1.00  0.00     0.049 A 
ATOM     43  N   UNL     1      13.215   1.170   5.913  1.00  0.00    -0.248 NA
ATOM     44  C   UNL     1      11.630  -0.113   7.054  1.00  0.00     0.031 C 
ATOM     45  C   UNL     1      10.864   0.619   2.143  1.00  0.00     0.029 A 
ATOM     46  N   UNL     1      12.679   1.562   3.052  1.00  0.00    -0.354 N 
ATOM     47  C   UNL     1      13.586   1.055   7.248  1.00  0.00     0.074 A 
ATOM     48  C   UNL     1      12.559   0.281   7.911  1.00  0.00     0.031 C 
ATOM     49  C   UNL     1      11.517   1.274   1.165  1.00  0.00     0.029 A 
ATOM     50  C   UNL     1      12.694   1.933   1.730  1.00  0.00     0.049 A 
ATOM     51  H   UNL     1      13.378   1.825   3.694  1.00  0.00     0.167 HD
ATOM     52  C   UNL     1      14.684   1.547   7.869  1.00  0.00     0.031 A 
ATOM     53  C   UNL     1      13.552   2.727   1.058  1.00  0.00     0.031 A 
ATOM     54  C   UNL     1      15.686   2.344   7.218  1.00  0.00     0.049 A 
ATOM     55  C   UNL     1      14.726   3.330   1.785  1.00  0.00     0.074 A 
ATOM     56  C   UNL     1      16.841   2.884   7.756  1.00  0.00     0.029 A 
ATOM     57  N   UNL     1      15.646   2.729   5.886  1.00  0.00    -0.354 N 
ATOM     58  N   UNL     1      15.082   3.186   3.040  1.00  0.00    -0.248 NA
ATOM     59  C   UNL     1      15.617   4.199   1.003  1.00  0.00     0.031 C 
ATOM     60  C   UNL     1      17.471   3.640   6.762  1.00  0.00     0.029 A 
ATOM     61  C   UNL     1      16.739   3.524   5.590  1.00  0.00     0.049 A 
ATOM     62  H   UNL     1      14.942   2.475   5.246  1.00  0.00     0.167 HD
ATOM     63  C   UNL     1      16.252   3.925   3.191  1.00  0.00     0.074 A 
ATOM     64  C   UNL     1      16.548   4.507   1.898  1.00  0.00     0.031 C 
ATOM     65  C   UNL     1      17.016   4.101   4.298  1.00  0.00     0.031 A 
BRANCH  52  66
ATOM     66  C   UNL     1      14.821   1.265   9.340  1.00  0.00    -0.014 A 
ATOM     67  C   UNL     1      15.126  -0.027   9.807  1.00  0.00     0.010 A 
ATOM     68  C   UNL     1      14.637   2.305  10.268  1.00  0.00     0.010 A 
ATOM     69  C   UNL     1      15.195  -0.283  11.179  1.00  0.00     0.020 A 
ATOM     70  C   UNL     1      14.731   2.058  11.640  1.00  0.00     0.020 A 
ATOM     71  C   UNL     1      14.989   0.760  12.087  1.00  0.00     0.054 A 
BRANCH  71  72
ATOM     72  S   UNL     1      15.080   0.402  13.862  1.00  0.00     0.124 S 
ATOM     73  O   UNL     1      13.818  -0.297  14.092  1.00  0.00    -0.237 OA
ATOM     74  O   UNL     1      16.281  -0.423  13.963  1.00  0.00    -0.237 OA
ATOM     75  O   UNL     1      15.182   1.722  14.477  1.00  0.00    -0.744 OA
ENDBRANCH  71  72
ENDBRANCH  52  66
BRANCH  53  76
ATOM     76  C   UNL     1      13.329   3.004  -0.388  1.00  0.00    -0.014 A 
ATOM     77  C   UNL     1      14.175   2.448  -1.363  1.00  0.00     0.010 A 
ATOM     78  C   UNL     1      12.257   3.819  -0.796  1.00  0.00     0.010 A 
ATOM     79  C   UNL     1      13.955   2.704  -2.720  1.00  0.00     0.020 A 
ATOM     80  C   UNL     1      12.020   4.058  -2.153  1.00  0.00     0.020 A 
ATOM     81  C   UNL     1      12.876   3.504  -3.107  1.00  0.00     0.054 A 
BRANCH  81  82
ATOM     82  S   UNL     1      12.565   3.762  -4.877  1.00  0.00     0.124 S 
ATOM     83  O   UNL     1      13.622   4.700  -5.238  1.00  0.00    -0.237 OA
ATOM     84  O   UNL     1      12.701   2.413  -5.421  1.00  0.00    -0.237 OA
ATOM     85  O   UNL     1      11.208   4.302  -4.909  1.00  0.00    -0.744 OA
ENDBRANCH  81  82
ENDBRANCH  53  76
BRANCH  65  86
ATOM     86  C   UNL     1      18.263   4.933   4.160  1.00  0.00    -0.014 A 
ATOM     87  C   UNL     1      18.197   6.332   4.036  1.00  0.00     0.010 A 
ATOM     88  C   UNL     1      19.523   4.308   4.220  1.00  0.00     0.010 A 
ATOM     89  C   UNL     1      19.369   7.088   3.947  1.00  0.00     0.020 A 
ATOM     90  C   UNL     1      20.696   5.064   4.158  1.00  0.00     0.020 A 
ATOM     91  C   UNL     1      20.611   6.449   4.008  1.00  0.00     0.054 A 
BRANCH  91  92
ATOM     92  S   UNL     1      22.118   7.457   3.938  1.00  0.00     0.124 S 
ATOM     93  O   UNL     1      22.182   7.810   2.523  1.00  0.00    -0.237 OA
ATOM     94  O   UNL     1      21.812   8.559   4.848  1.00  0.00    -0.237 OA
ATOM     95  O   UNL     1      23.164   6.548   4.402  1.00  0.00    -0.744 OA
ENDBRANCH  91  92
ENDBRANCH  65  86
ENDBRANCH  39  40
ENDBRANCH  32  34
ENDBRANCH  31  32
ENDBRANCH  30  31
ENDBRANCH  29  30
ENDBRANCH  28  29
ENDBRANCH  27  28
ENDBRANCH  26  27
ENDBRANCH  25  26
ENDBRANCH   1  25
TORSDOF 28
