REMARK SMILES C[C@H](C(=O)OCCOCCOCCOCCOC(=O)c1ccc(-c2c3nc(c(-c4ccc(S(=O)(=O)[O-])cc4)c4ccc([nH]4)c(-c4ccc(S(=O)(=O)[O-])cc4)c4nc(c(-c5ccc(S(=O)(=O)[O-])cc5)c5ccc2[nH]5)C=C4)C=C3)cc1)c1ccc2c3cc(Cl)ccc3n(C(=O)c3cocn3)c2c1
REMARK SMILES IDX 11 1 10 2 9 3 8 4 7 5 6 6 5 7 3 8 4 9 2 10 1 11 80 12 81 13
REMARK SMILES IDX 100 14 82 15 99 16 83 17 91 18 84 19 90 20 85 21 89 22 86 23
REMARK SMILES IDX 88 24 87 25 92 26 93 27 94 28 95 29 98 30 96 31 97 32 12 33
REMARK SMILES IDX 13 34 14 35 15 36 16 37 17 38 18 39 19 40 20 41 21 42 79 43
REMARK SMILES IDX 22 44 78 45 23 46 24 47 25 48 72 49 26 50 77 51 71 52 73 53
REMARK SMILES IDX 27 54 76 55 70 56 69 57 28 59 58 60 39 61 57 62 40 63 43 64
REMARK SMILES IDX 56 65 74 66 41 67 42 68 55 70 75 71 44 72 29 73 30 74 38 75
REMARK SMILES IDX 31 76 37 77 32 78 33 79 34 80 35 81 36 82 59 83 60 84 68 85
REMARK SMILES IDX 61 86 67 87 62 88 63 89 64 90 65 91 66 92 45 93 46 94 54 95
REMARK SMILES IDX 47 96 53 97 48 98 49 99 50 100 51 101 52 102
REMARK H PARENT 73 58 43 69
REMARK Flexibility Score: inf
ROOT
ATOM      1  O   UNL     1      -0.843  -1.341  -1.607  1.00  0.00    -0.377 OA
ENDROOT
BRANCH   1   2
ATOM      2  C   UNL     1      -0.831   0.053  -1.396  1.00  0.00     0.188 C 
BRANCH   2   3
ATOM      3  C   UNL     1       0.375   0.811  -1.971  1.00  0.00     0.188 C 
BRANCH   3   4
ATOM      4  O   UNL     1       1.415   0.122  -2.653  1.00  0.00    -0.376 OA
BRANCH   4   5
ATOM      5  C   UNL     1       1.712  -1.224  -2.311  1.00  0.00     0.202 C 
BRANCH   5   6
ATOM      6  C   UNL     1       2.020  -1.607  -0.846  1.00  0.00     0.261 C 
BRANCH   6   7
ATOM      7  O   UNL     1       1.232  -0.967   0.186  1.00  0.00    -0.463 OA
BRANCH   7   8
ATOM      8  C   UNL     1       1.858  -0.022   0.925  1.00  0.00     0.313 C 
ATOM      9  O   UNL     1       3.049   0.250   0.770  1.00  0.00    -0.252 OA
BRANCH   8  10
ATOM     10  C   UNL     1       1.008   0.681   2.009  1.00  0.00     0.126 C 
ATOM     11  C   UNL     1       1.610   2.097   2.128  1.00  0.00     0.025 C 
BRANCH  10  12
ATOM     12  C   UNL     1      -0.532   0.734   1.885  1.00  0.00    -0.032 A 
ATOM     13  C   UNL     1      -1.224   1.915   1.574  1.00  0.00     0.005 A 
ATOM     14  C   UNL     1      -1.302  -0.437   2.071  1.00  0.00     0.032 A 
ATOM     15  C   UNL     1      -2.610   1.932   1.372  1.00  0.00     0.011 A 
ATOM     16  C   UNL     1      -2.718  -0.428   1.869  1.00  0.00     0.058 A 
ATOM     17  C   UNL     1      -3.362   0.748   1.496  1.00  0.00     0.008 A 
ATOM     18  N   UNL     1      -3.694  -1.460   1.924  1.00  0.00    -0.274 N 
ATOM     19  C   UNL     1      -4.744   0.466   1.340  1.00  0.00     0.009 A 
ATOM     20  C   UNL     1      -4.961  -0.851   1.768  1.00  0.00     0.057 A 
ATOM     21  C   UNL     1      -5.834   1.272   0.936  1.00  0.00     0.031 A 
ATOM     22  C   UNL     1      -6.287  -1.293   1.974  1.00  0.00     0.029 A 
ATOM     23  C   UNL     1      -7.131   0.784   1.044  1.00  0.00     0.041 A 
ATOM     24  C   UNL     1      -7.359  -0.468   1.592  1.00  0.00     0.023 A 
ATOM     25  Cl  UNL     1      -8.452   1.767   0.542  1.00  0.00    -0.084 Cl
BRANCH  18  26
ATOM     26  C   UNL     1      -3.364  -2.841   2.119  1.00  0.00     0.284 C 
ATOM     27  O   UNL     1      -2.178  -3.064   2.353  1.00  0.00    -0.266 OA
BRANCH  26  28
ATOM     28  C   UNL     1      -4.244  -4.010   2.057  1.00  0.00     0.167 A 
ATOM     29  C   UNL     1      -5.391  -4.261   1.341  1.00  0.00     0.231 A 
ATOM     30  N   UNL     1      -3.877  -5.193   2.694  1.00  0.00    -0.211 NA
ATOM     31  O   UNL     1      -5.739  -5.572   1.507  1.00  0.00    -0.451 OA
ATOM     32  C   UNL     1      -4.762  -6.076   2.304  1.00  0.00     0.308 A 
ENDBRANCH  26  28
ENDBRANCH  18  26
ENDBRANCH  10  12
ENDBRANCH   8  10
ENDBRANCH   7   8
ENDBRANCH   6   7
ENDBRANCH   5   6
ENDBRANCH   4   5
ENDBRANCH   3   4
ENDBRANCH   2   3
ENDBRANCH   1   2
BRANCH   1  33
ATOM     33  C   UNL     1      -1.718  -1.824  -2.603  1.00  0.00     0.188 C 
BRANCH  33  34
ATOM     34  C   UNL     1      -1.786  -1.009  -3.903  1.00  0.00     0.188 C 
BRANCH  34  35
ATOM     35  O   UNL     1      -2.082   0.370  -3.706  1.00  0.00    -0.376 OA
BRANCH  35  36
ATOM     36  C   UNL     1      -3.433   0.800  -3.795  1.00  0.00     0.202 C 
BRANCH  36  37
ATOM     37  C   UNL     1      -4.430   0.329  -2.719  1.00  0.00     0.261 C 
BRANCH  37  38
ATOM     38  O   UNL     1      -4.625  -1.086  -2.569  1.00  0.00    -0.460 OA
BRANCH  38  39
ATOM     39  C   UNL     1      -4.973  -1.805  -3.657  1.00  0.00     0.338 C 
ATOM     40  O   UNL     1      -5.229  -1.374  -4.768  1.00  0.00    -0.246 OA
BRANCH  39  41
ATOM     41  C   UNL     1      -4.793  -3.236  -3.326  1.00  0.00     0.060 A 
ATOM     42  C   UNL     1      -3.869  -3.998  -4.053  1.00  0.00     0.016 A 
ATOM     43  C   UNL     1      -5.521  -3.821  -2.290  1.00  0.00     0.016 A 
ATOM     44  C   UNL     1      -3.684  -5.351  -3.759  1.00  0.00     0.010 A 
ATOM     45  C   UNL     1      -5.354  -5.182  -2.014  1.00  0.00     0.010 A 
ATOM     46  C   UNL     1      -4.457  -5.962  -2.765  1.00  0.00    -0.014 A 
BRANCH  46  47
ATOM     47  C   UNL     1      -4.504  -7.444  -2.665  1.00  0.00     0.031 A 
ATOM     48  C   UNL     1      -5.683  -8.154  -3.279  1.00  0.00     0.074 A 
ATOM     49  C   UNL     1      -3.528  -8.151  -2.066  1.00  0.00     0.049 A 
ATOM     50  N   UNL     1      -5.978  -9.427  -3.282  1.00  0.00    -0.248 NA
ATOM     51  C   UNL     1      -6.667  -7.307  -3.977  1.00  0.00     0.031 C 
ATOM     52  C   UNL     1      -2.314  -7.593  -1.473  1.00  0.00     0.029 A 
ATOM     53  N   UNL     1      -3.410  -9.505  -1.859  1.00  0.00    -0.354 N 
ATOM     54  C   UNL     1      -7.187  -9.531  -3.961  1.00  0.00     0.074 A 
ATOM     55  C   UNL     1      -7.588  -8.192  -4.326  1.00  0.00     0.031 C 
ATOM     56  C   UNL     1      -1.572  -8.598  -0.972  1.00  0.00     0.029 A 
ATOM     57  C   UNL     1      -2.274  -9.865  -1.172  1.00  0.00     0.049 A 
ATOM     58  H   UNL     1      -4.078 -10.157  -2.173  1.00  0.00     0.167 HD
ATOM     59  C   UNL     1      -7.898 -10.643  -4.263  1.00  0.00     0.031 A 
ATOM     60  C   UNL     1      -1.859 -11.074  -0.740  1.00  0.00     0.031 A 
ATOM     61  C   UNL     1      -7.500 -11.975  -3.900  1.00  0.00     0.049 A 
ATOM     62  C   UNL     1      -2.707 -12.291  -1.026  1.00  0.00     0.074 A 
ATOM     63  C   UNL     1      -8.141 -13.169  -4.180  1.00  0.00     0.029 A 
ATOM     64  N   UNL     1      -6.362 -12.291  -3.173  1.00  0.00    -0.354 N 
ATOM     65  N   UNL     1      -3.834 -12.377  -1.692  1.00  0.00    -0.248 NA
ATOM     66  C   UNL     1      -2.221 -13.578  -0.504  1.00  0.00     0.031 C 
ATOM     67  C   UNL     1      -7.428 -14.201  -3.562  1.00  0.00     0.029 A 
ATOM     68  C   UNL     1      -6.301 -13.659  -2.965  1.00  0.00     0.049 A 
ATOM     69  H   UNL     1      -5.697 -11.640  -2.853  1.00  0.00     0.167 HD
ATOM     70  C   UNL     1      -4.171 -13.728  -1.700  1.00  0.00     0.074 A 
ATOM     71  C   UNL     1      -3.123 -14.424  -0.983  1.00  0.00     0.031 C 
ATOM     72  C   UNL     1      -5.248 -14.339  -2.254  1.00  0.00     0.031 A 
BRANCH  59  73
ATOM     73  C   UNL     1      -9.205 -10.459  -4.990  1.00  0.00    -0.014 A 
ATOM     74  C   UNL     1      -9.247 -10.037  -6.331  1.00  0.00     0.010 A 
ATOM     75  C   UNL     1     -10.411 -10.751  -4.326  1.00  0.00     0.010 A 
ATOM     76  C   UNL     1     -10.473  -9.875  -6.983  1.00  0.00     0.020 A 
ATOM     77  C   UNL     1     -11.636 -10.623  -4.984  1.00  0.00     0.020 A 
ATOM     78  C   UNL     1     -11.660 -10.171  -6.305  1.00  0.00     0.054 A 
BRANCH  78  79
ATOM     79  S   UNL     1     -13.233  -9.983  -7.186  1.00  0.00     0.124 S 
ATOM     80  O   UNL     1     -13.341  -8.530  -7.303  1.00  0.00    -0.237 OA
ATOM     81  O   UNL     1     -12.986 -10.697  -8.435  1.00  0.00    -0.237 OA
ATOM     82  O   UNL     1     -14.208 -10.608  -6.295  1.00  0.00    -0.744 OA
ENDBRANCH  78  79
ENDBRANCH  59  73
BRANCH  60  83
ATOM     83  C   UNL     1      -0.586 -11.205   0.026  1.00  0.00    -0.014 A 
ATOM     84  C   UNL     1       0.509 -11.905  -0.512  1.00  0.00     0.010 A 
ATOM     85  C   UNL     1      -0.469 -10.650   1.314  1.00  0.00     0.010 A 
ATOM     86  C   UNL     1       1.684 -12.067   0.230  1.00  0.00     0.020 A 
ATOM     87  C   UNL     1       0.715 -10.781   2.046  1.00  0.00     0.020 A 
ATOM     88  C   UNL     1       1.780 -11.501   1.504  1.00  0.00     0.054 A 
BRANCH  88  89
ATOM     89  S   UNL     1       3.329 -11.693   2.430  1.00  0.00     0.124 S 
ATOM     90  O   UNL     1       3.306 -13.112   2.770  1.00  0.00    -0.237 OA
ATOM     91  O   UNL     1       4.333 -11.293   1.448  1.00  0.00    -0.237 OA
ATOM     92  O   UNL     1       3.170 -10.777   3.558  1.00  0.00    -0.744 OA
ENDBRANCH  88  89
ENDBRANCH  60  83
BRANCH  72  93
ATOM     93  C   UNL     1      -5.334 -15.842  -2.153  1.00  0.00    -0.014 A 
ATOM     94  C   UNL     1      -5.593 -16.485  -0.930  1.00  0.00     0.010 A 
ATOM     95  C   UNL     1      -5.221 -16.619  -3.322  1.00  0.00     0.010 A 
ATOM     96  C   UNL     1      -5.703 -17.878  -0.872  1.00  0.00     0.020 A 
ATOM     97  C   UNL     1      -5.364 -18.008  -3.275  1.00  0.00     0.020 A 
ATOM     98  C   UNL     1      -5.590 -18.630  -2.046  1.00  0.00     0.054 A 
BRANCH  98  99
ATOM     99  S   UNL     1      -5.784 -20.431  -1.950  1.00  0.00     0.124 S 
ATOM    100  O   UNL     1      -4.554 -20.834  -1.275  1.00  0.00    -0.237 OA
ATOM    101  O   UNL     1      -7.008 -20.579  -1.167  1.00  0.00    -0.237 OA
ATOM    102  O   UNL     1      -5.891 -20.844  -3.348  1.00  0.00    -0.744 OA
ENDBRANCH  98  99
ENDBRANCH  72  93
ENDBRANCH  46  47
ENDBRANCH  39  41
ENDBRANCH  38  39
ENDBRANCH  37  38
ENDBRANCH  36  37
ENDBRANCH  35  36
ENDBRANCH  34  35
ENDBRANCH  33  34
ENDBRANCH   1  33
TORSDOF 26
