REMARK SMILES Cc1ccc(/N=C/c2cc(C)n(-c3ccc(C(=O)OCCOCCOCCOCCOC(=O)c4ccc(-c5c6nc(c(-c7ccc(S(=O)(=O)[O-])cc7)c7ccc([nH]7)c(-c7ccc(S(=O)(=O)[O-])cc7)c7nc(c(-c8ccc(S(=O)(=O)[O-])cc8)c8ccc5[nH]8)C=C7)C=C6)cc4)c(Cl)c3)c2C)cc1
REMARK SMILES IDX 25 1 24 2 23 3 22 4 21 5 20 6 19 7 17 8 18 9 16 10 13 11
REMARK SMILES IDX 14 12 96 13 15 14 94 15 95 16 12 17 8 18 9 19 97 20 10 21
REMARK SMILES IDX 98 22 11 23 7 24 6 25 5 26 1 27 2 28 3 29 100 30 4 31 99 32
REMARK SMILES IDX 26 33 27 34 28 35 29 36 30 37 31 38 32 39 33 40 34 41 35 42
REMARK SMILES IDX 93 43 36 44 92 45 37 46 38 47 39 48 86 49 40 50 91 51 85 52
REMARK SMILES IDX 87 53 41 54 90 55 84 56 83 57 42 59 72 60 53 61 71 62 54 63
REMARK SMILES IDX 57 64 70 65 88 66 55 67 56 68 69 70 89 71 58 72 43 73 44 74
REMARK SMILES IDX 52 75 45 76 51 77 46 78 47 79 48 80 49 81 50 82 73 83 74 84
REMARK SMILES IDX 82 85 75 86 81 87 76 88 77 89 78 90 79 91 80 92 59 93 60 94
REMARK SMILES IDX 68 95 61 96 67 97 62 98 63 99 64 100 65 101 66 102
REMARK H PARENT 87 58 57 69
REMARK Flexibility Score: inf
ROOT
ATOM      1  O   UNL     1     -14.180   2.119  -2.613  1.00  0.00    -0.377 OA
ENDROOT
BRANCH   1   2
ATOM      2  C   UNL     1     -13.102   1.976  -1.710  1.00  0.00     0.188 C 
BRANCH   2   3
ATOM      3  C   UNL     1     -12.555   3.162  -0.897  1.00  0.00     0.188 C 
BRANCH   3   4
ATOM      4  O   UNL     1     -13.381   4.239  -0.463  1.00  0.00    -0.376 OA
BRANCH   4   5
ATOM      5  C   UNL     1     -13.556   5.290  -1.417  1.00  0.00     0.202 C 
BRANCH   5   6
ATOM      6  C   UNL     1     -12.404   6.271  -1.527  1.00  0.00     0.261 C 
BRANCH   6   7
ATOM      7  O   UNL     1     -11.174   5.606  -1.715  1.00  0.00    -0.460 OA
BRANCH   7   8
ATOM      8  C   UNL     1     -10.202   5.923  -0.847  1.00  0.00     0.339 C 
ATOM      9  O   UNL     1     -10.067   6.895  -0.146  1.00  0.00    -0.246 OA
BRANCH   8  10
ATOM     10  C   UNL     1      -9.466   4.667  -0.752  1.00  0.00     0.078 A 
ATOM     11  C   UNL     1      -8.265   2.209  -0.598  1.00  0.00     0.047 A 
ATOM     12  C   UNL     1      -8.451   2.784  -1.858  1.00  0.00     0.027 A 
ATOM     13  C   UNL     1      -8.797   2.786   0.560  1.00  0.00     0.048 A 
ATOM     14  C   UNL     1      -9.020   4.043  -1.932  1.00  0.00     0.019 A 
ATOM     15  C   UNL     1      -9.416   4.020   0.482  1.00  0.00     0.057 A 
ATOM     16  Cl  UNL     1     -10.123   4.639   1.929  1.00  0.00    -0.083 Cl
BRANCH  11  17
ATOM     17  N   UNL     1      -7.228   1.271  -0.408  1.00  0.00    -0.318 N 
ATOM     18  C   UNL     1      -5.091   0.710  -0.045  1.00  0.00     0.014 A 
ATOM     19  C   UNL     1      -5.925  -0.144   0.719  1.00  0.00     0.033 A 
ATOM     20  C   UNL     1      -5.914   1.542  -0.786  1.00  0.00     0.029 A 
ATOM     21  C   UNL     1      -7.239   0.197   0.468  1.00  0.00     0.021 A 
ATOM     22  C   UNL     1      -5.527   2.658  -1.714  1.00  0.00     0.065 C 
ATOM     23  C   UNL     1      -8.488  -0.434   0.990  1.00  0.00     0.065 C 
BRANCH  18  24
ATOM     24  C   UNL     1      -3.654   0.779  -0.092  1.00  0.00     0.121 C 
ATOM     25  N   UNL     1      -2.943  -0.126   0.488  1.00  0.00    -0.256 NA
BRANCH  25  26
ATOM     26  C   UNL     1      -1.553  -0.045   0.320  1.00  0.00     0.063 A 
ATOM     27  C   UNL     1       2.736  -0.091  -0.082  1.00  0.00     0.044 C 
ATOM     28  C   UNL     1       1.243  -0.062   0.019  1.00  0.00    -0.051 A 
ATOM     29  C   UNL     1       0.522  -1.261   0.025  1.00  0.00     0.005 A 
ATOM     30  C   UNL     1       0.556   1.148   0.146  1.00  0.00     0.005 A 
ATOM     31  C   UNL     1      -0.865  -1.247   0.170  1.00  0.00     0.028 A 
ATOM     32  C   UNL     1      -0.829   1.155   0.310  1.00  0.00     0.028 A 
ENDBRANCH  25  26
ENDBRANCH  18  24
ENDBRANCH  11  17
ENDBRANCH   8  10
ENDBRANCH   7   8
ENDBRANCH   6   7
ENDBRANCH   5   6
ENDBRANCH   4   5
ENDBRANCH   3   4
ENDBRANCH   2   3
ENDBRANCH   1   2
BRANCH   1  33
ATOM     33  C   UNL     1     -15.347   2.746  -2.140  1.00  0.00     0.188 C 
BRANCH  33  34
ATOM     34  C   UNL     1     -16.548   1.957  -1.623  1.00  0.00     0.188 C 
BRANCH  34  35
ATOM     35  O   UNL     1     -16.348   0.673  -1.085  1.00  0.00    -0.376 OA
BRANCH  35  36
ATOM     36  C   UNL     1     -15.777  -0.277  -1.981  1.00  0.00     0.202 C 
BRANCH  36  37
ATOM     37  C   UNL     1     -16.309  -0.434  -3.430  1.00  0.00     0.261 C 
BRANCH  37  38
ATOM     38  O   UNL     1     -16.466   0.771  -4.212  1.00  0.00    -0.460 OA
BRANCH  38  39
ATOM     39  C   UNL     1     -17.655   0.953  -4.874  1.00  0.00     0.338 C 
ATOM     40  O   UNL     1     -18.671   0.284  -4.804  1.00  0.00    -0.246 OA
BRANCH  39  41
ATOM     41  C   UNL     1     -17.629   2.340  -5.408  1.00  0.00     0.060 A 
ATOM     42  C   UNL     1     -16.982   2.671  -6.596  1.00  0.00     0.016 A 
ATOM     43  C   UNL     1     -17.922   3.331  -4.481  1.00  0.00     0.016 A 
ATOM     44  C   UNL     1     -16.336   3.910  -6.696  1.00  0.00     0.010 A 
ATOM     45  C   UNL     1     -17.169   4.492  -4.514  1.00  0.00     0.010 A 
ATOM     46  C   UNL     1     -16.244   4.705  -5.545  1.00  0.00    -0.014 A 
BRANCH  46  47
ATOM     47  C   UNL     1     -14.958   5.359  -5.150  1.00  0.00     0.031 A 
ATOM     48  C   UNL     1     -14.923   6.709  -4.487  1.00  0.00     0.074 A 
ATOM     49  C   UNL     1     -13.873   4.531  -5.137  1.00  0.00     0.049 A 
ATOM     50  N   UNL     1     -13.869   7.438  -4.310  1.00  0.00    -0.248 NA
ATOM     51  C   UNL     1     -16.114   7.378  -3.957  1.00  0.00     0.031 C 
ATOM     52  C   UNL     1     -12.575   4.686  -4.489  1.00  0.00     0.029 A 
ATOM     53  N   UNL     1     -13.734   3.288  -5.770  1.00  0.00    -0.354 N 
ATOM     54  C   UNL     1     -14.171   8.478  -3.429  1.00  0.00     0.074 A 
ATOM     55  C   UNL     1     -15.602   8.422  -3.295  1.00  0.00     0.031 C 
ATOM     56  C   UNL     1     -11.765   3.660  -4.794  1.00  0.00     0.029 A 
ATOM     57  C   UNL     1     -12.375   2.963  -5.894  1.00  0.00     0.049 A 
ATOM     58  H   UNL     1     -14.480   2.726  -6.082  1.00  0.00     0.167 HD
ATOM     59  C   UNL     1     -13.168   9.180  -2.801  1.00  0.00     0.031 A 
ATOM     60  C   UNL     1     -11.820   3.047  -7.139  1.00  0.00     0.031 A 
ATOM     61  C   UNL     1     -11.838   8.880  -3.400  1.00  0.00     0.049 A 
ATOM     62  C   UNL     1     -11.083   4.388  -7.422  1.00  0.00     0.074 A 
ATOM     63  C   UNL     1     -10.576   8.577  -2.914  1.00  0.00     0.029 A 
ATOM     64  N   UNL     1     -11.743   8.651  -4.778  1.00  0.00    -0.354 N 
ATOM     65  N   UNL     1     -11.072   5.420  -6.591  1.00  0.00    -0.248 NA
ATOM     66  C   UNL     1     -10.274   4.692  -8.603  1.00  0.00     0.031 C 
ATOM     67  C   UNL     1      -9.853   7.898  -3.946  1.00  0.00     0.029 A 
ATOM     68  C   UNL     1     -10.609   7.929  -5.109  1.00  0.00     0.049 A 
ATOM     69  H   UNL     1     -12.405   8.966  -5.434  1.00  0.00     0.167 HD
ATOM     70  C   UNL     1     -10.383   6.491  -7.107  1.00  0.00     0.074 A 
ATOM     71  C   UNL     1      -9.869   5.958  -8.360  1.00  0.00     0.031 C 
ATOM     72  C   UNL     1     -10.275   7.734  -6.522  1.00  0.00     0.031 A 
BRANCH  59  73
ATOM     73  C   UNL     1     -13.350   9.931  -1.449  1.00  0.00    -0.014 A 
ATOM     74  C   UNL     1     -12.243  10.537  -0.808  1.00  0.00     0.010 A 
ATOM     75  C   UNL     1     -14.547   9.981  -0.694  1.00  0.00     0.010 A 
ATOM     76  C   UNL     1     -12.315  11.129   0.477  1.00  0.00     0.020 A 
ATOM     77  C   UNL     1     -14.648  10.607   0.573  1.00  0.00     0.020 A 
ATOM     78  C   UNL     1     -13.525  11.175   1.159  1.00  0.00     0.054 A 
BRANCH  78  79
ATOM     79  S   UNL     1     -13.625  12.016   2.770  1.00  0.00     0.124 S 
ATOM     80  O   UNL     1     -12.830  11.151   3.637  1.00  0.00    -0.237 OA
ATOM     81  O   UNL     1     -13.043  13.325   2.484  1.00  0.00    -0.237 OA
ATOM     82  O   UNL     1     -15.057  12.035   3.064  1.00  0.00    -0.744 OA
ENDBRANCH  78  79
ENDBRANCH  59  73
BRANCH  60  83
ATOM     83  C   UNL     1     -12.285   1.829  -7.912  1.00  0.00    -0.014 A 
ATOM     84  C   UNL     1     -11.716   0.608  -7.453  1.00  0.00     0.010 A 
ATOM     85  C   UNL     1     -13.620   1.750  -8.383  1.00  0.00     0.010 A 
ATOM     86  C   UNL     1     -12.503  -0.539  -7.217  1.00  0.00     0.020 A 
ATOM     87  C   UNL     1     -14.403   0.586  -8.176  1.00  0.00     0.020 A 
ATOM     88  C   UNL     1     -13.858  -0.528  -7.534  1.00  0.00     0.054 A 
BRANCH  88  89
ATOM     89  S   UNL     1     -14.945  -1.857  -6.901  1.00  0.00     0.124 S 
ATOM     90  O   UNL     1     -14.921  -2.827  -7.990  1.00  0.00    -0.237 OA
ATOM     91  O   UNL     1     -14.276  -2.282  -5.672  1.00  0.00    -0.237 OA
ATOM     92  O   UNL     1     -16.218  -1.169  -6.700  1.00  0.00    -0.744 OA
ENDBRANCH  88  89
ENDBRANCH  60  83
BRANCH  72  93
ATOM     93  C   UNL     1      -9.819   9.013  -7.226  1.00  0.00    -0.014 A 
ATOM     94  C   UNL     1      -9.881   9.204  -8.611  1.00  0.00     0.010 A 
ATOM     95  C   UNL     1      -9.510  10.165  -6.445  1.00  0.00     0.010 A 
ATOM     96  C   UNL     1      -9.594  10.454  -9.186  1.00  0.00     0.020 A 
ATOM     97  C   UNL     1      -9.280  11.425  -7.001  1.00  0.00     0.020 A 
ATOM     98  C   UNL     1      -9.295  11.554  -8.379  1.00  0.00     0.054 A 
BRANCH  98  99
ATOM     99  S   UNL     1      -8.983  13.166  -9.137  1.00  0.00     0.124 S 
ATOM    100  O   UNL     1      -7.579  13.046  -9.521  1.00  0.00    -0.237 OA
ATOM    101  O   UNL     1      -9.936  13.192 -10.244  1.00  0.00    -0.237 OA
ATOM    102  O   UNL     1      -9.261  14.116  -8.063  1.00  0.00    -0.744 OA
ENDBRANCH  98  99
ENDBRANCH  72  93
ENDBRANCH  46  47
ENDBRANCH  39  41
ENDBRANCH  38  39
ENDBRANCH  37  38
ENDBRANCH  36  37
ENDBRANCH  35  36
ENDBRANCH  34  35
ENDBRANCH  33  34
ENDBRANCH   1  33
TORSDOF 26
