REMARK SMILES O=C(OCCOCCOCCOCCOC(=O)c1ccccc1/C=C1/SC(=S)N(C2CCCC2)C1=O)c1ccc(-c2c3nc(c(-c4ccc(S(=O)(=O)[O-])cc4)c4ccc([nH]4)c(-c4ccc(S(=O)(=O)[O-])cc4)c4nc(c(-c5ccc(S(=O)(=O)[O-])cc5)c5ccc2[nH]5)C=C4)C=C3)cc1
REMARK SMILES IDX 8 1 7 2 6 3 5 4 4 5 3 6 2 7 1 8 37 9 38 10 96 11 39 12 95 13
REMARK SMILES IDX 40 14 41 15 42 16 89 17 43 18 94 19 88 20 90 21 44 22 93 23
REMARK SMILES IDX 87 24 86 25 45 27 75 28 56 29 74 30 57 31 60 32 73 33 91 34
REMARK SMILES IDX 58 35 59 36 72 38 92 39 61 40 46 41 47 42 55 43 48 44 54 45
REMARK SMILES IDX 49 46 50 47 51 48 52 49 53 50 76 51 77 52 85 53 78 54 84 55
REMARK SMILES IDX 79 56 80 57 81 58 82 59 83 60 62 61 63 62 71 63 64 64 70 65
REMARK SMILES IDX 65 66 66 67 67 68 68 69 69 70 9 71 10 72 11 73 12 74 13 75
REMARK SMILES IDX 14 76 15 77 16 78 17 79 18 80 19 81 23 82 20 83 22 84 21 85
REMARK SMILES IDX 24 86 25 87 26 88 35 89 27 90 29 91 36 92 28 93 30 94 31 95
REMARK SMILES IDX 34 96 32 97 33 98
REMARK H PARENT 90 26 60 37
REMARK Flexibility Score: inf
ROOT
ATOM      1  C   UNL     1       1.888  -0.496  -2.610  1.00  0.00     0.188 C 
ENDROOT
BRANCH   1   2
ATOM      2  C   UNL     1       2.256  -0.939  -1.195  1.00  0.00     0.188 C 
BRANCH   2   3
ATOM      3  O   UNL     1       3.579  -0.513  -0.871  1.00  0.00    -0.376 OA
BRANCH   3   4
ATOM      4  C   UNL     1       4.377  -1.451  -0.152  1.00  0.00     0.202 C 
BRANCH   4   5
ATOM      5  C   UNL     1       4.235  -1.329   1.363  1.00  0.00     0.261 C 
BRANCH   5   6
ATOM      6  O   UNL     1       2.885  -1.035   1.745  1.00  0.00    -0.460 OA
BRANCH   6   7
ATOM      7  C   UNL     1       2.305   0.187   1.853  1.00  0.00     0.338 C 
ATOM      8  O   UNL     1       1.107   0.228   2.135  1.00  0.00    -0.246 OA
BRANCH   7   9
ATOM      9  C   UNL     1       3.024   1.494   1.685  1.00  0.00     0.060 A 
ATOM     10  C   UNL     1       4.181   1.715   0.931  1.00  0.00     0.016 A 
ATOM     11  C   UNL     1       2.439   2.607   2.317  1.00  0.00     0.016 A 
ATOM     12  C   UNL     1       4.787   2.963   0.867  1.00  0.00     0.010 A 
ATOM     13  C   UNL     1       3.033   3.871   2.252  1.00  0.00     0.010 A 
ATOM     14  C   UNL     1       4.238   4.034   1.562  1.00  0.00    -0.014 A 
BRANCH  14  15
ATOM     15  C   UNL     1       5.081   5.225   1.759  1.00  0.00     0.031 A 
ATOM     16  C   UNL     1       5.815   5.332   3.064  1.00  0.00     0.074 A 
ATOM     17  C   UNL     1       5.295   6.087   0.752  1.00  0.00     0.049 A 
ATOM     18  N   UNL     1       6.593   6.281   3.505  1.00  0.00    -0.248 NA
ATOM     19  C   UNL     1       5.660   4.198   3.996  1.00  0.00     0.031 C 
ATOM     20  C   UNL     1       4.745   5.960  -0.600  1.00  0.00     0.029 A 
ATOM     21  N   UNL     1       6.060   7.220   0.698  1.00  0.00    -0.354 N 
ATOM     22  C   UNL     1       6.986   5.878   4.777  1.00  0.00     0.074 A 
ATOM     23  C   UNL     1       6.364   4.602   5.039  1.00  0.00     0.031 C 
ATOM     24  C   UNL     1       5.211   6.969  -1.356  1.00  0.00     0.029 A 
ATOM     25  C   UNL     1       6.036   7.842  -0.527  1.00  0.00     0.049 A 
ATOM     26  H   UNL     1       6.579   7.556   1.464  1.00  0.00     0.167 HD
ATOM     27  C   UNL     1       7.785   6.530   5.652  1.00  0.00     0.031 A 
ATOM     28  C   UNL     1       6.598   9.004  -0.911  1.00  0.00     0.031 A 
ATOM     29  C   UNL     1       8.368   7.809   5.363  1.00  0.00     0.049 A 
ATOM     30  C   UNL     1       7.391   9.770   0.114  1.00  0.00     0.074 A 
ATOM     31  C   UNL     1       9.130   8.621   6.180  1.00  0.00     0.029 A 
ATOM     32  N   UNL     1       8.242   8.463   4.143  1.00  0.00    -0.354 N 
ATOM     33  N   UNL     1       7.687   9.429   1.349  1.00  0.00    -0.248 NA
ATOM     34  C   UNL     1       7.915  11.078  -0.294  1.00  0.00     0.031 C 
ATOM     35  C   UNL     1       9.421   9.791   5.468  1.00  0.00     0.029 A 
ATOM     36  C   UNL     1       8.896   9.679   4.187  1.00  0.00     0.049 A 
ATOM     37  H   UNL     1       7.757   8.112   3.361  1.00  0.00     0.167 HD
ATOM     38  C   UNL     1       8.449  10.472   1.860  1.00  0.00     0.074 A 
ATOM     39  C   UNL     1       8.578  11.449   0.794  1.00  0.00     0.031 C 
ATOM     40  C   UNL     1       8.994  10.617   3.095  1.00  0.00     0.031 A 
BRANCH  27  41
ATOM     41  C   UNL     1       7.956   5.904   7.011  1.00  0.00    -0.014 A 
ATOM     42  C   UNL     1       8.692   4.719   7.195  1.00  0.00     0.010 A 
ATOM     43  C   UNL     1       7.293   6.474   8.113  1.00  0.00     0.010 A 
ATOM     44  C   UNL     1       8.704   4.080   8.440  1.00  0.00     0.020 A 
ATOM     45  C   UNL     1       7.326   5.854   9.365  1.00  0.00     0.020 A 
ATOM     46  C   UNL     1       8.008   4.645   9.513  1.00  0.00     0.054 A 
BRANCH  46  47
ATOM     47  S   UNL     1       7.997   3.775  11.105  1.00  0.00     0.124 S 
ATOM     48  O   UNL     1       7.090   2.662  10.833  1.00  0.00    -0.237 OA
ATOM     49  O   UNL     1       9.400   3.410  11.282  1.00  0.00    -0.237 OA
ATOM     50  O   UNL     1       7.493   4.774  12.044  1.00  0.00    -0.744 OA
ENDBRANCH  46  47
ENDBRANCH  27  41
BRANCH  28  51
ATOM     51  C   UNL     1       6.391   9.516  -2.295  1.00  0.00    -0.014 A 
ATOM     52  C   UNL     1       7.462   9.607  -3.202  1.00  0.00     0.010 A 
ATOM     53  C   UNL     1       5.104   9.890  -2.728  1.00  0.00     0.010 A 
ATOM     54  C   UNL     1       7.250  10.061  -4.510  1.00  0.00     0.020 A 
ATOM     55  C   UNL     1       4.882  10.317  -4.041  1.00  0.00     0.020 A 
ATOM     56  C   UNL     1       5.959  10.406  -4.923  1.00  0.00     0.054 A 
BRANCH  56  57
ATOM     57  S   UNL     1       5.697  10.925  -6.643  1.00  0.00     0.124 S 
ATOM     58  O   UNL     1       6.319  12.245  -6.661  1.00  0.00    -0.237 OA
ATOM     59  O   UNL     1       6.396   9.886  -7.395  1.00  0.00    -0.237 OA
ATOM     60  O   UNL     1       4.243  10.915  -6.786  1.00  0.00    -0.744 OA
ENDBRANCH  56  57
ENDBRANCH  28  51
BRANCH  40  61
ATOM     61  C   UNL     1       9.811  11.854   3.337  1.00  0.00    -0.014 A 
ATOM     62  C   UNL     1       9.201  13.108   3.509  1.00  0.00     0.010 A 
ATOM     63  C   UNL     1      11.207  11.738   3.467  1.00  0.00     0.010 A 
ATOM     64  C   UNL     1       9.980  14.234   3.781  1.00  0.00     0.020 A 
ATOM     65  C   UNL     1      11.985  12.855   3.768  1.00  0.00     0.020 A 
ATOM     66  C   UNL     1      11.367  14.099   3.910  1.00  0.00     0.054 A 
BRANCH  66  67
ATOM     67  S   UNL     1      12.351  15.565   4.318  1.00  0.00     0.124 S 
ATOM     68  O   UNL     1      12.363  16.285   3.048  1.00  0.00    -0.237 OA
ATOM     69  O   UNL     1      11.574  16.186   5.387  1.00  0.00    -0.237 OA
ATOM     70  O   UNL     1      13.639  15.012   4.733  1.00  0.00    -0.744 OA
ENDBRANCH  66  67
ENDBRANCH  40  61
ENDBRANCH  14  15
ENDBRANCH   7   9
ENDBRANCH   6   7
ENDBRANCH   5   6
ENDBRANCH   4   5
ENDBRANCH   3   4
ENDBRANCH   2   3
ENDBRANCH   1   2
BRANCH   1  71
ATOM     71  O   UNL     1       2.637  -1.124  -3.648  1.00  0.00    -0.377 OA
BRANCH  71  72
ATOM     72  C   UNL     1       4.055  -1.108  -3.515  1.00  0.00     0.188 C 
BRANCH  72  73
ATOM     73  C   UNL     1       4.792   0.245  -3.355  1.00  0.00     0.188 C 
BRANCH  73  74
ATOM     74  O   UNL     1       3.961   1.395  -3.396  1.00  0.00    -0.376 OA
BRANCH  74  75
ATOM     75  C   UNL     1       3.999   2.135  -4.612  1.00  0.00     0.202 C 
BRANCH  75  76
ATOM     76  C   UNL     1       3.272   1.452  -5.772  1.00  0.00     0.261 C 
BRANCH  76  77
ATOM     77  O   UNL     1       3.804   0.177  -6.181  1.00  0.00    -0.460 OA
BRANCH  77  78
ATOM     78  C   UNL     1       5.105   0.062  -6.530  1.00  0.00     0.338 C 
ATOM     79  O   UNL     1       5.936   0.951  -6.556  1.00  0.00    -0.246 OA
BRANCH  78  80
ATOM     80  C   UNL     1       5.407  -1.381  -6.733  1.00  0.00     0.067 A 
ATOM     81  C   UNL     1       6.534  -1.870  -6.051  1.00  0.00     0.016 A 
ATOM     82  C   UNL     1       4.559  -2.255  -7.452  1.00  0.00    -0.010 A 
ATOM     83  C   UNL     1       6.775  -3.240  -5.999  1.00  0.00     0.001 A 
ATOM     84  C   UNL     1       4.819  -3.631  -7.379  1.00  0.00     0.009 A 
ATOM     85  C   UNL     1       5.911  -4.118  -6.649  1.00  0.00     0.001 A 
BRANCH  82  86
ATOM     86  C   UNL     1       3.373  -1.808  -8.218  1.00  0.00     0.030 C 
ATOM     87  C   UNL     1       3.360  -0.757  -9.052  1.00  0.00     0.081 C 
ATOM     88  S   UNL     1       1.948   0.052  -9.594  1.00  0.00    -0.054 SA
ATOM     89  C   UNL     1       4.536   0.071  -9.407  1.00  0.00     0.266 C 
ATOM     90  C   UNL     1       2.819   1.601  -9.721  1.00  0.00     0.148 C 
ATOM     91  N   UNL     1       4.163   1.402  -9.475  1.00  0.00    -0.290 N 
ATOM     92  O   UNL     1       5.649  -0.396  -9.607  1.00  0.00    -0.268 OA
ATOM     93  S   UNL     1       1.994   2.998 -10.098  1.00  0.00    -0.052 S 
BRANCH  91  94
ATOM     94  C   UNL     1       5.251   2.385  -9.386  1.00  0.00     0.092 C 
ATOM     95  C   UNL     1       5.694   2.972 -10.716  1.00  0.00     0.025 C 
ATOM     96  C   UNL     1       5.065   3.596  -8.464  1.00  0.00     0.025 C 
ATOM     97  C   UNL     1       6.641   4.081 -10.280  1.00  0.00     0.002 C 
ATOM     98  C   UNL     1       6.030   4.656  -9.003  1.00  0.00     0.002 C 
ENDBRANCH  91  94
ENDBRANCH  82  86
ENDBRANCH  78  80
ENDBRANCH  77  78
ENDBRANCH  76  77
ENDBRANCH  75  76
ENDBRANCH  74  75
ENDBRANCH  73  74
ENDBRANCH  72  73
ENDBRANCH  71  72
ENDBRANCH   1  71
TORSDOF 25
