REMARK SMILES COc1cc(Cl)c(C)cc1N1C(=O)C[C@H](Nc2cc(C(=O)OCCOCCOCCOCCOC(=O)c3ccc(-c4c5nc(c(-c6ccc(S(=O)(=O)[O-])cc6)c6ccc([nH]6)c(-c6ccc(S(=O)(=O)[O-])cc6)c6nc(c(-c7ccc(S(=O)(=O)[O-])cc7)c7ccc4[nH]7)C=C6)C=C5)cc3)ccc2C)C1=O
REMARK SMILES IDX 27 1 26 2 25 3 24 4 23 5 22 6 20 7 21 8 19 9 17 10 18 11
REMARK SMILES IDX 99 12 98 13 100 14 97 15 16 16 15 18 11 19 12 20 101 21
REMARK SMILES IDX 13 22 14 23 102 24 10 25 3 26 4 27 5 28 9 29 6 30 7 31 8 32
REMARK SMILES IDX 2 33 1 34 28 35 29 36 30 37 31 38 32 39 33 40 34 41 35 42
REMARK SMILES IDX 36 43 37 44 38 45 96 46 39 47 95 48 40 49 41 50 42 51 89 52
REMARK SMILES IDX 43 53 94 54 88 55 90 56 44 57 93 58 87 59 86 60 45 62 75 63
REMARK SMILES IDX 56 64 74 65 57 66 60 67 73 68 91 69 58 70 59 71 72 73 92 74
REMARK SMILES IDX 61 75 46 76 47 77 55 78 48 79 54 80 49 81 50 82 51 83 52 84
REMARK SMILES IDX 53 85 76 86 77 87 85 88 78 89 84 90 79 91 80 92 81 93 82 94
REMARK SMILES IDX 83 95 62 96 63 97 71 98 64 99 70 100 65 101 66 102 67 103
REMARK SMILES IDX 68 104 69 105
REMARK H PARENT 16 17 90 61 60 72
REMARK Flexibility Score: inf
ROOT
ATOM      1  C   UNL     1       6.856  -6.621   0.580  1.00  0.00     0.188 C 
ENDROOT
BRANCH   1   2
ATOM      2  C   UNL     1       7.824  -6.692   1.776  1.00  0.00     0.188 C 
BRANCH   2   3
ATOM      3  O   UNL     1       7.644  -7.669   2.793  1.00  0.00    -0.376 OA
BRANCH   3   4
ATOM      4  C   UNL     1       6.366  -7.754   3.399  1.00  0.00     0.202 C 
BRANCH   4   5
ATOM      5  C   UNL     1       5.631  -6.507   3.878  1.00  0.00     0.261 C 
BRANCH   5   6
ATOM      6  O   UNL     1       5.936  -5.261   3.269  1.00  0.00    -0.460 OA
BRANCH   6   7
ATOM      7  C   UNL     1       6.508  -4.320   4.026  1.00  0.00     0.338 C 
ATOM      8  O   UNL     1       6.800  -4.360   5.215  1.00  0.00    -0.246 OA
BRANCH   7   9
ATOM      9  C   UNL     1       7.023  -3.318   3.083  1.00  0.00     0.062 A 
ATOM     10  C   UNL     1       6.839  -2.009   1.037  1.00  0.00     0.038 A 
ATOM     11  C   UNL     1       6.250  -2.812   2.024  1.00  0.00     0.041 A 
ATOM     12  C   UNL     1       8.231  -1.783   1.105  1.00  0.00    -0.028 A 
ATOM     13  C   UNL     1       8.989  -2.300   2.172  1.00  0.00     0.006 A 
ATOM     14  C   UNL     1       8.976  -0.974   0.080  1.00  0.00     0.046 C 
ATOM     15  C   UNL     1       8.386  -3.049   3.169  1.00  0.00     0.016 A 
BRANCH  10  16
ATOM     16  N   UNL     1       6.116  -1.580  -0.073  1.00  0.00    -0.373 N 
ATOM     17  H   UNL     1       6.472  -1.741  -0.977  1.00  0.00     0.161 HD
BRANCH  16  18
ATOM     18  C   UNL     1       4.831  -0.893   0.086  1.00  0.00     0.179 C 
ATOM     19  N   UNL     1       3.416  -0.208  -1.664  1.00  0.00    -0.245 N 
ATOM     20  C   UNL     1       4.169   0.893  -1.364  1.00  0.00     0.236 C 
ATOM     21  C   UNL     1       3.802  -1.321  -0.954  1.00  0.00     0.256 C 
ATOM     22  O   UNL     1       4.136   1.993  -1.900  1.00  0.00    -0.274 OA
ATOM     23  C   UNL     1       5.032   0.591  -0.178  1.00  0.00     0.136 C 
ATOM     24  O   UNL     1       3.477  -2.482  -1.166  1.00  0.00    -0.272 OA
BRANCH  19  25
ATOM     25  C   UNL     1       2.390  -0.210  -2.635  1.00  0.00     0.094 A 
ATOM     26  C   UNL     1       1.097  -0.666  -2.332  1.00  0.00     0.144 A 
ATOM     27  C   UNL     1       0.097  -0.668  -3.309  1.00  0.00     0.069 A 
ATOM     28  C   UNL     1       0.372  -0.197  -4.593  1.00  0.00     0.047 A 
ATOM     29  C   UNL     1       2.646   0.282  -3.925  1.00  0.00     0.035 A 
ATOM     30  Cl  UNL     1      -0.916  -0.184  -5.747  1.00  0.00    -0.084 Cl
ATOM     31  C   UNL     1       1.653   0.271  -4.923  1.00  0.00    -0.030 A 
ATOM     32  C   UNL     1       1.993   0.737  -6.312  1.00  0.00     0.046 C 
BRANCH  26  33
ATOM     33  O   UNL     1       0.727  -1.105  -1.086  1.00  0.00    -0.495 OA
ATOM     34  C   UNL     1       0.653  -0.041  -0.137  1.00  0.00     0.278 C 
ENDBRANCH  26  33
ENDBRANCH  19  25
ENDBRANCH  16  18
ENDBRANCH  10  16
ENDBRANCH   7   9
ENDBRANCH   6   7
ENDBRANCH   5   6
ENDBRANCH   4   5
ENDBRANCH   3   4
ENDBRANCH   2   3
ENDBRANCH   1   2
BRANCH   1  35
ATOM     35  O   UNL     1       5.482  -6.577   0.931  1.00  0.00    -0.377 OA
BRANCH  35  36
ATOM     36  C   UNL     1       4.601  -7.001  -0.110  1.00  0.00     0.188 C 
BRANCH  36  37
ATOM     37  C   UNL     1       4.505  -8.529  -0.284  1.00  0.00     0.188 C 
BRANCH  37  38
ATOM     38  O   UNL     1       5.340  -9.256   0.614  1.00  0.00    -0.376 OA
BRANCH  38  39
ATOM     39  C   UNL     1       6.349 -10.077   0.043  1.00  0.00     0.202 C 
BRANCH  39  40
ATOM     40  C   UNL     1       5.810 -11.303  -0.699  1.00  0.00     0.261 C 
BRANCH  40  41
ATOM     41  O   UNL     1       5.184 -12.210   0.224  1.00  0.00    -0.460 OA
BRANCH  41  42
ATOM     42  C   UNL     1       3.823 -12.204   0.157  1.00  0.00     0.338 C 
ATOM     43  O   UNL     1       3.185 -12.656  -0.777  1.00  0.00    -0.246 OA
BRANCH  42  44
ATOM     44  C   UNL     1       3.267 -11.512   1.352  1.00  0.00     0.060 A 
ATOM     45  C   UNL     1       2.003 -10.909   1.305  1.00  0.00     0.016 A 
ATOM     46  C   UNL     1       4.095 -11.282   2.446  1.00  0.00     0.016 A 
ATOM     47  C   UNL     1       1.625  -9.974   2.288  1.00  0.00     0.010 A 
ATOM     48  C   UNL     1       3.744 -10.312   3.367  1.00  0.00     0.010 A 
ATOM     49  C   UNL     1       2.523  -9.615   3.298  1.00  0.00    -0.014 A 
BRANCH  49  50
ATOM     50  C   UNL     1       2.396  -8.450   4.210  1.00  0.00     0.031 A 
ATOM     51  C   UNL     1       2.858  -8.571   5.652  1.00  0.00     0.074 A 
ATOM     52  C   UNL     1       2.239  -7.197   3.691  1.00  0.00     0.049 A 
ATOM     53  N   UNL     1       2.955  -7.572   6.464  1.00  0.00    -0.248 NA
ATOM     54  C   UNL     1       3.288  -9.809   6.317  1.00  0.00     0.031 C 
ATOM     55  C   UNL     1       2.709  -5.957   4.331  1.00  0.00     0.029 A 
ATOM     56  N   UNL     1       1.736  -6.705   2.486  1.00  0.00    -0.354 N 
ATOM     57  C   UNL     1       3.796  -7.908   7.496  1.00  0.00     0.074 A 
ATOM     58  C   UNL     1       3.885  -9.344   7.426  1.00  0.00     0.031 C 
ATOM     59  C   UNL     1       2.422  -4.886   3.585  1.00  0.00     0.029 A 
ATOM     60  C   UNL     1       1.440  -5.340   2.644  1.00  0.00     0.049 A 
ATOM     61  H   UNL     1       1.608  -7.228   1.662  1.00  0.00     0.167 HD
ATOM     62  C   UNL     1       4.399  -6.910   8.208  1.00  0.00     0.031 A 
ATOM     63  C   UNL     1       0.186  -4.792   2.619  1.00  0.00     0.031 A 
ATOM     64  C   UNL     1       3.853  -5.584   7.878  1.00  0.00     0.049 A 
ATOM     65  C   UNL     1      -0.181  -4.195   3.974  1.00  0.00     0.074 A 
ATOM     66  C   UNL     1       4.394  -4.390   7.431  1.00  0.00     0.029 A 
ATOM     67  N   UNL     1       2.469  -5.410   7.853  1.00  0.00    -0.354 N 
ATOM     68  N   UNL     1       0.389  -4.587   5.087  1.00  0.00    -0.248 NA
ATOM     69  C   UNL     1      -1.087  -3.072   4.211  1.00  0.00     0.031 C 
ATOM     70  C   UNL     1       3.318  -3.536   7.050  1.00  0.00     0.029 A 
ATOM     71  C   UNL     1       2.124  -4.191   7.312  1.00  0.00     0.049 A 
ATOM     72  H   UNL     1       1.821  -6.075   8.180  1.00  0.00     0.167 HD
ATOM     73  C   UNL     1       0.085  -3.732   6.103  1.00  0.00     0.074 A 
ATOM     74  C   UNL     1      -0.921  -2.853   5.534  1.00  0.00     0.031 C 
ATOM     75  C   UNL     1       0.734  -3.749   7.304  1.00  0.00     0.031 A 
BRANCH  62  76
ATOM     76  C   UNL     1       5.587  -7.082   9.146  1.00  0.00    -0.014 A 
ATOM     77  C   UNL     1       6.036  -5.984   9.915  1.00  0.00     0.010 A 
ATOM     78  C   UNL     1       6.350  -8.262   9.264  1.00  0.00     0.010 A 
ATOM     79  C   UNL     1       7.156  -6.060  10.763  1.00  0.00     0.020 A 
ATOM     80  C   UNL     1       7.452  -8.364  10.136  1.00  0.00     0.020 A 
ATOM     81  C   UNL     1       7.854  -7.259  10.879  1.00  0.00     0.054 A 
BRANCH  81  82
ATOM     82  S   UNL     1       9.270  -7.359  12.011  1.00  0.00     0.124 S 
ATOM     83  O   UNL     1      10.249  -6.483  11.373  1.00  0.00    -0.237 OA
ATOM     84  O   UNL     1       8.713  -6.869  13.268  1.00  0.00    -0.237 OA
ATOM     85  O   UNL     1       9.618  -8.780  12.007  1.00  0.00    -0.744 OA
ENDBRANCH  81  82
ENDBRANCH  62  76
BRANCH  63  86
ATOM     86  C   UNL     1      -0.666  -5.350   1.538  1.00  0.00    -0.014 A 
ATOM     87  C   UNL     1      -0.282  -4.943   0.238  1.00  0.00     0.010 A 
ATOM     88  C   UNL     1      -1.244  -6.622   1.710  1.00  0.00     0.010 A 
ATOM     89  C   UNL     1      -0.193  -5.880  -0.793  1.00  0.00     0.020 A 
ATOM     90  C   UNL     1      -1.167  -7.560   0.667  1.00  0.00     0.020 A 
ATOM     91  C   UNL     1      -0.558  -7.202  -0.542  1.00  0.00     0.054 A 
BRANCH  91  92
ATOM     92  S   UNL     1       0.060  -8.480  -1.684  1.00  0.00     0.124 S 
ATOM     93  O   UNL     1      -0.657  -8.175  -2.917  1.00  0.00    -0.237 OA
ATOM     94  O   UNL     1       1.496  -8.207  -1.700  1.00  0.00    -0.237 OA
ATOM     95  O   UNL     1      -0.318  -9.727  -1.024  1.00  0.00    -0.744 OA
ENDBRANCH  91  92
ENDBRANCH  63  86
BRANCH  75  96
ATOM     96  C   UNL     1       0.148  -3.289   8.616  1.00  0.00    -0.014 A 
ATOM     97  C   UNL     1      -1.226  -3.102   8.815  1.00  0.00     0.010 A 
ATOM     98  C   UNL     1       0.978  -3.268   9.768  1.00  0.00     0.010 A 
ATOM     99  C   UNL     1      -1.744  -2.875  10.097  1.00  0.00     0.020 A 
ATOM    100  C   UNL     1       0.466  -3.086  11.053  1.00  0.00     0.020 A 
ATOM    101  C   UNL     1      -0.896  -2.873  11.207  1.00  0.00     0.054 A 
BRANCH 101 102
ATOM    102  S   UNL     1      -1.603  -2.662  12.858  1.00  0.00     0.124 S 
ATOM    103  O   UNL     1      -1.792  -1.215  12.917  1.00  0.00    -0.237 OA
ATOM    104  O   UNL     1      -2.830  -3.452  12.787  1.00  0.00    -0.237 OA
ATOM    105  O   UNL     1      -0.577  -3.198  13.748  1.00  0.00    -0.744 OA
ENDBRANCH 101 102
ENDBRANCH  75  96
ENDBRANCH  49  50
ENDBRANCH  42  44
ENDBRANCH  41  42
ENDBRANCH  40  41
ENDBRANCH  39  40
ENDBRANCH  38  39
ENDBRANCH  37  38
ENDBRANCH  36  37
ENDBRANCH  35  36
ENDBRANCH   1  35
TORSDOF 27
