REMARK SMILES CCOc1cc(C=O)ccc1OCc1ccc(C(=O)OCCOCCOCCOCCOC(=O)c2ccc(-c3c4nc(c(-c5ccc(S(=O)(=O)[O-])cc5)c5ccc([nH]5)c(-c5ccc(S(=O)(=O)[O-])cc5)c5nc(c(-c6ccc(S(=O)(=O)[O-])cc6)c6ccc3[nH]6)C=C5)C=C4)cc2)cc1
REMARK SMILES IDX 25 1 24 2 23 3 22 4 21 5 20 6 18 7 19 8 17 9 14 10 15 11
REMARK SMILES IDX 96 12 16 13 95 14 13 15 12 16 11 17 4 18 5 19 6 20 10 21
REMARK SMILES IDX 9 22 3 23 2 24 1 25 7 26 8 27 26 28 27 29 28 30 29 31 30 32
REMARK SMILES IDX 31 33 32 34 33 35 34 36 35 37 36 38 94 39 37 40 93 41 38 42
REMARK SMILES IDX 39 43 40 44 87 45 41 46 92 47 86 48 88 49 42 50 91 51 85 52
REMARK SMILES IDX 84 53 43 55 73 56 54 57 72 58 55 59 58 60 71 61 89 62 56 63
REMARK SMILES IDX 57 64 70 66 90 67 59 68 44 69 45 70 53 71 46 72 52 73 47 74
REMARK SMILES IDX 48 75 49 76 50 77 51 78 74 79 75 80 83 81 76 82 82 83 77 84
REMARK SMILES IDX 78 85 79 86 80 87 81 88 60 89 61 90 69 91 62 92 68 93 63 94
REMARK SMILES IDX 64 95 65 96 66 97 67 98
REMARK H PARENT 88 54 58 65
REMARK Flexibility Score: inf
ROOT
ATOM      1  C   UNL     1       2.846   2.632   5.305  1.00  0.00     0.188 C 
ENDROOT
BRANCH   1   2
ATOM      2  C   UNL     1       1.851   3.789   5.532  1.00  0.00     0.188 C 
BRANCH   2   3
ATOM      3  O   UNL     1       1.541   4.008   6.892  1.00  0.00    -0.376 OA
BRANCH   3   4
ATOM      4  C   UNL     1       0.296   3.597   7.422  1.00  0.00     0.202 C 
BRANCH   4   5
ATOM      5  C   UNL     1      -0.398   2.266   7.064  1.00  0.00     0.261 C 
BRANCH   5   6
ATOM      6  O   UNL     1       0.059   1.573   5.903  1.00  0.00    -0.460 OA
BRANCH   6   7
ATOM      7  C   UNL     1      -0.607   1.798   4.749  1.00  0.00     0.338 C 
ATOM      8  O   UNL     1      -1.552   2.546   4.571  1.00  0.00    -0.246 OA
BRANCH   7   9
ATOM      9  C   UNL     1       0.191   1.195   3.662  1.00  0.00     0.060 A 
ATOM     10  C   UNL     1       1.866   0.206   1.612  1.00  0.00    -0.011 A 
ATOM     11  C   UNL     1       1.651   1.577   1.781  1.00  0.00     0.008 A 
ATOM     12  C   UNL     1       1.310  -0.652   2.583  1.00  0.00     0.008 A 
ATOM     13  C   UNL     1       0.746   2.062   2.724  1.00  0.00     0.016 A 
ATOM     14  C   UNL     1       0.512  -0.160   3.627  1.00  0.00     0.016 A 
BRANCH  10  15
ATOM     15  C   UNL     1       2.444  -0.408   0.332  1.00  0.00     0.265 C 
BRANCH  15  16
ATOM     16  O   UNL     1       3.538   0.196  -0.363  1.00  0.00    -0.485 OA
BRANCH  16  17
ATOM     17  C   UNL     1       3.443   1.448  -0.901  1.00  0.00     0.161 A 
ATOM     18  C   UNL     1       2.278   2.153  -1.254  1.00  0.00     0.161 A 
ATOM     19  C   UNL     1       2.357   3.542  -1.424  1.00  0.00     0.062 A 
ATOM     20  C   UNL     1       3.610   4.179  -1.349  1.00  0.00     0.018 A 
ATOM     21  C   UNL     1       4.692   2.074  -0.974  1.00  0.00     0.051 A 
ATOM     22  C   UNL     1       4.783   3.439  -1.202  1.00  0.00     0.015 A 
BRANCH  18  23
ATOM     23  O   UNL     1       1.143   1.425  -1.467  1.00  0.00    -0.490 OA
BRANCH  23  24
ATOM     24  C   UNL     1      -0.105   1.899  -0.956  1.00  0.00     0.226 C 
ATOM     25  C   UNL     1      -0.947   0.662  -0.651  1.00  0.00     0.049 C 
ENDBRANCH  23  24
ENDBRANCH  18  23
BRANCH  20  26
ATOM     26  C   UNL     1       3.741   5.651  -1.388  1.00  0.00     0.260 C 
ATOM     27  O   UNL     1       2.771   6.396  -1.374  1.00  0.00    -0.298 OA
ENDBRANCH  20  26
ENDBRANCH  16  17
ENDBRANCH  15  16
ENDBRANCH  10  15
ENDBRANCH   7   9
ENDBRANCH   6   7
ENDBRANCH   5   6
ENDBRANCH   4   5
ENDBRANCH   3   4
ENDBRANCH   2   3
ENDBRANCH   1   2
BRANCH   1  28
ATOM     28  O   UNL     1       3.000   1.674   6.334  1.00  0.00    -0.377 OA
BRANCH  28  29
ATOM     29  C   UNL     1       3.411   2.102   7.626  1.00  0.00     0.188 C 
BRANCH  29  30
ATOM     30  C   UNL     1       4.081   3.478   7.865  1.00  0.00     0.188 C 
BRANCH  30  31
ATOM     31  O   UNL     1       4.502   4.173   6.701  1.00  0.00    -0.376 OA
BRANCH  31  32
ATOM     32  C   UNL     1       5.892   4.204   6.421  1.00  0.00     0.202 C 
BRANCH  32  33
ATOM     33  C   UNL     1       6.558   2.865   6.073  1.00  0.00     0.261 C 
BRANCH  33  34
ATOM     34  O   UNL     1       6.411   1.821   7.046  1.00  0.00    -0.460 OA
BRANCH  34  35
ATOM     35  C   UNL     1       6.976   2.032   8.259  1.00  0.00     0.338 C 
ATOM     36  O   UNL     1       7.609   2.998   8.613  1.00  0.00    -0.246 OA
BRANCH  35  37
ATOM     37  C   UNL     1       6.510   0.948   9.153  1.00  0.00     0.060 A 
ATOM     38  C   UNL     1       5.757   1.283  10.286  1.00  0.00     0.016 A 
ATOM     39  C   UNL     1       6.796  -0.387   8.859  1.00  0.00     0.016 A 
ATOM     40  C   UNL     1       5.310   0.280  11.146  1.00  0.00     0.010 A 
ATOM     41  C   UNL     1       6.371  -1.387   9.736  1.00  0.00     0.010 A 
ATOM     42  C   UNL     1       5.656  -1.055  10.901  1.00  0.00    -0.014 A 
BRANCH  42  43
ATOM     43  C   UNL     1       5.452  -2.068  11.964  1.00  0.00     0.031 A 
ATOM     44  C   UNL     1       6.618  -2.407  12.853  1.00  0.00     0.074 A 
ATOM     45  C   UNL     1       4.255  -2.649  12.163  1.00  0.00     0.049 A 
ATOM     46  N   UNL     1       6.690  -3.263  13.838  1.00  0.00    -0.248 NA
ATOM     47  C   UNL     1       7.873  -1.681  12.592  1.00  0.00     0.031 C 
ATOM     48  C   UNL     1       3.039  -2.372  11.400  1.00  0.00     0.029 A 
ATOM     49  N   UNL     1       3.872  -3.601  13.076  1.00  0.00    -0.354 N 
ATOM     50  C   UNL     1       7.995  -3.184  14.310  1.00  0.00     0.074 A 
ATOM     51  C   UNL     1       8.690  -2.223  13.482  1.00  0.00     0.031 C 
ATOM     52  C   UNL     1       2.044  -3.142  11.875  1.00  0.00     0.029 A 
ATOM     53  C   UNL     1       2.559  -3.989  12.950  1.00  0.00     0.049 A 
ATOM     54  H   UNL     1       4.480  -3.970  13.756  1.00  0.00     0.167 HD
ATOM     55  C   UNL     1       8.565  -3.848  15.344  1.00  0.00     0.031 A 
ATOM     56  C   UNL     1       1.861  -4.932  13.614  1.00  0.00     0.031 A 
ATOM     57  C   UNL     1       7.876  -4.818  16.153  1.00  0.00     0.049 A 
ATOM     58  C   UNL     1       2.540  -5.718  14.709  1.00  0.00     0.074 A 
ATOM     59  C   UNL     1       8.360  -5.535  17.232  1.00  0.00     0.029 A 
ATOM     60  N   UNL     1       6.561  -5.216  15.965  1.00  0.00    -0.354 N 
ATOM     61  N   UNL     1       3.766  -5.611  15.165  1.00  0.00    -0.248 NA
ATOM     62  C   UNL     1       1.735  -6.746  15.384  1.00  0.00     0.031 C 
ATOM     63  C   UNL     1       7.360  -6.417  17.654  1.00  0.00     0.029 A 
ATOM     64  C   UNL     1       6.227  -6.195  16.886  1.00  0.00     0.049 A 
ATOM     65  H   UNL     1       5.954  -4.856  15.278  1.00  0.00     0.167 HD
ATOM     66  C   UNL     1       3.870  -6.539  16.198  1.00  0.00     0.074 A 
ATOM     67  C   UNL     1       2.577  -7.181  16.312  1.00  0.00     0.031 C 
ATOM     68  C   UNL     1       4.938  -6.833  16.983  1.00  0.00     0.031 A 
BRANCH  55  69
ATOM     69  C   UNL     1      10.018  -3.574  15.628  1.00  0.00    -0.014 A 
ATOM     70  C   UNL     1      10.443  -2.339  16.150  1.00  0.00     0.010 A 
ATOM     71  C   UNL     1      10.972  -4.583  15.397  1.00  0.00     0.010 A 
ATOM     72  C   UNL     1      11.799  -2.104  16.398  1.00  0.00     0.020 A 
ATOM     73  C   UNL     1      12.323  -4.364  15.674  1.00  0.00     0.020 A 
ATOM     74  C   UNL     1      12.730  -3.119  16.158  1.00  0.00     0.054 A 
BRANCH  74  75
ATOM     75  S   UNL     1      14.479  -2.795  16.514  1.00  0.00     0.124 S 
ATOM     76  O   UNL     1      14.832  -1.851  15.457  1.00  0.00    -0.237 OA
ATOM     77  O   UNL     1      14.431  -2.237  17.863  1.00  0.00    -0.237 OA
ATOM     78  O   UNL     1      15.105  -4.111  16.408  1.00  0.00    -0.744 OA
ENDBRANCH  74  75
ENDBRANCH  55  69
BRANCH  56  79
ATOM     79  C   UNL     1       0.442  -5.206  13.252  1.00  0.00    -0.014 A 
ATOM     80  C   UNL     1      -0.602  -4.910  14.146  1.00  0.00     0.010 A 
ATOM     81  C   UNL     1       0.129  -5.779  12.005  1.00  0.00     0.010 A 
ATOM     82  C   UNL     1      -1.929  -5.195  13.807  1.00  0.00     0.020 A 
ATOM     83  C   UNL     1      -1.198  -6.037  11.650  1.00  0.00     0.020 A 
ATOM     84  C   UNL     1      -2.219  -5.752  12.558  1.00  0.00     0.054 A 
BRANCH  84  85
ATOM     85  S   UNL     1      -3.952  -6.062  12.120  1.00  0.00     0.124 S 
ATOM     86  O   UNL     1      -4.288  -7.191  12.980  1.00  0.00    -0.237 OA
ATOM     87  O   UNL     1      -4.592  -4.793  12.459  1.00  0.00    -0.237 OA
ATOM     88  O   UNL     1      -3.895  -6.359  10.690  1.00  0.00    -0.744 OA
ENDBRANCH  84  85
ENDBRANCH  56  79
BRANCH  68  89
ATOM     89  C   UNL     1       4.747  -7.874  18.057  1.00  0.00    -0.014 A 
ATOM     90  C   UNL     1       4.575  -9.233  17.738  1.00  0.00     0.010 A 
ATOM     91  C   UNL     1       4.787  -7.491  19.410  1.00  0.00     0.010 A 
ATOM     92  C   UNL     1       4.402 -10.181  18.751  1.00  0.00     0.020 A 
ATOM     93  C   UNL     1       4.650  -8.440  20.427  1.00  0.00     0.020 A 
ATOM     94  C   UNL     1       4.439  -9.778  20.089  1.00  0.00     0.054 A 
BRANCH  94  95
ATOM     95  S   UNL     1       4.239 -11.032  21.384  1.00  0.00     0.124 S 
ATOM     96  O   UNL     1       2.821 -11.362  21.272  1.00  0.00    -0.237 OA
ATOM     97  O   UNL     1       5.164 -12.080  20.960  1.00  0.00    -0.237 OA
ATOM     98  O   UNL     1       4.620 -10.331  22.609  1.00  0.00    -0.744 OA
ENDBRANCH  94  95
ENDBRANCH  68  89
ENDBRANCH  42  43
ENDBRANCH  35  37
ENDBRANCH  34  35
ENDBRANCH  33  34
ENDBRANCH  32  33
ENDBRANCH  31  32
ENDBRANCH  30  31
ENDBRANCH  29  30
ENDBRANCH  28  29
ENDBRANCH   1  28
TORSDOF 29
