REMARK SMILES C[C@H]1CC[C@@]1(C(=O)OCCOCCOCCOCCOC(=O)c1ccc(-c2c3nc(c(-c4ccc(S(=O)(=O)[O-])cc4)c4ccc([nH]4)c(-c4ccc(S(=O)(=O)[O-])cc4)c4nc(c(-c5ccc(S(=O)(=O)[O-])cc5)c5ccc2[nH]5)C=C4)C=C3)cc1)c1ccc(Cl)cc1Cl
REMARK SMILES IDX 15 1 14 2 13 3 12 4 11 5 10 6 9 7 8 8 6 9 7 10 5 11 1 12
REMARK SMILES IDX 2 13 3 14 4 15 83 16 84 17 89 18 85 19 88 20 90 21 86 22
REMARK SMILES IDX 87 23 16 24 17 25 18 26 19 27 20 28 21 29 22 30 23 31 24 32
REMARK SMILES IDX 82 33 25 34 81 35 26 36 27 37 28 38 75 39 29 40 80 41 74 42
REMARK SMILES IDX 76 43 30 44 79 45 73 46 72 47 31 49 61 50 42 51 60 52 43 53
REMARK SMILES IDX 46 54 59 55 77 56 44 57 45 58 58 60 78 61 47 62 32 63 33 64
REMARK SMILES IDX 41 65 34 66 40 67 35 68 36 69 37 70 38 71 39 72 62 73 63 74
REMARK SMILES IDX 71 75 64 76 70 77 65 78 66 79 67 80 68 81 69 82 48 83 49 84
REMARK SMILES IDX 57 85 50 86 56 87 51 88 52 89 53 90 54 91 55 92
REMARK H PARENT 76 48 46 59
REMARK Flexibility Score: inf
ROOT
ATOM      1  C   UNL     1       1.223   5.429   1.837  1.00  0.00     0.188 C 
ENDROOT
BRANCH   1   2
ATOM      2  O   UNL     1       0.759   4.081   1.778  1.00  0.00    -0.377 OA
BRANCH   2   3
ATOM      3  C   UNL     1      -0.385   3.684   2.521  1.00  0.00     0.188 C 
BRANCH   3   4
ATOM      4  C   UNL     1      -0.160   2.377   3.288  1.00  0.00     0.188 C 
BRANCH   4   5
ATOM      5  O   UNL     1       0.799   2.425   4.347  1.00  0.00    -0.376 OA
BRANCH   5   6
ATOM      6  C   UNL     1       2.131   2.819   4.007  1.00  0.00     0.202 C 
BRANCH   6   7
ATOM      7  C   UNL     1       2.870   1.938   2.991  1.00  0.00     0.261 C 
BRANCH   7   8
ATOM      8  O   UNL     1       2.178   1.872   1.726  1.00  0.00    -0.463 OA
BRANCH   8   9
ATOM      9  C   UNL     1       2.000   0.636   1.179  1.00  0.00     0.316 C 
ATOM     10  O   UNL     1       2.445  -0.373   1.735  1.00  0.00    -0.251 OA
BRANCH   9  11
ATOM     11  C   UNL     1       1.038   0.577  -0.149  1.00  0.00     0.097 C 
ATOM     12  C   UNL     1      -1.690  -0.287  -0.379  1.00  0.00     0.009 C 
ATOM     13  C   UNL     1      -0.292  -0.303   0.229  1.00  0.00     0.008 C 
ATOM     14  C   UNL     1       0.495  -1.549  -0.244  1.00  0.00     0.006 C 
ATOM     15  C   UNL     1       1.415  -0.636  -1.077  1.00  0.00     0.024 C 
BRANCH  11  16
ATOM     16  C   UNL     1       0.840   2.019  -0.977  1.00  0.00    -0.012 A 
ATOM     17  C   UNL     1      -0.342   2.248  -1.733  1.00  0.00     0.008 A 
ATOM     18  C   UNL     1       1.785   3.067  -1.117  1.00  0.00     0.046 A 
ATOM     19  C   UNL     1      -0.648   3.440  -2.401  1.00  0.00     0.021 A 
ATOM     20  C   UNL     1       1.480   4.293  -1.751  1.00  0.00     0.041 A 
ATOM     21  Cl  UNL     1       3.445   2.874  -0.667  1.00  0.00    -0.084 Cl
ATOM     22  C   UNL     1       0.253   4.483  -2.365  1.00  0.00     0.042 A 
ATOM     23  Cl  UNL     1      -0.131   5.970  -3.135  1.00  0.00    -0.084 Cl
ENDBRANCH  11  16
ENDBRANCH   9  11
ENDBRANCH   8   9
ENDBRANCH   7   8
ENDBRANCH   6   7
ENDBRANCH   5   6
ENDBRANCH   4   5
ENDBRANCH   3   4
ENDBRANCH   2   3
ENDBRANCH   1   2
BRANCH   1  24
ATOM     24  C   UNL     1       0.477   6.414   2.739  1.00  0.00     0.188 C 
BRANCH  24  25
ATOM     25  O   UNL     1      -0.904   6.640   2.442  1.00  0.00    -0.376 OA
BRANCH  25  26
ATOM     26  C   UNL     1      -1.329   6.570   1.082  1.00  0.00     0.202 C 
BRANCH  26  27
ATOM     27  C   UNL     1      -1.090   7.836   0.264  1.00  0.00     0.261 C 
BRANCH  27  28
ATOM     28  O   UNL     1       0.296   7.987  -0.074  1.00  0.00    -0.460 OA
BRANCH  28  29
ATOM     29  C   UNL     1       0.983   8.867   0.692  1.00  0.00     0.338 C 
ATOM     30  O   UNL     1       0.555   9.547   1.604  1.00  0.00    -0.246 OA
BRANCH  29  31
ATOM     31  C   UNL     1       2.415   8.773   0.357  1.00  0.00     0.060 A 
ATOM     32  C   UNL     1       3.338   8.665   1.405  1.00  0.00     0.016 A 
ATOM     33  C   UNL     1       2.844   8.885  -0.967  1.00  0.00     0.016 A 
ATOM     34  C   UNL     1       4.703   8.735   1.138  1.00  0.00     0.010 A 
ATOM     35  C   UNL     1       4.209   8.968  -1.232  1.00  0.00     0.010 A 
ATOM     36  C   UNL     1       5.138   8.943  -0.176  1.00  0.00    -0.014 A 
BRANCH  36  37
ATOM     37  C   UNL     1       6.536   9.351  -0.437  1.00  0.00     0.031 A 
ATOM     38  C   UNL     1       6.821  10.813  -0.643  1.00  0.00     0.074 A 
ATOM     39  C   UNL     1       7.521   8.441  -0.502  1.00  0.00     0.049 A 
ATOM     40  N   UNL     1       7.932  11.398  -1.001  1.00  0.00    -0.248 NA
ATOM     41  C   UNL     1       5.696  11.739  -0.421  1.00  0.00     0.031 C 
ATOM     42  C   UNL     1       7.368   7.007  -0.259  1.00  0.00     0.029 A 
ATOM     43  N   UNL     1       8.848   8.593  -0.812  1.00  0.00    -0.354 N 
ATOM     44  C   UNL     1       7.637  12.755  -1.068  1.00  0.00     0.074 A 
ATOM     45  C   UNL     1       6.238  12.905  -0.737  1.00  0.00     0.031 C 
ATOM     46  C   UNL     1       8.556   6.407  -0.448  1.00  0.00     0.029 A 
ATOM     47  C   UNL     1       9.537   7.406  -0.869  1.00  0.00     0.049 A 
ATOM     48  H   UNL     1       9.267   9.469  -0.978  1.00  0.00     0.167 HD
ATOM     49  C   UNL     1       8.461  13.783  -1.379  1.00  0.00     0.031 A 
ATOM     50  C   UNL     1      10.804   7.154  -1.253  1.00  0.00     0.031 A 
ATOM     51  C   UNL     1       9.847  13.616  -1.724  1.00  0.00     0.049 A 
ATOM     52  C   UNL     1      11.680   8.304  -1.683  1.00  0.00     0.074 A 
ATOM     53  C   UNL     1      10.776  14.588  -2.049  1.00  0.00     0.029 A 
ATOM     54  N   UNL     1      10.501  12.395  -1.798  1.00  0.00    -0.354 N 
ATOM     55  N   UNL     1      11.395   9.584  -1.731  1.00  0.00    -0.248 NA
ATOM     56  C   UNL     1      13.048   7.975  -2.107  1.00  0.00     0.031 C 
ATOM     57  C   UNL     1      11.974  13.949  -2.381  1.00  0.00     0.029 A 
ATOM     58  C   UNL     1      11.813  12.585  -2.190  1.00  0.00     0.049 A 
ATOM     59  H   UNL     1      10.091  11.522  -1.599  1.00  0.00     0.167 HD
ATOM     60  C   UNL     1      12.560  10.217  -2.155  1.00  0.00     0.074 A 
ATOM     61  C   UNL     1      13.553   9.179  -2.345  1.00  0.00     0.031 C 
ATOM     62  C   UNL     1      12.790  11.537  -2.362  1.00  0.00     0.031 A 
BRANCH  49  63
ATOM     63  C   UNL     1       7.872  15.169  -1.406  1.00  0.00    -0.014 A 
ATOM     64  C   UNL     1       7.467  15.817  -0.224  1.00  0.00     0.010 A 
ATOM     65  C   UNL     1       7.749  15.847  -2.632  1.00  0.00     0.010 A 
ATOM     66  C   UNL     1       6.914  17.100  -0.274  1.00  0.00     0.020 A 
ATOM     67  C   UNL     1       7.226  17.142  -2.683  1.00  0.00     0.020 A 
ATOM     68  C   UNL     1       6.796  17.754  -1.505  1.00  0.00     0.054 A 
BRANCH  68  69
ATOM     69  S   UNL     1       6.094  19.426  -1.536  1.00  0.00     0.124 S 
ATOM     70  O   UNL     1       4.687  19.168  -1.239  1.00  0.00    -0.237 OA
ATOM     71  O   UNL     1       6.843  20.107  -0.484  1.00  0.00    -0.237 OA
ATOM     72  O   UNL     1       6.367  19.892  -2.893  1.00  0.00    -0.744 OA
ENDBRANCH  68  69
ENDBRANCH  49  63
BRANCH  50  73
ATOM     73  C   UNL     1      11.311   5.755  -1.270  1.00  0.00    -0.014 A 
ATOM     74  C   UNL     1      12.303   5.341  -0.364  1.00  0.00     0.010 A 
ATOM     75  C   UNL     1      10.795   4.822  -2.189  1.00  0.00     0.010 A 
ATOM     76  C   UNL     1      12.779   4.027  -0.387  1.00  0.00     0.020 A 
ATOM     77  C   UNL     1      11.247   3.500  -2.195  1.00  0.00     0.020 A 
ATOM     78  C   UNL     1      12.245   3.113  -1.300  1.00  0.00     0.054 A 
BRANCH  78  79
ATOM     79  S   UNL     1      12.844   1.401  -1.274  1.00  0.00     0.124 S 
ATOM     80  O   UNL     1      14.193   1.543  -1.814  1.00  0.00    -0.237 OA
ATOM     81  O   UNL     1      12.762   1.062   0.145  1.00  0.00    -0.237 OA
ATOM     82  O   UNL     1      11.897   0.693  -2.133  1.00  0.00    -0.744 OA
ENDBRANCH  78  79
ENDBRANCH  50  73
BRANCH  62  83
ATOM     83  C   UNL     1      14.180  11.955  -2.766  1.00  0.00    -0.014 A 
ATOM     84  C   UNL     1      14.675  11.707  -4.058  1.00  0.00     0.010 A 
ATOM     85  C   UNL     1      14.964  12.694  -1.860  1.00  0.00     0.010 A 
ATOM     86  C   UNL     1      15.936  12.180  -4.431  1.00  0.00     0.020 A 
ATOM     87  C   UNL     1      16.212  13.194  -2.240  1.00  0.00     0.020 A 
ATOM     88  C   UNL     1      16.693  12.927  -3.522  1.00  0.00     0.054 A 
BRANCH  88  89
ATOM     89  S   UNL     1      18.292  13.595  -4.060  1.00  0.00     0.124 S 
ATOM     90  O   UNL     1      19.115  12.391  -4.133  1.00  0.00    -0.237 OA
ATOM     91  O   UNL     1      17.965  14.212  -5.343  1.00  0.00    -0.237 OA
ATOM     92  O   UNL     1      18.652  14.531  -2.998  1.00  0.00    -0.744 OA
ENDBRANCH  88  89
ENDBRANCH  62  83
ENDBRANCH  36  37
ENDBRANCH  29  31
ENDBRANCH  28  29
ENDBRANCH  27  28
ENDBRANCH  26  27
ENDBRANCH  25  26
ENDBRANCH  24  25
ENDBRANCH   1  24
TORSDOF 24
