REMARK SMILES COc1ccc2c(c1)c(CC(=O)OCCOCCOCCOCCOC(=O)c1ccc(-c3c4nc(c(-c5ccc(S(=O)(=O)[O-])cc5)c5ccc([nH]5)c(-c5ccc(S(=O)(=O)[O-])cc5)c5nc(c(-c6ccc(S(=O)(=O)[O-])cc6)c6ccc3[nH]6)C=C5)C=C4)cc1)c(C)n2C(=O)c1ccc(Cl)cc1
REMARK SMILES IDX 19 1 18 2 17 3 16 4 15 5 14 6 13 7 11 8 12 9 10 10 9 11 3 12
REMARK SMILES IDX 4 13 8 14 5 15 7 16 6 17 90 18 88 19 89 20 2 21 1 22 91 23
REMARK SMILES IDX 92 24 93 25 94 26 99 27 95 28 98 29 96 30 97 31 20 32 21 33
REMARK SMILES IDX 22 34 23 35 24 36 25 37 26 38 27 39 28 40 29 41 87 42 30 43
REMARK SMILES IDX 86 44 31 45 32 46 33 47 80 48 34 49 85 50 79 51 81 52 35 53
REMARK SMILES IDX 84 54 78 55 77 56 36 58 66 59 47 60 65 61 48 62 51 63 64 64
REMARK SMILES IDX 82 65 49 66 50 67 63 69 83 70 52 71 37 72 38 73 46 74 39 75
REMARK SMILES IDX 45 76 40 77 41 78 42 79 43 80 44 81 67 82 68 83 76 84 69 85
REMARK SMILES IDX 75 86 70 87 71 88 72 89 73 90 74 91 53 92 54 93 62 94 55 95
REMARK SMILES IDX 61 96 56 97 57 98 58 99 59 100 60 101
REMARK H PARENT 81 57 51 68
REMARK Flexibility Score: inf
ROOT
ATOM      1  O   UNL     1       0.153   4.107  -0.569  1.00  0.00    -0.377 OA
ENDROOT
BRANCH   1   2
ATOM      2  C   UNL     1      -0.995   4.178   0.243  1.00  0.00     0.188 C 
BRANCH   2   3
ATOM      3  C   UNL     1      -2.379   4.262  -0.385  1.00  0.00     0.188 C 
BRANCH   3   4
ATOM      4  O   UNL     1      -2.500   5.391  -1.232  1.00  0.00    -0.376 OA
BRANCH   4   5
ATOM      5  C   UNL     1      -3.134   6.543  -0.693  1.00  0.00     0.202 C 
BRANCH   5   6
ATOM      6  C   UNL     1      -2.469   7.348   0.447  1.00  0.00     0.261 C 
BRANCH   6   7
ATOM      7  O   UNL     1      -1.857   6.684   1.572  1.00  0.00    -0.463 OA
BRANCH   7   8
ATOM      8  C   UNL     1      -2.643   5.982   2.421  1.00  0.00     0.310 C 
ATOM      9  O   UNL     1      -3.827   5.735   2.206  1.00  0.00    -0.252 OA
BRANCH   8  10
ATOM     10  C   UNL     1      -1.939   5.505   3.688  1.00  0.00     0.160 C 
BRANCH  10  11
ATOM     11  C   UNL     1      -0.458   5.138   3.649  1.00  0.00    -0.008 A 
ATOM     12  C   UNL     1       0.373   1.546   2.561  1.00  0.00     0.119 A 
ATOM     13  C   UNL     1       1.746   1.674   2.632  1.00  0.00     0.048 A 
ATOM     14  C   UNL     1      -0.444   2.589   3.024  1.00  0.00     0.057 A 
ATOM     15  C   UNL     1       2.319   2.864   3.082  1.00  0.00     0.031 A 
ATOM     16  C   UNL     1       0.112   3.850   3.370  1.00  0.00     0.008 A 
ATOM     17  C   UNL     1       1.507   3.972   3.414  1.00  0.00     0.057 A 
ATOM     18  N   UNL     1       1.820   5.277   3.841  1.00  0.00    -0.280 N 
ATOM     19  C   UNL     1       0.608   5.977   3.973  1.00  0.00     0.028 A 
ATOM     20  C   UNL     1       0.487   7.417   4.379  1.00  0.00     0.065 C 
BRANCH  12  21
ATOM     21  O   UNL     1      -0.272   0.462   2.028  1.00  0.00    -0.497 OA
ATOM     22  C   UNL     1       0.456  -0.266   1.037  1.00  0.00     0.278 C 
ENDBRANCH  12  21
BRANCH  18  23
ATOM     23  C   UNL     1       3.137   5.764   4.118  1.00  0.00     0.262 C 
ATOM     24  O   UNL     1       3.291   6.872   4.628  1.00  0.00    -0.268 OA
BRANCH  23  25
ATOM     25  C   UNL     1       4.389   5.017   3.898  1.00  0.00     0.040 A 
ATOM     26  C   UNL     1       4.948   4.941   2.617  1.00  0.00     0.015 A 
ATOM     27  C   UNL     1       4.998   4.375   4.984  1.00  0.00     0.015 A 
ATOM     28  C   UNL     1       6.090   4.160   2.413  1.00  0.00     0.021 A 
ATOM     29  C   UNL     1       6.140   3.599   4.773  1.00  0.00     0.021 A 
ATOM     30  C   UNL     1       6.672   3.484   3.488  1.00  0.00     0.041 A 
ATOM     31  Cl  UNL     1       8.049   2.484   3.224  1.00  0.00    -0.084 Cl
ENDBRANCH  23  25
ENDBRANCH  18  23
ENDBRANCH  10  11
ENDBRANCH   8  10
ENDBRANCH   7   8
ENDBRANCH   6   7
ENDBRANCH   5   6
ENDBRANCH   4   5
ENDBRANCH   3   4
ENDBRANCH   2   3
ENDBRANCH   1   2
BRANCH   1  32
ATOM     32  C   UNL     1       0.119   4.816  -1.783  1.00  0.00     0.188 C 
BRANCH  32  33
ATOM     33  C   UNL     1      -0.354   3.936  -2.947  1.00  0.00     0.188 C 
BRANCH  33  34
ATOM     34  O   UNL     1       0.203   2.628  -3.160  1.00  0.00    -0.376 OA
BRANCH  34  35
ATOM     35  C   UNL     1       0.896   1.982  -2.100  1.00  0.00     0.202 C 
BRANCH  35  36
ATOM     36  C   UNL     1       2.411   2.267  -2.090  1.00  0.00     0.261 C 
BRANCH  36  37
ATOM     37  O   UNL     1       2.734   3.636  -2.372  1.00  0.00    -0.460 OA
BRANCH  37  38
ATOM     38  C   UNL     1       3.298   3.914  -3.581  1.00  0.00     0.338 C 
ATOM     39  O   UNL     1       3.891   3.155  -4.309  1.00  0.00    -0.246 OA
BRANCH  38  40
ATOM     40  C   UNL     1       2.791   5.255  -3.974  1.00  0.00     0.060 A 
ATOM     41  C   UNL     1       2.831   6.329  -3.082  1.00  0.00     0.016 A 
ATOM     42  C   UNL     1       1.995   5.315  -5.127  1.00  0.00     0.016 A 
ATOM     43  C   UNL     1       1.932   7.378  -3.260  1.00  0.00     0.010 A 
ATOM     44  C   UNL     1       1.104   6.377  -5.307  1.00  0.00     0.010 A 
ATOM     45  C   UNL     1       1.022   7.377  -4.338  1.00  0.00    -0.014 A 
BRANCH  45  46
ATOM     46  C   UNL     1       0.172   8.568  -4.484  1.00  0.00     0.031 A 
ATOM     47  C   UNL     1       0.974   9.809  -4.655  1.00  0.00     0.074 A 
ATOM     48  C   UNL     1      -1.165   8.672  -4.632  1.00  0.00     0.049 A 
ATOM     49  N   UNL     1       1.033  10.848  -3.889  1.00  0.00    -0.248 NA
ATOM     50  C   UNL     1       1.929   9.809  -5.774  1.00  0.00     0.031 C 
ATOM     51  C   UNL     1      -2.149   7.621  -4.885  1.00  0.00     0.029 A 
ATOM     52  N   UNL     1      -1.914   9.820  -4.689  1.00  0.00    -0.354 N 
ATOM     53  C   UNL     1       1.944  11.703  -4.498  1.00  0.00     0.074 A 
ATOM     54  C   UNL     1       2.564  10.957  -5.565  1.00  0.00     0.031 C 
ATOM     55  C   UNL     1      -3.307   8.194  -5.298  1.00  0.00     0.029 A 
ATOM     56  C   UNL     1      -3.189   9.643  -5.205  1.00  0.00     0.049 A 
ATOM     57  H   UNL     1      -1.575  10.695  -4.390  1.00  0.00     0.167 HD
ATOM     58  C   UNL     1       2.038  13.027  -4.206  1.00  0.00     0.031 A 
ATOM     59  C   UNL     1      -4.041  10.621  -5.607  1.00  0.00     0.031 A 
ATOM     60  C   UNL     1       1.391  13.373  -2.973  1.00  0.00     0.049 A 
ATOM     61  C   UNL     1      -3.612  11.905  -5.000  1.00  0.00     0.074 A 
ATOM     62  C   UNL     1       1.566  13.007  -1.654  1.00  0.00     0.029 A 
ATOM     63  N   UNL     1       0.164  13.986  -3.039  1.00  0.00    -0.354 N 
ATOM     64  N   UNL     1      -3.704  12.197  -3.734  1.00  0.00    -0.248 NA
ATOM     65  C   UNL     1      -2.781  12.803  -5.785  1.00  0.00     0.031 C 
ATOM     66  C   UNL     1       0.261  13.012  -1.088  1.00  0.00     0.029 A 
ATOM     67  C   UNL     1      -0.636  13.406  -2.085  1.00  0.00     0.049 A 
ATOM     68  H   UNL     1      -0.095  14.707  -3.657  1.00  0.00     0.167 HD
ATOM     69  C   UNL     1      -2.645  13.056  -3.485  1.00  0.00     0.074 A 
ATOM     70  C   UNL     1      -2.198  13.490  -4.802  1.00  0.00     0.031 C 
ATOM     71  C   UNL     1      -2.053  13.126  -2.255  1.00  0.00     0.031 A 
BRANCH  58  72
ATOM     72  C   UNL     1       2.506  14.046  -5.208  1.00  0.00    -0.014 A 
ATOM     73  C   UNL     1       2.480  13.801  -6.598  1.00  0.00     0.010 A 
ATOM     74  C   UNL     1       2.787  15.361  -4.796  1.00  0.00     0.010 A 
ATOM     75  C   UNL     1       2.779  14.789  -7.533  1.00  0.00     0.020 A 
ATOM     76  C   UNL     1       3.033  16.378  -5.731  1.00  0.00     0.020 A 
ATOM     77  C   UNL     1       3.041  16.079  -7.094  1.00  0.00     0.054 A 
BRANCH  77  78
ATOM     78  S   UNL     1       3.284  17.362  -8.345  1.00  0.00     0.124 S 
ATOM     79  O   UNL     1       4.616  17.038  -8.851  1.00  0.00    -0.237 OA
ATOM     80  O   UNL     1       2.182  17.112  -9.269  1.00  0.00    -0.237 OA
ATOM     81  O   UNL     1       3.187  18.604  -7.583  1.00  0.00    -0.744 OA
ENDBRANCH  77  78
ENDBRANCH  58  72
BRANCH  59  82
ATOM     82  C   UNL     1      -4.993  10.603  -6.750  1.00  0.00    -0.014 A 
ATOM     83  C   UNL     1      -4.736   9.779  -7.863  1.00  0.00     0.010 A 
ATOM     84  C   UNL     1      -5.960  11.620  -6.894  1.00  0.00     0.010 A 
ATOM     85  C   UNL     1      -5.352  10.011  -9.096  1.00  0.00     0.020 A 
ATOM     86  C   UNL     1      -6.578  11.863  -8.133  1.00  0.00     0.020 A 
ATOM     87  C   UNL     1      -6.238  11.078  -9.235  1.00  0.00     0.054 A 
BRANCH  87  88
ATOM     88  S   UNL     1      -6.846  11.475 -10.900  1.00  0.00     0.124 S 
ATOM     89  O   UNL     1      -5.627  11.921 -11.568  1.00  0.00    -0.237 OA
ATOM     90  O   UNL     1      -7.376  10.192 -11.355  1.00  0.00    -0.237 OA
ATOM     91  O   UNL     1      -7.848  12.511 -10.667  1.00  0.00    -0.744 OA
ENDBRANCH  87  88
ENDBRANCH  59  82
BRANCH  71  92
ATOM     92  C   UNL     1      -2.779  12.577  -1.041  1.00  0.00    -0.014 A 
ATOM     93  C   UNL     1      -2.736  13.333   0.150  1.00  0.00     0.010 A 
ATOM     94  C   UNL     1      -3.348  11.292  -0.984  1.00  0.00     0.010 A 
ATOM     95  C   UNL     1      -3.178  12.801   1.365  1.00  0.00     0.020 A 
ATOM     96  C   UNL     1      -3.851  10.779   0.218  1.00  0.00     0.020 A 
ATOM     97  C   UNL     1      -3.713  11.514   1.395  1.00  0.00     0.054 A 
BRANCH  97  98
ATOM     98  S   UNL     1      -4.169  10.797   2.996  1.00  0.00     0.124 S 
ATOM     99  O   UNL     1      -2.865  10.581   3.621  1.00  0.00    -0.237 OA
ATOM    100  O   UNL     1      -4.988  11.845   3.600  1.00  0.00    -0.237 OA
ATOM    101  O   UNL     1      -4.886   9.575   2.640  1.00  0.00    -0.744 OA
ENDBRANCH  97  98
ENDBRANCH  71  92
ENDBRANCH  45  46
ENDBRANCH  38  40
ENDBRANCH  37  38
ENDBRANCH  36  37
ENDBRANCH  35  36
ENDBRANCH  34  35
ENDBRANCH  33  34
ENDBRANCH  32  33
ENDBRANCH   1  32
TORSDOF 27
