REMARK SMILES CC[C@@H](C)SCc1cc(F)cc(/C=C/C(=O)OCCOCCOCCOCCOC(=O)c2ccc(-c3c4nc(c(-c5ccc(S(=O)(=O)[O-])cc5)c5ccc([nH]5)c(-c5ccc(S(=O)(=O)[O-])cc5)c5nc(c(-c6ccc(S(=O)(=O)[O-])cc6)c6ccc3[nH]6)C=C5)C=C4)cc2)c1
REMARK SMILES IDX 22 1 21 2 20 3 19 4 18 5 17 6 15 7 16 8 14 9 13 10 12 11
REMARK SMILES IDX 7 12 8 13 92 14 9 15 10 16 11 17 6 18 5 19 3 20 4 21 2 22
REMARK SMILES IDX 1 23 23 24 24 25 25 26 26 27 27 28 28 29 29 30 30 31 31 32
REMARK SMILES IDX 32 33 33 34 91 35 34 36 90 37 35 38 36 39 37 40 84 41 38 42
REMARK SMILES IDX 89 43 83 44 85 45 39 46 88 47 82 48 81 49 40 51 70 52 51 53
REMARK SMILES IDX 69 54 52 55 55 56 68 57 86 58 53 59 54 60 67 62 87 63 56 64
REMARK SMILES IDX 41 65 42 66 50 67 43 68 49 69 44 70 45 71 46 72 47 73 48 74
REMARK SMILES IDX 71 75 72 76 80 77 73 78 79 79 74 80 75 81 76 82 77 83 78 84
REMARK SMILES IDX 57 85 58 86 66 87 59 88 65 89 60 90 61 91 62 92 63 93 64 94
REMARK H PARENT 85 50 55 61
REMARK Flexibility Score: inf
ROOT
ATOM      1  C   UNL     1      -1.469   7.897  -5.617  1.00  0.00     0.188 C 
ENDROOT
BRANCH   1   2
ATOM      2  C   UNL     1      -2.692   8.066  -6.537  1.00  0.00     0.188 C 
BRANCH   2   3
ATOM      3  O   UNL     1      -2.940   9.405  -6.920  1.00  0.00    -0.376 OA
BRANCH   3   4
ATOM      4  C   UNL     1      -3.867  10.212  -6.215  1.00  0.00     0.202 C 
BRANCH   4   5
ATOM      5  C   UNL     1      -4.035  10.190  -4.685  1.00  0.00     0.261 C 
BRANCH   5   6
ATOM      6  O   UNL     1      -3.786   8.953  -4.016  1.00  0.00    -0.460 OA
BRANCH   6   7
ATOM      7  C   UNL     1      -4.768   8.036  -4.046  1.00  0.00     0.330 C 
ATOM      8  O   UNL     1      -5.854   8.151  -4.594  1.00  0.00    -0.247 OA
BRANCH   7   9
ATOM      9  C   UNL     1      -4.318   6.759  -3.450  1.00  0.00     0.094 C 
ATOM     10  C   UNL     1      -3.224   6.583  -2.687  1.00  0.00     0.016 C 
BRANCH  10  11
ATOM     11  C   UNL     1      -2.850   5.264  -2.150  1.00  0.00    -0.022 A 
ATOM     12  C   UNL     1      -1.955   3.915  -0.311  1.00  0.00    -0.035 A 
ATOM     13  C   UNL     1      -2.362   2.759  -0.988  1.00  0.00     0.043 A 
ATOM     14  C   UNL     1      -2.209   5.168  -0.904  1.00  0.00     0.013 A 
ATOM     15  C   UNL     1      -2.898   2.853  -2.263  1.00  0.00     0.124 A 
ATOM     16  F   UNL     1      -3.204   1.733  -2.932  1.00  0.00    -0.207 F 
ATOM     17  C   UNL     1      -3.124   4.086  -2.855  1.00  0.00     0.047 A 
BRANCH  12  18
ATOM     18  C   UNL     1      -1.272   3.809   1.027  1.00  0.00     0.105 C 
BRANCH  18  19
ATOM     19  S   UNL     1       0.536   4.020   0.976  1.00  0.00    -0.154 SA
BRANCH  19  20
ATOM     20  C   UNL     1       1.163   2.488   0.157  1.00  0.00     0.043 C 
ATOM     21  C   UNL     1       1.039   2.566  -1.364  1.00  0.00     0.019 C 
BRANCH  20  22
ATOM     22  C   UNL     1       0.616   1.194   0.779  1.00  0.00     0.011 C 
ATOM     23  C   UNL     1       1.153  -0.073   0.122  1.00  0.00     0.005 C 
ENDBRANCH  20  22
ENDBRANCH  19  20
ENDBRANCH  18  19
ENDBRANCH  12  18
ENDBRANCH  10  11
ENDBRANCH   7   9
ENDBRANCH   6   7
ENDBRANCH   5   6
ENDBRANCH   4   5
ENDBRANCH   3   4
ENDBRANCH   2   3
ENDBRANCH   1   2
BRANCH   1  24
ATOM     24  O   UNL     1      -1.082   9.056  -4.900  1.00  0.00    -0.377 OA
BRANCH  24  25
ATOM     25  C   UNL     1      -0.476  10.145  -5.599  1.00  0.00     0.188 C 
BRANCH  25  26
ATOM     26  C   UNL     1      -0.288  10.168  -7.137  1.00  0.00     0.188 C 
BRANCH  26  27
ATOM     27  O   UNL     1      -0.200   8.893  -7.753  1.00  0.00    -0.376 OA
BRANCH  27  28
ATOM     28  C   UNL     1       1.065   8.475  -8.235  1.00  0.00     0.202 C 
BRANCH  28  29
ATOM     29  C   UNL     1       2.124   8.173  -7.166  1.00  0.00     0.261 C 
BRANCH  29  30
ATOM     30  O   UNL     1       2.405   9.243  -6.252  1.00  0.00    -0.460 OA
BRANCH  30  31
ATOM     31  C   UNL     1       2.956  10.354  -6.781  1.00  0.00     0.338 C 
ATOM     32  O   UNL     1       3.261  10.534  -7.953  1.00  0.00    -0.246 OA
BRANCH  31  33
ATOM     33  C   UNL     1       2.965  11.409  -5.751  1.00  0.00     0.060 A 
ATOM     34  C   UNL     1       2.327  12.624  -6.029  1.00  0.00     0.016 A 
ATOM     35  C   UNL     1       3.624  11.215  -4.534  1.00  0.00     0.016 A 
ATOM     36  C   UNL     1       2.417  13.679  -5.125  1.00  0.00     0.010 A 
ATOM     37  C   UNL     1       3.726  12.279  -3.633  1.00  0.00     0.010 A 
ATOM     38  C   UNL     1       3.174  13.533  -3.955  1.00  0.00    -0.014 A 
BRANCH  38  39
ATOM     39  C   UNL     1       3.607  14.753  -3.230  1.00  0.00     0.031 A 
ATOM     40  C   UNL     1       4.984  15.296  -3.523  1.00  0.00     0.074 A 
ATOM     41  C   UNL     1       2.783  15.411  -2.395  1.00  0.00     0.049 A 
ATOM     42  N   UNL     1       5.575  16.362  -3.051  1.00  0.00    -0.248 NA
ATOM     43  C   UNL     1       5.802  14.530  -4.480  1.00  0.00     0.031 C 
ATOM     44  C   UNL     1       1.413  15.018  -2.070  1.00  0.00     0.029 A 
ATOM     45  N   UNL     1       2.984  16.562  -1.675  1.00  0.00    -0.354 N 
ATOM     46  C   UNL     1       6.832  16.390  -3.647  1.00  0.00     0.074 A 
ATOM     47  C   UNL     1       6.934  15.216  -4.482  1.00  0.00     0.031 C 
ATOM     48  C   UNL     1       0.894  15.917  -1.214  1.00  0.00     0.029 A 
ATOM     49  C   UNL     1       1.903  16.932  -0.910  1.00  0.00     0.049 A 
ATOM     50  H   UNL     1       3.824  17.075  -1.703  1.00  0.00     0.167 HD
ATOM     51  C   UNL     1       7.811  17.317  -3.523  1.00  0.00     0.031 A 
ATOM     52  C   UNL     1       1.751  17.965  -0.057  1.00  0.00     0.031 A 
ATOM     53  C   UNL     1       7.712  18.480  -2.682  1.00  0.00     0.049 A 
ATOM     54  C   UNL     1       2.882  18.947   0.120  1.00  0.00     0.074 A 
ATOM     55  C   UNL     1       8.645  19.483  -2.489  1.00  0.00     0.029 A 
ATOM     56  N   UNL     1       6.617  18.793  -1.891  1.00  0.00    -0.354 N 
ATOM     57  N   UNL     1       4.058  18.970  -0.463  1.00  0.00    -0.248 NA
ATOM     58  C   UNL     1       2.656  20.056   1.058  1.00  0.00     0.031 C 
ATOM     59  C   UNL     1       8.140  20.369  -1.532  1.00  0.00     0.029 A 
ATOM     60  C   UNL     1       6.860  19.962  -1.190  1.00  0.00     0.049 A 
ATOM     61  H   UNL     1       5.790  18.262  -1.836  1.00  0.00     0.167 HD
ATOM     62  C   UNL     1       4.693  20.118   0.005  1.00  0.00     0.074 A 
ATOM     63  C   UNL     1       3.766  20.765   0.910  1.00  0.00     0.031 C 
ATOM     64  C   UNL     1       5.927  20.598  -0.294  1.00  0.00     0.031 A 
BRANCH  51  65
ATOM     65  C   UNL     1       9.089  17.085  -4.286  1.00  0.00    -0.014 A 
ATOM     66  C   UNL     1       9.133  17.176  -5.690  1.00  0.00     0.010 A 
ATOM     67  C   UNL     1      10.273  16.796  -3.584  1.00  0.00     0.010 A 
ATOM     68  C   UNL     1      10.328  16.943  -6.377  1.00  0.00     0.020 A 
ATOM     69  C   UNL     1      11.477  16.596  -4.265  1.00  0.00     0.020 A 
ATOM     70  C   UNL     1      11.492  16.654  -5.660  1.00  0.00     0.054 A 
BRANCH  70  71
ATOM     71  S   UNL     1      13.034  16.382  -6.576  1.00  0.00     0.124 S 
ATOM     72  O   UNL     1      12.784  15.089  -7.209  1.00  0.00    -0.237 OA
ATOM     73  O   UNL     1      13.073  17.528  -7.481  1.00  0.00    -0.237 OA
ATOM     74  O   UNL     1      14.060  16.378  -5.536  1.00  0.00    -0.744 OA
ENDBRANCH  70  71
ENDBRANCH  51  65
BRANCH  52  75
ATOM     75  C   UNL     1       0.479  18.125   0.704  1.00  0.00    -0.014 A 
ATOM     76  C   UNL     1      -0.380  19.211   0.458  1.00  0.00     0.010 A 
ATOM     77  C   UNL     1       0.127  17.190   1.695  1.00  0.00     0.010 A 
ATOM     78  C   UNL     1      -1.553  19.371   1.203  1.00  0.00     0.020 A 
ATOM     79  C   UNL     1      -1.060  17.329   2.419  1.00  0.00     0.020 A 
ATOM     80  C   UNL     1      -1.887  18.426   2.177  1.00  0.00     0.054 A 
BRANCH  80  81
ATOM     81  S   UNL     1      -3.437  18.629   3.098  1.00  0.00     0.124 S 
ATOM     82  O   UNL     1      -3.138  19.776   3.950  1.00  0.00    -0.237 OA
ATOM     83  O   UNL     1      -4.407  18.867   2.031  1.00  0.00    -0.237 OA
ATOM     84  O   UNL     1      -3.591  17.354   3.795  1.00  0.00    -0.744 OA
ENDBRANCH  80  81
ENDBRANCH  52  75
BRANCH  64  85
ATOM     85  C   UNL     1       6.327  21.921   0.310  1.00  0.00    -0.014 A 
ATOM     86  C   UNL     1       6.575  22.064   1.687  1.00  0.00     0.010 A 
ATOM     87  C   UNL     1       6.494  23.036  -0.533  1.00  0.00     0.010 A 
ATOM     88  C   UNL     1       6.931  23.309   2.215  1.00  0.00     0.020 A 
ATOM     89  C   UNL     1       6.885  24.273  -0.014  1.00  0.00     0.020 A 
ATOM     90  C   UNL     1       7.079  24.406   1.361  1.00  0.00     0.054 A 
BRANCH  90  91
ATOM     91  S   UNL     1       7.554  26.007   2.068  1.00  0.00     0.124 S 
ATOM     92  O   UNL     1       6.330  26.410   2.755  1.00  0.00    -0.237 OA
ATOM     93  O   UNL     1       8.676  25.655   2.935  1.00  0.00    -0.237 OA
ATOM     94  O   UNL     1       7.906  26.812   0.900  1.00  0.00    -0.744 OA
ENDBRANCH  90  91
ENDBRANCH  64  85
ENDBRANCH  38  39
ENDBRANCH  31  33
ENDBRANCH  30  31
ENDBRANCH  29  30
ENDBRANCH  28  29
ENDBRANCH  27  28
ENDBRANCH  26  27
ENDBRANCH  25  26
ENDBRANCH  24  25
ENDBRANCH   1  24
TORSDOF 28
