REMARK SMILES CC[C@H]([NH3+])C(=O)N(C)c1snc(C)c1C(=O)OCCOCCOCCOCCOC(=O)c1ccc(-c2c3nc(c(-c4ccc(S(=O)(=O)[O-])cc4)c4ccc([nH]4)c(-c4ccc(S(=O)(=O)[O-])cc4)c4nc(c(-c5ccc(S(=O)(=O)[O-])cc5)c5ccc2[nH]5)C=C4)C=C3)cc1
REMARK SMILES IDX 22 1 21 2 20 3 19 4 18 5 17 6 15 7 16 8 14 9 9 10 10 11
REMARK SMILES IDX 11 12 12 13 13 14 7 15 8 16 5 17 6 18 3 19 2 20 1 21 4 22
REMARK SMILES IDX 23 26 24 27 25 28 26 29 27 30 28 31 29 32 30 33 31 34 32 35
REMARK SMILES IDX 33 36 91 37 34 38 90 39 35 40 36 41 37 42 84 43 38 44 89 45
REMARK SMILES IDX 83 46 85 47 39 48 88 49 82 50 81 51 40 53 70 54 51 55 69 56
REMARK SMILES IDX 52 57 55 58 68 59 86 60 53 61 54 62 67 64 87 65 56 66 41 67
REMARK SMILES IDX 42 68 50 69 43 70 49 71 44 72 45 73 46 74 47 75 48 76 71 77
REMARK SMILES IDX 72 78 80 79 73 80 79 81 74 82 75 83 76 84 77 85 78 86 57 87
REMARK SMILES IDX 58 88 66 89 59 90 65 91 60 92 61 93 62 94 63 95 64 96
REMARK H PARENT 4 23 4 24 4 25 85 52 55 63
REMARK Flexibility Score: inf
ROOT
ATOM      1  C   UNL     1      -1.189   7.006  -1.954  1.00  0.00     0.188 C 
ENDROOT
BRANCH   1   2
ATOM      2  C   UNL     1      -0.205   8.152  -1.627  1.00  0.00     0.188 C 
BRANCH   2   3
ATOM      3  O   UNL     1       1.024   8.293  -2.318  1.00  0.00    -0.376 OA
BRANCH   3   4
ATOM      4  C   UNL     1       2.037   7.303  -2.323  1.00  0.00     0.202 C 
BRANCH   4   5
ATOM      5  C   UNL     1       2.244   6.248  -1.226  1.00  0.00     0.261 C 
BRANCH   5   6
ATOM      6  O   UNL     1       1.113   5.943  -0.422  1.00  0.00    -0.460 OA
BRANCH   6   7
ATOM      7  C   UNL     1       1.046   6.551   0.799  1.00  0.00     0.343 C 
ATOM      8  O   UNL     1       1.889   7.325   1.236  1.00  0.00    -0.246 OA
BRANCH   7   9
ATOM      9  C   UNL     1      -0.267   6.365   1.404  1.00  0.00     0.117 A 
ATOM     10  C   UNL     1      -1.029   5.196   1.366  1.00  0.00     0.133 A 
ATOM     11  S   UNL     1      -2.565   5.550   2.043  1.00  0.00    -0.017 S 
ATOM     12  N   UNL     1      -2.296   7.143   2.338  1.00  0.00    -0.195 NA
ATOM     13  C   UNL     1      -1.071   7.462   1.922  1.00  0.00     0.068 A 
ATOM     14  C   UNL     1      -0.737   8.921   1.915  1.00  0.00     0.069 C 
BRANCH  10  15
ATOM     15  N   UNL     1      -0.801   3.888   0.864  1.00  0.00    -0.300 N 
ATOM     16  C   UNL     1      -1.925   3.067   0.400  1.00  0.00     0.154 C 
BRANCH  15  17
ATOM     17  C   UNL     1       0.527   3.441   0.849  1.00  0.00     0.285 C 
ATOM     18  O   UNL     1       1.398   3.958   1.564  1.00  0.00    -0.268 OA
BRANCH  17  19
ATOM     19  C   UNL     1       0.942   2.218  -0.022  1.00  0.00     0.271 C 
BRANCH  19  20
ATOM     20  C   UNL     1       0.561   2.300  -1.510  1.00  0.00     0.072 C 
ATOM     21  C   UNL     1       1.320   1.290  -2.367  1.00  0.00     0.011 C 
ENDBRANCH  19  20
BRANCH  19  22
ATOM     22  N   UNL     1       0.576   0.950   0.639  1.00  0.00    -0.347 N 
ATOM     23  H   UNL     1      -0.440   0.885   0.712  1.00  0.00     0.345 HD
ATOM     24  H   UNL     1       0.986   0.923   1.573  1.00  0.00     0.345 HD
ATOM     25  H   UNL     1       0.928   0.166   0.091  1.00  0.00     0.345 HD
ENDBRANCH  19  22
ENDBRANCH  17  19
ENDBRANCH  15  17
ENDBRANCH  10  15
ENDBRANCH   7   9
ENDBRANCH   6   7
ENDBRANCH   5   6
ENDBRANCH   4   5
ENDBRANCH   3   4
ENDBRANCH   2   3
ENDBRANCH   1   2
BRANCH   1  26
ATOM     26  O   UNL     1      -0.613   5.914  -2.639  1.00  0.00    -0.377 OA
BRANCH  26  27
ATOM     27  C   UNL     1      -0.517   6.016  -4.059  1.00  0.00     0.188 C 
BRANCH  27  28
ATOM     28  C   UNL     1      -0.470   7.390  -4.792  1.00  0.00     0.188 C 
BRANCH  28  29
ATOM     29  O   UNL     1      -1.055   8.479  -4.100  1.00  0.00    -0.376 OA
BRANCH  29  30
ATOM     30  C   UNL     1      -2.261   9.130  -4.450  1.00  0.00     0.202 C 
BRANCH  30  31
ATOM     31  C   UNL     1      -3.565   8.341  -4.478  1.00  0.00     0.261 C 
BRANCH  31  32
ATOM     32  O   UNL     1      -3.382   6.993  -4.841  1.00  0.00    -0.460 OA
BRANCH  32  33
ATOM     33  C   UNL     1      -3.095   6.826  -6.147  1.00  0.00     0.338 C 
ATOM     34  O   UNL     1      -2.888   7.686  -6.974  1.00  0.00    -0.246 OA
BRANCH  33  35
ATOM     35  C   UNL     1      -3.116   5.386  -6.411  1.00  0.00     0.060 A 
ATOM     36  C   UNL     1      -2.724   4.998  -7.689  1.00  0.00     0.016 A 
ATOM     37  C   UNL     1      -3.860   4.563  -5.550  1.00  0.00     0.016 A 
ATOM     38  C   UNL     1      -3.402   3.948  -8.246  1.00  0.00     0.010 A 
ATOM     39  C   UNL     1      -4.532   3.516  -6.105  1.00  0.00     0.010 A 
ATOM     40  C   UNL     1      -4.399   3.343  -7.477  1.00  0.00    -0.014 A 
BRANCH  40  41
ATOM     41  C   UNL     1      -5.401   2.573  -8.160  1.00  0.00     0.031 A 
ATOM     42  C   UNL     1      -4.944   1.213  -8.467  1.00  0.00     0.074 A 
ATOM     43  C   UNL     1      -6.632   3.074  -8.374  1.00  0.00     0.049 A 
ATOM     44  N   UNL     1      -4.587   0.753  -9.617  1.00  0.00    -0.248 NA
ATOM     45  C   UNL     1      -4.619   0.341  -7.327  1.00  0.00     0.031 C 
ATOM     46  C   UNL     1      -7.236   4.305  -7.848  1.00  0.00     0.029 A 
ATOM     47  N   UNL     1      -7.662   2.497  -9.031  1.00  0.00    -0.354 N 
ATOM     48  C   UNL     1      -4.215  -0.558  -9.372  1.00  0.00     0.074 A 
ATOM     49  C   UNL     1      -4.014  -0.669  -7.950  1.00  0.00     0.031 C 
ATOM     50  C   UNL     1      -8.582   4.229  -7.986  1.00  0.00     0.029 A 
ATOM     51  C   UNL     1      -8.909   3.021  -8.727  1.00  0.00     0.049 A 
ATOM     52  H   UNL     1      -7.537   1.763  -9.675  1.00  0.00     0.167 HD
ATOM     53  C   UNL     1      -4.399  -1.530 -10.303  1.00  0.00     0.031 A 
ATOM     54  C   UNL     1     -10.103   2.425  -8.984  1.00  0.00     0.031 A 
ATOM     55  C   UNL     1      -4.679  -0.983 -11.605  1.00  0.00     0.049 A 
ATOM     56  C   UNL     1      -9.852   1.398 -10.034  1.00  0.00     0.074 A 
ATOM     57  C   UNL     1      -3.987  -0.168 -12.478  1.00  0.00     0.029 A 
ATOM     58  N   UNL     1      -6.003  -0.911 -11.982  1.00  0.00    -0.354 N 
ATOM     59  N   UNL     1      -9.466   1.701 -11.245  1.00  0.00    -0.248 NA
ATOM     60  C   UNL     1      -9.518   0.046  -9.604  1.00  0.00     0.031 C 
ATOM     61  C   UNL     1      -4.971   0.706 -13.026  1.00  0.00     0.029 A 
ATOM     62  C   UNL     1      -6.218   0.336 -12.516  1.00  0.00     0.049 A 
ATOM     63  H   UNL     1      -6.673  -1.625 -11.885  1.00  0.00     0.167 HD
ATOM     64  C   UNL     1      -8.490   0.763 -11.563  1.00  0.00     0.074 A 
ATOM     65  C   UNL     1      -8.625  -0.280 -10.545  1.00  0.00     0.031 C 
ATOM     66  C   UNL     1      -7.474   1.057 -12.431  1.00  0.00     0.031 A 
BRANCH  53  67
ATOM     67  C   UNL     1      -4.743  -2.942  -9.924  1.00  0.00    -0.014 A 
ATOM     68  C   UNL     1      -4.743  -3.934 -10.917  1.00  0.00     0.010 A 
ATOM     69  C   UNL     1      -5.316  -3.273  -8.675  1.00  0.00     0.010 A 
ATOM     70  C   UNL     1      -5.332  -5.182 -10.683  1.00  0.00     0.020 A 
ATOM     71  C   UNL     1      -5.860  -4.527  -8.416  1.00  0.00     0.020 A 
ATOM     72  C   UNL     1      -5.895  -5.464  -9.436  1.00  0.00     0.054 A 
BRANCH  72  73
ATOM     73  S   UNL     1      -6.749  -7.035  -9.180  1.00  0.00     0.124 S 
ATOM     74  O   UNL     1      -7.884  -6.909 -10.088  1.00  0.00    -0.237 OA
ATOM     75  O   UNL     1      -5.729  -8.005  -9.566  1.00  0.00    -0.237 OA
ATOM     76  O   UNL     1      -7.079  -7.017  -7.757  1.00  0.00    -0.744 OA
ENDBRANCH  72  73
ENDBRANCH  53  67
BRANCH  54  77
ATOM     77  C   UNL     1     -11.279   2.396  -8.072  1.00  0.00    -0.014 A 
ATOM     78  C   UNL     1     -12.557   2.006  -8.514  1.00  0.00     0.010 A 
ATOM     79  C   UNL     1     -11.082   2.511  -6.679  1.00  0.00     0.010 A 
ATOM     80  C   UNL     1     -13.585   1.714  -7.595  1.00  0.00     0.020 A 
ATOM     81  C   UNL     1     -12.097   2.225  -5.760  1.00  0.00     0.020 A 
ATOM     82  C   UNL     1     -13.343   1.812  -6.221  1.00  0.00     0.054 A 
BRANCH  82  83
ATOM     83  S   UNL     1     -14.623   1.300  -5.034  1.00  0.00     0.124 S 
ATOM     84  O   UNL     1     -15.636   2.338  -5.200  1.00  0.00    -0.237 OA
ATOM     85  O   UNL     1     -14.992  -0.028  -5.517  1.00  0.00    -0.237 OA
ATOM     86  O   UNL     1     -13.927   1.315  -3.748  1.00  0.00    -0.744 OA
ENDBRANCH  82  83
ENDBRANCH  54  77
BRANCH  66  87
ATOM     87  C   UNL     1      -7.556   2.353 -13.213  1.00  0.00    -0.014 A 
ATOM     88  C   UNL     1      -7.537   3.632 -12.617  1.00  0.00     0.010 A 
ATOM     89  C   UNL     1      -7.491   2.272 -14.614  1.00  0.00     0.010 A 
ATOM     90  C   UNL     1      -7.486   4.794 -13.405  1.00  0.00     0.020 A 
ATOM     91  C   UNL     1      -7.424   3.424 -15.403  1.00  0.00     0.020 A 
ATOM     92  C   UNL     1      -7.434   4.680 -14.797  1.00  0.00     0.054 A 
BRANCH  92  93
ATOM     93  S   UNL     1      -7.343   6.181 -15.817  1.00  0.00     0.124 S 
ATOM     94  O   UNL     1      -8.656   6.785 -15.610  1.00  0.00    -0.237 OA
ATOM     95  O   UNL     1      -6.217   6.905 -15.230  1.00  0.00    -0.237 OA
ATOM     96  O   UNL     1      -7.103   5.670 -17.166  1.00  0.00    -0.744 OA
ENDBRANCH  92  93
ENDBRANCH  66  87
ENDBRANCH  40  41
ENDBRANCH  33  35
ENDBRANCH  32  33
ENDBRANCH  31  32
ENDBRANCH  30  31
ENDBRANCH  29  30
ENDBRANCH  28  29
ENDBRANCH  27  28
ENDBRANCH  26  27
ENDBRANCH   1  26
TORSDOF 28
