REMARK SMILES Cc1cccc(CS[C@@H]2CC[C@]([NH3+])(C(=O)OCCOCCOCCOCCOC(=O)c3ccc(-c4c5nc(c(-c6ccc(S(=O)(=O)[O-])cc6)c6ccc([nH]6)c(-c6ccc(S(=O)(=O)[O-])cc6)c6nc(c(-c7ccc(S(=O)(=O)[O-])cc7)c7ccc4[nH]7)C=C6)C=C5)cc3)C2)c1
REMARK SMILES IDX 22 1 21 2 20 3 19 4 18 5 17 6 16 7 14 8 15 9 12 10 9 11
REMARK SMILES IDX 10 12 91 13 11 14 8 15 7 16 6 17 1 18 2 19 3 20 92 21 4 22
REMARK SMILES IDX 5 23 13 24 23 28 24 29 25 30 26 31 27 32 28 33 29 34 30 35
REMARK SMILES IDX 31 36 32 37 90 38 33 39 89 40 34 41 35 42 36 43 83 44 37 45
REMARK SMILES IDX 88 46 82 47 84 48 38 49 87 50 81 51 80 52 39 54 69 55 50 56
REMARK SMILES IDX 68 57 51 58 54 59 67 60 85 61 52 62 53 63 66 65 86 66 55 67
REMARK SMILES IDX 40 68 41 69 49 70 42 71 48 72 43 73 44 74 45 75 46 76 47 77
REMARK SMILES IDX 70 78 71 79 79 80 72 81 78 82 73 83 74 84 75 85 76 86 77 87
REMARK SMILES IDX 56 88 57 89 65 90 58 91 64 92 59 93 60 94 61 95 62 96 63 97
REMARK H PARENT 13 25 13 26 13 27 84 53 54 64
REMARK Flexibility Score: inf
ROOT
ATOM      1  O   UNL     1       0.883   3.672  -6.797  1.00  0.00    -0.377 OA
ENDROOT
BRANCH   1   2
ATOM      2  C   UNL     1       0.195   4.909  -6.897  1.00  0.00     0.188 C 
BRANCH   2   3
ATOM      3  C   UNL     1       0.181   5.889  -5.705  1.00  0.00     0.188 C 
BRANCH   3   4
ATOM      4  O   UNL     1       1.402   6.318  -5.129  1.00  0.00    -0.376 OA
BRANCH   4   5
ATOM      5  C   UNL     1       2.004   5.361  -4.265  1.00  0.00     0.202 C 
BRANCH   5   6
ATOM      6  C   UNL     1       1.563   5.418  -2.808  1.00  0.00     0.261 C 
BRANCH   6   7
ATOM      7  O   UNL     1       0.717   4.280  -2.575  1.00  0.00    -0.459 OA
BRANCH   7   8
ATOM      8  C   UNL     1      -0.599   4.557  -2.693  1.00  0.00     0.368 C 
ATOM      9  O   UNL     1      -1.091   5.668  -2.600  1.00  0.00    -0.245 OA
BRANCH   8  10
ATOM     10  C   UNL     1      -1.416   3.328  -3.118  1.00  0.00     0.193 C 
ATOM     11  C   UNL     1      -3.264   2.011  -2.239  1.00  0.00     0.054 C 
ATOM     12  C   UNL     1      -2.126   1.074  -2.666  1.00  0.00     0.022 C 
ATOM     13  C   UNL     1      -2.718   3.426  -2.322  1.00  0.00     0.095 C 
ATOM     14  C   UNL     1      -0.873   1.948  -2.742  1.00  0.00     0.082 C 
BRANCH  11  15
ATOM     15  S   UNL     1      -4.080   1.757  -0.622  1.00  0.00    -0.154 SA
BRANCH  15  16
ATOM     16  C   UNL     1      -2.661   1.758   0.554  1.00  0.00     0.105 C 
BRANCH  16  17
ATOM     17  C   UNL     1      -1.900   0.455   0.578  1.00  0.00    -0.038 A 
ATOM     18  C   UNL     1       1.719  -0.746   0.788  1.00  0.00     0.044 C 
ATOM     19  C   UNL     1       0.227  -0.736   0.662  1.00  0.00    -0.051 A 
ATOM     20  C   UNL     1      -0.439  -1.932   0.389  1.00  0.00     0.003 A 
ATOM     21  C   UNL     1      -0.507   0.457   0.747  1.00  0.00     0.008 A 
ATOM     22  C   UNL     1      -1.825  -1.957   0.295  1.00  0.00     0.001 A 
ATOM     23  C   UNL     1      -2.551  -0.778   0.426  1.00  0.00     0.004 A 
ENDBRANCH  16  17
ENDBRANCH  15  16
ENDBRANCH  11  15
BRANCH  10  24
ATOM     24  N   UNL     1      -1.692   3.379  -4.568  1.00  0.00    -0.343 N 
ATOM     25  H   UNL     1      -2.235   2.560  -4.841  1.00  0.00     0.345 HD
ATOM     26  H   UNL     1      -0.811   3.390  -5.082  1.00  0.00     0.345 HD
ATOM     27  H   UNL     1      -2.221   4.224  -4.784  1.00  0.00     0.345 HD
ENDBRANCH  10  24
ENDBRANCH   8  10
ENDBRANCH   7   8
ENDBRANCH   6   7
ENDBRANCH   5   6
ENDBRANCH   4   5
ENDBRANCH   3   4
ENDBRANCH   2   3
ENDBRANCH   1   2
BRANCH   1  28
ATOM     28  C   UNL     1       2.271   3.622  -7.163  1.00  0.00     0.188 C 
BRANCH  28  29
ATOM     29  C   UNL     1       2.801   4.665  -8.146  1.00  0.00     0.188 C 
BRANCH  29  30
ATOM     30  O   UNL     1       2.935   5.914  -7.464  1.00  0.00    -0.376 OA
BRANCH  30  31
ATOM     31  C   UNL     1       2.613   7.086  -8.197  1.00  0.00     0.202 C 
BRANCH  31  32
ATOM     32  C   UNL     1       3.451   7.292  -9.460  1.00  0.00     0.261 C 
BRANCH  32  33
ATOM     33  O   UNL     1       4.729   7.903  -9.181  1.00  0.00    -0.460 OA
BRANCH  33  34
ATOM     34  C   UNL     1       5.800   7.065  -9.175  1.00  0.00     0.338 C 
ATOM     35  O   UNL     1       6.559   6.933 -10.134  1.00  0.00    -0.246 OA
BRANCH  34  36
ATOM     36  C   UNL     1       6.027   6.472  -7.837  1.00  0.00     0.060 A 
ATOM     37  C   UNL     1       6.663   5.234  -7.675  1.00  0.00     0.016 A 
ATOM     38  C   UNL     1       5.479   7.111  -6.734  1.00  0.00     0.016 A 
ATOM     39  C   UNL     1       6.614   4.568  -6.436  1.00  0.00     0.010 A 
ATOM     40  C   UNL     1       5.350   6.409  -5.554  1.00  0.00     0.010 A 
ATOM     41  C   UNL     1       5.892   5.123  -5.379  1.00  0.00    -0.014 A 
BRANCH  41  42
ATOM     42  C   UNL     1       5.498   4.442  -4.122  1.00  0.00     0.031 A 
ATOM     43  C   UNL     1       5.552   5.216  -2.821  1.00  0.00     0.074 A 
ATOM     44  C   UNL     1       4.717   3.329  -4.207  1.00  0.00     0.049 A 
ATOM     45  N   UNL     1       5.073   4.808  -1.695  1.00  0.00    -0.248 NA
ATOM     46  C   UNL     1       6.131   6.560  -2.680  1.00  0.00     0.031 C 
ATOM     47  C   UNL     1       3.703   2.912  -3.235  1.00  0.00     0.029 A 
ATOM     48  N   UNL     1       4.612   2.329  -5.171  1.00  0.00    -0.354 N 
ATOM     49  C   UNL     1       4.924   5.896  -0.854  1.00  0.00     0.074 A 
ATOM     50  C   UNL     1       5.672   6.950  -1.483  1.00  0.00     0.031 C 
ATOM     51  C   UNL     1       3.193   1.716  -3.555  1.00  0.00     0.029 A 
ATOM     52  C   UNL     1       4.062   1.184  -4.574  1.00  0.00     0.049 A 
ATOM     53  H   UNL     1       4.879   2.411  -6.115  1.00  0.00     0.167 HD
ATOM     54  C   UNL     1       4.068   5.801   0.206  1.00  0.00     0.031 A 
ATOM     55  C   UNL     1       4.749   0.016  -4.401  1.00  0.00     0.031 A 
ATOM     56  C   UNL     1       3.630   4.418   0.392  1.00  0.00     0.049 A 
ATOM     57  C   UNL     1       5.016  -0.231  -2.923  1.00  0.00     0.074 A 
ATOM     58  C   UNL     1       2.405   3.796   0.256  1.00  0.00     0.029 A 
ATOM     59  N   UNL     1       4.586   3.406   0.493  1.00  0.00    -0.354 N 
ATOM     60  N   UNL     1       5.062   0.732  -2.034  1.00  0.00    -0.248 NA
ATOM     61  C   UNL     1       5.118  -1.548  -2.300  1.00  0.00     0.031 C 
ATOM     62  C   UNL     1       2.672   2.424   0.015  1.00  0.00     0.029 A 
ATOM     63  C   UNL     1       4.023   2.179   0.208  1.00  0.00     0.049 A 
ATOM     64  H   UNL     1       5.530   3.548   0.734  1.00  0.00     0.167 HD
ATOM     65  C   UNL     1       5.026   0.205  -0.774  1.00  0.00     0.074 A 
ATOM     66  C   UNL     1       5.147  -1.229  -0.991  1.00  0.00     0.031 C 
ATOM     67  C   UNL     1       4.790   0.943   0.354  1.00  0.00     0.031 A 
BRANCH  54  68
ATOM     68  C   UNL     1       3.432   6.956   0.969  1.00  0.00    -0.014 A 
ATOM     69  C   UNL     1       2.559   6.674   2.048  1.00  0.00     0.010 A 
ATOM     70  C   UNL     1       3.549   8.317   0.620  1.00  0.00     0.010 A 
ATOM     71  C   UNL     1       1.850   7.678   2.733  1.00  0.00     0.020 A 
ATOM     72  C   UNL     1       2.867   9.336   1.318  1.00  0.00     0.020 A 
ATOM     73  C   UNL     1       2.014   9.010   2.368  1.00  0.00     0.054 A 
BRANCH  73  74
ATOM     74  S   UNL     1       1.118  10.296   3.286  1.00  0.00     0.124 S 
ATOM     75  O   UNL     1      -0.273  10.026   2.933  1.00  0.00    -0.237 OA
ATOM     76  O   UNL     1       1.482  10.012   4.671  1.00  0.00    -0.237 OA
ATOM     77  O   UNL     1       1.661  11.545   2.752  1.00  0.00    -0.744 OA
ENDBRANCH  73  74
ENDBRANCH  54  68
BRANCH  55  78
ATOM     78  C   UNL     1       5.522  -0.388  -5.611  1.00  0.00    -0.014 A 
ATOM     79  C   UNL     1       4.710  -0.820  -6.688  1.00  0.00     0.010 A 
ATOM     80  C   UNL     1       6.739   0.257  -5.901  1.00  0.00     0.010 A 
ATOM     81  C   UNL     1       4.939  -0.341  -7.980  1.00  0.00     0.020 A 
ATOM     82  C   UNL     1       6.977   0.728  -7.205  1.00  0.00     0.020 A 
ATOM     83  C   UNL     1       6.024   0.504  -8.207  1.00  0.00     0.054 A 
BRANCH  83  84
ATOM     84  S   UNL     1       5.987   1.542  -9.705  1.00  0.00     0.124 S 
ATOM     85  O   UNL     1       6.147   0.561 -10.772  1.00  0.00    -0.237 OA
ATOM     86  O   UNL     1       4.668   2.166  -9.611  1.00  0.00    -0.237 OA
ATOM     87  O   UNL     1       7.111   2.451  -9.507  1.00  0.00    -0.744 OA
ENDBRANCH  83  84
ENDBRANCH  55  78
BRANCH  67  88
ATOM     88  C   UNL     1       5.105   0.505   1.768  1.00  0.00    -0.014 A 
ATOM     89  C   UNL     1       5.984  -0.540   2.077  1.00  0.00     0.010 A 
ATOM     90  C   UNL     1       4.631   1.287   2.854  1.00  0.00     0.010 A 
ATOM     91  C   UNL     1       6.339  -0.818   3.403  1.00  0.00     0.020 A 
ATOM     92  C   UNL     1       5.022   1.054   4.173  1.00  0.00     0.020 A 
ATOM     93  C   UNL     1       5.864  -0.014   4.440  1.00  0.00     0.054 A 
BRANCH  93  94
ATOM     94  S   UNL     1       6.426  -0.326   6.129  1.00  0.00     0.124 S 
ATOM     95  O   UNL     1       5.567  -1.436   6.530  1.00  0.00    -0.237 OA
ATOM     96  O   UNL     1       7.837  -0.660   5.940  1.00  0.00    -0.237 OA
ATOM     97  O   UNL     1       6.181   0.940   6.816  1.00  0.00    -0.744 OA
ENDBRANCH  93  94
ENDBRANCH  67  88
ENDBRANCH  41  42
ENDBRANCH  34  36
ENDBRANCH  33  34
ENDBRANCH  32  33
ENDBRANCH  31  32
ENDBRANCH  30  31
ENDBRANCH  29  30
ENDBRANCH  28  29
ENDBRANCH   1  28
TORSDOF 27
