REMARK SMILES CCc1ccc(N2C(=O)/C(=C/c3cc(Cl)c(OCC(=O)OCCOCCOCCOCCOC(=O)c4ccc(-c5c6nc(c(-c7ccc(S(=O)(=O)[O-])cc7)c7ccc([nH]7)c(-c7ccc(S(=O)(=O)[O-])cc7)c7nc(c(-c8ccc(S(=O)(=O)[O-])cc8)c8ccc5[nH]8)C=C7)C=C6)cc4)c(Cl)c3)C(=O)NC2=S)cc1
REMARK SMILES IDX 26 1 25 2 24 3 23 4 22 5 21 6 19 7 20 8 18 9 17 10 16 11
REMARK SMILES IDX 12 12 13 13 98 14 14 15 96 16 15 17 97 18 11 19 7 20 8 21
REMARK SMILES IDX 102 22 9 23 10 24 101 25 103 26 99 27 100 29 6 30 3 31 4 32
REMARK SMILES IDX 105 33 5 34 104 35 2 36 1 37 27 38 28 39 29 40 30 41 31 42
REMARK SMILES IDX 32 43 33 44 34 45 35 46 36 47 37 48 95 49 38 50 94 51 39 52
REMARK SMILES IDX 40 53 41 54 88 55 42 56 93 57 87 58 89 59 43 60 92 61 86 62
REMARK SMILES IDX 85 63 44 65 74 66 55 67 73 68 56 69 59 70 72 71 90 72 57 73
REMARK SMILES IDX 58 74 71 76 91 77 60 78 45 79 46 80 54 81 47 82 53 83 48 84
REMARK SMILES IDX 49 85 50 86 51 87 52 88 75 89 76 90 84 91 77 92 83 93 78 94
REMARK SMILES IDX 79 95 80 96 81 97 82 98 61 99 62 100 70 101 63 102 69 103
REMARK SMILES IDX 64 104 65 105 66 106 67 107 68 108
REMARK H PARENT 101 28 89 64 59 75
REMARK Flexibility Score: inf
ROOT
ATOM      1  C   UNL     1      -0.755  12.673  -3.217  1.00  0.00     0.188 C 
ENDROOT
BRANCH   1   2
ATOM      2  C   UNL     1       0.498  12.856  -4.113  1.00  0.00     0.188 C 
BRANCH   2   3
ATOM      3  O   UNL     1       1.135  14.123  -4.236  1.00  0.00    -0.376 OA
BRANCH   3   4
ATOM      4  C   UNL     1       0.473  15.238  -3.675  1.00  0.00     0.202 C 
BRANCH   4   5
ATOM      5  C   UNL     1      -0.778  15.706  -4.438  1.00  0.00     0.261 C 
BRANCH   5   6
ATOM      6  O   UNL     1      -1.524  14.658  -5.109  1.00  0.00    -0.461 OA
BRANCH   6   7
ATOM      7  C   UNL     1      -1.152  14.292  -6.368  1.00  0.00     0.344 C 
ATOM      8  O   UNL     1      -0.357  14.916  -7.059  1.00  0.00    -0.248 OA
BRANCH   7   9
ATOM      9  C   UNL     1      -1.905  13.016  -6.854  1.00  0.00     0.352 C 
BRANCH   9  10
ATOM     10  O   UNL     1      -2.009  11.834  -6.069  1.00  0.00    -0.479 OA
BRANCH  10  11
ATOM     11  C   UNL     1      -1.336  10.646  -6.237  1.00  0.00     0.157 A 
ATOM     12  C   UNL     1       0.062   8.150  -5.731  1.00  0.00    -0.021 A 
ATOM     13  C   UNL     1      -1.309   8.302  -5.468  1.00  0.00     0.032 A 
ATOM     14  C   UNL     1       0.662   9.197  -6.432  1.00  0.00     0.032 A 
ATOM     15  C   UNL     1      -1.974   9.530  -5.666  1.00  0.00     0.085 A 
ATOM     16  C   UNL     1      -0.039  10.415  -6.722  1.00  0.00     0.085 A 
ATOM     17  Cl  UNL     1      -3.607   9.629  -5.085  1.00  0.00    -0.080 Cl
ATOM     18  Cl  UNL     1       0.835  11.578  -7.653  1.00  0.00    -0.080 Cl
BRANCH  12  19
ATOM     19  C   UNL     1       0.700   6.908  -5.182  1.00  0.00     0.028 C 
ATOM     20  N   UNL     1       2.285   5.483  -2.314  1.00  0.00    -0.253 N 
ATOM     21  C   UNL     1       1.774   5.397  -3.623  1.00  0.00     0.270 C 
ATOM     22  C   UNL     1       3.145   6.500  -1.886  1.00  0.00     0.187 C 
ATOM     23  O   UNL     1       1.286   4.386  -4.127  1.00  0.00    -0.268 OA
ATOM     24  C   UNL     1       1.795   6.682  -4.403  1.00  0.00     0.106 C 
ATOM     25  N   UNL     1       3.374   7.508  -2.799  1.00  0.00    -0.298 N 
ATOM     26  S   UNL     1       4.014   6.575  -0.447  1.00  0.00    -0.040 S 
ATOM     27  C   UNL     1       2.863   7.642  -4.065  1.00  0.00     0.263 C 
ATOM     28  H   UNL     1       3.981   8.225  -2.503  1.00  0.00     0.172 HD
ATOM     29  O   UNL     1       3.265   8.495  -4.846  1.00  0.00    -0.269 OA
BRANCH  20  30
ATOM     30  C   UNL     1       1.956   4.401  -1.435  1.00  0.00     0.052 A 
ATOM     31  C   UNL     1       1.131   2.177   0.098  1.00  0.00    -0.048 A 
ATOM     32  C   UNL     1       2.192   2.072  -0.812  1.00  0.00     0.006 A 
ATOM     33  C   UNL     1       0.544   3.438   0.289  1.00  0.00     0.006 A 
ATOM     34  C   UNL     1       2.589   3.167  -1.585  1.00  0.00     0.027 A 
ATOM     35  C   UNL     1       0.953   4.544  -0.468  1.00  0.00     0.027 A 
BRANCH  31  36
ATOM     36  C   UNL     1       0.614   0.994   0.889  1.00  0.00     0.032 C 
ATOM     37  C   UNL     1       0.882  -0.376   0.270  1.00  0.00     0.009 C 
ENDBRANCH  31  36
ENDBRANCH  20  30
ENDBRANCH  12  19
ENDBRANCH  10  11
ENDBRANCH   9  10
ENDBRANCH   7   9
ENDBRANCH   6   7
ENDBRANCH   5   6
ENDBRANCH   4   5
ENDBRANCH   3   4
ENDBRANCH   2   3
ENDBRANCH   1   2
BRANCH   1  38
ATOM     38  O   UNL     1      -0.531  13.086  -1.881  1.00  0.00    -0.377 OA
BRANCH  38  39
ATOM     39  C   UNL     1      -0.118  12.057  -0.995  1.00  0.00     0.188 C 
BRANCH  39  40
ATOM     40  C   UNL     1       1.333  11.612  -1.215  1.00  0.00     0.188 C 
BRANCH  40  41
ATOM     41  O   UNL     1       1.574  10.287  -1.699  1.00  0.00    -0.376 OA
BRANCH  41  42
ATOM     42  C   UNL     1       0.791   9.778  -2.758  1.00  0.00     0.202 C 
BRANCH  42  43
ATOM     43  C   UNL     1      -0.157   8.655  -2.356  1.00  0.00     0.261 C 
BRANCH  43  44
ATOM     44  O   UNL     1      -0.781   8.902  -1.122  1.00  0.00    -0.460 OA
BRANCH  44  45
ATOM     45  C   UNL     1      -0.000   8.588  -0.065  1.00  0.00     0.338 C 
ATOM     46  O   UNL     1       1.074   8.036  -0.050  1.00  0.00    -0.246 OA
BRANCH  45  47
ATOM     47  C   UNL     1      -0.683   9.194   1.060  1.00  0.00     0.060 A 
ATOM     48  C   UNL     1       0.009  10.123   1.836  1.00  0.00     0.016 A 
ATOM     49  C   UNL     1      -2.038   8.897   1.237  1.00  0.00     0.016 A 
ATOM     50  C   UNL     1      -0.677  10.765   2.844  1.00  0.00     0.010 A 
ATOM     51  C   UNL     1      -2.719   9.530   2.247  1.00  0.00     0.010 A 
ATOM     52  C   UNL     1      -2.020  10.429   3.061  1.00  0.00    -0.014 A 
BRANCH  52  53
ATOM     53  C   UNL     1      -2.652  10.853   4.303  1.00  0.00     0.031 A 
ATOM     54  C   UNL     1      -2.595   9.891   5.443  1.00  0.00     0.074 A 
ATOM     55  C   UNL     1      -3.241  12.054   4.341  1.00  0.00     0.049 A 
ATOM     56  N   UNL     1      -3.106  10.001   6.633  1.00  0.00    -0.248 NA
ATOM     57  C   UNL     1      -1.870   8.625   5.209  1.00  0.00     0.031 C 
ATOM     58  C   UNL     1      -3.283  13.012   3.232  1.00  0.00     0.029 A 
ATOM     59  N   UNL     1      -3.917  12.669   5.349  1.00  0.00    -0.354 N 
ATOM     60  C   UNL     1      -2.771   8.823   7.287  1.00  0.00     0.074 A 
ATOM     61  C   UNL     1      -2.042   7.995   6.359  1.00  0.00     0.031 C 
ATOM     62  C   UNL     1      -3.955  14.104   3.628  1.00  0.00     0.029 A 
ATOM     63  C   UNL     1      -4.415  13.898   4.996  1.00  0.00     0.049 A 
ATOM     64  H   UNL     1      -4.038  12.272   6.242  1.00  0.00     0.167 HD
ATOM     65  C   UNL     1      -3.059   8.481   8.561  1.00  0.00     0.031 A 
ATOM     66  C   UNL     1      -5.175  14.738   5.718  1.00  0.00     0.031 A 
ATOM     67  C   UNL     1      -3.820   9.340   9.424  1.00  0.00     0.049 A 
ATOM     68  C   UNL     1      -5.516  14.314   7.120  1.00  0.00     0.074 A 
ATOM     69  C   UNL     1      -4.202   9.135  10.734  1.00  0.00     0.029 A 
ATOM     70  N   UNL     1      -4.322  10.580   9.040  1.00  0.00    -0.354 N 
ATOM     71  N   UNL     1      -5.181  13.207   7.747  1.00  0.00    -0.248 NA
ATOM     72  C   UNL     1      -6.321  15.243   7.914  1.00  0.00     0.031 C 
ATOM     73  C   UNL     1      -4.980  10.231  11.125  1.00  0.00     0.029 A 
ATOM     74  C   UNL     1      -5.030  11.146  10.080  1.00  0.00     0.049 A 
ATOM     75  H   UNL     1      -4.192  10.992   8.156  1.00  0.00     0.167 HD
ATOM     76  C   UNL     1      -5.719  13.313   9.021  1.00  0.00     0.074 A 
ATOM     77  C   UNL     1      -6.385  14.604   9.075  1.00  0.00     0.031 C 
ATOM     78  C   UNL     1      -5.676  12.437  10.057  1.00  0.00     0.031 A 
BRANCH  65  79
ATOM     79  C   UNL     1      -2.596   7.133   9.041  1.00  0.00    -0.014 A 
ATOM     80  C   UNL     1      -1.229   6.849   9.226  1.00  0.00     0.010 A 
ATOM     81  C   UNL     1      -3.541   6.124   9.294  1.00  0.00     0.010 A 
ATOM     82  C   UNL     1      -0.816   5.573   9.622  1.00  0.00     0.020 A 
ATOM     83  C   UNL     1      -3.135   4.854   9.716  1.00  0.00     0.020 A 
ATOM     84  C   UNL     1      -1.773   4.583   9.863  1.00  0.00     0.054 A 
BRANCH  84  85
ATOM     85  S   UNL     1      -1.213   2.942  10.399  1.00  0.00     0.124 S 
ATOM     86  O   UNL     1      -0.623   2.409   9.173  1.00  0.00    -0.237 OA
ATOM     87  O   UNL     1      -0.266   3.260  11.464  1.00  0.00    -0.237 OA
ATOM     88  O   UNL     1      -2.440   2.282  10.836  1.00  0.00    -0.744 OA
ENDBRANCH  84  85
ENDBRANCH  65  79
BRANCH  66  89
ATOM     89  C   UNL     1      -5.640  16.016   5.123  1.00  0.00    -0.014 A 
ATOM     90  C   UNL     1      -5.133  17.247   5.573  1.00  0.00     0.010 A 
ATOM     91  C   UNL     1      -6.555  16.006   4.053  1.00  0.00     0.010 A 
ATOM     92  C   UNL     1      -5.545  18.443   4.975  1.00  0.00     0.020 A 
ATOM     93  C   UNL     1      -6.948  17.197   3.435  1.00  0.00     0.020 A 
ATOM     94  C   UNL     1      -6.448  18.410   3.908  1.00  0.00     0.054 A 
BRANCH  94  95
ATOM     95  S   UNL     1      -6.928  19.971   3.117  1.00  0.00     0.124 S 
ATOM     96  O   UNL     1      -7.790  20.571   4.130  1.00  0.00    -0.237 OA
ATOM     97  O   UNL     1      -5.639  20.629   2.911  1.00  0.00    -0.237 OA
ATOM     98  O   UNL     1      -7.601  19.542   1.893  1.00  0.00    -0.744 OA
ENDBRANCH  94  95
ENDBRANCH  66  89
BRANCH  78  99
ATOM     99  C   UNL     1      -6.349  12.871  11.325  1.00  0.00    -0.014 A 
ATOM    100  C   UNL     1      -7.750  12.891  11.428  1.00  0.00     0.010 A 
ATOM    101  C   UNL     1      -5.561  13.200  12.442  1.00  0.00     0.010 A 
ATOM    102  C   UNL     1      -8.355  13.267  12.627  1.00  0.00     0.020 A 
ATOM    103  C   UNL     1      -6.163  13.545  13.650  1.00  0.00     0.020 A 
ATOM    104  C   UNL     1      -7.557  13.590  13.730  1.00  0.00     0.054 A 
BRANCH 104 105
ATOM    105  S   UNL     1      -8.368  14.029  15.288  1.00  0.00     0.124 S 
ATOM    106  O   UNL     1      -8.860  15.374  15.004  1.00  0.00    -0.237 OA
ATOM    107  O   UNL     1      -9.394  12.997  15.416  1.00  0.00    -0.237 OA
ATOM    108  O   UNL     1      -7.290  13.953  16.272  1.00  0.00    -0.744 OA
ENDBRANCH 104 105
ENDBRANCH  78  99
ENDBRANCH  52  53
ENDBRANCH  45  47
ENDBRANCH  44  45
ENDBRANCH  43  44
ENDBRANCH  42  43
ENDBRANCH  41  42
ENDBRANCH  40  41
ENDBRANCH  39  40
ENDBRANCH  38  39
ENDBRANCH   1  38
TORSDOF 28
