REMARK SMILES O=C(COc1ccc(N2C[C@@H](C(=O)OCCOCCOCCOCCOC(=O)c3ccc(-c4c5nc(c(-c6ccc(S(=O)(=O)[O-])cc6)c6ccc([nH]6)c(-c6ccc(S(=O)(=O)[O-])cc6)c6nc(c(-c7ccc(S(=O)(=O)[O-])cc7)c7ccc4[nH]7)C=C6)C=C5)cc3)CC2=O)cc1)Nc1ccc(Cl)cc1Cl
REMARK SMILES IDX 19 1 18 2 17 3 16 4 15 5 14 6 12 7 13 8 11 9 9 10 10 11
REMARK SMILES IDX 90 12 89 13 91 14 8 15 5 16 6 17 93 18 7 19 92 20 4 21 3 22
REMARK SMILES IDX 2 23 1 24 94 25 95 27 96 28 101 29 97 30 100 31 102 32 98 33
REMARK SMILES IDX 99 34 20 35 21 36 22 37 23 38 24 39 25 40 26 41 27 42 28 43
REMARK SMILES IDX 29 44 30 45 88 46 31 47 87 48 32 49 33 50 34 51 81 52 35 53
REMARK SMILES IDX 86 54 80 55 82 56 36 57 85 58 79 59 78 60 37 62 67 63 48 64
REMARK SMILES IDX 66 65 49 66 52 67 65 68 83 69 50 70 51 71 64 73 84 74 53 75
REMARK SMILES IDX 38 76 39 77 47 78 40 79 46 80 41 81 42 82 43 83 44 84 45 85
REMARK SMILES IDX 68 86 69 87 77 88 70 89 76 90 71 91 72 92 73 93 74 94 75 95
REMARK SMILES IDX 54 96 55 97 63 98 56 99 62 100 57 101 58 102 59 103 60 104
REMARK SMILES IDX 61 105
REMARK H PARENT 94 26 82 61 52 72
REMARK Flexibility Score: inf
ROOT
ATOM      1  C   UNL     1      -1.456  -9.060  -5.415  1.00  0.00     0.188 C 
ENDROOT
BRANCH   1   2
ATOM      2  C   UNL     1      -1.197 -10.294  -4.542  1.00  0.00     0.188 C 
BRANCH   2   3
ATOM      3  O   UNL     1      -2.227 -10.917  -3.792  1.00  0.00    -0.376 OA
BRANCH   3   4
ATOM      4  C   UNL     1      -3.197 -10.172  -3.067  1.00  0.00     0.202 C 
BRANCH   4   5
ATOM      5  C   UNL     1      -2.823  -9.007  -2.138  1.00  0.00     0.261 C 
BRANCH   5   6
ATOM      6  O   UNL     1      -1.879  -8.074  -2.677  1.00  0.00    -0.463 OA
BRANCH   6   7
ATOM      7  C   UNL     1      -0.623  -8.176  -2.204  1.00  0.00     0.311 C 
ATOM      8  O   UNL     1      -0.268  -8.929  -1.304  1.00  0.00    -0.252 OA
BRANCH   7   9
ATOM      9  C   UNL     1       0.367  -7.300  -2.921  1.00  0.00     0.128 C 
ATOM     10  N   UNL     1       1.460  -5.285  -2.586  1.00  0.00    -0.312 N 
ATOM     11  C   UNL     1       0.940  -6.402  -1.855  1.00  0.00     0.141 C 
ATOM     12  C   UNL     1       0.879  -5.174  -3.846  1.00  0.00     0.227 C 
ATOM     13  C   UNL     1      -0.069  -6.322  -4.009  1.00  0.00     0.117 C 
ATOM     14  O   UNL     1       1.085  -4.342  -4.717  1.00  0.00    -0.274 OA
BRANCH  10  15
ATOM     15  C   UNL     1       2.197  -4.283  -1.946  1.00  0.00     0.044 A 
ATOM     16  C   UNL     1       3.435  -2.228  -0.530  1.00  0.00     0.120 A 
ATOM     17  C   UNL     1       3.713  -3.549  -0.199  1.00  0.00     0.048 A 
ATOM     18  C   UNL     1       2.601  -1.944  -1.606  1.00  0.00     0.048 A 
ATOM     19  C   UNL     1       3.077  -4.578  -0.897  1.00  0.00     0.030 A 
ATOM     20  C   UNL     1       1.984  -2.960  -2.309  1.00  0.00     0.030 A 
BRANCH  16  21
ATOM     21  O   UNL     1       4.040  -1.222   0.175  1.00  0.00    -0.484 OA
BRANCH  21  22
ATOM     22  C   UNL     1       3.099  -0.526   1.005  1.00  0.00     0.329 C 
BRANCH  22  23
ATOM     23  C   UNL     1       2.177   0.448   0.259  1.00  0.00     0.262 C 
ATOM     24  O   UNL     1       0.976   0.489   0.501  1.00  0.00    -0.271 OA
ATOM     25  N   UNL     1       2.844   1.138  -0.752  1.00  0.00    -0.322 N 
ATOM     26  H   UNL     1       3.828   1.110  -0.756  1.00  0.00     0.170 HD
BRANCH  25  27
ATOM     27  C   UNL     1       2.198   1.878  -1.773  1.00  0.00     0.060 A 
ATOM     28  C   UNL     1       2.687   1.668  -3.076  1.00  0.00     0.029 A 
ATOM     29  C   UNL     1       1.109   2.748  -1.595  1.00  0.00     0.066 A 
ATOM     30  C   UNL     1       2.052   2.240  -4.180  1.00  0.00     0.023 A 
ATOM     31  C   UNL     1       0.472   3.317  -2.705  1.00  0.00     0.043 A 
ATOM     32  Cl  UNL     1       0.617   3.337  -0.044  1.00  0.00    -0.082 Cl
ATOM     33  C   UNL     1       0.938   3.051  -3.990  1.00  0.00     0.042 A 
ATOM     34  Cl  UNL     1       0.162   3.764  -5.350  1.00  0.00    -0.084 Cl
ENDBRANCH  25  27
ENDBRANCH  22  23
ENDBRANCH  21  22
ENDBRANCH  16  21
ENDBRANCH  10  15
ENDBRANCH   7   9
ENDBRANCH   6   7
ENDBRANCH   5   6
ENDBRANCH   4   5
ENDBRANCH   3   4
ENDBRANCH   2   3
ENDBRANCH   1   2
BRANCH   1  35
ATOM     35  O   UNL     1      -2.650  -8.362  -5.144  1.00  0.00    -0.377 OA
BRANCH  35  36
ATOM     36  C   UNL     1      -3.762  -8.631  -5.990  1.00  0.00     0.188 C 
BRANCH  36  37
ATOM     37  C   UNL     1      -3.893 -10.049  -6.586  1.00  0.00     0.188 C 
BRANCH  37  38
ATOM     38  O   UNL     1      -2.711 -10.539  -7.205  1.00  0.00    -0.376 OA
BRANCH  38  39
ATOM     39  C   UNL     1      -2.536 -10.357  -8.604  1.00  0.00     0.202 C 
BRANCH  39  40
ATOM     40  C   UNL     1      -2.475  -8.925  -9.164  1.00  0.00     0.261 C 
BRANCH  40  41
ATOM     41  O   UNL     1      -3.617  -8.086  -8.933  1.00  0.00    -0.460 OA
BRANCH  41  42
ATOM     42  C   UNL     1      -4.826  -8.527  -9.335  1.00  0.00     0.338 C 
ATOM     43  O   UNL     1      -5.062  -9.554  -9.952  1.00  0.00    -0.246 OA
BRANCH  42  44
ATOM     44  C   UNL     1      -5.853  -7.666  -8.711  1.00  0.00     0.060 A 
ATOM     45  C   UNL     1      -6.808  -8.253  -7.870  1.00  0.00     0.016 A 
ATOM     46  C   UNL     1      -5.875  -6.291  -8.951  1.00  0.00     0.016 A 
ATOM     47  C   UNL     1      -7.814  -7.473  -7.300  1.00  0.00     0.010 A 
ATOM     48  C   UNL     1      -6.898  -5.514  -8.400  1.00  0.00     0.010 A 
ATOM     49  C   UNL     1      -7.894  -6.108  -7.604  1.00  0.00    -0.014 A 
BRANCH  49  50
ATOM     50  C   UNL     1      -9.126  -5.354  -7.265  1.00  0.00     0.031 A 
ATOM     51  C   UNL     1     -10.162  -5.166  -8.342  1.00  0.00     0.074 A 
ATOM     52  C   UNL     1      -9.338  -4.869  -6.029  1.00  0.00     0.049 A 
ATOM     53  N   UNL     1     -11.291  -4.510  -8.301  1.00  0.00    -0.248 NA
ATOM     54  C   UNL     1      -9.885  -5.807  -9.640  1.00  0.00     0.031 C 
ATOM     55  C   UNL     1      -8.438  -5.032  -4.887  1.00  0.00     0.029 A 
ATOM     56  N   UNL     1     -10.384  -4.132  -5.530  1.00  0.00    -0.354 N 
ATOM     57  C   UNL     1     -11.852  -4.645  -9.566  1.00  0.00     0.074 A 
ATOM     58  C   UNL     1     -10.929  -5.424 -10.360  1.00  0.00     0.031 C 
ATOM     59  C   UNL     1      -8.967  -4.401  -3.823  1.00  0.00     0.029 A 
ATOM     60  C   UNL     1     -10.221  -3.759  -4.217  1.00  0.00     0.049 A 
ATOM     61  H   UNL     1     -11.176  -3.893  -6.064  1.00  0.00     0.167 HD
ATOM     62  C   UNL     1     -13.032  -4.166 -10.025  1.00  0.00     0.031 A 
ATOM     63  C   UNL     1     -10.982  -2.968  -3.433  1.00  0.00     0.031 A 
ATOM     64  C   UNL     1     -13.943  -3.381  -9.236  1.00  0.00     0.049 A 
ATOM     65  C   UNL     1     -12.252  -2.376  -3.994  1.00  0.00     0.074 A 
ATOM     66  C   UNL     1     -15.171  -2.861  -9.606  1.00  0.00     0.029 A 
ATOM     67  N   UNL     1     -13.723  -2.993  -7.923  1.00  0.00    -0.354 N 
ATOM     68  N   UNL     1     -12.782  -2.534  -5.184  1.00  0.00    -0.248 NA
ATOM     69  C   UNL     1     -13.030  -1.504  -3.102  1.00  0.00     0.031 C 
ATOM     70  C   UNL     1     -15.662  -2.102  -8.540  1.00  0.00     0.029 A 
ATOM     71  C   UNL     1     -14.777  -2.214  -7.479  1.00  0.00     0.049 A 
ATOM     72  H   UNL     1     -12.934  -3.236  -7.387  1.00  0.00     0.167 HD
ATOM     73  C   UNL     1     -13.972  -1.810  -5.170  1.00  0.00     0.074 A 
ATOM     74  C   UNL     1     -14.090  -1.228  -3.849  1.00  0.00     0.031 C 
ATOM     75  C   UNL     1     -14.885  -1.644  -6.159  1.00  0.00     0.031 A 
BRANCH  62  76
ATOM     76  C   UNL     1     -13.390  -4.444 -11.462  1.00  0.00    -0.014 A 
ATOM     77  C   UNL     1     -13.738  -5.736 -11.894  1.00  0.00     0.010 A 
ATOM     78  C   UNL     1     -13.432  -3.381 -12.382  1.00  0.00     0.010 A 
ATOM     79  C   UNL     1     -14.094  -5.965 -13.226  1.00  0.00     0.020 A 
ATOM     80  C   UNL     1     -13.817  -3.599 -13.708  1.00  0.00     0.020 A 
ATOM     81  C   UNL     1     -14.134  -4.893 -14.124  1.00  0.00     0.054 A 
BRANCH  81  82
ATOM     82  S   UNL     1     -14.643  -5.213 -15.835  1.00  0.00     0.124 S 
ATOM     83  O   UNL     1     -13.504  -5.967 -16.352  1.00  0.00    -0.237 OA
ATOM     84  O   UNL     1     -15.875  -5.977 -15.663  1.00  0.00    -0.237 OA
ATOM     85  O   UNL     1     -14.814  -3.878 -16.403  1.00  0.00    -0.744 OA
ENDBRANCH  81  82
ENDBRANCH  62  76
BRANCH  63  86
ATOM     86  C   UNL     1     -10.556  -2.662  -2.038  1.00  0.00    -0.014 A 
ATOM     87  C   UNL     1     -11.305  -3.119  -0.939  1.00  0.00     0.010 A 
ATOM     88  C   UNL     1      -9.407  -1.884  -1.802  1.00  0.00     0.010 A 
ATOM     89  C   UNL     1     -10.927  -2.786   0.366  1.00  0.00     0.020 A 
ATOM     90  C   UNL     1      -9.006  -1.577  -0.498  1.00  0.00     0.020 A 
ATOM     91  C   UNL     1      -9.777  -2.018   0.577  1.00  0.00     0.054 A 
BRANCH  91  92
ATOM     92  S   UNL     1      -9.286  -1.633   2.281  1.00  0.00     0.124 S 
ATOM     93  O   UNL     1     -10.311  -0.675   2.684  1.00  0.00    -0.237 OA
ATOM     94  O   UNL     1      -9.352  -2.941   2.929  1.00  0.00    -0.237 OA
ATOM     95  O   UNL     1      -7.940  -1.086   2.133  1.00  0.00    -0.744 OA
ENDBRANCH  91  92
ENDBRANCH  63  86
BRANCH  75  96
ATOM     96  C   UNL     1     -16.122  -0.841  -5.844  1.00  0.00    -0.014 A 
ATOM     97  C   UNL     1     -16.067   0.551  -5.652  1.00  0.00     0.010 A 
ATOM     98  C   UNL     1     -17.372  -1.487  -5.803  1.00  0.00     0.010 A 
ATOM     99  C   UNL     1     -17.234   1.275  -5.389  1.00  0.00     0.020 A 
ATOM    100  C   UNL     1     -18.544  -0.762  -5.575  1.00  0.00     0.020 A 
ATOM    101  C   UNL     1     -18.466   0.614  -5.355  1.00  0.00     0.054 A 
BRANCH 101 102
ATOM    102  S   UNL     1     -19.969   1.584  -5.056  1.00  0.00     0.124 S 
ATOM    103  O   UNL     1     -19.832   1.931  -3.644  1.00  0.00    -0.237 OA
ATOM    104  O   UNL     1     -19.824   2.695  -5.994  1.00  0.00    -0.237 OA
ATOM    105  O   UNL     1     -21.051   0.652  -5.366  1.00  0.00    -0.744 OA
ENDBRANCH 101 102
ENDBRANCH  75  96
ENDBRANCH  49  50
ENDBRANCH  42  44
ENDBRANCH  41  42
ENDBRANCH  40  41
ENDBRANCH  39  40
ENDBRANCH  38  39
ENDBRANCH  37  38
ENDBRANCH  36  37
ENDBRANCH  35  36
ENDBRANCH   1  35
TORSDOF 28
