REMARK SMILES NS(=O)(=O)c1ccc(-n2nc(C(=O)NCCCC(=O)OCCOCCOCCOCCOC(=O)c3ccc(-c4c5nc(c(-c6ccc(S(=O)(=O)[O-])cc6)c6ccc([nH]6)c(-c6ccc(S(=O)(=O)[O-])cc6)c6nc(c(-c7ccc(S(=O)(=O)[O-])cc7)c7ccc4[nH]7)C=C6)C=C5)cc3)cc2-c2ccccc2)cc1
REMARK SMILES IDX 24 1 23 2 22 3 21 4 20 5 18 6 19 7 17 8 16 9 15 10 14 11
REMARK SMILES IDX 12 12 13 13 11 15 9 16 10 17 96 18 95 19 8 20 5 21 6 22
REMARK SMILES IDX 104 23 7 24 103 25 2 26 3 27 4 28 1 29 97 32 98 33 102 34
REMARK SMILES IDX 99 35 101 36 100 37 25 38 26 39 27 40 28 41 29 42 30 43
REMARK SMILES IDX 31 44 32 45 33 46 34 47 35 48 36 49 94 50 37 51 93 52 38 53
REMARK SMILES IDX 39 54 40 55 87 56 41 57 92 58 86 59 88 60 42 61 91 62 85 63
REMARK SMILES IDX 84 64 43 66 73 67 54 68 72 69 55 70 58 71 71 72 89 73 56 74
REMARK SMILES IDX 57 75 70 77 90 78 59 79 44 80 45 81 53 82 46 83 52 84 47 85
REMARK SMILES IDX 48 86 49 87 50 88 51 89 74 90 75 91 83 92 76 93 82 94 77 95
REMARK SMILES IDX 78 96 79 97 80 98 81 99 60 100 61 101 69 102 62 103 68 104
REMARK SMILES IDX 63 105 64 106 65 107 66 108 67 109
REMARK H PARENT 14 14 1 30 1 31 88 65 58 76
REMARK Flexibility Score: inf
ROOT
ATOM      1  C   UNL     1       4.358 -11.255   9.628  1.00  0.00     0.188 C 
ENDROOT
BRANCH   1   2
ATOM      2  O   UNL     1       3.564 -12.383   9.979  1.00  0.00    -0.376 OA
BRANCH   2   3
ATOM      3  C   UNL     1       2.153 -12.317   9.843  1.00  0.00     0.202 C 
BRANCH   3   4
ATOM      4  C   UNL     1       1.397 -11.222  10.603  1.00  0.00     0.261 C 
BRANCH   4   5
ATOM      5  O   UNL     1       1.990  -9.911  10.539  1.00  0.00    -0.463 OA
BRANCH   5   6
ATOM      6  C   UNL     1       2.367  -9.368  11.720  1.00  0.00     0.305 C 
ATOM      7  O   UNL     1       2.272  -9.930  12.806  1.00  0.00    -0.252 OA
BRANCH   6   8
ATOM      8  C   UNL     1       2.872  -7.940  11.623  1.00  0.00     0.124 C 
BRANCH   8   9
ATOM      9  C   UNL     1       3.352  -7.348  10.299  1.00  0.00     0.033 C 
BRANCH   9  10
ATOM     10  C   UNL     1       2.344  -7.266   9.150  1.00  0.00     0.117 C 
BRANCH  10  11
ATOM     11  N   UNL     1       1.365  -6.224   9.353  1.00  0.00    -0.351 N 
ATOM     12  C   UNL     1       1.027  -5.082   8.664  1.00  0.00     0.271 C 
ATOM     13  O   UNL     1       0.156  -4.401   9.219  1.00  0.00    -0.267 OA
ATOM     14  H   UNL     1       0.821  -6.360  10.162  1.00  0.00     0.163 HD
BRANCH  12  15
ATOM     15  C   UNL     1       1.618  -4.681   7.362  1.00  0.00     0.151 A 
ATOM     16  N   UNL     1       1.806  -3.433   5.622  1.00  0.00    -0.232 N 
ATOM     17  N   UNL     1       1.361  -3.437   6.895  1.00  0.00    -0.162 NA
ATOM     18  C   UNL     1       2.664  -4.490   5.381  1.00  0.00     0.075 A 
ATOM     19  C   UNL     1       2.442  -5.368   6.425  1.00  0.00     0.065 A 
BRANCH  16  20
ATOM     20  C   UNL     1       1.386  -2.447   4.693  1.00  0.00     0.065 A 
ATOM     21  C   UNL     1       0.768  -0.511   2.798  1.00  0.00     0.082 A 
ATOM     22  C   UNL     1       0.794  -1.853   2.418  1.00  0.00     0.024 A 
ATOM     23  C   UNL     1       1.005  -0.135   4.128  1.00  0.00     0.024 A 
ATOM     24  C   UNL     1       1.111  -2.820   3.367  1.00  0.00     0.030 A 
ATOM     25  C   UNL     1       1.283  -1.111   5.090  1.00  0.00     0.030 A 
BRANCH  21  26
ATOM     26  S   UNL     1       0.495   0.734   1.571  1.00  0.00     0.238 S 
ATOM     27  O   UNL     1       1.240   1.913   1.943  1.00  0.00    -0.207 OA
ATOM     28  O   UNL     1      -0.920   0.766   1.282  1.00  0.00    -0.207 OA
BRANCH  26  29
ATOM     29  N   UNL     1       1.260   0.113   0.213  1.00  0.00    -0.225 NA
ATOM     30  H   UNL     1       1.159   0.767  -0.563  1.00  0.00     0.137 HD
ATOM     31  H   UNL     1       0.836  -0.780  -0.037  1.00  0.00     0.137 HD
ENDBRANCH  26  29
ENDBRANCH  21  26
ENDBRANCH  16  20
BRANCH  18  32
ATOM     32  C   UNL     1       3.579  -4.545   4.245  1.00  0.00     0.000 A 
ATOM     33  C   UNL     1       4.603  -3.595   4.120  1.00  0.00     0.010 A 
ATOM     34  C   UNL     1       3.378  -5.465   3.217  1.00  0.00     0.010 A 
ATOM     35  C   UNL     1       5.406  -3.559   2.978  1.00  0.00     0.001 A 
ATOM     36  C   UNL     1       4.170  -5.412   2.067  1.00  0.00     0.001 A 
ATOM     37  C   UNL     1       5.186  -4.469   1.952  1.00  0.00     0.000 A 
ENDBRANCH  18  32
ENDBRANCH  12  15
ENDBRANCH  10  11
ENDBRANCH   9  10
ENDBRANCH   8   9
ENDBRANCH   6   8
ENDBRANCH   5   6
ENDBRANCH   4   5
ENDBRANCH   3   4
ENDBRANCH   2   3
ENDBRANCH   1   2
BRANCH   1  38
ATOM     38  C   UNL     1       4.039 -10.411   8.376  1.00  0.00     0.188 C 
BRANCH  38  39
ATOM     39  O   UNL     1       2.839 -10.732   7.694  1.00  0.00    -0.377 OA
BRANCH  39  40
ATOM     40  C   UNL     1       3.039 -11.440   6.471  1.00  0.00     0.188 C 
BRANCH  40  41
ATOM     41  C   UNL     1       3.832 -12.756   6.579  1.00  0.00     0.188 C 
BRANCH  41  42
ATOM     42  O   UNL     1       5.120 -12.595   7.180  1.00  0.00    -0.376 OA
BRANCH  42  43
ATOM     43  C   UNL     1       6.259 -12.695   6.332  1.00  0.00     0.202 C 
BRANCH  43  44
ATOM     44  C   UNL     1       6.574 -11.406   5.575  1.00  0.00     0.261 C 
BRANCH  44  45
ATOM     45  O   UNL     1       5.531 -10.972   4.707  1.00  0.00    -0.460 OA
BRANCH  45  46
ATOM     46  C   UNL     1       5.141 -11.829   3.739  1.00  0.00     0.338 C 
ATOM     47  O   UNL     1       5.529 -12.969   3.568  1.00  0.00    -0.246 OA
BRANCH  46  48
ATOM     48  C   UNL     1       4.227 -11.117   2.835  1.00  0.00     0.060 A 
ATOM     49  C   UNL     1       3.970 -11.718   1.602  1.00  0.00     0.016 A 
ATOM     50  C   UNL     1       3.838  -9.798   3.100  1.00  0.00     0.016 A 
ATOM     51  C   UNL     1       3.573 -10.916   0.551  1.00  0.00     0.010 A 
ATOM     52  C   UNL     1       3.418  -9.015   2.054  1.00  0.00     0.010 A 
ATOM     53  C   UNL     1       3.416  -9.548   0.774  1.00  0.00    -0.014 A 
BRANCH  53  54
ATOM     54  C   UNL     1       3.373  -8.661  -0.366  1.00  0.00     0.031 A 
ATOM     55  C   UNL     1       2.049  -8.351  -0.913  1.00  0.00     0.074 A 
ATOM     56  C   UNL     1       4.469  -8.072  -0.878  1.00  0.00     0.049 A 
ATOM     57  N   UNL     1       1.493  -8.905  -1.934  1.00  0.00    -0.248 NA
ATOM     58  C   UNL     1       1.212  -7.379  -0.203  1.00  0.00     0.031 C 
ATOM     59  C   UNL     1       5.804  -7.948  -0.288  1.00  0.00     0.029 A 
ATOM     60  N   UNL     1       4.570  -7.376  -2.042  1.00  0.00    -0.354 N 
ATOM     61  C   UNL     1       0.305  -8.221  -2.124  1.00  0.00     0.074 A 
ATOM     62  C   UNL     1       0.102  -7.416  -0.942  1.00  0.00     0.031 C 
ATOM     63  C   UNL     1       6.530  -7.069  -1.020  1.00  0.00     0.029 A 
ATOM     64  C   UNL     1       5.766  -6.696  -2.201  1.00  0.00     0.049 A 
ATOM     65  H   UNL     1       3.853  -7.358  -2.716  1.00  0.00     0.167 HD
ATOM     66  C   UNL     1      -0.318  -8.188  -3.332  1.00  0.00     0.031 A 
ATOM     67  C   UNL     1       6.079  -5.862  -3.221  1.00  0.00     0.031 A 
ATOM     68  C   UNL     1       0.272  -9.092  -4.283  1.00  0.00     0.049 A 
ATOM     69  C   UNL     1       5.199  -6.201  -4.367  1.00  0.00     0.074 A 
ATOM     70  C   UNL     1       0.463 -10.458  -4.345  1.00  0.00     0.029 A 
ATOM     71  N   UNL     1       1.118  -8.544  -5.220  1.00  0.00    -0.354 N 
ATOM     72  N   UNL     1       5.279  -7.319  -5.032  1.00  0.00    -0.248 NA
ATOM     73  C   UNL     1       3.965  -5.454  -4.567  1.00  0.00     0.031 C 
ATOM     74  C   UNL     1       1.712 -10.635  -5.010  1.00  0.00     0.029 A 
ATOM     75  C   UNL     1       2.208  -9.371  -5.337  1.00  0.00     0.049 A 
ATOM     76  H   UNL     1       0.968  -7.708  -5.718  1.00  0.00     0.167 HD
ATOM     77  C   UNL     1       3.976  -7.618  -5.401  1.00  0.00     0.074 A 
ATOM     78  C   UNL     1       3.239  -6.375  -5.208  1.00  0.00     0.031 C 
ATOM     79  C   UNL     1       3.567  -8.912  -5.561  1.00  0.00     0.031 A 
BRANCH  66  80
ATOM     80  C   UNL     1      -1.234  -7.078  -3.752  1.00  0.00    -0.014 A 
ATOM     81  C   UNL     1      -2.078  -7.268  -4.861  1.00  0.00     0.010 A 
ATOM     82  C   UNL     1      -1.118  -5.771  -3.235  1.00  0.00     0.010 A 
ATOM     83  C   UNL     1      -2.752  -6.189  -5.444  1.00  0.00     0.020 A 
ATOM     84  C   UNL     1      -1.824  -4.699  -3.778  1.00  0.00     0.020 A 
ATOM     85  C   UNL     1      -2.610  -4.910  -4.903  1.00  0.00     0.054 A 
BRANCH  85  86
ATOM     86  S   UNL     1      -3.396  -3.505  -5.728  1.00  0.00     0.124 S 
ATOM     87  O   UNL     1      -2.604  -3.400  -6.950  1.00  0.00    -0.237 OA
ATOM     88  O   UNL     1      -4.769  -3.970  -5.897  1.00  0.00    -0.237 OA
ATOM     89  O   UNL     1      -3.224  -2.412  -4.774  1.00  0.00    -0.744 OA
ENDBRANCH  85  86
ENDBRANCH  66  80
BRANCH  67  90
ATOM     90  C   UNL     1       6.920  -4.644  -3.186  1.00  0.00    -0.014 A 
ATOM     91  C   UNL     1       7.340  -4.018  -4.372  1.00  0.00     0.010 A 
ATOM     92  C   UNL     1       7.073  -3.934  -1.979  1.00  0.00     0.010 A 
ATOM     93  C   UNL     1       7.821  -2.699  -4.358  1.00  0.00     0.020 A 
ATOM     94  C   UNL     1       7.558  -2.624  -1.954  1.00  0.00     0.020 A 
ATOM     95  C   UNL     1       7.903  -2.002  -3.150  1.00  0.00     0.054 A 
BRANCH  95  96
ATOM     96  S   UNL     1       8.318  -0.234  -3.161  1.00  0.00     0.124 S 
ATOM     97  O   UNL     1       9.747  -0.254  -3.457  1.00  0.00    -0.237 OA
ATOM     98  O   UNL     1       7.457   0.286  -4.220  1.00  0.00    -0.237 OA
ATOM     99  O   UNL     1       7.967   0.207  -1.812  1.00  0.00    -0.744 OA
ENDBRANCH  95  96
ENDBRANCH  67  90
BRANCH  79 100
ATOM    100  C   UNL     1       4.631  -9.981  -5.695  1.00  0.00    -0.014 A 
ATOM    101  C   UNL     1       5.583 -10.251  -4.692  1.00  0.00     0.010 A 
ATOM    102  C   UNL     1       4.582 -10.829  -6.816  1.00  0.00     0.010 A 
ATOM    103  C   UNL     1       6.478 -11.322  -4.820  1.00  0.00     0.020 A 
ATOM    104  C   UNL     1       5.459 -11.912  -6.940  1.00  0.00     0.020 A 
ATOM    105  C   UNL     1       6.408 -12.149  -5.944  1.00  0.00     0.054 A 
BRANCH 105 106
ATOM    106  S   UNL     1       7.524 -13.575  -6.065  1.00  0.00     0.124 S 
ATOM    107  O   UNL     1       8.815 -12.946  -6.328  1.00  0.00    -0.237 OA
ATOM    108  O   UNL     1       7.387 -14.205  -4.753  1.00  0.00    -0.237 OA
ATOM    109  O   UNL     1       6.976 -14.352  -7.175  1.00  0.00    -0.744 OA
ENDBRANCH 105 106
ENDBRANCH  79 100
ENDBRANCH  53  54
ENDBRANCH  46  48
ENDBRANCH  45  46
ENDBRANCH  44  45
ENDBRANCH  43  44
ENDBRANCH  42  43
ENDBRANCH  41  42
ENDBRANCH  40  41
ENDBRANCH  39  40
ENDBRANCH  38  39
ENDBRANCH   1  38
TORSDOF 31
