REMARK SMILES O=C(OCCOCCOCCOCCOC(=O)c1ccc([C@H]2CCCN(C(=O)c3ccc4[nH]ccc4c3)C2)cc1)c1ccc(-c2c3nc(c(-c4ccc(S(=O)(=O)[O-])cc4)c4ccc([nH]4)c(-c4ccc(S(=O)(=O)[O-])cc4)c4nc(c(-c5ccc(S(=O)(=O)[O-])cc5)c5ccc2[nH]5)C=C4)C=C3)cc1
REMARK SMILES IDX 9 1 8 2 7 3 6 4 5 5 4 6 3 7 2 8 1 9 41 10 42 11 100 12 43 13
REMARK SMILES IDX 99 14 44 15 45 16 46 17 93 18 47 19 98 20 92 21 94 22 48 23
REMARK SMILES IDX 97 24 91 25 90 26 49 28 79 29 60 30 78 31 61 32 64 33 77 34
REMARK SMILES IDX 95 35 62 36 63 37 76 39 96 40 65 41 50 42 51 43 59 44 52 45
REMARK SMILES IDX 58 46 53 47 54 48 55 49 56 50 57 51 80 52 81 53 89 54 82 55
REMARK SMILES IDX 88 56 83 57 84 58 85 59 86 60 87 61 66 62 67 63 75 64 68 65
REMARK SMILES IDX 74 66 69 67 70 68 71 69 72 70 73 71 10 72 11 73 12 74 13 75
REMARK SMILES IDX 14 76 15 77 16 78 17 79 18 80 19 81 40 82 20 83 39 84 21 85
REMARK SMILES IDX 22 86 23 87 38 88 24 89 26 90 25 91 27 92 28 93 29 94 30 95
REMARK SMILES IDX 37 96 31 97 36 98 32 99 35 100 33 101 34 102
REMARK H PARENT 94 27 64 38 33 103
REMARK Flexibility Score: inf
ROOT
ATOM      1  O   UNL     1      12.374   5.053   9.120  1.00  0.00    -0.377 OA
ENDROOT
BRANCH   1   2
ATOM      2  C   UNL     1      13.678   5.449   9.543  1.00  0.00     0.188 C 
BRANCH   2   3
ATOM      3  C   UNL     1      14.383   4.467  10.479  1.00  0.00     0.188 C 
BRANCH   3   4
ATOM      4  O   UNL     1      14.679   3.249   9.795  1.00  0.00    -0.376 OA
BRANCH   4   5
ATOM      5  C   UNL     1      14.586   2.064  10.581  1.00  0.00     0.202 C 
BRANCH   5   6
ATOM      6  C   UNL     1      15.840   1.754  11.401  1.00  0.00     0.261 C 
BRANCH   6   7
ATOM      7  O   UNL     1      16.487   2.942  11.876  1.00  0.00    -0.460 OA
BRANCH   7   8
ATOM      8  C   UNL     1      17.534   3.592  11.306  1.00  0.00     0.338 C 
ATOM      9  O   UNL     1      18.026   4.541  11.917  1.00  0.00    -0.246 OA
BRANCH   8  10
ATOM     10  C   UNL     1      18.136   3.226   9.983  1.00  0.00     0.060 A 
ATOM     11  C   UNL     1      17.467   2.589   8.935  1.00  0.00     0.016 A 
ATOM     12  C   UNL     1      19.459   3.641   9.752  1.00  0.00     0.016 A 
ATOM     13  C   UNL     1      18.085   2.332   7.718  1.00  0.00     0.010 A 
ATOM     14  C   UNL     1      20.084   3.409   8.522  1.00  0.00     0.010 A 
ATOM     15  C   UNL     1      19.396   2.739   7.505  1.00  0.00    -0.014 A 
BRANCH  15  16
ATOM     16  C   UNL     1      20.052   2.343   6.248  1.00  0.00     0.031 A 
ATOM     17  C   UNL     1      21.015   1.196   6.289  1.00  0.00     0.074 A 
ATOM     18  C   UNL     1      19.701   2.936   5.091  1.00  0.00     0.049 A 
ATOM     19  N   UNL     1      21.769   0.720   5.339  1.00  0.00    -0.248 NA
ATOM     20  C   UNL     1      21.133   0.478   7.572  1.00  0.00     0.031 C 
ATOM     21  C   UNL     1      18.671   3.970   4.949  1.00  0.00     0.029 A 
ATOM     22  N   UNL     1      20.155   2.743   3.814  1.00  0.00    -0.354 N 
ATOM     23  C   UNL     1      22.482  -0.323   5.918  1.00  0.00     0.074 A 
ATOM     24  C   UNL     1      22.061  -0.425   7.295  1.00  0.00     0.031 C 
ATOM     25  C   UNL     1      18.575   4.320   3.655  1.00  0.00     0.029 A 
ATOM     26  C   UNL     1      19.581   3.589   2.893  1.00  0.00     0.049 A 
ATOM     27  H   UNL     1      20.828   2.064   3.577  1.00  0.00     0.167 HD
ATOM     28  C   UNL     1      23.421  -1.106   5.342  1.00  0.00     0.031 A 
ATOM     29  C   UNL     1      19.883   3.783   1.594  1.00  0.00     0.031 A 
ATOM     30  C   UNL     1      23.817  -0.972   3.969  1.00  0.00     0.049 A 
ATOM     31  C   UNL     1      21.007   2.967   1.009  1.00  0.00     0.074 A 
ATOM     32  C   UNL     1      24.782  -1.677   3.277  1.00  0.00     0.029 A 
ATOM     33  N   UNL     1      23.265  -0.058   3.081  1.00  0.00    -0.354 N 
ATOM     34  N   UNL     1      21.704   2.005   1.570  1.00  0.00    -0.248 NA
ATOM     35  C   UNL     1      21.406   3.276  -0.370  1.00  0.00     0.031 C 
ATOM     36  C   UNL     1      24.855  -1.148   1.984  1.00  0.00     0.029 A 
ATOM     37  C   UNL     1      23.895  -0.153   1.856  1.00  0.00     0.049 A 
ATOM     38  H   UNL     1      22.533   0.565   3.293  1.00  0.00     0.167 HD
ATOM     39  C   UNL     1      22.622   1.593   0.613  1.00  0.00     0.074 A 
ATOM     40  C   UNL     1      22.367   2.386  -0.575  1.00  0.00     0.031 C 
ATOM     41  C   UNL     1      23.599   0.657   0.702  1.00  0.00     0.031 A 
BRANCH  28  42
ATOM     42  C   UNL     1      24.133  -2.099   6.215  1.00  0.00    -0.014 A 
ATOM     43  C   UNL     1      23.521  -3.294   6.631  1.00  0.00     0.010 A 
ATOM     44  C   UNL     1      25.459  -1.835   6.606  1.00  0.00     0.010 A 
ATOM     45  C   UNL     1      24.220  -4.200   7.435  1.00  0.00     0.020 A 
ATOM     46  C   UNL     1      26.167  -2.747   7.392  1.00  0.00     0.020 A 
ATOM     47  C   UNL     1      25.539  -3.921   7.809  1.00  0.00     0.054 A 
BRANCH  47  48
ATOM     48  S   UNL     1      26.438  -5.136   8.813  1.00  0.00     0.124 S 
ATOM     49  O   UNL     1      25.786  -4.995  10.113  1.00  0.00    -0.237 OA
ATOM     50  O   UNL     1      26.172  -6.389   8.111  1.00  0.00    -0.237 OA
ATOM     51  O   UNL     1      27.823  -4.676   8.759  1.00  0.00    -0.744 OA
ENDBRANCH  47  48
ENDBRANCH  28  42
BRANCH  29  52
ATOM     52  C   UNL     1      19.207   4.851   0.802  1.00  0.00    -0.014 A 
ATOM     53  C   UNL     1      18.443   4.547  -0.338  1.00  0.00     0.010 A 
ATOM     54  C   UNL     1      19.371   6.203   1.164  1.00  0.00     0.010 A 
ATOM     55  C   UNL     1      17.890   5.571  -1.118  1.00  0.00     0.020 A 
ATOM     56  C   UNL     1      18.793   7.227   0.408  1.00  0.00     0.020 A 
ATOM     57  C   UNL     1      18.075   6.905  -0.743  1.00  0.00     0.054 A 
BRANCH  57  58
ATOM     58  S   UNL     1      17.359   8.220  -1.769  1.00  0.00     0.124 S 
ATOM     59  O   UNL     1      18.259   8.230  -2.918  1.00  0.00    -0.237 OA
ATOM     60  O   UNL     1      16.009   7.725  -2.025  1.00  0.00    -0.237 OA
ATOM     61  O   UNL     1      17.429   9.400  -0.908  1.00  0.00    -0.744 OA
ENDBRANCH  57  58
ENDBRANCH  29  52
BRANCH  41  62
ATOM     62  C   UNL     1      24.448   0.439  -0.517  1.00  0.00    -0.014 A 
ATOM     63  C   UNL     1      25.437   1.370  -0.879  1.00  0.00     0.010 A 
ATOM     64  C   UNL     1      24.309  -0.750  -1.255  1.00  0.00     0.010 A 
ATOM     65  C   UNL     1      26.265   1.121  -1.974  1.00  0.00     0.020 A 
ATOM     66  C   UNL     1      25.155  -1.014  -2.332  1.00  0.00     0.020 A 
ATOM     67  C   UNL     1      26.122  -0.071  -2.690  1.00  0.00     0.054 A 
BRANCH  67  68
ATOM     68  S   UNL     1      27.257  -0.403  -4.063  1.00  0.00     0.124 S 
ATOM     69  O   UNL     1      26.751   0.493  -5.098  1.00  0.00    -0.237 OA
ATOM     70  O   UNL     1      28.556  -0.044  -3.499  1.00  0.00    -0.237 OA
ATOM     71  O   UNL     1      27.073  -1.829  -4.327  1.00  0.00    -0.744 OA
ENDBRANCH  67  68
ENDBRANCH  41  62
ENDBRANCH  15  16
ENDBRANCH   8  10
ENDBRANCH   7   8
ENDBRANCH   6   7
ENDBRANCH   5   6
ENDBRANCH   4   5
ENDBRANCH   3   4
ENDBRANCH   2   3
ENDBRANCH   1   2
BRANCH   1  72
ATOM     72  C   UNL     1      12.247   3.748   8.565  1.00  0.00     0.188 C 
BRANCH  72  73
ATOM     73  C   UNL     1      13.099   3.359   7.335  1.00  0.00     0.188 C 
BRANCH  73  74
ATOM     74  O   UNL     1      13.994   4.361   6.872  1.00  0.00    -0.376 OA
BRANCH  74  75
ATOM     75  C   UNL     1      13.643   4.965   5.628  1.00  0.00     0.202 C 
BRANCH  75  76
ATOM     76  C   UNL     1      12.518   6.001   5.741  1.00  0.00     0.261 C 
BRANCH  76  77
ATOM     77  O   UNL     1      11.260   5.472   6.194  1.00  0.00    -0.460 OA
BRANCH  77  78
ATOM     78  C   UNL     1      10.658   4.531   5.434  1.00  0.00     0.338 C 
ATOM     79  O   UNL     1      11.014   4.117   4.345  1.00  0.00    -0.246 OA
BRANCH  78  80
ATOM     80  C   UNL     1       9.598   3.910   6.258  1.00  0.00     0.060 A 
ATOM     81  C   UNL     1       9.518   2.514   6.327  1.00  0.00     0.016 A 
ATOM     82  C   UNL     1       8.765   4.696   7.055  1.00  0.00     0.016 A 
ATOM     83  C   UNL     1       8.590   1.909   7.179  1.00  0.00     0.005 A 
ATOM     84  C   UNL     1       7.832   4.087   7.895  1.00  0.00     0.005 A 
ATOM     85  C   UNL     1       7.706   2.688   7.947  1.00  0.00    -0.043 A 
BRANCH  85  86
ATOM     86  C   UNL     1       6.587   2.000   8.714  1.00  0.00     0.039 C 
ATOM     87  C   UNL     1       7.024   1.394  10.063  1.00  0.00     0.012 C 
ATOM     88  C   UNL     1       5.367   2.910   8.940  1.00  0.00     0.128 C 
ATOM     89  C   UNL     1       5.843   0.687  10.752  1.00  0.00     0.022 C 
ATOM     90  N   UNL     1       4.283   2.172   9.566  1.00  0.00    -0.338 N 
ATOM     91  C   UNL     1       4.608   1.586  10.866  1.00  0.00     0.120 C 
BRANCH  90  92
ATOM     92  C   UNL     1       3.101   2.018   8.857  1.00  0.00     0.253 C 
ATOM     93  O   UNL     1       2.926   2.405   7.705  1.00  0.00    -0.269 OA
BRANCH  92  94
ATOM     94  C   UNL     1       1.968   1.360   9.517  1.00  0.00     0.040 A 
ATOM     95  C   UNL     1       1.640   0.055   9.149  1.00  0.00     0.016 A 
ATOM     96  C   UNL     1       1.204   2.090  10.437  1.00  0.00     0.024 A 
ATOM     97  C   UNL     1       0.541  -0.582   9.728  1.00  0.00     0.027 A 
ATOM     98  C   UNL     1       0.084   1.466  11.012  1.00  0.00     0.000 A 
ATOM     99  C   UNL     1      -0.215   0.149  10.654  1.00  0.00     0.045 A 
ATOM    100  C   UNL     1      -0.914   1.888  11.933  1.00  0.00     0.028 A 
ATOM    101  N   UNL     1      -1.341  -0.212  11.359  1.00  0.00    -0.361 N 
ATOM    102  C   UNL     1      -1.778   0.835  12.125  1.00  0.00     0.083 A 
ATOM    103  H   UNL     1      -1.771  -1.097  11.318  1.00  0.00     0.166 HD
ENDBRANCH  92  94
ENDBRANCH  90  92
ENDBRANCH  85  86
ENDBRANCH  78  80
ENDBRANCH  77  78
ENDBRANCH  76  77
ENDBRANCH  75  76
ENDBRANCH  74  75
ENDBRANCH  73  74
ENDBRANCH  72  73
ENDBRANCH   1  72
TORSDOF 26
