REMARK SMILES CC(C)[C@@H](C[NH+](C)C)C(=O)OCCOCCOCCOCCOC(=O)c1ccc(-c2c3nc(c(-c4ccc(S(=O)(=O)[O-])cc4)c4ccc([nH]4)c(-c4ccc(S(=O)(=O)[O-])cc4)c4nc(c(-c5ccc(S(=O)(=O)[O-])cc5)c5ccc2[nH]5)C=C4)C=C3)cc1
REMARK SMILES IDX 18 1 17 2 16 3 15 4 14 5 13 6 12 7 11 8 9 9 10 10 4 11 2 12
REMARK SMILES IDX 1 13 3 14 5 15 6 16 7 17 8 18 19 20 20 21 21 22 22 23 23 24
REMARK SMILES IDX 24 25 25 26 26 27 27 28 85 29 28 30 84 31 29 32 30 33 31 34
REMARK SMILES IDX 78 35 32 36 83 37 77 38 79 39 33 40 82 41 76 42 75 43 34 45
REMARK SMILES IDX 64 46 45 47 63 48 46 49 49 50 62 51 80 52 47 53 48 54 61 56
REMARK SMILES IDX 81 57 50 58 35 59 36 60 44 61 37 62 43 63 38 64 39 65 40 66
REMARK SMILES IDX 41 67 42 68 65 69 66 70 74 71 67 72 73 73 68 74 69 75 70 76
REMARK SMILES IDX 71 77 72 78 51 79 52 80 60 81 53 82 59 83 54 84 55 85 56 86
REMARK SMILES IDX 57 87 58 88
REMARK H PARENT 6 19 79 44 49 55
REMARK Flexibility Score: inf
ROOT
ATOM      1  C   UNL     1       0.711  -2.252  -5.110  1.00  0.00     0.188 C 
ENDROOT
BRANCH   1   2
ATOM      2  O   UNL     1      -0.112  -2.082  -3.964  1.00  0.00    -0.377 OA
BRANCH   2   3
ATOM      3  C   UNL     1      -0.997  -3.100  -3.541  1.00  0.00     0.188 C 
BRANCH   3   4
ATOM      4  C   UNL     1      -2.434  -2.958  -4.029  1.00  0.00     0.188 C 
BRANCH   4   5
ATOM      5  O   UNL     1      -2.610  -2.488  -5.348  1.00  0.00    -0.376 OA
BRANCH   5   6
ATOM      6  C   UNL     1      -2.365  -1.109  -5.629  1.00  0.00     0.202 C 
BRANCH   6   7
ATOM      7  C   UNL     1      -2.454   0.006  -4.559  1.00  0.00     0.261 C 
BRANCH   7   8
ATOM      8  O   UNL     1      -1.423   0.041  -3.534  1.00  0.00    -0.463 OA
BRANCH   8   9
ATOM      9  C   UNL     1      -1.831  -0.225  -2.268  1.00  0.00     0.315 C 
ATOM     10  O   UNL     1      -2.970  -0.614  -1.992  1.00  0.00    -0.252 OA
BRANCH   9  11
ATOM     11  C   UNL     1      -0.887   0.144  -1.123  1.00  0.00     0.156 C 
BRANCH  11  12
ATOM     12  C   UNL     1       0.647  -0.144  -1.058  1.00  0.00     0.003 C 
ATOM     13  C   UNL     1       1.210   0.299   0.313  1.00  0.00     0.008 C 
ATOM     14  C   UNL     1       1.065  -1.614  -1.186  1.00  0.00     0.008 C 
ENDBRANCH  11  12
BRANCH  11  15
ATOM     15  C   UNL     1      -1.310   1.593  -0.757  1.00  0.00     0.277 C 
BRANCH  15  16
ATOM     16  N   UNL     1      -1.069   2.657  -1.748  1.00  0.00    -0.339 N 
ATOM     17  C   UNL     1      -1.693   3.902  -1.298  1.00  0.00     0.332 C 
ATOM     18  C   UNL     1       0.336   2.892  -2.065  1.00  0.00     0.332 C 
ATOM     19  H   UNL     1      -1.493   2.328  -2.616  1.00  0.00     0.347 HD
ENDBRANCH  15  16
ENDBRANCH  11  15
ENDBRANCH   9  11
ENDBRANCH   8   9
ENDBRANCH   7   8
ENDBRANCH   6   7
ENDBRANCH   5   6
ENDBRANCH   4   5
ENDBRANCH   3   4
ENDBRANCH   2   3
ENDBRANCH   1   2
BRANCH   1  20
ATOM     20  C   UNL     1       0.663  -3.593  -5.839  1.00  0.00     0.188 C 
BRANCH  20  21
ATOM     21  O   UNL     1       1.147  -4.753  -5.154  1.00  0.00    -0.376 OA
BRANCH  21  22
ATOM     22  C   UNL     1       2.040  -4.589  -4.058  1.00  0.00     0.202 C 
BRANCH  22  23
ATOM     23  C   UNL     1       3.515  -4.414  -4.411  1.00  0.00     0.261 C 
BRANCH  23  24
ATOM     24  O   UNL     1       3.774  -3.218  -5.154  1.00  0.00    -0.460 OA
BRANCH  24  25
ATOM     25  C   UNL     1       3.804  -3.368  -6.497  1.00  0.00     0.338 C 
ATOM     26  O   UNL     1       3.635  -4.396  -7.137  1.00  0.00    -0.246 OA
BRANCH  25  27
ATOM     27  C   UNL     1       3.969  -2.045  -7.113  1.00  0.00     0.060 A 
ATOM     28  C   UNL     1       3.087  -1.642  -8.126  1.00  0.00     0.016 A 
ATOM     29  C   UNL     1       5.050  -1.244  -6.742  1.00  0.00     0.016 A 
ATOM     30  C   UNL     1       3.316  -0.449  -8.810  1.00  0.00     0.010 A 
ATOM     31  C   UNL     1       5.284  -0.061  -7.434  1.00  0.00     0.010 A 
ATOM     32  C   UNL     1       4.445   0.316  -8.497  1.00  0.00    -0.014 A 
BRANCH  32  33
ATOM     33  C   UNL     1       4.910   1.394  -9.394  1.00  0.00     0.031 A 
ATOM     34  C   UNL     1       6.039   1.077 -10.335  1.00  0.00     0.074 A 
ATOM     35  C   UNL     1       4.396   2.632  -9.319  1.00  0.00     0.049 A 
ATOM     36  N   UNL     1       6.775   1.887 -11.048  1.00  0.00    -0.248 NA
ATOM     37  C   UNL     1       6.399  -0.346 -10.471  1.00  0.00     0.031 C 
ATOM     38  C   UNL     1       3.260   3.031  -8.489  1.00  0.00     0.029 A 
ATOM     39  N   UNL     1       4.791   3.791  -9.935  1.00  0.00    -0.354 N 
ATOM     40  C   UNL     1       7.697   1.076 -11.699  1.00  0.00     0.074 A 
ATOM     41  C   UNL     1       7.448  -0.284 -11.277  1.00  0.00     0.031 C 
ATOM     42  C   UNL     1       3.065   4.354  -8.630  1.00  0.00     0.029 A 
ATOM     43  C   UNL     1       4.095   4.898  -9.514  1.00  0.00     0.049 A 
ATOM     44  H   UNL     1       5.504   3.827 -10.613  1.00  0.00     0.167 HD
ATOM     45  C   UNL     1       8.665   1.437 -12.573  1.00  0.00     0.031 A 
ATOM     46  C   UNL     1       4.298   6.203  -9.782  1.00  0.00     0.031 A 
ATOM     47  C   UNL     1       8.911   2.797 -12.966  1.00  0.00     0.049 A 
ATOM     48  C   UNL     1       5.447   6.593 -10.680  1.00  0.00     0.074 A 
ATOM     49  C   UNL     1       9.869   3.282 -13.838  1.00  0.00     0.029 A 
ATOM     50  N   UNL     1       8.190   3.892 -12.510  1.00  0.00    -0.354 N 
ATOM     51  N   UNL     1       6.321   5.823 -11.286  1.00  0.00    -0.248 NA
ATOM     52  C   UNL     1       5.637   8.029 -10.932  1.00  0.00     0.031 C 
ATOM     53  C   UNL     1       9.763   4.675 -13.866  1.00  0.00     0.029 A 
ATOM     54  C   UNL     1       8.690   5.051 -13.072  1.00  0.00     0.049 A 
ATOM     55  H   UNL     1       7.434   3.848 -11.880  1.00  0.00     0.167 HD
ATOM     56  C   UNL     1       7.127   6.677 -12.033  1.00  0.00     0.074 A 
ATOM     57  C   UNL     1       6.642   8.021 -11.798  1.00  0.00     0.031 C 
ATOM     58  C   UNL     1       8.168   6.376 -12.848  1.00  0.00     0.031 A 
BRANCH  45  59
ATOM     59  C   UNL     1       9.542   0.351 -13.134  1.00  0.00    -0.014 A 
ATOM     60  C   UNL     1       9.034  -0.602 -14.035  1.00  0.00     0.010 A 
ATOM     61  C   UNL     1      10.906   0.306 -12.790  1.00  0.00     0.010 A 
ATOM     62  C   UNL     1       9.864  -1.599 -14.554  1.00  0.00     0.020 A 
ATOM     63  C   UNL     1      11.746  -0.670 -13.331  1.00  0.00     0.020 A 
ATOM     64  C   UNL     1      11.216  -1.625 -14.200  1.00  0.00     0.054 A 
BRANCH  64  65
ATOM     65  S   UNL     1      12.275  -2.910 -14.919  1.00  0.00     0.124 S 
ATOM     66  O   UNL     1      11.788  -4.113 -14.249  1.00  0.00    -0.237 OA
ATOM     67  O   UNL     1      11.966  -2.816 -16.344  1.00  0.00    -0.237 OA
ATOM     68  O   UNL     1      13.626  -2.495 -14.548  1.00  0.00    -0.744 OA
ENDBRANCH  64  65
ENDBRANCH  45  59
BRANCH  46  69
ATOM     69  C   UNL     1       3.414   7.242  -9.184  1.00  0.00    -0.014 A 
ATOM     70  C   UNL     1       2.568   8.011 -10.002  1.00  0.00     0.010 A 
ATOM     71  C   UNL     1       3.427   7.484  -7.798  1.00  0.00     0.010 A 
ATOM     72  C   UNL     1       1.777   9.023  -9.452  1.00  0.00     0.020 A 
ATOM     73  C   UNL     1       2.612   8.473  -7.239  1.00  0.00     0.020 A 
ATOM     74  C   UNL     1       1.804   9.248  -8.073  1.00  0.00     0.054 A 
BRANCH  74  75
ATOM     75  S   UNL     1       0.752  10.553  -7.381  1.00  0.00     0.124 S 
ATOM     76  O   UNL     1       1.417  11.762  -7.855  1.00  0.00    -0.237 OA
ATOM     77  O   UNL     1      -0.545  10.264  -7.986  1.00  0.00    -0.237 OA
ATOM     78  O   UNL     1       0.824  10.323  -5.939  1.00  0.00    -0.744 OA
ENDBRANCH  74  75
ENDBRANCH  46  69
BRANCH  58  79
ATOM     79  C   UNL     1       8.805   7.499 -13.624  1.00  0.00    -0.014 A 
ATOM     80  C   UNL     1       9.634   8.449 -13.005  1.00  0.00     0.010 A 
ATOM     81  C   UNL     1       8.649   7.531 -15.024  1.00  0.00     0.010 A 
ATOM     82  C   UNL     1      10.288   9.418 -13.772  1.00  0.00     0.020 A 
ATOM     83  C   UNL     1       9.325   8.477 -15.796  1.00  0.00     0.020 A 
ATOM     84  C   UNL     1      10.136   9.419 -15.164  1.00  0.00     0.054 A 
BRANCH  84  85
ATOM     85  S   UNL     1      11.066  10.632 -16.142  1.00  0.00     0.124 S 
ATOM     86  O   UNL     1      10.380  11.878 -15.813  1.00  0.00    -0.237 OA
ATOM     87  O   UNL     1      12.420  10.499 -15.609  1.00  0.00    -0.237 OA
ATOM     88  O   UNL     1      10.896  10.172 -17.518  1.00  0.00    -0.744 OA
ENDBRANCH  84  85
ENDBRANCH  58  79
ENDBRANCH  32  33
ENDBRANCH  25  27
ENDBRANCH  24  25
ENDBRANCH  23  24
ENDBRANCH  22  23
ENDBRANCH  21  22
ENDBRANCH  20  21
ENDBRANCH   1  20
TORSDOF 26
