REMARK SMILES Cc1cc(N2CC[NH+]([C@@H](C(=O)OCCOCCOCCOCCOC(=O)c3ccc(-c4c5nc(c(-c6ccc(S(=O)(=O)[O-])cc6)c6ccc([nH]6)c(-c6ccc(S(=O)(=O)[O-])cc6)c6nc(c(-c7ccc(S(=O)(=O)[O-])cc7)c7ccc4[nH]7)C=C6)C=C5)cc3)c3c[nH]c4ccccc34)CC2)nc2ccccc12
REMARK SMILES IDX 19 1 18 2 17 3 16 4 15 5 14 6 13 7 12 8 10 9 11 10 9 11 8 12
REMARK SMILES IDX 5 13 6 14 97 15 7 16 96 17 4 19 1 20 2 21 3 22 104 23 99 24
REMARK SMILES IDX 103 25 98 26 100 27 102 28 101 29 87 30 88 31 95 32 89 33
REMARK SMILES IDX 90 34 94 35 91 37 93 38 92 39 20 40 21 41 22 42 23 43 24 44
REMARK SMILES IDX 25 45 26 46 27 47 28 48 86 49 29 50 85 51 30 52 31 53 32 54
REMARK SMILES IDX 79 55 33 56 84 57 78 58 80 59 34 60 83 61 77 62 76 63 35 65
REMARK SMILES IDX 65 66 46 67 64 68 47 69 50 70 63 71 81 72 48 73 49 74 62 76
REMARK SMILES IDX 82 77 51 78 36 79 37 80 45 81 38 82 44 83 39 84 40 85 41 86
REMARK SMILES IDX 42 87 43 88 66 89 67 90 75 91 68 92 74 93 69 94 70 95 71 96
REMARK SMILES IDX 72 97 73 98 52 99 53 100 61 101 54 102 60 103 55 104 56 105
REMARK SMILES IDX 57 106 58 107 59 108
REMARK H PARENT 8 18 89 36 80 64 50 75
REMARK Flexibility Score: inf
ROOT
ATOM      1  C   UNL     1       0.224  -4.062   0.096  1.00  0.00     0.188 C 
ENDROOT
BRANCH   1   2
ATOM      2  O   UNL     1      -1.111  -4.503   0.102  1.00  0.00    -0.377 OA
BRANCH   2   3
ATOM      3  C   UNL     1      -1.186  -5.827   0.555  1.00  0.00     0.188 C 
BRANCH   3   4
ATOM      4  C   UNL     1      -1.190  -6.923  -0.502  1.00  0.00     0.188 C 
BRANCH   4   5
ATOM      5  O   UNL     1      -0.436  -6.706  -1.677  1.00  0.00    -0.376 OA
BRANCH   5   6
ATOM      6  C   UNL     1      -0.854  -5.660  -2.557  1.00  0.00     0.202 C 
BRANCH   6   7
ATOM      7  C   UNL     1      -2.348  -5.315  -2.746  1.00  0.00     0.261 C 
BRANCH   7   8
ATOM      8  O   UNL     1      -3.080  -5.011  -1.529  1.00  0.00    -0.459 OA
BRANCH   8   9
ATOM      9  C   UNL     1      -4.086  -5.841  -1.140  1.00  0.00     0.370 C 
ATOM     10  O   UNL     1      -4.406  -6.833  -1.796  1.00  0.00    -0.245 OA
BRANCH   9  11
ATOM     11  C   UNL     1      -4.820  -5.436   0.174  1.00  0.00     0.328 C 
BRANCH  11  12
ATOM     12  N   UNL     1      -5.531  -4.080   0.236  1.00  0.00    -0.316 N 
ATOM     13  N   UNL     1      -3.450  -2.035   0.101  1.00  0.00    -0.345 N 
ATOM     14  C   UNL     1      -3.809  -2.692   1.326  1.00  0.00     0.179 C 
ATOM     15  C   UNL     1      -4.154  -2.309  -1.153  1.00  0.00     0.179 C 
ATOM     16  C   UNL     1      -5.249  -3.140   1.319  1.00  0.00     0.285 C 
ATOM     17  C   UNL     1      -5.403  -3.256  -1.002  1.00  0.00     0.285 C 
ATOM     18  H   UNL     1      -6.461  -4.469   0.397  1.00  0.00     0.349 HD
BRANCH  13  19
ATOM     19  C   UNL     1      -2.399  -1.126   0.151  1.00  0.00     0.129 A 
ATOM     20  C   UNL     1      -2.576   2.989  -0.259  1.00  0.00     0.045 C 
ATOM     21  C   UNL     1      -1.625   1.686  -0.122  1.00  0.00    -0.038 A 
ATOM     22  C   UNL     1      -2.876   0.438  -0.075  1.00  0.00     0.051 A 
ATOM     23  C   UNL     1       0.360   1.202   0.131  1.00  0.00     0.003 A 
ATOM     24  C   UNL     1       0.671  -0.557   0.258  1.00  0.00     0.073 A 
ATOM     25  C   UNL     1       1.801   1.726   0.276  1.00  0.00     0.010 A 
ATOM     26  N   UNL     1      -0.747  -1.601   0.339  1.00  0.00    -0.231 NA
ATOM     27  C   UNL     1       1.996  -1.039   0.116  1.00  0.00     0.029 A 
ATOM     28  C   UNL     1       3.057   1.083   0.264  1.00  0.00     0.001 A 
ATOM     29  C   UNL     1       3.150  -0.272   0.115  1.00  0.00     0.002 A 
ENDBRANCH  13  19
ENDBRANCH  11  12
BRANCH  11  30
ATOM     30  C   UNL     1      -4.626  -6.353   1.500  1.00  0.00     0.046 A 
ATOM     31  C   UNL     1      -5.761  -6.763   2.223  1.00  0.00     0.094 A 
ATOM     32  C   UNL     1      -3.717  -6.359   2.661  1.00  0.00     0.009 A 
ATOM     33  N   UNL     1      -5.726  -5.705   3.157  1.00  0.00    -0.361 N 
ATOM     34  C   UNL     1      -4.430  -5.652   3.631  1.00  0.00     0.046 A 
ATOM     35  C   UNL     1      -2.506  -6.956   3.114  1.00  0.00     0.011 A 
ATOM     36  H   UNL     1      -6.476  -5.123   3.418  1.00  0.00     0.166 HD
ATOM     37  C   UNL     1      -3.855  -5.103   4.779  1.00  0.00     0.026 A 
ATOM     38  C   UNL     1      -1.967  -6.577   4.362  1.00  0.00     0.001 A 
ATOM     39  C   UNL     1      -2.606  -5.613   5.146  1.00  0.00     0.002 A 
ENDBRANCH  11  30
ENDBRANCH   9  11
ENDBRANCH   8   9
ENDBRANCH   7   8
ENDBRANCH   6   7
ENDBRANCH   5   6
ENDBRANCH   4   5
ENDBRANCH   3   4
ENDBRANCH   2   3
ENDBRANCH   1   2
BRANCH   1  40
ATOM     40  C   UNL     1       0.841  -3.654   1.466  1.00  0.00     0.188 C 
BRANCH  40  41
ATOM     41  O   UNL     1       0.326  -4.060   2.724  1.00  0.00    -0.376 OA
BRANCH  41  42
ATOM     42  C   UNL     1      -0.960  -3.564   3.074  1.00  0.00     0.202 C 
BRANCH  42  43
ATOM     43  C   UNL     1      -1.222  -2.225   3.780  1.00  0.00     0.261 C 
BRANCH  43  44
ATOM     44  O   UNL     1      -1.678  -1.227   2.859  1.00  0.00    -0.460 OA
BRANCH  44  45
ATOM     45  C   UNL     1      -0.698  -0.414   2.445  1.00  0.00     0.338 C 
ATOM     46  O   UNL     1       0.364  -0.251   3.038  1.00  0.00    -0.246 OA
BRANCH  45  47
ATOM     47  C   UNL     1      -1.035   0.405   1.168  1.00  0.00     0.060 A 
ATOM     48  C   UNL     1      -0.878   0.107  -0.835  1.00  0.00     0.016 A 
ATOM     49  C   UNL     1      -0.741   2.067   1.779  1.00  0.00     0.016 A 
ATOM     50  C   UNL     1      -0.325   1.399  -1.864  1.00  0.00     0.010 A 
ATOM     51  C   UNL     1      -0.315   3.300   0.614  1.00  0.00     0.010 A 
ATOM     52  C   UNL     1      -0.113   2.973  -1.145  1.00  0.00    -0.014 A 
BRANCH  52  53
ATOM     53  C   UNL     1       0.036   4.064  -2.119  1.00  0.00     0.031 A 
ATOM     54  C   UNL     1       0.871   5.235  -1.738  1.00  0.00     0.074 A 
ATOM     55  C   UNL     1      -0.662   3.970  -3.277  1.00  0.00     0.049 A 
ATOM     56  N   UNL     1       0.992   6.371  -2.358  1.00  0.00    -0.248 NA
ATOM     57  C   UNL     1       1.593   5.200  -0.459  1.00  0.00     0.031 C 
ATOM     58  C   UNL     1      -1.605   2.898  -3.668  1.00  0.00     0.029 A 
ATOM     59  N   UNL     1      -0.691   4.778  -4.376  1.00  0.00    -0.354 N 
ATOM     60  C   UNL     1       1.737   7.168  -1.502  1.00  0.00     0.074 A 
ATOM     61  C   UNL     1       1.982   6.443  -0.301  1.00  0.00     0.031 C 
ATOM     62  C   UNL     1      -1.926   2.994  -4.957  1.00  0.00     0.029 A 
ATOM     63  C   UNL     1      -1.470   4.285  -5.402  1.00  0.00     0.049 A 
ATOM     64  H   UNL     1      -0.203   5.631  -4.431  1.00  0.00     0.167 HD
ATOM     65  C   UNL     1       2.168   8.424  -1.696  1.00  0.00     0.031 A 
ATOM     66  C   UNL     1      -1.880   4.861  -6.540  1.00  0.00     0.031 A 
ATOM     67  C   UNL     1       1.817   9.132  -2.879  1.00  0.00     0.049 A 
ATOM     68  C   UNL     1      -1.441   6.272  -6.714  1.00  0.00     0.074 A 
ATOM     69  C   UNL     1       2.137  10.418  -3.239  1.00  0.00     0.029 A 
ATOM     70  N   UNL     1       1.020   8.592  -3.884  1.00  0.00    -0.354 N 
ATOM     71  N   UNL     1      -0.715   7.002  -5.896  1.00  0.00    -0.248 NA
ATOM     72  C   UNL     1      -1.876   6.947  -7.930  1.00  0.00     0.031 C 
ATOM     73  C   UNL     1       1.455  10.688  -4.426  1.00  0.00     0.029 A 
ATOM     74  C   UNL     1       0.807   9.534  -4.860  1.00  0.00     0.049 A 
ATOM     75  H   UNL     1       0.664   7.675  -3.894  1.00  0.00     0.167 HD
ATOM     76  C   UNL     1      -0.575   8.227  -6.513  1.00  0.00     0.074 A 
ATOM     77  C   UNL     1      -1.285   8.124  -7.780  1.00  0.00     0.031 C 
ATOM     78  C   UNL     1       0.077   9.335  -6.087  1.00  0.00     0.031 A 
BRANCH  65  79
ATOM     79  C   UNL     1       2.918   9.059  -0.561  1.00  0.00    -0.014 A 
ATOM     80  C   UNL     1       4.148   8.540  -0.101  1.00  0.00     0.010 A 
ATOM     81  C   UNL     1       2.313  10.110   0.144  1.00  0.00     0.010 A 
ATOM     82  C   UNL     1       4.735   9.038   1.063  1.00  0.00     0.020 A 
ATOM     83  C   UNL     1       2.922  10.644   1.281  1.00  0.00     0.020 A 
ATOM     84  C   UNL     1       4.123  10.098   1.738  1.00  0.00     0.054 A 
BRANCH  84  85
ATOM     85  S   UNL     1       4.948  10.782   3.198  1.00  0.00     0.124 S 
ATOM     86  O   UNL     1       4.803   9.698   4.166  1.00  0.00    -0.237 OA
ATOM     87  O   UNL     1       6.305  11.012   2.710  1.00  0.00    -0.237 OA
ATOM     88  O   UNL     1       4.181  11.989   3.494  1.00  0.00    -0.744 OA
ENDBRANCH  84  85
ENDBRANCH  65  79
BRANCH  66  89
ATOM     89  C   UNL     1      -2.775   4.136  -7.484  1.00  0.00    -0.014 A 
ATOM     90  C   UNL     1      -2.311   3.757  -8.754  1.00  0.00     0.010 A 
ATOM     91  C   UNL     1      -4.069   3.732  -7.089  1.00  0.00     0.010 A 
ATOM     92  C   UNL     1      -3.121   3.002  -9.610  1.00  0.00     0.020 A 
ATOM     93  C   UNL     1      -4.865   2.942  -7.924  1.00  0.00     0.020 A 
ATOM     94  C   UNL     1      -4.388   2.591  -9.186  1.00  0.00     0.054 A 
BRANCH  94  95
ATOM     95  S   UNL     1      -5.390   1.563 -10.295  1.00  0.00     0.124 S 
ATOM     96  O   UNL     1      -5.688   2.489 -11.382  1.00  0.00    -0.237 OA
ATOM     97  O   UNL     1      -4.473   0.474 -10.623  1.00  0.00    -0.237 OA
ATOM     98  O   UNL     1      -6.533   1.179  -9.469  1.00  0.00    -0.744 OA
ENDBRANCH  94  95
ENDBRANCH  66  89
BRANCH  78  99
ATOM     99  C   UNL     1       0.101  10.478  -7.041  1.00  0.00    -0.014 A 
ATOM    100  C   UNL     1      -1.053  11.227  -7.308  1.00  0.00     0.010 A 
ATOM    101  C   UNL     1       1.338  10.843  -7.599  1.00  0.00     0.010 A 
ATOM    102  C   UNL     1      -0.973  12.321  -8.159  1.00  0.00     0.020 A 
ATOM    103  C   UNL     1       1.430  11.969  -8.403  1.00  0.00     0.020 A 
ATOM    104  C   UNL     1       0.270  12.690  -8.690  1.00  0.00     0.054 A 
BRANCH 104 105
ATOM    105  S   UNL     1       0.353  14.159  -9.735  1.00  0.00     0.124 S 
ATOM    106  O   UNL     1      -0.371  13.720 -10.925  1.00  0.00    -0.237 OA
ATOM    107  O   UNL     1      -0.323  15.163  -8.918  1.00  0.00    -0.237 OA
ATOM    108  O   UNL     1       1.786  14.371  -9.920  1.00  0.00    -0.744 OA
ENDBRANCH 104 105
ENDBRANCH  78  99
ENDBRANCH  52  53
ENDBRANCH  45  47
ENDBRANCH  44  45
ENDBRANCH  43  44
ENDBRANCH  42  43
ENDBRANCH  41  42
ENDBRANCH  40  41
ENDBRANCH   1  40
TORSDOF 26
