REMARK SMILES CC(=O)Nc1cc(NC(C)=O)cc(C(=O)Nc2ccc(Br)cc2C(=O)OCCOCCOCCOCCOC(=O)c2ccc(-c3c4nc(c(-c5ccc(S(=O)(=O)[O-])cc5)c5ccc([nH]5)c(-c5ccc(S(=O)(=O)[O-])cc5)c5nc(c(-c6ccc(S(=O)(=O)[O-])cc6)c6ccc3[nH]6)C=C5)C=C4)cc2)c1
REMARK SMILES IDX 32 1 31 2 30 3 29 4 28 5 27 6 26 7 24 8 25 9 23 10 17 11
REMARK SMILES IDX 18 12 19 13 22 14 20 15 21 16 16 17 14 18 15 19 13 21 5 22
REMARK SMILES IDX 6 23 101 24 7 25 12 26 4 27 1 28 2 29 3 30 8 32 9 33 10 35
REMARK SMILES IDX 11 36 33 37 34 38 35 39 36 40 37 41 38 42 39 43 40 44 41 45
REMARK SMILES IDX 42 46 100 47 43 48 99 49 44 50 45 51 46 52 93 53 47 54 98 55
REMARK SMILES IDX 92 56 94 57 48 58 97 59 91 60 90 61 49 63 79 64 60 65 78 66
REMARK SMILES IDX 61 67 64 68 77 69 95 70 62 71 63 72 76 74 96 75 65 76 50 77
REMARK SMILES IDX 51 78 59 79 52 80 58 81 53 82 54 83 55 84 56 85 57 86 80 87
REMARK SMILES IDX 81 88 89 89 82 90 88 91 83 92 84 93 85 94 86 95 87 96 66 97
REMARK SMILES IDX 67 98 75 99 68 100 74 101 69 102 70 103 71 104 72 105 73 106
REMARK H PARENT 16 20 4 31 8 34 94 62 64 73
REMARK Flexibility Score: inf
ROOT
ATOM      1  O   UNL     1       6.557   3.283   0.584  1.00  0.00    -0.377 OA
ENDROOT
BRANCH   1   2
ATOM      2  C   UNL     1       5.881   3.576  -0.619  1.00  0.00     0.188 C 
BRANCH   2   3
ATOM      3  C   UNL     1       4.787   4.663  -0.531  1.00  0.00     0.188 C 
BRANCH   3   4
ATOM      4  O   UNL     1       4.717   5.573   0.552  1.00  0.00    -0.376 OA
BRANCH   4   5
ATOM      5  C   UNL     1       4.706   5.190   1.914  1.00  0.00     0.202 C 
BRANCH   5   6
ATOM      6  C   UNL     1       4.125   3.888   2.460  1.00  0.00     0.261 C 
BRANCH   6   7
ATOM      7  O   UNL     1       4.244   2.713   1.664  1.00  0.00    -0.460 OA
BRANCH   7   8
ATOM      8  C   UNL     1       3.181   2.473   0.873  1.00  0.00     0.340 C 
ATOM      9  O   UNL     1       2.215   3.209   0.733  1.00  0.00    -0.246 OA
BRANCH   8  10
ATOM     10  C   UNL     1       3.385   1.263   0.041  1.00  0.00     0.084 A 
ATOM     11  C   UNL     1       4.072   0.089   0.410  1.00  0.00     0.056 A 
ATOM     12  C   UNL     1       4.300  -0.875  -0.594  1.00  0.00     0.028 A 
ATOM     13  C   UNL     1       3.782  -0.731  -1.887  1.00  0.00     0.018 A 
ATOM     14  C   UNL     1       2.868   1.400  -1.268  1.00  0.00     0.033 A 
ATOM     15  C   UNL     1       3.056   0.404  -2.215  1.00  0.00     0.018 A 
ATOM     16  Br  UNL     1       2.316   0.596  -3.941  1.00  0.00    -0.051 Br
BRANCH  11  17
ATOM     17  N   UNL     1       4.546  -0.293   1.689  1.00  0.00    -0.321 N 
ATOM     18  C   UNL     1       4.151  -0.026   2.987  1.00  0.00     0.255 C 
ATOM     19  O   UNL     1       4.897  -0.341   3.912  1.00  0.00    -0.269 OA
ATOM     20  H   UNL     1       5.334  -0.881   1.644  1.00  0.00     0.170 HD
BRANCH  18  21
ATOM     21  C   UNL     1       2.835   0.580   3.313  1.00  0.00     0.044 A 
ATOM     22  C   UNL     1       0.709   1.317   2.480  1.00  0.00     0.044 A 
ATOM     23  C   UNL     1       0.695   2.306   3.482  1.00  0.00     0.052 A 
ATOM     24  C   UNL     1       1.728   0.373   2.485  1.00  0.00     0.040 A 
ATOM     25  C   UNL     1       1.712   2.401   4.439  1.00  0.00     0.044 A 
ATOM     26  C   UNL     1       2.788   1.516   4.355  1.00  0.00     0.040 A 
BRANCH  22  27
ATOM     27  N   UNL     1      -0.140   1.547   1.374  1.00  0.00    -0.326 N 
ATOM     28  C   UNL     1       0.007  -0.543   0.018  1.00  0.00     0.114 C 
ATOM     29  C   UNL     1      -0.322   0.911   0.182  1.00  0.00     0.221 C 
ATOM     30  O   UNL     1      -0.798   1.542  -0.766  1.00  0.00    -0.275 OA
ATOM     31  H   UNL     1      -0.722   2.333   1.488  1.00  0.00     0.169 HD
ENDBRANCH  22  27
BRANCH  25  32
ATOM     32  N   UNL     1       1.791   3.434   5.403  1.00  0.00    -0.326 N 
ATOM     33  C   UNL     1       0.989   4.559   5.484  1.00  0.00     0.221 C 
ATOM     34  H   UNL     1       2.491   3.342   6.089  1.00  0.00     0.169 HD
ATOM     35  C   UNL     1       1.319   5.453   6.652  1.00  0.00     0.114 C 
ATOM     36  O   UNL     1       0.082   4.869   4.717  1.00  0.00    -0.275 OA
ENDBRANCH  25  32
ENDBRANCH  18  21
ENDBRANCH  11  17
ENDBRANCH   8  10
ENDBRANCH   7   8
ENDBRANCH   6   7
ENDBRANCH   5   6
ENDBRANCH   4   5
ENDBRANCH   3   4
ENDBRANCH   2   3
ENDBRANCH   1   2
BRANCH   1  37
ATOM     37  C   UNL     1       7.639   4.116   0.979  1.00  0.00     0.188 C 
BRANCH  37  38
ATOM     38  C   UNL     1       7.761   5.560   0.439  1.00  0.00     0.188 C 
BRANCH  38  39
ATOM     39  O   UNL     1       7.336   5.733  -0.901  1.00  0.00    -0.376 OA
BRANCH  39  40
ATOM     40  C   UNL     1       8.291   5.784  -1.943  1.00  0.00     0.202 C 
BRANCH  40  41
ATOM     41  C   UNL     1       9.188   4.558  -2.165  1.00  0.00     0.261 C 
BRANCH  41  42
ATOM     42  O   UNL     1       9.910   4.083  -1.022  1.00  0.00    -0.460 OA
BRANCH  42  43
ATOM     43  C   UNL     1      10.795   4.930  -0.457  1.00  0.00     0.338 C 
ATOM     44  O   UNL     1      11.077   6.056  -0.837  1.00  0.00    -0.246 OA
BRANCH  43  45
ATOM     45  C   UNL     1      11.217   4.346   0.831  1.00  0.00     0.060 A 
ATOM     46  C   UNL     1      10.986   5.066   2.012  1.00  0.00     0.016 A 
ATOM     47  C   UNL     1      11.831   3.092   0.873  1.00  0.00     0.016 A 
ATOM     48  C   UNL     1      11.415   4.555   3.234  1.00  0.00     0.010 A 
ATOM     49  C   UNL     1      12.287   2.594   2.095  1.00  0.00     0.010 A 
ATOM     50  C   UNL     1      12.120   3.346   3.271  1.00  0.00    -0.014 A 
BRANCH  50  51
ATOM     51  C   UNL     1      12.890   3.000   4.488  1.00  0.00     0.031 A 
ATOM     52  C   UNL     1      14.350   3.365   4.522  1.00  0.00     0.074 A 
ATOM     53  C   UNL     1      12.305   2.418   5.550  1.00  0.00     0.049 A 
ATOM     54  N   UNL     1      15.237   3.151   5.457  1.00  0.00    -0.248 NA
ATOM     55  C   UNL     1      14.880   4.068   3.340  1.00  0.00     0.031 C 
ATOM     56  C   UNL     1      10.889   2.067   5.652  1.00  0.00     0.029 A 
ATOM     57  N   UNL     1      12.841   2.017   6.748  1.00  0.00    -0.354 N 
ATOM     58  C   UNL     1      16.429   3.677   4.971  1.00  0.00     0.074 A 
ATOM     59  C   UNL     1      16.160   4.198   3.651  1.00  0.00     0.031 C 
ATOM     60  C   UNL     1      10.670   1.492   6.848  1.00  0.00     0.029 A 
ATOM     61  C   UNL     1      11.934   1.402   7.578  1.00  0.00     0.049 A 
ATOM     62  H   UNL     1      13.784   2.157   6.990  1.00  0.00     0.167 HD
ATOM     63  C   UNL     1      17.640   3.724   5.574  1.00  0.00     0.031 A 
ATOM     64  C   UNL     1      12.114   0.812   8.777  1.00  0.00     0.031 A 
ATOM     65  C   UNL     1      17.903   3.193   6.884  1.00  0.00     0.049 A 
ATOM     66  C   UNL     1      13.489   0.813   9.397  1.00  0.00     0.074 A 
ATOM     67  C   UNL     1      19.091   3.206   7.593  1.00  0.00     0.029 A 
ATOM     68  N   UNL     1      16.968   2.546   7.678  1.00  0.00    -0.354 N 
ATOM     69  N   UNL     1      14.602   1.339   8.939  1.00  0.00    -0.248 NA
ATOM     70  C   UNL     1      13.630   0.150  10.700  1.00  0.00     0.031 C 
ATOM     71  C   UNL     1      18.892   2.504   8.786  1.00  0.00     0.029 A 
ATOM     72  C   UNL     1      17.561   2.125   8.856  1.00  0.00     0.049 A 
ATOM     73  H   UNL     1      16.023   2.408   7.440  1.00  0.00     0.167 HD
ATOM     74  C   UNL     1      15.566   1.096   9.913  1.00  0.00     0.074 A 
ATOM     75  C   UNL     1      14.901   0.394  10.991  1.00  0.00     0.031 C 
ATOM     76  C   UNL     1      16.883   1.425   9.919  1.00  0.00     0.031 A 
BRANCH  63  77
ATOM     77  C   UNL     1      18.782   4.331   4.803  1.00  0.00    -0.014 A 
ATOM     78  C   UNL     1      18.844   5.712   4.544  1.00  0.00     0.010 A 
ATOM     79  C   UNL     1      19.836   3.506   4.368  1.00  0.00     0.010 A 
ATOM     80  C   UNL     1      19.925   6.252   3.842  1.00  0.00     0.020 A 
ATOM     81  C   UNL     1      20.933   4.046   3.692  1.00  0.00     0.020 A 
ATOM     82  C   UNL     1      20.965   5.415   3.423  1.00  0.00     0.054 A 
BRANCH  82  83
ATOM     83  S   UNL     1      22.375   6.150   2.552  1.00  0.00     0.124 S 
ATOM     84  O   UNL     1      21.782   6.512   1.268  1.00  0.00    -0.237 OA
ATOM     85  O   UNL     1      22.734   7.271   3.417  1.00  0.00    -0.237 OA
ATOM     86  O   UNL     1      23.355   5.067   2.501  1.00  0.00    -0.744 OA
ENDBRANCH  82  83
ENDBRANCH  63  77
BRANCH  64  87
ATOM     87  C   UNL     1      10.970   0.147   9.462  1.00  0.00    -0.014 A 
ATOM     88  C   UNL     1      10.458   0.649  10.671  1.00  0.00     0.010 A 
ATOM     89  C   UNL     1      10.393  -1.012   8.908  1.00  0.00     0.010 A 
ATOM     90  C   UNL     1       9.408  -0.005  11.323  1.00  0.00     0.020 A 
ATOM     91  C   UNL     1       9.321  -1.650   9.539  1.00  0.00     0.020 A 
ATOM     92  C   UNL     1       8.843  -1.149  10.751  1.00  0.00     0.054 A 
BRANCH  92  93
ATOM     93  S   UNL     1       7.452  -1.952  11.593  1.00  0.00     0.124 S 
ATOM     94  O   UNL     1       8.100  -2.535  12.763  1.00  0.00    -0.237 OA
ATOM     95  O   UNL     1       6.557  -0.828  11.859  1.00  0.00    -0.237 OA
ATOM     96  O   UNL     1       6.960  -2.911  10.606  1.00  0.00    -0.744 OA
ENDBRANCH  92  93
ENDBRANCH  64  87
BRANCH  76  97
ATOM     97  C   UNL     1      17.685   1.071  11.145  1.00  0.00    -0.014 A 
ATOM     98  C   UNL     1      17.998  -0.263  11.460  1.00  0.00     0.010 A 
ATOM     99  C   UNL     1      18.179   2.102  11.968  1.00  0.00     0.010 A 
ATOM    100  C   UNL     1      18.751  -0.562  12.599  1.00  0.00     0.020 A 
ATOM    101  C   UNL     1      18.961   1.809  13.087  1.00  0.00     0.020 A 
ATOM    102  C   UNL     1      19.227   0.476  13.406  1.00  0.00     0.054 A 
BRANCH 102 103
ATOM    103  S   UNL     1      20.226   0.062  14.862  1.00  0.00     0.124 S 
ATOM    104  O   UNL     1      19.228  -0.508  15.763  1.00  0.00    -0.237 OA
ATOM    105  O   UNL     1      21.200  -0.883  14.323  1.00  0.00    -0.237 OA
ATOM    106  O   UNL     1      20.780   1.348  15.280  1.00  0.00    -0.744 OA
ENDBRANCH 102 103
ENDBRANCH  76  97
ENDBRANCH  50  51
ENDBRANCH  43  45
ENDBRANCH  42  43
ENDBRANCH  41  42
ENDBRANCH  40  41
ENDBRANCH  39  40
ENDBRANCH  38  39
ENDBRANCH  37  38
ENDBRANCH   1  37
TORSDOF 27
