REMARK SMILES CCCc1c(C(=O)OCCOCCOCCOCCOC(=O)c2ccc(-c3c4nc(c(-c5ccc(S(=O)(=O)[O-])cc5)c5ccc([nH]5)c(-c5ccc(S(=O)(=O)[O-])cc5)c5nc(c(-c6ccc(S(=O)(=O)[O-])cc6)c6ccc3[nH]6)C=C5)C=C4)cc2)nnn1-c1cc(OC)ccc1F
REMARK SMILES IDX 15 1 14 2 13 3 12 4 11 5 10 6 9 7 8 8 6 9 7 10 5 11 4 12
REMARK SMILES IDX 85 13 83 14 84 15 3 16 2 17 1 18 86 19 87 20 93 21 88 22
REMARK SMILES IDX 92 23 94 24 91 25 89 26 90 27 16 28 17 29 18 30 19 31 20 32
REMARK SMILES IDX 21 33 22 34 23 35 24 36 82 37 25 38 81 39 26 40 27 41 28 42
REMARK SMILES IDX 75 43 29 44 80 45 74 46 76 47 30 48 79 49 73 50 72 51 31 53
REMARK SMILES IDX 61 54 42 55 60 56 43 57 46 58 59 59 77 60 44 61 45 62 58 64
REMARK SMILES IDX 78 65 47 66 32 67 33 68 41 69 34 70 40 71 35 72 36 73 37 74
REMARK SMILES IDX 38 75 39 76 62 77 63 78 71 79 64 80 70 81 65 82 66 83 67 84
REMARK SMILES IDX 68 85 69 86 48 87 49 88 57 89 50 90 56 91 51 92 52 93 53 94
REMARK SMILES IDX 54 95 55 96
REMARK H PARENT 76 52 46 63
REMARK Flexibility Score: inf
ROOT
ATOM      1  C   UNL     1       2.436  -2.085   2.285  1.00  0.00     0.188 C 
ENDROOT
BRANCH   1   2
ATOM      2  O   UNL     1       1.270  -2.160   1.483  1.00  0.00    -0.377 OA
BRANCH   2   3
ATOM      3  C   UNL     1       1.226  -3.009   0.340  1.00  0.00     0.188 C 
BRANCH   3   4
ATOM      4  C   UNL     1       2.313  -4.051  -0.007  1.00  0.00     0.188 C 
BRANCH   4   5
ATOM      5  O   UNL     1       3.566  -3.801   0.590  1.00  0.00    -0.376 OA
BRANCH   5   6
ATOM      6  C   UNL     1       4.659  -3.284  -0.124  1.00  0.00     0.202 C 
BRANCH   6   7
ATOM      7  C   UNL     1       4.533  -2.029  -1.000  1.00  0.00     0.261 C 
BRANCH   7   8
ATOM      8  O   UNL     1       3.231  -1.688  -1.478  1.00  0.00    -0.458 OA
BRANCH   8   9
ATOM      9  C   UNL     1       2.852  -2.241  -2.666  1.00  0.00     0.360 C 
ATOM     10  O   UNL     1       3.553  -2.998  -3.323  1.00  0.00    -0.244 OA
BRANCH   9  11
ATOM     11  C   UNL     1       1.472  -1.918  -3.004  1.00  0.00     0.194 A 
ATOM     12  C   UNL     1       0.813  -0.693  -2.995  1.00  0.00     0.080 A 
ATOM     13  N   UNL     1      -0.445  -1.010  -3.495  1.00  0.00    -0.214 N 
ATOM     14  N   UNL     1       0.565  -2.911  -3.282  1.00  0.00    -0.122 NA
ATOM     15  N   UNL     1      -0.624  -2.351  -3.444  1.00  0.00    -0.061 NA
BRANCH  12  16
ATOM     16  C   UNL     1       1.259   0.672  -2.574  1.00  0.00     0.059 C 
BRANCH  16  17
ATOM     17  C   UNL     1       0.454   1.282  -1.418  1.00  0.00     0.003 C 
ATOM     18  C   UNL     1       0.651   0.572  -0.090  1.00  0.00     0.004 C 
ENDBRANCH  16  17
ENDBRANCH  12  16
BRANCH  13  19
ATOM     19  C   UNL     1      -1.419  -0.197  -4.105  1.00  0.00     0.106 A 
ATOM     20  C   UNL     1      -2.783  -0.464  -3.917  1.00  0.00     0.078 A 
ATOM     21  C   UNL     1      -1.032   0.809  -4.986  1.00  0.00     0.149 A 
ATOM     22  C   UNL     1      -3.747   0.325  -4.558  1.00  0.00     0.121 A 
ATOM     23  C   UNL     1      -1.984   1.588  -5.631  1.00  0.00     0.045 A 
ATOM     24  F   UNL     1       0.251   0.978  -5.333  1.00  0.00    -0.205 F 
ATOM     25  C   UNL     1      -3.341   1.359  -5.407  1.00  0.00     0.049 A 
BRANCH  22  26
ATOM     26  O   UNL     1      -5.044  -0.009  -4.280  1.00  0.00    -0.497 OA
ATOM     27  C   UNL     1      -6.055   0.696  -4.993  1.00  0.00     0.278 C 
ENDBRANCH  22  26
ENDBRANCH  13  19
ENDBRANCH   9  11
ENDBRANCH   8   9
ENDBRANCH   7   8
ENDBRANCH   6   7
ENDBRANCH   5   6
ENDBRANCH   4   5
ENDBRANCH   3   4
ENDBRANCH   2   3
ENDBRANCH   1   2
BRANCH   1  28
ATOM     28  C   UNL     1       2.704  -3.324   3.163  1.00  0.00     0.188 C 
BRANCH  28  29
ATOM     29  O   UNL     1       2.016  -4.494   2.745  1.00  0.00    -0.376 OA
BRANCH  29  30
ATOM     30  C   UNL     1       0.718  -4.809   3.222  1.00  0.00     0.202 C 
BRANCH  30  31
ATOM     31  C   UNL     1      -0.383  -3.768   3.406  1.00  0.00     0.261 C 
BRANCH  31  32
ATOM     32  O   UNL     1       0.030  -2.490   3.837  1.00  0.00    -0.460 OA
BRANCH  32  33
ATOM     33  C   UNL     1       0.500  -2.413   5.091  1.00  0.00     0.338 C 
ATOM     34  O   UNL     1       0.844  -3.327   5.812  1.00  0.00    -0.246 OA
BRANCH  33  35
ATOM     35  C   UNL     1       0.354  -1.016   5.512  1.00  0.00     0.060 A 
ATOM     36  C   UNL     1       0.833  -0.727   6.786  1.00  0.00     0.016 A 
ATOM     37  C   UNL     1      -0.640  -0.251   4.879  1.00  0.00     0.016 A 
ATOM     38  C   UNL     1       0.089   0.133   7.552  1.00  0.00     0.010 A 
ATOM     39  C   UNL     1      -1.408   0.569   5.659  1.00  0.00     0.010 A 
ATOM     40  C   UNL     1      -1.084   0.672   7.008  1.00  0.00    -0.014 A 
BRANCH  40  41
ATOM     41  C   UNL     1      -1.888   1.516   7.856  1.00  0.00     0.031 A 
ATOM     42  C   UNL     1      -1.262   2.842   8.003  1.00  0.00     0.074 A 
ATOM     43  C   UNL     1      -3.079   1.146   8.357  1.00  0.00     0.049 A 
ATOM     44  N   UNL     1      -0.586   3.272   9.014  1.00  0.00    -0.248 NA
ATOM     45  C   UNL     1      -1.127   3.667   6.788  1.00  0.00     0.031 C 
ATOM     46  C   UNL     1      -3.882  -0.033   8.026  1.00  0.00     0.029 A 
ATOM     47  N   UNL     1      -3.882   1.831   9.210  1.00  0.00    -0.354 N 
ATOM     48  C   UNL     1      -0.181   4.547   8.650  1.00  0.00     0.074 A 
ATOM     49  C   UNL     1      -0.286   4.607   7.217  1.00  0.00     0.031 C 
ATOM     50  C   UNL     1      -5.145   0.151   8.481  1.00  0.00     0.029 A 
ATOM     51  C   UNL     1      -5.201   1.393   9.238  1.00  0.00     0.049 A 
ATOM     52  H   UNL     1      -3.557   2.577   9.764  1.00  0.00     0.167 HD
ATOM     53  C   UNL     1      -0.154   5.551   9.569  1.00  0.00     0.031 A 
ATOM     54  C   UNL     1      -6.254   2.063   9.777  1.00  0.00     0.031 A 
ATOM     55  C   UNL     1      -0.172   5.027  10.914  1.00  0.00     0.049 A 
ATOM     56  C   UNL     1      -5.695   3.085  10.701  1.00  0.00     0.074 A 
ATOM     57  C   UNL     1       0.628   4.154  11.626  1.00  0.00     0.029 A 
ATOM     58  N   UNL     1      -1.374   5.082  11.580  1.00  0.00    -0.354 N 
ATOM     59  N   UNL     1      -5.088   2.790  11.816  1.00  0.00    -0.248 NA
ATOM     60  C   UNL     1      -5.399   4.404  10.162  1.00  0.00     0.031 C 
ATOM     61  C   UNL     1      -0.272   3.396  12.429  1.00  0.00     0.029 A 
ATOM     62  C   UNL     1      -1.562   3.894  12.234  1.00  0.00     0.049 A 
ATOM     63  H   UNL     1      -1.995   5.846  11.586  1.00  0.00     0.167 HD
ATOM     64  C   UNL     1      -4.019   3.673  11.882  1.00  0.00     0.074 A 
ATOM     65  C   UNL     1      -4.318   4.704  10.889  1.00  0.00     0.031 C 
ATOM     66  C   UNL     1      -2.863   3.329  12.525  1.00  0.00     0.031 A 
BRANCH  53  67
ATOM     67  C   UNL     1      -0.614   6.954   9.241  1.00  0.00    -0.014 A 
ATOM     68  C   UNL     1      -0.620   7.912  10.272  1.00  0.00     0.010 A 
ATOM     69  C   UNL     1      -1.298   7.296   8.053  1.00  0.00     0.010 A 
ATOM     70  C   UNL     1      -1.345   9.104  10.151  1.00  0.00     0.020 A 
ATOM     71  C   UNL     1      -1.984   8.498   7.904  1.00  0.00     0.020 A 
ATOM     72  C   UNL     1      -2.032   9.381   8.969  1.00  0.00     0.054 A 
BRANCH  72  73
ATOM     73  S   UNL     1      -3.026  10.883   8.847  1.00  0.00     0.124 S 
ATOM     74  O   UNL     1      -4.082  10.623   9.819  1.00  0.00    -0.237 OA
ATOM     75  O   UNL     1      -2.061  11.917   9.213  1.00  0.00    -0.237 OA
ATOM     76  O   UNL     1      -3.448  10.900   7.447  1.00  0.00    -0.744 OA
ENDBRANCH  72  73
ENDBRANCH  53  67
BRANCH  54  77
ATOM     77  C   UNL     1      -7.668   2.116   9.318  1.00  0.00    -0.014 A 
ATOM     78  C   UNL     1      -8.651   2.756  10.100  1.00  0.00     0.010 A 
ATOM     79  C   UNL     1      -7.997   1.810   7.983  1.00  0.00     0.010 A 
ATOM     80  C   UNL     1      -9.880   3.153   9.544  1.00  0.00     0.020 A 
ATOM     81  C   UNL     1      -9.225   2.193   7.424  1.00  0.00     0.020 A 
ATOM     82  C   UNL     1     -10.148   2.891   8.199  1.00  0.00     0.054 A 
BRANCH  82  83
ATOM     83  S   UNL     1     -11.641   3.590   7.430  1.00  0.00     0.124 S 
ATOM     84  O   UNL     1     -12.705   2.790   8.029  1.00  0.00    -0.237 OA
ATOM     85  O   UNL     1     -11.591   4.988   7.848  1.00  0.00    -0.237 OA
ATOM     86  O   UNL     1     -11.428   3.367   6.001  1.00  0.00    -0.744 OA
ENDBRANCH  82  83
ENDBRANCH  54  77
BRANCH  66  87
ATOM     87  C   UNL     1      -2.886   2.156  13.475  1.00  0.00    -0.014 A 
ATOM     88  C   UNL     1      -3.227   0.837  13.118  1.00  0.00     0.010 A 
ATOM     89  C   UNL     1      -2.409   2.396  14.777  1.00  0.00     0.010 A 
ATOM     90  C   UNL     1      -3.127  -0.204  14.055  1.00  0.00     0.020 A 
ATOM     91  C   UNL     1      -2.286   1.363  15.705  1.00  0.00     0.020 A 
ATOM     92  C   UNL     1      -2.660   0.069  15.346  1.00  0.00     0.054 A 
BRANCH  92  93
ATOM     93  S   UNL     1      -2.516  -1.275  16.556  1.00  0.00     0.124 S 
ATOM     94  O   UNL     1      -3.911  -1.627  16.806  1.00  0.00    -0.237 OA
ATOM     95  O   UNL     1      -1.732  -2.277  15.837  1.00  0.00    -0.237 OA
ATOM     96  O   UNL     1      -1.824  -0.654  17.685  1.00  0.00    -0.744 OA
ENDBRANCH  92  93
ENDBRANCH  66  87
ENDBRANCH  40  41
ENDBRANCH  33  35
ENDBRANCH  32  33
ENDBRANCH  31  32
ENDBRANCH  30  31
ENDBRANCH  29  30
ENDBRANCH  28  29
ENDBRANCH   1  28
TORSDOF 27
