REMARK SMILES Cc1ccccc1/C=C1\SC(=O)N(CC(=O)Nc2ccccc2C(=O)OCCOCCOCCOCCOC(=O)c2ccc(-c3c4nc(c(-c5ccc(S(=O)(=O)[O-])cc5)c5ccc([nH]5)c(-c5ccc(S(=O)(=O)[O-])cc5)c5nc(c(-c6ccc(S(=O)(=O)[O-])cc6)c6ccc3[nH]6)C=C5)C=C4)cc2)C1=O
REMARK SMILES IDX 31 1 30 2 29 3 28 4 27 5 26 6 24 7 25 8 23 9 18 10 19 11
REMARK SMILES IDX 20 12 22 13 21 14 17 15 15 16 16 17 14 19 13 20 8 21 9 22
REMARK SMILES IDX 10 23 101 24 11 25 102 26 12 27 7 28 1 29 2 30 3 31 4 32
REMARK SMILES IDX 6 33 5 34 32 35 33 36 34 37 35 38 36 39 37 40 38 41 39 42
REMARK SMILES IDX 40 43 41 44 42 45 100 46 43 47 99 48 44 49 45 50 46 51 93 52
REMARK SMILES IDX 47 53 98 54 92 55 94 56 48 57 97 58 91 59 90 60 49 62 79 63
REMARK SMILES IDX 60 64 78 65 61 66 64 67 77 68 95 69 62 70 63 71 76 73 96 74
REMARK SMILES IDX 65 75 50 76 51 77 59 78 52 79 58 80 53 81 54 82 55 83 56 84
REMARK SMILES IDX 57 85 80 86 81 87 89 88 82 89 88 90 83 91 84 92 85 93 86 94
REMARK SMILES IDX 87 95 66 96 67 97 75 98 68 99 74 100 69 101 70 102 71 103
REMARK SMILES IDX 72 104 73 105
REMARK H PARENT 17 18 94 61 64 72
REMARK Flexibility Score: inf
ROOT
ATOM      1  C   UNL     1       5.912   4.057  -2.212  1.00  0.00     0.188 C 
ENDROOT
BRANCH   1   2
ATOM      2  C   UNL     1       5.479   4.283  -0.551  1.00  0.00     0.188 C 
BRANCH   2   3
ATOM      3  O   UNL     1       4.420   3.384   0.753  1.00  0.00    -0.376 OA
BRANCH   3   4
ATOM      4  C   UNL     1       2.853   2.377   0.489  1.00  0.00     0.202 C 
BRANCH   4   5
ATOM      5  C   UNL     1       1.735   1.975  -1.081  1.00  0.00     0.261 C 
BRANCH   5   6
ATOM      6  O   UNL     1       0.628   2.617  -2.439  1.00  0.00    -0.460 OA
BRANCH   6   7
ATOM      7  C   UNL     1       0.012   3.448  -3.612  1.00  0.00     0.340 C 
ATOM      8  O   UNL     1      -1.210   3.396  -3.829  1.00  0.00    -0.246 OA
BRANCH   7   9
ATOM      9  C   UNL     1       0.677   4.396  -4.824  1.00  0.00     0.083 A 
ATOM     10  C   UNL     1       1.093   5.807  -5.000  1.00  0.00     0.055 A 
ATOM     11  C   UNL     1       1.754   6.202  -6.202  1.00  0.00     0.027 A 
ATOM     12  C   UNL     1       1.956   5.322  -7.255  1.00  0.00     0.002 A 
ATOM     13  C   UNL     1       0.777   3.620  -5.997  1.00  0.00     0.018 A 
ATOM     14  C   UNL     1       1.435   4.045  -7.164  1.00  0.00     0.001 A 
BRANCH  10  15
ATOM     15  N   UNL     1       0.914   6.936  -4.085  1.00  0.00    -0.324 N 
ATOM     16  C   UNL     1       1.886   7.973  -3.892  1.00  0.00     0.244 C 
ATOM     17  O   UNL     1       1.867   9.027  -4.529  1.00  0.00    -0.273 OA
ATOM     18  H   UNL     1       0.076   6.986  -3.571  1.00  0.00     0.170 HD
BRANCH  16  19
ATOM     19  C   UNL     1       2.989   7.727  -2.829  1.00  0.00     0.230 C 
BRANCH  19  20
ATOM     20  N   UNL     1       2.614   6.495  -2.223  1.00  0.00    -0.259 N 
ATOM     21  C   UNL     1       0.264   3.546  -0.054  1.00  0.00     0.029 C 
ATOM     22  C   UNL     1       0.891   4.597  -1.175  1.00  0.00     0.083 C 
ATOM     23  S   UNL     1       2.128   4.263  -2.440  1.00  0.00    -0.022 SA
ATOM     24  C   UNL     1       1.433   6.316  -1.437  1.00  0.00     0.268 C 
ATOM     25  C   UNL     1       3.030   5.500  -2.976  1.00  0.00     0.294 C 
ATOM     26  O   UNL     1       0.920   7.384  -1.125  1.00  0.00    -0.268 OA
ATOM     27  O   UNL     1       3.734   5.476  -3.968  1.00  0.00    -0.261 OA
BRANCH  21  28
ATOM     28  C   UNL     1      -0.207   1.968   0.858  1.00  0.00    -0.021 A 
ATOM     29  C   UNL     1       1.714   0.203   1.766  1.00  0.00     0.045 C 
ATOM     30  C   UNL     1       0.415   0.621   1.075  1.00  0.00    -0.044 A 
ATOM     31  C   UNL     1      -0.309  -0.619   0.930  1.00  0.00     0.004 A 
ATOM     32  C   UNL     1      -1.664  -0.651   0.987  1.00  0.00     0.000 A 
ATOM     33  C   UNL     1      -1.537   1.804   1.278  1.00  0.00     0.008 A 
ATOM     34  C   UNL     1      -2.239   0.544   1.339  1.00  0.00     0.001 A 
ENDBRANCH  21  28
ENDBRANCH  19  20
ENDBRANCH  16  19
ENDBRANCH  10  15
ENDBRANCH   7   9
ENDBRANCH   6   7
ENDBRANCH   5   6
ENDBRANCH   4   5
ENDBRANCH   3   4
ENDBRANCH   2   3
ENDBRANCH   1   2
BRANCH   1  35
ATOM     35  O   UNL     1       5.792   3.065  -3.242  1.00  0.00    -0.377 OA
BRANCH  35  36
ATOM     36  C   UNL     1       6.347   1.744  -3.234  1.00  0.00     0.188 C 
BRANCH  36  37
ATOM     37  C   UNL     1       7.794   1.704  -2.904  1.00  0.00     0.188 C 
BRANCH  37  38
ATOM     38  O   UNL     1       7.949   2.670  -1.885  1.00  0.00    -0.376 OA
BRANCH  38  39
ATOM     39  C   UNL     1       8.991   3.587  -2.055  1.00  0.00     0.202 C 
BRANCH  39  40
ATOM     40  C   UNL     1      10.258   2.809  -1.825  1.00  0.00     0.261 C 
BRANCH  40  41
ATOM     41  O   UNL     1      10.270   2.297  -0.451  1.00  0.00    -0.460 OA
BRANCH  41  42
ATOM     42  C   UNL     1       9.707   1.060  -0.178  1.00  0.00     0.338 C 
ATOM     43  O   UNL     1      10.345   0.023  -0.249  1.00  0.00    -0.246 OA
BRANCH  42  44
ATOM     44  C   UNL     1       8.283   1.134   0.307  1.00  0.00     0.060 A 
ATOM     45  C   UNL     1       7.273   0.179   0.059  1.00  0.00     0.016 A 
ATOM     46  C   UNL     1       7.849   2.283   0.865  1.00  0.00     0.016 A 
ATOM     47  C   UNL     1       5.883   0.545  -0.229  1.00  0.00     0.010 A 
ATOM     48  C   UNL     1       6.490   2.525   0.718  1.00  0.00     0.010 A 
ATOM     49  C   UNL     1       5.506   1.870  -0.230  1.00  0.00    -0.014 A 
BRANCH  49  50
ATOM     50  C   UNL     1       4.066   2.771  -1.138  1.00  0.00     0.031 A 
ATOM     51  C   UNL     1       3.251   4.427  -0.215  1.00  0.00     0.074 A 
ATOM     52  C   UNL     1       3.739   1.903  -2.355  1.00  0.00     0.049 A 
ATOM     53  N   UNL     1       2.095   4.589   0.591  1.00  0.00    -0.248 NA
ATOM     54  C   UNL     1       3.873   5.715   0.761  1.00  0.00     0.031 C 
ATOM     55  C   UNL     1       3.205   2.202  -3.756  1.00  0.00     0.029 A 
ATOM     56  N   UNL     1       3.318   0.480  -2.390  1.00  0.00    -0.354 N 
ATOM     57  C   UNL     1       1.628   5.849   1.155  1.00  0.00     0.074 A 
ATOM     58  C   UNL     1       2.922   6.372   1.459  1.00  0.00     0.031 C 
ATOM     59  C   UNL     1       2.210   1.379  -4.155  1.00  0.00     0.029 A 
ATOM     60  C   UNL     1       2.032   0.352  -3.192  1.00  0.00     0.049 A 
ATOM     61  H   UNL     1       3.797  -0.265  -1.960  1.00  0.00     0.167 HD
ATOM     62  C   UNL     1       0.293   6.460   1.175  1.00  0.00     0.031 A 
ATOM     63  C   UNL     1       0.872  -0.381  -2.913  1.00  0.00     0.031 A 
ATOM     64  C   UNL     1      -0.951   5.931   0.234  1.00  0.00     0.049 A 
ATOM     65  C   UNL     1      -0.722   0.239  -2.507  1.00  0.00     0.074 A 
ATOM     66  C   UNL     1      -1.482   6.387  -0.995  1.00  0.00     0.029 A 
ATOM     67  N   UNL     1      -1.830   4.832   0.429  1.00  0.00    -0.354 N 
ATOM     68  N   UNL     1      -1.040   1.421  -1.984  1.00  0.00    -0.248 NA
ATOM     69  C   UNL     1      -2.011  -0.475  -2.630  1.00  0.00     0.031 C 
ATOM     70  C   UNL     1      -2.207   5.347  -1.661  1.00  0.00     0.029 A 
ATOM     71  C   UNL     1      -2.229   4.219  -0.852  1.00  0.00     0.049 A 
ATOM     72  H   UNL     1      -2.135   4.518   1.311  1.00  0.00     0.167 HD
ATOM     73  C   UNL     1      -2.381   1.700  -1.703  1.00  0.00     0.074 A 
ATOM     74  C   UNL     1      -2.940   0.418  -2.173  1.00  0.00     0.031 C 
ATOM     75  C   UNL     1      -2.935   2.847  -1.032  1.00  0.00     0.031 A 
BRANCH  62  76
ATOM     76  C   UNL     1       0.102   7.990   1.573  1.00  0.00    -0.014 A 
ATOM     77  C   UNL     1      -1.034   8.674   1.061  1.00  0.00     0.010 A 
ATOM     78  C   UNL     1       0.971   8.810   2.315  1.00  0.00     0.010 A 
ATOM     79  C   UNL     1      -1.226  10.058   1.124  1.00  0.00     0.020 A 
ATOM     80  C   UNL     1       0.771  10.215   2.433  1.00  0.00     0.020 A 
ATOM     81  C   UNL     1      -0.314  10.833   1.810  1.00  0.00     0.054 A 
BRANCH  81  82
ATOM     82  S   UNL     1      -0.643  12.612   1.928  1.00  0.00     0.124 S 
ATOM     83  O   UNL     1      -0.482  13.060   0.547  1.00  0.00    -0.237 OA
ATOM     84  O   UNL     1      -2.011  12.649   2.440  1.00  0.00    -0.237 OA
ATOM     85  O   UNL     1       0.377  13.092   2.857  1.00  0.00    -0.744 OA
ENDBRANCH  81  82
ENDBRANCH  62  76
BRANCH  63  86
ATOM     86  C   UNL     1       1.454  -1.799  -2.723  1.00  0.00    -0.014 A 
ATOM     87  C   UNL     1       2.178  -2.288  -3.864  1.00  0.00     0.010 A 
ATOM     88  C   UNL     1       2.030  -2.084  -1.472  1.00  0.00     0.010 A 
ATOM     89  C   UNL     1       3.537  -2.669  -3.761  1.00  0.00     0.020 A 
ATOM     90  C   UNL     1       3.378  -2.495  -1.359  1.00  0.00     0.020 A 
ATOM     91  C   UNL     1       4.145  -2.712  -2.507  1.00  0.00     0.054 A 
BRANCH  91  92
ATOM     92  S   UNL     1       5.971  -2.701  -2.414  1.00  0.00     0.124 S 
ATOM     93  O   UNL     1       6.329  -4.045  -2.844  1.00  0.00    -0.237 OA
ATOM     94  O   UNL     1       6.318  -1.617  -3.334  1.00  0.00    -0.237 OA
ATOM     95  O   UNL     1       6.226  -2.420  -1.008  1.00  0.00    -0.744 OA
ENDBRANCH  91  92
ENDBRANCH  63  86
BRANCH  75  96
ATOM     96  C   UNL     1      -4.279   2.825  -0.231  1.00  0.00    -0.014 A 
ATOM     97  C   UNL     1      -5.008   1.669   0.065  1.00  0.00     0.010 A 
ATOM     98  C   UNL     1      -4.662   3.985   0.514  1.00  0.00     0.010 A 
ATOM     99  C   UNL     1      -5.990   1.649   1.074  1.00  0.00     0.020 A 
ATOM    100  C   UNL     1      -5.584   3.967   1.565  1.00  0.00     0.020 A 
ATOM    101  C   UNL     1      -6.261   2.792   1.827  1.00  0.00     0.054 A 
BRANCH 101 102
ATOM    102  S   UNL     1      -7.542   2.730   3.098  1.00  0.00     0.124 S 
ATOM    103  O   UNL     1      -8.741   2.513   2.293  1.00  0.00    -0.237 OA
ATOM    104  O   UNL     1      -7.121   1.596   3.917  1.00  0.00    -0.237 OA
ATOM    105  O   UNL     1      -7.456   4.033   3.752  1.00  0.00    -0.744 OA
ENDBRANCH 101 102
ENDBRANCH  75  96
ENDBRANCH  49  50
ENDBRANCH  42  44
ENDBRANCH  41  42
ENDBRANCH  40  41
ENDBRANCH  39  40
ENDBRANCH  38  39
ENDBRANCH  37  38
ENDBRANCH  36  37
ENDBRANCH  35  36
ENDBRANCH   1  35
TORSDOF 27
