REMARK SMILES COc1cc(C(=O)OCCOCCOCCOCCOC(=O)c2ccc(-c3c4nc(c(-c5ccc(S(=O)(=O)[O-])cc5)c5ccc([nH]5)c(-c5ccc(S(=O)(=O)[O-])cc5)c5nc(c(-c6ccc(S(=O)(=O)[O-])cc6)c6ccc3[nH]6)C=C5)C=C4)cc2)ccc1OCC(=O)N[C@H]1CCCC[C@H]1C
REMARK SMILES IDX 13 1 12 2 11 3 10 4 9 5 8 6 6 7 7 8 5 9 3 10 4 11 85 12
REMARK SMILES IDX 84 13 83 14 2 15 1 16 86 17 87 18 88 19 89 20 90 21 91 23
REMARK SMILES IDX 92 24 96 25 93 26 95 27 97 28 94 29 14 30 15 31 16 32 17 33
REMARK SMILES IDX 18 34 19 35 20 36 21 37 22 38 23 39 24 40 82 41 25 42 81 43
REMARK SMILES IDX 26 44 27 45 28 46 75 47 29 48 80 49 74 50 76 51 30 52 79 53
REMARK SMILES IDX 73 54 72 55 31 57 61 58 42 59 60 60 43 61 46 62 59 63 77 64
REMARK SMILES IDX 44 65 45 66 58 68 78 69 47 70 32 71 33 72 41 73 34 74 40 75
REMARK SMILES IDX 35 76 36 77 37 78 38 79 39 80 62 81 63 82 71 83 64 84 70 85
REMARK SMILES IDX 65 86 66 87 67 88 68 89 69 90 48 91 49 92 57 93 50 94 56 95
REMARK SMILES IDX 51 96 52 97 53 98 54 99 55 100
REMARK H PARENT 90 22 76 56 46 67
REMARK Flexibility Score: inf
ROOT
ATOM      1  C   UNL     1       0.270   6.206   0.518  1.00  0.00     0.188 C 
ENDROOT
BRANCH   1   2
ATOM      2  C   UNL     1      -1.243   6.042   0.770  1.00  0.00     0.188 C 
BRANCH   2   3
ATOM      3  O   UNL     1      -1.855   7.197   1.311  1.00  0.00    -0.376 OA
BRANCH   3   4
ATOM      4  C   UNL     1      -2.049   7.326   2.707  1.00  0.00     0.202 C 
BRANCH   4   5
ATOM      5  C   UNL     1      -1.034   6.849   3.762  1.00  0.00     0.261 C 
BRANCH   5   6
ATOM      6  O   UNL     1      -0.184   5.753   3.416  1.00  0.00    -0.460 OA
BRANCH   6   7
ATOM      7  C   UNL     1      -0.659   4.492   3.511  1.00  0.00     0.338 C 
ATOM      8  O   UNL     1      -1.762   4.144   3.893  1.00  0.00    -0.246 OA
BRANCH   7   9
ATOM      9  C   UNL     1       0.334   3.616   2.834  1.00  0.00     0.064 A 
ATOM     10  C   UNL     1       0.872   2.100   1.010  1.00  0.00     0.161 A 
ATOM     11  C   UNL     1      -0.083   2.787   1.774  1.00  0.00     0.066 A 
ATOM     12  C   UNL     1       2.218   2.147   1.381  1.00  0.00     0.161 A 
ATOM     13  C   UNL     1       2.628   3.054   2.368  1.00  0.00     0.051 A 
ATOM     14  C   UNL     1       1.696   3.779   3.104  1.00  0.00     0.020 A 
BRANCH  10  15
ATOM     15  O   UNL     1       0.587   1.574  -0.220  1.00  0.00    -0.493 OA
ATOM     16  C   UNL     1      -0.536   0.708  -0.295  1.00  0.00     0.278 C 
ENDBRANCH  10  15
BRANCH  12  17
ATOM     17  O   UNL     1       3.230   1.361   0.897  1.00  0.00    -0.480 OA
BRANCH  17  18
ATOM     18  C   UNL     1       2.921   0.070   0.396  1.00  0.00     0.329 C 
BRANCH  18  19
ATOM     19  C   UNL     1       1.951  -0.942   1.063  1.00  0.00     0.258 C 
ATOM     20  O   UNL     1       1.111  -1.558   0.397  1.00  0.00    -0.271 OA
ATOM     21  N   UNL     1       2.027  -1.264   2.385  1.00  0.00    -0.350 N 
ATOM     22  H   UNL     1       1.197  -1.597   2.797  1.00  0.00     0.163 HD
BRANCH  21  23
ATOM     23  C   UNL     1       3.181  -1.176   3.261  1.00  0.00     0.085 C 
ATOM     24  C   UNL     1       3.228   0.108   4.083  1.00  0.00     0.025 C 
ATOM     25  C   UNL     1       3.273  -2.412   4.191  1.00  0.00     0.008 C 
ATOM     26  C   UNL     1       4.524   0.200   4.876  1.00  0.00     0.002 C 
ATOM     27  C   UNL     1       4.574  -2.325   5.007  1.00  0.00     0.005 C 
ATOM     28  C   UNL     1       2.047  -2.597   5.105  1.00  0.00     0.010 C 
ATOM     29  C   UNL     1       4.714  -1.013   5.777  1.00  0.00     0.000 C 
ENDBRANCH  21  23
ENDBRANCH  18  19
ENDBRANCH  17  18
ENDBRANCH  12  17
ENDBRANCH   7   9
ENDBRANCH   6   7
ENDBRANCH   5   6
ENDBRANCH   4   5
ENDBRANCH   3   4
ENDBRANCH   2   3
ENDBRANCH   1   2
BRANCH   1  30
ATOM     30  O   UNL     1       0.883   7.310   1.159  1.00  0.00    -0.377 OA
BRANCH  30  31
ATOM     31  C   UNL     1       0.544   8.633   0.745  1.00  0.00     0.188 C 
BRANCH  31  32
ATOM     32  C   UNL     1      -0.487   8.934  -0.373  1.00  0.00     0.188 C 
BRANCH  32  33
ATOM     33  O   UNL     1      -0.727   7.873  -1.284  1.00  0.00    -0.376 OA
BRANCH  33  34
ATOM     34  C   UNL     1      -0.194   7.957  -2.592  1.00  0.00     0.202 C 
BRANCH  34  35
ATOM     35  C   UNL     1       1.334   7.938  -2.726  1.00  0.00     0.261 C 
BRANCH  35  36
ATOM     36  O   UNL     1       2.043   8.903  -1.938  1.00  0.00    -0.460 OA
BRANCH  36  37
ATOM     37  C   UNL     1       1.838  10.200  -2.245  1.00  0.00     0.338 C 
ATOM     38  O   UNL     1       1.114  10.642  -3.126  1.00  0.00    -0.246 OA
BRANCH  37  39
ATOM     39  C   UNL     1       2.498  11.022  -1.214  1.00  0.00     0.060 A 
ATOM     40  C   UNL     1       1.727  11.927  -0.473  1.00  0.00     0.016 A 
ATOM     41  C   UNL     1       3.872  10.911  -0.994  1.00  0.00     0.016 A 
ATOM     42  C   UNL     1       2.343  12.774   0.447  1.00  0.00     0.010 A 
ATOM     43  C   UNL     1       4.491  11.773  -0.087  1.00  0.00     0.010 A 
ATOM     44  C   UNL     1       3.735  12.743   0.596  1.00  0.00    -0.014 A 
BRANCH  44  45
ATOM     45  C   UNL     1       4.419  13.885   1.249  1.00  0.00     0.031 A 
ATOM     46  C   UNL     1       4.991  14.960   0.360  1.00  0.00     0.074 A 
ATOM     47  C   UNL     1       4.498  13.993   2.587  1.00  0.00     0.049 A 
ATOM     48  N   UNL     1       5.661  16.034   0.682  1.00  0.00    -0.248 NA
ATOM     49  C   UNL     1       4.781  14.797  -1.091  1.00  0.00     0.031 C 
ATOM     50  C   UNL     1       3.936  13.048   3.551  1.00  0.00     0.029 A 
ATOM     51  N   UNL     1       5.092  14.955   3.366  1.00  0.00    -0.354 N 
ATOM     52  C   UNL     1       5.967  16.662  -0.520  1.00  0.00     0.074 A 
ATOM     53  C   UNL     1       5.434  15.839  -1.581  1.00  0.00     0.031 C 
ATOM     54  C   UNL     1       4.220  13.476   4.796  1.00  0.00     0.029 A 
ATOM     55  C   UNL     1       5.012  14.702   4.715  1.00  0.00     0.049 A 
ATOM     56  H   UNL     1       5.534  15.752   2.993  1.00  0.00     0.167 HD
ATOM     57  C   UNL     1       6.630  17.824  -0.723  1.00  0.00     0.031 A 
ATOM     58  C   UNL     1       5.539  15.373   5.759  1.00  0.00     0.031 A 
ATOM     59  C   UNL     1       7.156  18.641   0.335  1.00  0.00     0.049 A 
ATOM     60  C   UNL     1       6.332  16.632   5.500  1.00  0.00     0.074 A 
ATOM     61  C   UNL     1       7.825  19.848   0.235  1.00  0.00     0.029 A 
ATOM     62  N   UNL     1       7.078  18.336   1.685  1.00  0.00    -0.354 N 
ATOM     63  N   UNL     1       6.591  17.227   4.358  1.00  0.00    -0.248 NA
ATOM     64  C   UNL     1       6.892  17.319   6.673  1.00  0.00     0.031 C 
ATOM     65  C   UNL     1       8.210  20.240   1.519  1.00  0.00     0.029 A 
ATOM     66  C   UNL     1       7.709  19.319   2.426  1.00  0.00     0.049 A 
ATOM     67  H   UNL     1       6.639  17.538   2.060  1.00  0.00     0.167 HD
ATOM     68  C   UNL     1       7.301  18.380   4.683  1.00  0.00     0.074 A 
ATOM     69  C   UNL     1       7.421  18.404   6.125  1.00  0.00     0.031 C 
ATOM     70  C   UNL     1       7.803  19.337   3.863  1.00  0.00     0.031 A 
BRANCH  57  71
ATOM     71  C   UNL     1       6.857  18.268  -2.144  1.00  0.00    -0.014 A 
ATOM     72  C   UNL     1       5.802  18.743  -2.943  1.00  0.00     0.010 A 
ATOM     73  C   UNL     1       8.166  18.277  -2.660  1.00  0.00     0.010 A 
ATOM     74  C   UNL     1       6.051  19.206  -4.238  1.00  0.00     0.020 A 
ATOM     75  C   UNL     1       8.423  18.767  -3.943  1.00  0.00     0.020 A 
ATOM     76  C   UNL     1       7.362  19.222  -4.727  1.00  0.00     0.054 A 
BRANCH  76  77
ATOM     77  S   UNL     1       7.663  19.893  -6.384  1.00  0.00     0.124 S 
ATOM     78  O   UNL     1       7.063  18.871  -7.238  1.00  0.00    -0.237 OA
ATOM     79  O   UNL     1       6.957  21.171  -6.343  1.00  0.00    -0.237 OA
ATOM     80  O   UNL     1       9.119  19.991  -6.461  1.00  0.00    -0.744 OA
ENDBRANCH  76  77
ENDBRANCH  57  71
BRANCH  58  81
ATOM     81  C   UNL     1       5.365  14.867   7.151  1.00  0.00    -0.014 A 
ATOM     82  C   UNL     1       4.637  15.604   8.104  1.00  0.00     0.010 A 
ATOM     83  C   UNL     1       5.976  13.663   7.547  1.00  0.00     0.010 A 
ATOM     84  C   UNL     1       4.560  15.170   9.431  1.00  0.00     0.020 A 
ATOM     85  C   UNL     1       5.872  13.207   8.864  1.00  0.00     0.020 A 
ATOM     86  C   UNL     1       5.181  13.974   9.803  1.00  0.00     0.054 A 
BRANCH  86  87
ATOM     87  S   UNL     1       5.062  13.425  11.528  1.00  0.00     0.124 S 
ATOM     88  O   UNL     1       5.934  14.376  12.211  1.00  0.00    -0.237 OA
ATOM     89  O   UNL     1       3.635  13.563  11.804  1.00  0.00    -0.237 OA
ATOM     90  O   UNL     1       5.551  12.049  11.483  1.00  0.00    -0.744 OA
ENDBRANCH  86  87
ENDBRANCH  58  81
BRANCH  70  91
ATOM     91  C   UNL     1       8.460  20.535   4.502  1.00  0.00    -0.014 A 
ATOM     92  C   UNL     1       9.696  20.438   5.164  1.00  0.00     0.010 A 
ATOM     93  C   UNL     1       7.844  21.796   4.385  1.00  0.00     0.010 A 
ATOM     94  C   UNL     1      10.281  21.573   5.736  1.00  0.00     0.020 A 
ATOM     95  C   UNL     1       8.443  22.937   4.922  1.00  0.00     0.020 A 
ATOM     96  C   UNL     1       9.649  22.815   5.611  1.00  0.00     0.054 A 
BRANCH  96  97
ATOM     97  S   UNL     1      10.443  24.275   6.336  1.00  0.00     0.124 S 
ATOM     98  O   UNL     1      10.249  24.049   7.765  1.00  0.00    -0.237 OA
ATOM     99  O   UNL     1      11.820  24.159   5.862  1.00  0.00    -0.237 OA
ATOM    100  O   UNL     1       9.690  25.395   5.774  1.00  0.00    -0.744 OA
ENDBRANCH  96  97
ENDBRANCH  70  91
ENDBRANCH  44  45
ENDBRANCH  37  39
ENDBRANCH  36  37
ENDBRANCH  35  36
ENDBRANCH  34  35
ENDBRANCH  33  34
ENDBRANCH  32  33
ENDBRANCH  31  32
ENDBRANCH  30  31
ENDBRANCH   1  30
TORSDOF 28
