REMARK SMILES COc1ccc(-c2ccc(CCC(=O)OCCOCCOCCOCCOC(=O)c3ccc(-c4c5nc(c(-c6ccc(S(=O)(=O)[O-])cc6)c6ccc([nH]6)c(-c6ccc(S(=O)(=O)[O-])cc6)c6nc(c(-c7ccc(S(=O)(=O)[O-])cc7)c7ccc4[nH]7)C=C6)C=C5)cc3)n2-c2ccc(C(C)=O)cc2)cc1
REMARK SMILES IDX 20 1 19 2 18 3 17 4 16 5 15 6 13 7 14 8 12 9 11 10 10 11
REMARK SMILES IDX 7 12 8 13 90 14 9 15 6 16 3 17 4 18 101 19 5 20 100 21 2 22
REMARK SMILES IDX 1 23 91 24 92 25 99 26 93 27 98 28 94 29 95 30 96 31 97 32
REMARK SMILES IDX 21 33 22 34 23 35 24 36 25 37 26 38 27 39 28 40 29 41 30 42
REMARK SMILES IDX 31 43 89 44 32 45 88 46 33 47 34 48 35 49 82 50 36 51 87 52
REMARK SMILES IDX 81 53 83 54 37 55 86 56 80 57 79 58 38 60 68 61 49 62 67 63
REMARK SMILES IDX 50 64 53 65 66 66 84 67 51 68 52 69 65 71 85 72 54 73 39 74
REMARK SMILES IDX 40 75 48 76 41 77 47 78 42 79 43 80 44 81 45 82 46 83 69 84
REMARK SMILES IDX 70 85 78 86 71 87 77 88 72 89 73 90 74 91 75 92 76 93 55 94
REMARK SMILES IDX 56 95 64 96 57 97 63 98 58 99 59 100 60 101 61 102 62 103
REMARK H PARENT 83 59 53 70
REMARK Flexibility Score: inf
ROOT
ATOM      1  C   UNL     1       4.115   7.995  -8.026  1.00  0.00     0.188 C 
ENDROOT
BRANCH   1   2
ATOM      2  C   UNL     1       5.546   8.535  -8.188  1.00  0.00     0.188 C 
BRANCH   2   3
ATOM      3  O   UNL     1       6.451   7.501  -8.507  1.00  0.00    -0.376 OA
BRANCH   3   4
ATOM      4  C   UNL     1       7.452   7.121  -7.597  1.00  0.00     0.202 C 
BRANCH   4   5
ATOM      5  C   UNL     1       7.129   6.772  -6.137  1.00  0.00     0.261 C 
BRANCH   5   6
ATOM      6  O   UNL     1       5.816   7.057  -5.646  1.00  0.00    -0.463 OA
BRANCH   6   7
ATOM      7  C   UNL     1       5.697   8.036  -4.723  1.00  0.00     0.306 C 
ATOM      8  O   UNL     1       6.577   8.858  -4.481  1.00  0.00    -0.252 OA
BRANCH   7   9
ATOM      9  C   UNL     1       4.433   7.940  -3.890  1.00  0.00     0.129 C 
BRANCH   9  10
ATOM     10  C   UNL     1       3.098   7.572  -4.542  1.00  0.00     0.066 C 
BRANCH  10  11
ATOM     11  C   UNL     1       2.888   6.091  -4.761  1.00  0.00     0.024 A 
ATOM     12  C   UNL     1       2.289   3.985  -4.206  1.00  0.00     0.053 A 
ATOM     13  C   UNL     1       3.148   3.912  -5.287  1.00  0.00     0.029 A 
ATOM     14  N   UNL     1       1.976   5.327  -4.029  1.00  0.00    -0.314 N 
ATOM     15  C   UNL     1       3.493   5.225  -5.654  1.00  0.00     0.024 A 
BRANCH  12  16
ATOM     16  C   UNL     1       1.750   2.863  -3.449  1.00  0.00    -0.001 A 
ATOM     17  C   UNL     1       0.802   0.718  -1.928  1.00  0.00     0.118 A 
ATOM     18  C   UNL     1      -0.066   1.419  -2.766  1.00  0.00     0.047 A 
ATOM     19  C   UNL     1       2.157   1.042  -1.899  1.00  0.00     0.047 A 
ATOM     20  C   UNL     1       0.404   2.496  -3.522  1.00  0.00     0.014 A 
ATOM     21  C   UNL     1       2.627   2.113  -2.657  1.00  0.00     0.014 A 
BRANCH  17  22
ATOM     22  O   UNL     1       0.256  -0.301  -1.198  1.00  0.00    -0.497 OA
ATOM     23  C   UNL     1       0.734  -0.355   0.143  1.00  0.00     0.278 C 
ENDBRANCH  17  22
ENDBRANCH  12  16
BRANCH  14  24
ATOM     24  C   UNL     1       0.929   5.869  -3.244  1.00  0.00     0.046 A 
ATOM     25  C   UNL     1       0.029   6.754  -3.854  1.00  0.00     0.027 A 
ATOM     26  C   UNL     1       0.840   5.592  -1.883  1.00  0.00     0.027 A 
ATOM     27  C   UNL     1      -0.939   7.407  -3.088  1.00  0.00     0.014 A 
ATOM     28  C   UNL     1      -0.115   6.268  -1.118  1.00  0.00     0.014 A 
ATOM     29  C   UNL     1      -1.000   7.191  -1.707  1.00  0.00     0.017 A 
BRANCH  29  30
ATOM     30  C   UNL     1      -1.936   7.932  -0.805  1.00  0.00     0.159 C 
ATOM     31  C   UNL     1      -3.049   8.783  -1.364  1.00  0.00     0.093 C 
ATOM     32  O   UNL     1      -1.791   7.839   0.415  1.00  0.00    -0.295 OA
ENDBRANCH  29  30
ENDBRANCH  14  24
ENDBRANCH  10  11
ENDBRANCH   9  10
ENDBRANCH   7   9
ENDBRANCH   6   7
ENDBRANCH   5   6
ENDBRANCH   4   5
ENDBRANCH   3   4
ENDBRANCH   2   3
ENDBRANCH   1   2
BRANCH   1  33
ATOM     33  O   UNL     1       3.586   6.900  -8.766  1.00  0.00    -0.377 OA
BRANCH  33  34
ATOM     34  C   UNL     1       4.428   6.148  -9.620  1.00  0.00     0.188 C 
BRANCH  34  35
ATOM     35  C   UNL     1       4.855   6.891 -10.896  1.00  0.00     0.188 C 
BRANCH  35  36
ATOM     36  O   UNL     1       4.558   8.289 -10.874  1.00  0.00    -0.376 OA
BRANCH  36  37
ATOM     37  C   UNL     1       3.420   8.702 -11.622  1.00  0.00     0.202 C 
BRANCH  37  38
ATOM     38  C   UNL     1       2.050   8.360 -11.011  1.00  0.00     0.261 C 
BRANCH  38  39
ATOM     39  O   UNL     1       1.753   6.969 -10.866  1.00  0.00    -0.460 OA
BRANCH  39  40
ATOM     40  C   UNL     1       1.850   6.243 -11.969  1.00  0.00     0.338 C 
ATOM     41  O   UNL     1       2.248   6.621 -13.099  1.00  0.00    -0.246 OA
BRANCH  40  42
ATOM     42  C   UNL     1       1.382   4.891 -11.773  1.00  0.00     0.060 A 
ATOM     43  C   UNL     1       2.071   3.880 -12.452  1.00  0.00     0.016 A 
ATOM     44  C   UNL     1       0.069   4.739 -11.321  1.00  0.00     0.016 A 
ATOM     45  C   UNL     1       1.366   2.777 -12.877  1.00  0.00     0.010 A 
ATOM     46  C   UNL     1      -0.648   3.655 -11.782  1.00  0.00     0.010 A 
ATOM     47  C   UNL     1      -0.011   2.733 -12.626  1.00  0.00    -0.014 A 
BRANCH  47  48
ATOM     48  C   UNL     1      -0.816   1.739 -13.347  1.00  0.00     0.031 A 
ATOM     49  C   UNL     1      -1.013   0.457 -12.570  1.00  0.00     0.074 A 
ATOM     50  C   UNL     1      -1.230   2.112 -14.595  1.00  0.00     0.049 A 
ATOM     51  N   UNL     1      -1.350  -0.716 -13.003  1.00  0.00    -0.248 NA
ATOM     52  C   UNL     1      -0.734   0.452 -11.110  1.00  0.00     0.031 C 
ATOM     53  C   UNL     1      -0.917   3.416 -15.229  1.00  0.00     0.029 A 
ATOM     54  N   UNL     1      -1.980   1.502 -15.576  1.00  0.00    -0.354 N 
ATOM     55  C   UNL     1      -1.488  -1.542 -11.877  1.00  0.00     0.074 A 
ATOM     56  C   UNL     1      -1.003  -0.802 -10.751  1.00  0.00     0.031 C 
ATOM     57  C   UNL     1      -1.414   3.474 -16.480  1.00  0.00     0.029 A 
ATOM     58  C   UNL     1      -2.115   2.240 -16.775  1.00  0.00     0.049 A 
ATOM     59  H   UNL     1      -2.391   0.616 -15.453  1.00  0.00     0.167 HD
ATOM     60  C   UNL     1      -2.109  -2.751 -11.903  1.00  0.00     0.031 A 
ATOM     61  C   UNL     1      -2.730   1.889 -17.941  1.00  0.00     0.031 A 
ATOM     62  C   UNL     1      -2.518  -3.107 -13.220  1.00  0.00     0.049 A 
ATOM     63  C   UNL     1      -3.406   0.602 -17.698  1.00  0.00     0.074 A 
ATOM     64  C   UNL     1      -1.844  -3.546 -14.330  1.00  0.00     0.029 A 
ATOM     65  N   UNL     1      -3.785  -2.732 -13.600  1.00  0.00    -0.354 N 
ATOM     66  N   UNL     1      -4.450   0.442 -16.945  1.00  0.00    -0.248 NA
ATOM     67  C   UNL     1      -2.862  -0.619 -18.301  1.00  0.00     0.031 C 
ATOM     68  C   UNL     1      -2.594  -3.051 -15.423  1.00  0.00     0.029 A 
ATOM     69  C   UNL     1      -3.719  -2.383 -14.931  1.00  0.00     0.049 A 
ATOM     70  H   UNL     1      -4.587  -2.716 -13.030  1.00  0.00     0.167 HD
ATOM     71  C   UNL     1      -4.434  -0.905 -16.675  1.00  0.00     0.074 A 
ATOM     72  C   UNL     1      -3.657  -1.521 -17.728  1.00  0.00     0.031 C 
ATOM     73  C   UNL     1      -4.602  -1.333 -15.397  1.00  0.00     0.031 A 
BRANCH  60  74
ATOM     74  C   UNL     1      -2.581  -3.587 -10.755  1.00  0.00    -0.014 A 
ATOM     75  C   UNL     1      -2.778  -4.965 -10.993  1.00  0.00     0.010 A 
ATOM     76  C   UNL     1      -3.114  -3.036  -9.578  1.00  0.00     0.010 A 
ATOM     77  C   UNL     1      -3.566  -5.743 -10.145  1.00  0.00     0.020 A 
ATOM     78  C   UNL     1      -3.879  -3.821  -8.703  1.00  0.00     0.020 A 
ATOM     79  C   UNL     1      -4.141  -5.154  -9.021  1.00  0.00     0.054 A 
BRANCH  79  80
ATOM     80  S   UNL     1      -5.302  -6.135  -8.035  1.00  0.00     0.124 S 
ATOM     81  O   UNL     1      -6.479  -6.170  -8.898  1.00  0.00    -0.237 OA
ATOM     82  O   UNL     1      -4.598  -7.407  -7.886  1.00  0.00    -0.237 OA
ATOM     83  O   UNL     1      -5.445  -5.364  -6.804  1.00  0.00    -0.744 OA
ENDBRANCH  79  80
ENDBRANCH  60  74
BRANCH  61  84
ATOM     84  C   UNL     1      -2.799   2.424 -19.348  1.00  0.00    -0.014 A 
ATOM     85  C   UNL     1      -2.018   3.470 -19.858  1.00  0.00     0.010 A 
ATOM     86  C   UNL     1      -3.583   1.710 -20.295  1.00  0.00     0.010 A 
ATOM     87  C   UNL     1      -1.930   3.705 -21.247  1.00  0.00     0.020 A 
ATOM     88  C   UNL     1      -3.465   1.898 -21.674  1.00  0.00     0.020 A 
ATOM     89  C   UNL     1      -2.614   2.885 -22.148  1.00  0.00     0.054 A 
BRANCH  89  90
ATOM     90  S   UNL     1      -2.290   2.981 -23.931  1.00  0.00     0.124 S 
ATOM     91  O   UNL     1      -3.363   3.852 -24.398  1.00  0.00    -0.237 OA
ATOM     92  O   UNL     1      -0.945   3.549 -23.995  1.00  0.00    -0.237 OA
ATOM     93  O   UNL     1      -2.382   1.585 -24.359  1.00  0.00    -0.744 OA
ENDBRANCH  89  90
ENDBRANCH  61  84
BRANCH  73  94
ATOM     94  C   UNL     1      -5.324  -0.341 -14.491  1.00  0.00    -0.014 A 
ATOM     95  C   UNL     1      -6.643   0.060 -14.775  1.00  0.00     0.010 A 
ATOM     96  C   UNL     1      -4.675   0.297 -13.416  1.00  0.00     0.010 A 
ATOM     97  C   UNL     1      -7.277   1.066 -14.025  1.00  0.00     0.020 A 
ATOM     98  C   UNL     1      -5.300   1.294 -12.653  1.00  0.00     0.020 A 
ATOM     99  C   UNL     1      -6.600   1.680 -12.968  1.00  0.00     0.054 A 
BRANCH  99 100
ATOM    100  S   UNL     1      -7.426   3.005 -12.039  1.00  0.00     0.124 S 
ATOM    101  O   UNL     1      -7.734   3.986 -13.076  1.00  0.00    -0.237 OA
ATOM    102  O   UNL     1      -8.580   2.317 -11.467  1.00  0.00    -0.237 OA
ATOM    103  O   UNL     1      -6.419   3.435 -11.069  1.00  0.00    -0.744 OA
ENDBRANCH  99 100
ENDBRANCH  73  94
ENDBRANCH  47  48
ENDBRANCH  40  42
ENDBRANCH  39  40
ENDBRANCH  38  39
ENDBRANCH  37  38
ENDBRANCH  36  37
ENDBRANCH  35  36
ENDBRANCH  34  35
ENDBRANCH  33  34
ENDBRANCH   1  33
TORSDOF 29
