REMARK SMILES Cc1c(NC(=O)c2ccccc2NC(=O)[C@@H]2CCCO2)cccc1C(=O)OCCOCCOCCOCCOC(=O)c1ccc(-c2c3nc(c(-c4ccc(S(=O)(=O)[O-])cc4)c4ccc([nH]4)c(-c4ccc(S(=O)(=O)[O-])cc4)c4nc(c(-c5ccc(S(=O)(=O)[O-])cc5)c5ccc2[nH]5)C=C4)C=C3)cc1
REMARK SMILES IDX 32 1 31 2 30 3 29 4 28 5 27 6 25 7 26 8 24 9 1 10 2 11 3 12
REMARK SMILES IDX 21 13 23 14 22 15 4 16 5 17 6 19 7 20 8 21 12 22 9 23 11 24
REMARK SMILES IDX 10 25 13 26 14 27 15 29 16 30 17 31 20 32 18 33 19 34 33 35
REMARK SMILES IDX 34 36 35 37 36 38 37 39 38 40 39 41 40 42 41 43 42 44 43 45
REMARK SMILES IDX 101 46 44 47 100 48 45 49 46 50 47 51 94 52 48 53 99 54
REMARK SMILES IDX 93 55 95 56 49 57 98 58 92 59 91 60 50 62 80 63 61 64 79 65
REMARK SMILES IDX 62 66 65 67 78 68 96 69 63 70 64 71 77 73 97 74 66 75 51 76
REMARK SMILES IDX 52 77 60 78 53 79 59 80 54 81 55 82 56 83 57 84 58 85 81 86
REMARK SMILES IDX 82 87 90 88 83 89 89 90 84 91 85 92 86 93 87 94 88 95 67 96
REMARK SMILES IDX 68 97 76 98 69 99 75 100 70 101 71 102 72 103 73 104 74 105
REMARK H PARENT 4 18 13 28 95 61 65 72
REMARK Flexibility Score: inf
ROOT
ATOM      1  C   UNL     1       0.038   1.638  -2.530  1.00  0.00     0.188 C 
ENDROOT
BRANCH   1   2
ATOM      2  C   UNL     1      -1.016   2.667  -2.079  1.00  0.00     0.188 C 
BRANCH   2   3
ATOM      3  O   UNL     1      -0.675   4.016  -1.825  1.00  0.00    -0.376 OA
BRANCH   3   4
ATOM      4  C   UNL     1       0.224   4.215  -0.747  1.00  0.00     0.202 C 
BRANCH   4   5
ATOM      5  C   UNL     1      -0.219   3.769   0.621  1.00  0.00     0.261 C 
BRANCH   5   6
ATOM      6  O   UNL     1      -0.134   2.358   0.689  1.00  0.00    -0.460 OA
BRANCH   6   7
ATOM      7  C   UNL     1      -1.133   1.811   1.389  1.00  0.00     0.338 C 
ATOM      8  O   UNL     1      -1.927   2.372   2.106  1.00  0.00    -0.246 OA
BRANCH   7   9
ATOM      9  C   UNL     1      -1.327   0.418   0.940  1.00  0.00     0.065 A 
ATOM     10  C   UNL     1       1.115  -0.269   0.459  1.00  0.00     0.047 C 
ATOM     11  C   UNL     1      -0.343  -0.565   0.705  1.00  0.00    -0.013 A 
ATOM     12  C   UNL     1      -0.788  -1.895   0.584  1.00  0.00     0.045 A 
ATOM     13  C   UNL     1      -2.163  -2.180   0.619  1.00  0.00     0.026 A 
ATOM     14  C   UNL     1      -2.691   0.128   0.783  1.00  0.00     0.016 A 
ATOM     15  C   UNL     1      -3.112  -1.170   0.615  1.00  0.00     0.003 A 
BRANCH  12  16
ATOM     16  N   UNL     1       0.172  -2.921   0.416  1.00  0.00    -0.322 N 
ATOM     17  C   UNL     1       0.061  -4.143  -0.213  1.00  0.00     0.257 C 
ATOM     18  H   UNL     1       1.056  -2.734   0.808  1.00  0.00     0.170 HD
ATOM     19  O   UNL     1       0.924  -5.006  -0.071  1.00  0.00    -0.269 OA
BRANCH  17  20
ATOM     20  C   UNL     1      -1.091  -4.412  -1.110  1.00  0.00     0.063 A 
ATOM     21  C   UNL     1      -1.772  -5.617  -0.878  1.00  0.00     0.016 A 
ATOM     22  C   UNL     1      -1.551  -3.487  -2.075  1.00  0.00     0.054 A 
ATOM     23  C   UNL     1      -2.982  -5.861  -1.514  1.00  0.00     0.001 A 
ATOM     24  C   UNL     1      -2.826  -3.703  -2.597  1.00  0.00     0.027 A 
ATOM     25  C   UNL     1      -3.532  -4.881  -2.329  1.00  0.00     0.002 A 
BRANCH  22  26
ATOM     26  N   UNL     1      -0.684  -2.447  -2.480  1.00  0.00    -0.323 N 
ATOM     27  C   UNL     1      -0.688  -1.512  -3.469  1.00  0.00     0.253 C 
ATOM     28  H   UNL     1       0.116  -2.385  -1.910  1.00  0.00     0.170 HD
ATOM     29  O   UNL     1       0.398  -0.979  -3.720  1.00  0.00    -0.272 OA
BRANCH  27  30
ATOM     30  C   UNL     1      -1.929  -1.178  -4.291  1.00  0.00     0.207 C 
ATOM     31  C   UNL     1      -1.999  -2.166  -5.446  1.00  0.00     0.044 C 
ATOM     32  O   UNL     1      -1.928   0.130  -4.889  1.00  0.00    -0.368 OA
ATOM     33  C   UNL     1      -2.721  -1.388  -6.506  1.00  0.00     0.032 C 
ATOM     34  C   UNL     1      -2.169   0.001  -6.294  1.00  0.00     0.161 C 
ENDBRANCH  27  30
ENDBRANCH  22  26
ENDBRANCH  17  20
ENDBRANCH  12  16
ENDBRANCH   7   9
ENDBRANCH   6   7
ENDBRANCH   5   6
ENDBRANCH   4   5
ENDBRANCH   3   4
ENDBRANCH   2   3
ENDBRANCH   1   2
BRANCH   1  35
ATOM     35  O   UNL     1       1.380   1.755  -2.110  1.00  0.00    -0.377 OA
BRANCH  35  36
ATOM     36  C   UNL     1       2.348   2.200  -3.066  1.00  0.00     0.188 C 
BRANCH  36  37
ATOM     37  C   UNL     1       1.931   2.565  -4.474  1.00  0.00     0.188 C 
BRANCH  37  38
ATOM     38  O   UNL     1       0.974   3.616  -4.352  1.00  0.00    -0.376 OA
BRANCH  38  39
ATOM     39  C   UNL     1       0.209   3.872  -5.510  1.00  0.00     0.202 C 
BRANCH  39  40
ATOM     40  C   UNL     1       1.071   4.220  -6.724  1.00  0.00     0.261 C 
BRANCH  40  41
ATOM     41  O   UNL     1       1.554   5.590  -6.667  1.00  0.00    -0.460 OA
BRANCH  41  42
ATOM     42  C   UNL     1       2.863   5.841  -6.346  1.00  0.00     0.338 C 
ATOM     43  O   UNL     1       3.683   6.207  -7.175  1.00  0.00    -0.246 OA
BRANCH  42  44
ATOM     44  C   UNL     1       3.104   5.952  -4.878  1.00  0.00     0.060 A 
ATOM     45  C   UNL     1       4.372   5.814  -4.290  1.00  0.00     0.016 A 
ATOM     46  C   UNL     1       2.029   6.199  -4.052  1.00  0.00     0.016 A 
ATOM     47  C   UNL     1       4.523   5.704  -2.886  1.00  0.00     0.010 A 
ATOM     48  C   UNL     1       2.179   6.055  -2.686  1.00  0.00     0.010 A 
ATOM     49  C   UNL     1       3.402   5.747  -2.066  1.00  0.00    -0.014 A 
BRANCH  49  50
ATOM     50  C   UNL     1       3.326   5.392  -0.620  1.00  0.00     0.031 A 
ATOM     51  C   UNL     1       2.540   6.310   0.295  1.00  0.00     0.074 A 
ATOM     52  C   UNL     1       3.578   4.104  -0.243  1.00  0.00     0.049 A 
ATOM     53  N   UNL     1       2.147   6.026   1.489  1.00  0.00    -0.248 NA
ATOM     54  C   UNL     1       2.028   7.623  -0.117  1.00  0.00     0.031 C 
ATOM     55  C   UNL     1       2.994   3.372   0.885  1.00  0.00     0.029 A 
ATOM     56  N   UNL     1       4.339   3.108  -0.823  1.00  0.00    -0.354 N 
ATOM     57  C   UNL     1       1.100   6.865   1.840  1.00  0.00     0.074 A 
ATOM     58  C   UNL     1       1.108   7.885   0.823  1.00  0.00     0.031 C 
ATOM     59  C   UNL     1       3.458   2.115   0.963  1.00  0.00     0.029 A 
ATOM     60  C   UNL     1       4.578   2.057   0.065  1.00  0.00     0.049 A 
ATOM     61  H   UNL     1       4.671   3.136  -1.750  1.00  0.00     0.167 HD
ATOM     62  C   UNL     1       0.279   6.512   2.882  1.00  0.00     0.031 A 
ATOM     63  C   UNL     1       5.849   1.850   0.524  1.00  0.00     0.031 A 
ATOM     64  C   UNL     1       0.815   5.330   3.599  1.00  0.00     0.049 A 
ATOM     65  C   UNL     1       5.899   2.345   1.984  1.00  0.00     0.074 A 
ATOM     66  C   UNL     1       0.309   4.093   3.957  1.00  0.00     0.029 A 
ATOM     67  N   UNL     1       2.185   5.264   3.873  1.00  0.00    -0.354 N 
ATOM     68  N   UNL     1       5.199   3.370   2.440  1.00  0.00    -0.248 NA
ATOM     69  C   UNL     1       6.402   1.505   3.076  1.00  0.00     0.031 C 
ATOM     70  C   UNL     1       1.419   3.233   4.234  1.00  0.00     0.029 A 
ATOM     71  C   UNL     1       2.597   3.970   4.135  1.00  0.00     0.049 A 
ATOM     72  H   UNL     1       2.784   6.045   3.878  1.00  0.00     0.167 HD
ATOM     73  C   UNL     1       4.960   3.194   3.786  1.00  0.00     0.074 A 
ATOM     74  C   UNL     1       5.802   2.055   4.147  1.00  0.00     0.031 C 
ATOM     75  C   UNL     1       3.966   3.721   4.575  1.00  0.00     0.031 A 
BRANCH  62  76
ATOM     76  C   UNL     1      -1.111   7.097   3.197  1.00  0.00    -0.014 A 
ATOM     77  C   UNL     1      -1.803   6.641   4.346  1.00  0.00     0.010 A 
ATOM     78  C   UNL     1      -1.830   8.020   2.403  1.00  0.00     0.010 A 
ATOM     79  C   UNL     1      -3.105   7.062   4.684  1.00  0.00     0.020 A 
ATOM     80  C   UNL     1      -3.129   8.479   2.748  1.00  0.00     0.020 A 
ATOM     81  C   UNL     1      -3.762   7.992   3.889  1.00  0.00     0.054 A 
BRANCH  81  82
ATOM     82  S   UNL     1      -5.415   8.566   4.393  1.00  0.00     0.124 S 
ATOM     83  O   UNL     1      -6.230   7.361   4.259  1.00  0.00    -0.237 OA
ATOM     84  O   UNL     1      -5.193   9.020   5.764  1.00  0.00    -0.237 OA
ATOM     85  O   UNL     1      -5.724   9.629   3.438  1.00  0.00    -0.744 OA
ENDBRANCH  81  82
ENDBRANCH  62  76
BRANCH  63  86
ATOM     86  C   UNL     1       6.797   1.835  -0.653  1.00  0.00    -0.014 A 
ATOM     87  C   UNL     1       6.644   0.687  -1.484  1.00  0.00     0.010 A 
ATOM     88  C   UNL     1       7.184   3.035  -1.290  1.00  0.00     0.010 A 
ATOM     89  C   UNL     1       6.598   0.794  -2.885  1.00  0.00     0.020 A 
ATOM     90  C   UNL     1       7.154   3.137  -2.705  1.00  0.00     0.020 A 
ATOM     91  C   UNL     1       6.793   2.033  -3.487  1.00  0.00     0.054 A 
BRANCH  91  92
ATOM     92  S   UNL     1       6.316   2.218  -5.244  1.00  0.00     0.124 S 
ATOM     93  O   UNL     1       7.425   1.578  -5.941  1.00  0.00    -0.237 OA
ATOM     94  O   UNL     1       5.037   1.513  -5.303  1.00  0.00    -0.237 OA
ATOM     95  O   UNL     1       6.219   3.661  -5.419  1.00  0.00    -0.744 OA
ENDBRANCH  91  92
ENDBRANCH  63  86
BRANCH  75  96
ATOM     96  C   UNL     1       4.299   4.185   5.974  1.00  0.00    -0.014 A 
ATOM     97  C   UNL     1       5.620   4.273   6.429  1.00  0.00     0.010 A 
ATOM     98  C   UNL     1       3.287   4.769   6.780  1.00  0.00     0.010 A 
ATOM     99  C   UNL     1       5.915   4.867   7.652  1.00  0.00     0.020 A 
ATOM    100  C   UNL     1       3.579   5.415   7.976  1.00  0.00     0.020 A 
ATOM    101  C   UNL     1       4.895   5.432   8.417  1.00  0.00     0.054 A 
BRANCH 101 102
ATOM    102  S   UNL     1       5.325   6.211   9.982  1.00  0.00     0.124 S 
ATOM    103  O   UNL     1       5.519   5.047  10.842  1.00  0.00    -0.237 OA
ATOM    104  O   UNL     1       6.538   6.954   9.647  1.00  0.00    -0.237 OA
ATOM    105  O   UNL     1       4.161   7.036  10.294  1.00  0.00    -0.744 OA
ENDBRANCH 101 102
ENDBRANCH  75  96
ENDBRANCH  49  50
ENDBRANCH  42  44
ENDBRANCH  41  42
ENDBRANCH  40  41
ENDBRANCH  39  40
ENDBRANCH  38  39
ENDBRANCH  37  38
ENDBRANCH  36  37
ENDBRANCH  35  36
ENDBRANCH   1  35
TORSDOF 27
