REMARK SMILES CC(C)[NH2+][C@@]1(C(=O)OCCOCCOCCOCCOC(=O)c2ccc(-c3c4nc(c(-c5ccc(S(=O)(=O)[O-])cc5)c5ccc([nH]5)c(-c5ccc(S(=O)(=O)[O-])cc5)c5nc(c(-c6ccc(S(=O)(=O)[O-])cc6)c6ccc3[nH]6)C=C5)C=C4)cc2)CCC[C@@H](Sc2nncn2C)C1
REMARK SMILES IDX 15 1 14 2 13 3 12 4 11 5 10 6 9 7 8 8 6 9 7 10 5 11 83 12
REMARK SMILES IDX 94 13 84 14 86 15 85 16 4 17 2 20 1 21 3 22 87 23 88 24
REMARK SMILES IDX 89 25 92 26 90 27 91 28 93 29 16 30 17 31 18 32 19 33 20 34
REMARK SMILES IDX 21 35 22 36 23 37 24 38 82 39 25 40 81 41 26 42 27 43 28 44
REMARK SMILES IDX 75 45 29 46 80 47 74 48 76 49 30 50 79 51 73 52 72 53 31 55
REMARK SMILES IDX 61 56 42 57 60 58 43 59 46 60 59 61 77 62 44 63 45 64 58 66
REMARK SMILES IDX 78 67 47 68 32 69 33 70 41 71 34 72 40 73 35 74 36 75 37 76
REMARK SMILES IDX 38 77 39 78 62 79 63 80 71 81 64 82 70 83 65 84 66 85 67 86
REMARK SMILES IDX 68 87 69 88 48 89 49 90 57 91 50 92 56 93 51 94 52 95 53 96
REMARK SMILES IDX 54 97 55 98
REMARK H PARENT 4 18 4 19 76 54 46 65
REMARK Flexibility Score: inf
ROOT
ATOM      1  C   UNL     1      -5.537   4.494   0.480  1.00  0.00     0.188 C 
ENDROOT
BRANCH   1   2
ATOM      2  O   UNL     1      -4.373   3.751   0.827  1.00  0.00    -0.377 OA
BRANCH   2   3
ATOM      3  C   UNL     1      -4.040   2.615   0.057  1.00  0.00     0.188 C 
BRANCH   3   4
ATOM      4  C   UNL     1      -4.613   1.280   0.542  1.00  0.00     0.188 C 
BRANCH   4   5
ATOM      5  O   UNL     1      -5.758   1.253   1.371  1.00  0.00    -0.376 OA
BRANCH   5   6
ATOM      6  C   UNL     1      -5.793   1.966   2.600  1.00  0.00     0.202 C 
BRANCH   6   7
ATOM      7  C   UNL     1      -4.575   2.136   3.526  1.00  0.00     0.261 C 
BRANCH   7   8
ATOM      8  O   UNL     1      -3.367   2.653   2.938  1.00  0.00    -0.459 OA
BRANCH   8   9
ATOM      9  C   UNL     1      -2.333   1.780   2.863  1.00  0.00     0.368 C 
ATOM     10  O   UNL     1      -2.418   0.612   3.244  1.00  0.00    -0.245 OA
BRANCH   9  11
ATOM     11  C   UNL     1      -0.992   2.383   2.293  1.00  0.00     0.195 C 
ATOM     12  C   UNL     1      -0.101   2.556   3.546  1.00  0.00     0.081 C 
ATOM     13  C   UNL     1      -1.023   3.730   1.533  1.00  0.00     0.096 C 
ATOM     14  C   UNL     1      -0.546   3.760   4.396  1.00  0.00     0.008 C 
ATOM     15  C   UNL     1      -1.373   4.975   2.341  1.00  0.00     0.061 C 
ATOM     16  C   UNL     1      -0.515   5.068   3.603  1.00  0.00     0.015 C 
BRANCH  11  17
ATOM     17  N   UNL     1      -0.548   1.347   1.315  1.00  0.00    -0.330 N 
ATOM     18  H   UNL     1      -0.972   0.471   1.621  1.00  0.00     0.347 HD
ATOM     19  H   UNL     1      -0.831   1.768   0.430  1.00  0.00     0.347 HD
BRANCH  17  20
ATOM     20  C   UNL     1       0.852   1.045   1.058  1.00  0.00     0.176 C 
ATOM     21  C   UNL     1       0.856  -0.203   0.160  1.00  0.00     0.075 C 
ATOM     22  C   UNL     1       1.624   2.151   0.340  1.00  0.00     0.075 C 
ENDBRANCH  17  20
ENDBRANCH  11  17
BRANCH  15  23
ATOM     23  S   UNL     1      -1.246   6.520   1.332  1.00  0.00    -0.082 SA
BRANCH  23  24
ATOM     24  C   UNL     1       0.355   6.460   0.678  1.00  0.00     0.191 A 
ATOM     25  N   UNL     1       0.830   5.579  -0.175  1.00  0.00    -0.124 NA
ATOM     26  N   UNL     1       1.322   7.383   0.952  1.00  0.00    -0.312 N 
ATOM     27  N   UNL     1       2.158   5.874  -0.394  1.00  0.00    -0.138 NA
ATOM     28  C   UNL     1       2.437   6.959   0.291  1.00  0.00     0.226 A 
ATOM     29  C   UNL     1       1.216   8.572   1.751  1.00  0.00     0.153 C 
ENDBRANCH  23  24
ENDBRANCH  15  23
ENDBRANCH   9  11
ENDBRANCH   8   9
ENDBRANCH   7   8
ENDBRANCH   6   7
ENDBRANCH   5   6
ENDBRANCH   4   5
ENDBRANCH   3   4
ENDBRANCH   2   3
ENDBRANCH   1   2
BRANCH   1  30
ATOM     30  C   UNL     1      -6.625   3.838  -0.390  1.00  0.00     0.188 C 
BRANCH  30  31
ATOM     31  O   UNL     1      -6.138   3.153  -1.535  1.00  0.00    -0.376 OA
BRANCH  31  32
ATOM     32  C   UNL     1      -6.023   3.865  -2.759  1.00  0.00     0.202 C 
BRANCH  32  33
ATOM     33  C   UNL     1      -5.079   5.080  -2.796  1.00  0.00     0.261 C 
BRANCH  33  34
ATOM     34  O   UNL     1      -5.459   6.203  -1.981  1.00  0.00    -0.460 OA
BRANCH  34  35
ATOM     35  C   UNL     1      -6.699   6.709  -2.146  1.00  0.00     0.338 C 
ATOM     36  O   UNL     1      -7.517   6.390  -2.985  1.00  0.00    -0.246 OA
BRANCH  35  37
ATOM     37  C   UNL     1      -6.990   7.594  -0.999  1.00  0.00     0.060 A 
ATOM     38  C   UNL     1      -8.099   7.298  -0.198  1.00  0.00     0.016 A 
ATOM     39  C   UNL     1      -6.211   8.725  -0.743  1.00  0.00     0.016 A 
ATOM     40  C   UNL     1      -8.468   8.167   0.826  1.00  0.00     0.010 A 
ATOM     41  C   UNL     1      -6.593   9.605   0.276  1.00  0.00     0.010 A 
ATOM     42  C   UNL     1      -7.749   9.352   1.035  1.00  0.00    -0.014 A 
BRANCH  42  43
ATOM     43  C   UNL     1      -8.331  10.390   1.922  1.00  0.00     0.031 A 
ATOM     44  C   UNL     1      -9.093  11.530   1.296  1.00  0.00     0.074 A 
ATOM     45  C   UNL     1      -8.265  10.271   3.261  1.00  0.00     0.049 A 
ATOM     46  N   UNL     1      -9.736  12.511   1.874  1.00  0.00    -0.248 NA
ATOM     47  C   UNL     1      -9.144  11.564  -0.176  1.00  0.00     0.031 C 
ATOM     48  C   UNL     1      -7.598   9.189   3.984  1.00  0.00     0.029 A 
ATOM     49  N   UNL     1      -8.785  11.066   4.252  1.00  0.00    -0.354 N 
ATOM     50  C   UNL     1     -10.277  13.270   0.842  1.00  0.00     0.074 A 
ATOM     51  C   UNL     1      -9.851  12.662  -0.400  1.00  0.00     0.031 C 
ATOM     52  C   UNL     1      -7.756   9.385   5.305  1.00  0.00     0.029 A 
ATOM     53  C   UNL     1      -8.510  10.618   5.522  1.00  0.00     0.049 A 
ATOM     54  H   UNL     1      -9.306  11.882   4.070  1.00  0.00     0.167 HD
ATOM     55  C   UNL     1     -11.072  14.363   0.917  1.00  0.00     0.031 A 
ATOM     56  C   UNL     1      -8.823  11.149   6.721  1.00  0.00     0.031 A 
ATOM     57  C   UNL     1     -11.485  14.977   2.152  1.00  0.00     0.049 A 
ATOM     58  C   UNL     1      -9.638  12.417   6.773  1.00  0.00     0.074 A 
ATOM     59  C   UNL     1     -12.282  16.095   2.333  1.00  0.00     0.029 A 
ATOM     60  N   UNL     1     -11.137  14.527   3.416  1.00  0.00    -0.354 N 
ATOM     61  N   UNL     1     -10.153  13.111   5.785  1.00  0.00    -0.248 NA
ATOM     62  C   UNL     1      -9.925  12.964   8.107  1.00  0.00     0.031 C 
ATOM     63  C   UNL     1     -12.369  16.354   3.705  1.00  0.00     0.029 A 
ATOM     64  C   UNL     1     -11.683  15.358   4.381  1.00  0.00     0.049 A 
ATOM     65  H   UNL     1     -10.583  13.735   3.601  1.00  0.00     0.167 HD
ATOM     66  C   UNL     1     -10.850  14.159   6.382  1.00  0.00     0.074 A 
ATOM     67  C   UNL     1     -10.716  13.986   7.814  1.00  0.00     0.031 C 
ATOM     68  C   UNL     1     -11.536  15.176   5.802  1.00  0.00     0.031 A 
BRANCH  55  69
ATOM     69  C   UNL     1     -11.543  14.981  -0.373  1.00  0.00    -0.014 A 
ATOM     70  C   UNL     1     -12.514  14.347  -1.169  1.00  0.00     0.010 A 
ATOM     71  C   UNL     1     -11.065  16.247  -0.758  1.00  0.00     0.010 A 
ATOM     72  C   UNL     1     -12.989  14.961  -2.331  1.00  0.00     0.020 A 
ATOM     73  C   UNL     1     -11.557  16.877  -1.905  1.00  0.00     0.020 A 
ATOM     74  C   UNL     1     -12.512  16.226  -2.688  1.00  0.00     0.054 A 
BRANCH  74  75
ATOM     75  S   UNL     1     -13.196  17.027  -4.165  1.00  0.00     0.124 S 
ATOM     76  O   UNL     1     -12.640  16.206  -5.238  1.00  0.00    -0.237 OA
ATOM     77  O   UNL     1     -14.636  16.899  -3.958  1.00  0.00    -0.237 OA
ATOM     78  O   UNL     1     -12.677  18.390  -4.093  1.00  0.00    -0.744 OA
ENDBRANCH  74  75
ENDBRANCH  55  69
BRANCH  56  79
ATOM     79  C   UNL     1      -8.341  10.512   7.981  1.00  0.00    -0.014 A 
ATOM     80  C   UNL     1      -9.245   9.980   8.919  1.00  0.00     0.010 A 
ATOM     81  C   UNL     1      -6.965  10.492   8.275  1.00  0.00     0.010 A 
ATOM     82  C   UNL     1      -8.786   9.486  10.145  1.00  0.00     0.020 A 
ATOM     83  C   UNL     1      -6.500   9.966   9.483  1.00  0.00     0.020 A 
ATOM     84  C   UNL     1      -7.416   9.487  10.420  1.00  0.00     0.054 A 
BRANCH  84  85
ATOM     85  S   UNL     1      -6.838   8.841  12.014  1.00  0.00     0.124 S 
ATOM     86  O   UNL     1      -7.238   9.902  12.933  1.00  0.00    -0.237 OA
ATOM     87  O   UNL     1      -7.577   7.587  12.132  1.00  0.00    -0.237 OA
ATOM     88  O   UNL     1      -5.398   8.691  11.818  1.00  0.00    -0.744 OA
ENDBRANCH  84  85
ENDBRANCH  56  79
BRANCH  68  89
ATOM     89  C   UNL     1     -12.222  16.155   6.721  1.00  0.00    -0.014 A 
ATOM     90  C   UNL     1     -11.485  17.039   7.531  1.00  0.00     0.010 A 
ATOM     91  C   UNL     1     -13.627  16.194   6.771  1.00  0.00     0.010 A 
ATOM     92  C   UNL     1     -12.139  17.894   8.422  1.00  0.00     0.020 A 
ATOM     93  C   UNL     1     -14.286  17.074   7.634  1.00  0.00     0.020 A 
ATOM     94  C   UNL     1     -13.536  17.899   8.474  1.00  0.00     0.054 A 
BRANCH  94  95
ATOM     95  S   UNL     1     -14.361  19.010   9.646  1.00  0.00     0.124 S 
ATOM     96  O   UNL     1     -14.105  18.348  10.922  1.00  0.00    -0.237 OA
ATOM     97  O   UNL     1     -13.658  20.274   9.440  1.00  0.00    -0.237 OA
ATOM     98  O   UNL     1     -15.756  19.001   9.209  1.00  0.00    -0.744 OA
ENDBRANCH  94  95
ENDBRANCH  68  89
ENDBRANCH  42  43
ENDBRANCH  35  37
ENDBRANCH  34  35
ENDBRANCH  33  34
ENDBRANCH  32  33
ENDBRANCH  31  32
ENDBRANCH  30  31
ENDBRANCH   1  30
TORSDOF 27
