REMARK SMILES CCCCCCNC(=O)Oc1cccc(-c2ccc([C@@H](C)C(=O)OCCOCCOCCOCCOC(=O)c3ccc(-c4c5nc(c(-c6ccc(S(=O)(=O)[O-])cc6)c6ccc([nH]6)c(-c6ccc(S(=O)(=O)[O-])cc6)c6nc(c(-c7ccc(S(=O)(=O)[O-])cc7)c7ccc4[nH]7)C=C6)C=C5)cc3)cc2)c1
REMARK SMILES IDX 27 1 26 2 25 3 24 4 22 5 23 6 20 7 21 8 19 9 16 10 17 11
REMARK SMILES IDX 100 12 18 13 99 14 15 15 11 16 12 17 101 18 13 19 14 20
REMARK SMILES IDX 10 21 8 22 7 23 9 25 6 26 5 27 4 28 3 29 2 30 1 31 28 32
REMARK SMILES IDX 29 33 30 34 31 35 32 36 33 37 34 38 35 39 36 40 37 41 38 42
REMARK SMILES IDX 39 43 40 44 98 45 41 46 97 47 42 48 43 49 44 50 91 51 45 52
REMARK SMILES IDX 96 53 90 54 92 55 46 56 95 57 89 58 88 59 47 61 77 62 58 63
REMARK SMILES IDX 76 64 59 65 62 66 75 67 93 68 60 69 61 70 74 72 94 73 63 74
REMARK SMILES IDX 48 75 49 76 57 77 50 78 56 79 51 80 52 81 53 82 54 83 55 84
REMARK SMILES IDX 78 85 79 86 87 87 80 88 86 89 81 90 82 91 83 92 84 93 85 94
REMARK SMILES IDX 64 95 65 96 73 97 66 98 72 99 67 100 68 101 69 102 70 103
REMARK SMILES IDX 71 104
REMARK H PARENT 7 24 92 60 62 71
REMARK Flexibility Score: inf
ROOT
ATOM      1  O   UNL     1      -0.662 -14.621  -2.946  1.00  0.00    -0.376 OA
ENDROOT
BRANCH   1   2
ATOM      2  C   UNL     1      -1.107 -15.081  -4.214  1.00  0.00     0.202 C 
BRANCH   2   3
ATOM      3  C   UNL     1      -2.588 -15.432  -4.452  1.00  0.00     0.261 C 
BRANCH   3   4
ATOM      4  O   UNL     1      -3.566 -14.448  -4.056  1.00  0.00    -0.463 OA
BRANCH   4   5
ATOM      5  C   UNL     1      -4.256 -14.708  -2.923  1.00  0.00     0.313 C 
ATOM      6  O   UNL     1      -4.093 -15.725  -2.248  1.00  0.00    -0.252 OA
BRANCH   5   7
ATOM      7  C   UNL     1      -5.300 -13.668  -2.517  1.00  0.00     0.126 C 
ATOM      8  C   UNL     1      -6.686 -14.251  -2.767  1.00  0.00     0.025 C 
BRANCH   7   9
ATOM      9  C   UNL     1      -5.216 -12.219  -2.996  1.00  0.00    -0.034 A 
ATOM     10  C   UNL     1      -5.075  -9.458  -3.766  1.00  0.00    -0.018 A 
ATOM     11  C   UNL     1      -5.157 -10.489  -4.720  1.00  0.00     0.009 A 
ATOM     12  C   UNL     1      -5.051  -9.835  -2.418  1.00  0.00     0.009 A 
ATOM     13  C   UNL     1      -5.231 -11.845  -4.345  1.00  0.00     0.005 A 
ATOM     14  C   UNL     1      -5.132 -11.185  -2.040  1.00  0.00     0.005 A 
BRANCH  10  15
ATOM     15  C   UNL     1      -5.090  -8.032  -4.158  1.00  0.00    -0.015 A 
ATOM     16  C   UNL     1      -4.186  -5.771  -4.090  1.00  0.00     0.133 A 
ATOM     17  C   UNL     1      -5.253  -5.290  -4.846  1.00  0.00     0.047 A 
ATOM     18  C   UNL     1      -4.100  -7.123  -3.734  1.00  0.00     0.056 A 
ATOM     19  C   UNL     1      -6.236  -6.175  -5.275  1.00  0.00     0.004 A 
ATOM     20  C   UNL     1      -6.152  -7.530  -4.934  1.00  0.00     0.009 A 
BRANCH  16  21
ATOM     21  O   UNL     1      -3.280  -4.809  -3.603  1.00  0.00    -0.410 OA
BRANCH  21  22
ATOM     22  C   UNL     1      -1.938  -4.955  -3.921  1.00  0.00     0.412 C 
ATOM     23  N   UNL     1      -1.156  -3.926  -3.468  1.00  0.00    -0.321 N 
ATOM     24  H   UNL     1      -0.191  -4.000  -3.650  1.00  0.00     0.167 HD
ATOM     25  O   UNL     1      -1.444  -5.888  -4.544  1.00  0.00    -0.224 OA
BRANCH  23  26
ATOM     26  C   UNL     1      -1.585  -2.739  -2.753  1.00  0.00     0.119 C 
BRANCH  26  27
ATOM     27  C   UNL     1      -0.979  -2.661  -1.350  1.00  0.00     0.021 C 
BRANCH  27  28
ATOM     28  C   UNL     1       0.551  -2.540  -1.311  1.00  0.00     0.002 C 
BRANCH  28  29
ATOM     29  C   UNL     1       1.137  -1.295  -1.986  1.00  0.00    -0.000 C 
BRANCH  29  30
ATOM     30  C   UNL     1       0.674   0.047  -1.412  1.00  0.00    -0.003 C 
ATOM     31  C   UNL     1       1.079   0.255   0.040  1.00  0.00     0.004 C 
ENDBRANCH  29  30
ENDBRANCH  28  29
ENDBRANCH  27  28
ENDBRANCH  26  27
ENDBRANCH  23  26
ENDBRANCH  21  22
ENDBRANCH  16  21
ENDBRANCH  10  15
ENDBRANCH   7   9
ENDBRANCH   5   7
ENDBRANCH   4   5
ENDBRANCH   3   4
ENDBRANCH   2   3
ENDBRANCH   1   2
BRANCH   1  32
ATOM     32  C   UNL     1      -1.281 -13.503  -2.321  1.00  0.00     0.188 C 
BRANCH  32  33
ATOM     33  C   UNL     1      -1.819 -12.322  -3.141  1.00  0.00     0.188 C 
BRANCH  33  34
ATOM     34  O   UNL     1      -1.783 -12.498  -4.540  1.00  0.00    -0.377 OA
BRANCH  34  35
ATOM     35  C   UNL     1      -0.755 -11.816  -5.239  1.00  0.00     0.188 C 
BRANCH  35  36
ATOM     36  C   UNL     1       0.639 -11.808  -4.584  1.00  0.00     0.188 C 
BRANCH  36  37
ATOM     37  O   UNL     1       0.650 -11.305  -3.251  1.00  0.00    -0.376 OA
BRANCH  37  38
ATOM     38  C   UNL     1       0.959  -9.931  -3.049  1.00  0.00     0.202 C 
BRANCH  38  39
ATOM     39  C   UNL     1      -0.022  -8.875  -3.590  1.00  0.00     0.261 C 
BRANCH  39  40
ATOM     40  O   UNL     1      -0.269  -8.889  -5.002  1.00  0.00    -0.460 OA
BRANCH  40  41
ATOM     41  C   UNL     1       0.784  -8.761  -5.839  1.00  0.00     0.338 C 
ATOM     42  O   UNL     1       1.944  -8.594  -5.537  1.00  0.00    -0.246 OA
BRANCH  41  43
ATOM     43  C   UNL     1       0.303  -9.098  -7.201  1.00  0.00     0.060 A 
ATOM     44  C   UNL     1       0.901 -10.169  -7.880  1.00  0.00     0.016 A 
ATOM     45  C   UNL     1      -0.728  -8.372  -7.799  1.00  0.00     0.016 A 
ATOM     46  C   UNL     1       0.498 -10.489  -9.177  1.00  0.00     0.010 A 
ATOM     47  C   UNL     1      -1.112  -8.677  -9.110  1.00  0.00     0.010 A 
ATOM     48  C   UNL     1      -0.475  -9.712  -9.818  1.00  0.00    -0.014 A 
BRANCH  48  49
ATOM     49  C   UNL     1      -0.669  -9.844 -11.284  1.00  0.00     0.031 A 
ATOM     50  C   UNL     1       0.040  -8.867 -12.185  1.00  0.00     0.074 A 
ATOM     51  C   UNL     1      -1.429 -10.820 -11.814  1.00  0.00     0.049 A 
ATOM     52  N   UNL     1      -0.005  -8.754 -13.487  1.00  0.00    -0.248 NA
ATOM     53  C   UNL     1       0.919  -7.887 -11.525  1.00  0.00     0.031 C 
ATOM     54  C   UNL     1      -2.120 -11.863 -11.057  1.00  0.00     0.029 A 
ATOM     55  N   UNL     1      -1.750 -11.086 -13.123  1.00  0.00    -0.354 N 
ATOM     56  C   UNL     1       0.828  -7.685 -13.801  1.00  0.00     0.074 A 
ATOM     57  C   UNL     1       1.342  -7.167 -12.553  1.00  0.00     0.031 C 
ATOM     58  C   UNL     1      -2.792 -12.651 -11.915  1.00  0.00     0.029 A 
ATOM     59  C   UNL     1      -2.611 -12.147 -13.277  1.00  0.00     0.049 A 
ATOM     60  H   UNL     1      -1.395 -10.566 -13.880  1.00  0.00     0.167 HD
ATOM     61  C   UNL     1       1.139  -7.180 -15.018  1.00  0.00     0.031 A 
ATOM     62  C   UNL     1      -3.204 -12.638 -14.384  1.00  0.00     0.031 A 
ATOM     63  C   UNL     1       0.610  -7.685 -16.258  1.00  0.00     0.049 A 
ATOM     64  C   UNL     1      -2.914 -12.002 -15.722  1.00  0.00     0.074 A 
ATOM     65  C   UNL     1       0.870  -7.247 -17.544  1.00  0.00     0.029 A 
ATOM     66  N   UNL     1      -0.294  -8.731 -16.366  1.00  0.00    -0.354 N 
ATOM     67  N   UNL     1      -2.110 -11.004 -16.006  1.00  0.00    -0.248 NA
ATOM     68  C   UNL     1      -3.607 -12.565 -16.890  1.00  0.00     0.031 C 
ATOM     69  C   UNL     1       0.072  -7.984 -18.425  1.00  0.00     0.029 A 
ATOM     70  C   UNL     1      -0.627  -8.932 -17.694  1.00  0.00     0.049 A 
ATOM     71  H   UNL     1      -0.647  -9.253 -15.609  1.00  0.00     0.167 HD
ATOM     72  C   UNL     1      -2.176 -10.844 -17.388  1.00  0.00     0.074 A 
ATOM     73  C   UNL     1      -3.087 -11.854 -17.882  1.00  0.00     0.031 C 
ATOM     74  C   UNL     1      -1.536  -9.943 -18.176  1.00  0.00     0.031 A 
BRANCH  61  75
ATOM     75  C   UNL     1       2.062  -5.991 -15.064  1.00  0.00    -0.014 A 
ATOM     76  C   UNL     1       3.426  -6.107 -14.737  1.00  0.00     0.010 A 
ATOM     77  C   UNL     1       1.563  -4.741 -15.473  1.00  0.00     0.010 A 
ATOM     78  C   UNL     1       4.263  -4.988 -14.783  1.00  0.00     0.020 A 
ATOM     79  C   UNL     1       2.402  -3.627 -15.551  1.00  0.00     0.020 A 
ATOM     80  C   UNL     1       3.745  -3.754 -15.189  1.00  0.00     0.054 A 
BRANCH  80  81
ATOM     81  S   UNL     1       4.859  -2.325 -15.263  1.00  0.00     0.124 S 
ATOM     82  O   UNL     1       5.104  -2.061 -13.847  1.00  0.00    -0.237 OA
ATOM     83  O   UNL     1       5.999  -2.848 -16.011  1.00  0.00    -0.237 OA
ATOM     84  O   UNL     1       4.075  -1.307 -15.958  1.00  0.00    -0.744 OA
ENDBRANCH  80  81
ENDBRANCH  61  75
BRANCH  62  85
ATOM     85  C   UNL     1      -4.156 -13.780 -14.279  1.00  0.00    -0.014 A 
ATOM     86  C   UNL     1      -3.843 -15.034 -14.834  1.00  0.00     0.010 A 
ATOM     87  C   UNL     1      -5.392 -13.614 -13.627  1.00  0.00     0.010 A 
ATOM     88  C   UNL     1      -4.754 -16.093 -14.754  1.00  0.00     0.020 A 
ATOM     89  C   UNL     1      -6.292 -14.679 -13.517  1.00  0.00     0.020 A 
ATOM     90  C   UNL     1      -5.971 -15.909 -14.091  1.00  0.00     0.054 A 
BRANCH  90  91
ATOM     91  S   UNL     1      -7.113 -17.313 -13.954  1.00  0.00     0.124 S 
ATOM     92  O   UNL     1      -7.590 -17.452 -15.326  1.00  0.00    -0.237 OA
ATOM     93  O   UNL     1      -6.239 -18.382 -13.476  1.00  0.00    -0.237 OA
ATOM     94  O   UNL     1      -8.107 -16.852 -12.988  1.00  0.00    -0.744 OA
ENDBRANCH  90  91
ENDBRANCH  62  85
BRANCH  74  95
ATOM     95  C   UNL     1      -1.757 -10.031 -19.665  1.00  0.00    -0.014 A 
ATOM     96  C   UNL     1      -2.985  -9.674 -20.249  1.00  0.00     0.010 A 
ATOM     97  C   UNL     1      -0.692 -10.419 -20.500  1.00  0.00     0.010 A 
ATOM     98  C   UNL     1      -3.154  -9.735 -21.636  1.00  0.00     0.020 A 
ATOM     99  C   UNL     1      -0.846 -10.450 -21.888  1.00  0.00     0.020 A 
ATOM    100  C   UNL     1      -2.081 -10.121 -22.447  1.00  0.00     0.054 A 
BRANCH 100 101
ATOM    101  S   UNL     1      -2.313 -10.149 -24.246  1.00  0.00     0.124 S 
ATOM    102  O   UNL     1      -3.185 -11.307 -24.423  1.00  0.00    -0.237 OA
ATOM    103  O   UNL     1      -2.930  -8.851 -24.509  1.00  0.00    -0.237 OA
ATOM    104  O   UNL     1      -0.957 -10.305 -24.769  1.00  0.00    -0.744 OA
ENDBRANCH 100 101
ENDBRANCH  74  95
ENDBRANCH  48  49
ENDBRANCH  41  43
ENDBRANCH  40  41
ENDBRANCH  39  40
ENDBRANCH  38  39
ENDBRANCH  37  38
ENDBRANCH  36  37
ENDBRANCH  35  36
ENDBRANCH  34  35
ENDBRANCH  33  34
ENDBRANCH  32  33
ENDBRANCH   1  32
TORSDOF 32
