REMARK SMILES Cc1nccn1C1(C(=O)OCCOCCOCCOCCOC(=O)c2ccc(-c3c4nc(c(-c5ccc(S(=O)(=O)[O-])cc5)c5ccc([nH]5)c(-c5ccc(S(=O)(=O)[O-])cc5)c5nc(c(-c6ccc(S(=O)(=O)[O-])cc6)c6ccc3[nH]6)C=C5)C=C4)cc2)CCN(C(=O)[C@@H]2C[C@H]2c2ccccc2)CC1
REMARK SMILES IDX 17 1 16 2 15 3 14 4 13 5 12 6 11 7 10 8 8 9 9 10 7 11 85 12
REMARK SMILES IDX 100 13 86 14 99 15 87 16 88 17 89 18 6 19 1 20 2 21 3 22
REMARK SMILES IDX 4 23 5 24 90 25 91 26 92 27 93 28 94 29 98 30 95 31 97 32
REMARK SMILES IDX 96 33 18 34 19 35 20 36 21 37 22 38 23 39 24 40 25 41 26 42
REMARK SMILES IDX 84 43 27 44 83 45 28 46 29 47 30 48 77 49 31 50 82 51 76 52
REMARK SMILES IDX 78 53 32 54 81 55 75 56 74 57 33 59 63 60 44 61 62 62 45 63
REMARK SMILES IDX 48 64 61 65 79 66 46 67 47 68 60 70 80 71 49 72 34 73 35 74
REMARK SMILES IDX 43 75 36 76 42 77 37 78 38 79 39 80 40 81 41 82 64 83 65 84
REMARK SMILES IDX 73 85 66 86 72 87 67 88 68 89 69 90 70 91 71 92 50 93 51 94
REMARK SMILES IDX 59 95 52 96 58 97 53 98 54 99 55 100 56 101 57 102
REMARK H PARENT 78 58 48 69
REMARK Flexibility Score: inf
ROOT
ATOM      1  C   UNL     1      -1.933   3.948   6.496  1.00  0.00     0.188 C 
ENDROOT
BRANCH   1   2
ATOM      2  O   UNL     1      -1.302   3.447   5.318  1.00  0.00    -0.377 OA
BRANCH   2   3
ATOM      3  C   UNL     1      -1.221   2.036   5.223  1.00  0.00     0.188 C 
BRANCH   3   4
ATOM      4  C   UNL     1       0.110   1.407   5.741  1.00  0.00     0.188 C 
BRANCH   4   5
ATOM      5  O   UNL     1       1.022   2.176   6.527  1.00  0.00    -0.376 OA
BRANCH   5   6
ATOM      6  C   UNL     1       1.457   3.447   6.051  1.00  0.00     0.202 C 
BRANCH   6   7
ATOM      7  C   UNL     1       1.824   3.580   4.569  1.00  0.00     0.261 C 
BRANCH   7   8
ATOM      8  O   UNL     1       0.814   2.967   3.761  1.00  0.00    -0.461 OA
BRANCH   8   9
ATOM      9  C   UNL     1       1.142   2.337   2.602  1.00  0.00     0.332 C 
ATOM     10  O   UNL     1       2.257   2.389   2.099  1.00  0.00    -0.249 OA
BRANCH   9  11
ATOM     11  C   UNL     1      -0.161   1.631   2.005  1.00  0.00     0.146 C 
ATOM     12  C   UNL     1      -1.389   1.198   1.118  1.00  0.00     0.062 C 
ATOM     13  C   UNL     1      -0.358   3.205   1.432  1.00  0.00     0.062 C 
ATOM     14  C   UNL     1      -1.233   1.343  -0.405  1.00  0.00     0.122 C 
ATOM     15  C   UNL     1      -0.158   3.443  -0.045  1.00  0.00     0.122 C 
ATOM     16  N   UNL     1      -1.200   2.751  -0.745  1.00  0.00    -0.342 N 
ATOM     17  C   UNL     1      -2.243   3.269  -1.508  1.00  0.00     0.226 C 
ATOM     18  O   UNL     1      -3.015   2.504  -2.085  1.00  0.00    -0.275 OA
BRANCH  11  19
ATOM     19  N   UNL     1       0.439   0.310   2.055  1.00  0.00    -0.318 N 
ATOM     20  C   UNL     1       2.062   0.141   0.091  1.00  0.00     0.087 C 
ATOM     21  C   UNL     1       1.343  -0.379   1.274  1.00  0.00     0.106 A 
ATOM     22  N   UNL     1       1.489  -1.623   1.697  1.00  0.00    -0.242 NA
ATOM     23  C   UNL     1       0.658  -1.782   2.761  1.00  0.00     0.131 A 
ATOM     24  C   UNL     1      -0.010  -0.615   3.001  1.00  0.00     0.108 A 
ENDBRANCH  11  19
BRANCH  17  25
ATOM     25  C   UNL     1      -2.577   4.717  -1.640  1.00  0.00     0.087 C 
ATOM     26  C   UNL     1      -1.857   6.005  -1.403  1.00  0.00     0.023 C 
ATOM     27  C   UNL     1      -2.838   5.524  -0.368  1.00  0.00     0.032 C 
BRANCH  27  28
ATOM     28  C   UNL     1      -4.246   6.042  -0.184  1.00  0.00    -0.044 A 
ATOM     29  C   UNL     1      -4.631   7.362  -0.460  1.00  0.00     0.004 A 
ATOM     30  C   UNL     1      -5.236   5.171   0.310  1.00  0.00     0.004 A 
ATOM     31  C   UNL     1      -5.948   7.791  -0.257  1.00  0.00     0.000 A 
ATOM     32  C   UNL     1      -6.549   5.595   0.522  1.00  0.00     0.000 A 
ATOM     33  C   UNL     1      -6.905   6.908   0.237  1.00  0.00     0.000 A 
ENDBRANCH  27  28
ENDBRANCH  17  25
ENDBRANCH   9  11
ENDBRANCH   8   9
ENDBRANCH   7   8
ENDBRANCH   6   7
ENDBRANCH   5   6
ENDBRANCH   4   5
ENDBRANCH   3   4
ENDBRANCH   2   3
ENDBRANCH   1   2
BRANCH   1  34
ATOM     34  C   UNL     1      -1.639   3.239   7.844  1.00  0.00     0.188 C 
BRANCH  34  35
ATOM     35  O   UNL     1      -1.546   1.821   7.785  1.00  0.00    -0.376 OA
BRANCH  35  36
ATOM     36  C   UNL     1      -2.591   0.935   8.145  1.00  0.00     0.202 C 
BRANCH  36  37
ATOM     37  C   UNL     1      -3.918   1.010   7.397  1.00  0.00     0.261 C 
BRANCH  37  38
ATOM     38  O   UNL     1      -4.356   2.330   7.156  1.00  0.00    -0.460 OA
BRANCH  38  39
ATOM     39  C   UNL     1      -4.674   3.012   8.260  1.00  0.00     0.338 C 
ATOM     40  O   UNL     1      -4.376   2.727   9.429  1.00  0.00    -0.246 OA
BRANCH  39  41
ATOM     41  C   UNL     1      -5.591   4.073   7.899  1.00  0.00     0.060 A 
ATOM     42  C   UNL     1      -5.933   4.957   8.921  1.00  0.00     0.016 A 
ATOM     43  C   UNL     1      -6.389   3.862   6.763  1.00  0.00     0.016 A 
ATOM     44  C   UNL     1      -7.220   5.424   8.940  1.00  0.00     0.010 A 
ATOM     45  C   UNL     1      -7.683   4.292   6.809  1.00  0.00     0.010 A 
ATOM     46  C   UNL     1      -8.097   4.992   7.938  1.00  0.00    -0.014 A 
BRANCH  46  47
ATOM     47  C   UNL     1      -9.463   5.438   7.996  1.00  0.00     0.031 A 
ATOM     48  C   UNL     1      -9.572   6.842   7.564  1.00  0.00     0.074 A 
ATOM     49  C   UNL     1     -10.482   4.622   8.312  1.00  0.00     0.049 A 
ATOM     50  N   UNL     1      -9.748   7.864   8.330  1.00  0.00    -0.248 NA
ATOM     51  C   UNL     1      -9.176   7.181   6.185  1.00  0.00     0.031 C 
ATOM     52  C   UNL     1     -10.461   3.171   8.509  1.00  0.00     0.029 A 
ATOM     53  N   UNL     1     -11.801   4.923   8.407  1.00  0.00    -0.354 N 
ATOM     54  C   UNL     1      -9.762   8.953   7.474  1.00  0.00     0.074 A 
ATOM     55  C   UNL     1      -9.150   8.512   6.249  1.00  0.00     0.031 C 
ATOM     56  C   UNL     1     -11.729   2.701   8.447  1.00  0.00     0.029 A 
ATOM     57  C   UNL     1     -12.647   3.823   8.323  1.00  0.00     0.049 A 
ATOM     58  H   UNL     1     -12.132   5.842   8.526  1.00  0.00     0.167 HD
ATOM     59  C   UNL     1     -10.575  10.013   7.723  1.00  0.00     0.031 A 
ATOM     60  C   UNL     1     -13.984   3.857   8.079  1.00  0.00     0.031 A 
ATOM     61  C   UNL     1     -11.070   9.987   9.077  1.00  0.00     0.049 A 
ATOM     62  C   UNL     1     -14.448   5.234   8.397  1.00  0.00     0.074 A 
ATOM     63  C   UNL     1     -10.474   9.972  10.323  1.00  0.00     0.029 A 
ATOM     64  N   UNL     1     -12.358   9.534   9.255  1.00  0.00    -0.354 N 
ATOM     65  N   UNL     1     -14.475   5.712   9.609  1.00  0.00    -0.248 NA
ATOM     66  C   UNL     1     -14.422   6.237   7.339  1.00  0.00     0.031 C 
ATOM     67  C   UNL     1     -11.280   9.100  11.108  1.00  0.00     0.029 A 
ATOM     68  C   UNL     1     -12.371   8.694  10.337  1.00  0.00     0.049 A 
ATOM     69  H   UNL     1     -13.136   9.772   8.701  1.00  0.00     0.167 HD
ATOM     70  C   UNL     1     -14.002   7.011   9.487  1.00  0.00     0.074 A 
ATOM     71  C   UNL     1     -14.092   7.314   8.059  1.00  0.00     0.031 C 
ATOM     72  C   UNL     1     -13.305   7.600  10.503  1.00  0.00     0.031 A 
BRANCH  59  73
ATOM     73  C   UNL     1     -11.279  10.773   6.628  1.00  0.00    -0.014 A 
ATOM     74  C   UNL     1     -12.100  11.855   6.994  1.00  0.00     0.010 A 
ATOM     75  C   UNL     1     -11.392  10.301   5.303  1.00  0.00     0.010 A 
ATOM     76  C   UNL     1     -13.040  12.383   6.103  1.00  0.00     0.020 A 
ATOM     77  C   UNL     1     -12.292  10.850   4.393  1.00  0.00     0.020 A 
ATOM     78  C   UNL     1     -13.135  11.867   4.811  1.00  0.00     0.054 A 
BRANCH  78  79
ATOM     79  S   UNL     1     -14.405  12.501   3.696  1.00  0.00     0.124 S 
ATOM     80  O   UNL     1     -15.629  12.051   4.351  1.00  0.00    -0.237 OA
ATOM     81  O   UNL     1     -14.153  13.939   3.733  1.00  0.00    -0.237 OA
ATOM     82  O   UNL     1     -14.097  11.851   2.424  1.00  0.00    -0.744 OA
ENDBRANCH  78  79
ENDBRANCH  59  73
BRANCH  60  83
ATOM     83  C   UNL     1     -14.816   2.896   7.306  1.00  0.00    -0.014 A 
ATOM     84  C   UNL     1     -16.213   3.063   7.223  1.00  0.00     0.010 A 
ATOM     85  C   UNL     1     -14.219   1.987   6.411  1.00  0.00     0.010 A 
ATOM     86  C   UNL     1     -16.964   2.427   6.219  1.00  0.00     0.020 A 
ATOM     87  C   UNL     1     -14.961   1.338   5.416  1.00  0.00     0.020 A 
ATOM     88  C   UNL     1     -16.326   1.591   5.301  1.00  0.00     0.054 A 
BRANCH  88  89
ATOM     89  S   UNL     1     -17.246   0.966   3.862  1.00  0.00     0.124 S 
ATOM     90  O   UNL     1     -18.114  -0.043   4.461  1.00  0.00    -0.237 OA
ATOM     91  O   UNL     1     -17.916   2.166   3.368  1.00  0.00    -0.237 OA
ATOM     92  O   UNL     1     -16.197   0.444   2.986  1.00  0.00    -0.744 OA
ENDBRANCH  88  89
ENDBRANCH  60  83
BRANCH  72  93
ATOM     93  C   UNL     1     -13.330   6.947  11.867  1.00  0.00    -0.014 A 
ATOM     94  C   UNL     1     -12.874   5.640  12.130  1.00  0.00     0.010 A 
ATOM     95  C   UNL     1     -13.700   7.759  12.953  1.00  0.00     0.010 A 
ATOM     96  C   UNL     1     -12.828   5.150  13.445  1.00  0.00     0.020 A 
ATOM     97  C   UNL     1     -13.634   7.286  14.264  1.00  0.00     0.020 A 
ATOM     98  C   UNL     1     -13.212   5.979  14.504  1.00  0.00     0.054 A 
BRANCH  98  99
ATOM     99  S   UNL     1     -13.127   5.357  16.206  1.00  0.00     0.124 S 
ATOM    100  O   UNL     1     -14.189   4.355  16.229  1.00  0.00    -0.237 OA
ATOM    101  O   UNL     1     -11.765   4.835  16.294  1.00  0.00    -0.237 OA
ATOM    102  O   UNL     1     -13.379   6.544  17.023  1.00  0.00    -0.744 OA
ENDBRANCH  98  99
ENDBRANCH  72  93
ENDBRANCH  46  47
ENDBRANCH  39  41
ENDBRANCH  38  39
ENDBRANCH  37  38
ENDBRANCH  36  37
ENDBRANCH  35  36
ENDBRANCH  34  35
ENDBRANCH   1  34
TORSDOF 26
