REMARK SMILES CO[C@H]1CCC[C@H]1NC(=O)N[C@](C)(C(=O)OCCOCCOCCOCCOC(=O)c1ccc(-c2c3nc(c(-c4ccc(S(=O)(=O)[O-])cc4)c4ccc([nH]4)c(-c4ccc(S(=O)(=O)[O-])cc4)c4nc(c(-c5ccc(S(=O)(=O)[O-])cc5)c5ccc2[nH]5)C=C4)C=C3)cc1)C(F)(F)F
REMARK SMILES IDX 22 1 21 2 20 3 19 4 18 5 17 6 16 7 14 8 15 9 12 10 13 11
REMARK SMILES IDX 11 12 8 13 9 14 10 16 7 18 3 19 4 20 5 21 6 22 2 23 1 24
REMARK SMILES IDX 91 25 92 26 93 27 94 28 23 29 24 30 25 31 26 32 27 33 28 34
REMARK SMILES IDX 29 35 30 36 31 37 32 38 90 39 33 40 89 41 34 42 35 43 36 44
REMARK SMILES IDX 83 45 37 46 88 47 82 48 84 49 38 50 87 51 81 52 80 53 39 55
REMARK SMILES IDX 69 56 50 57 68 58 51 59 54 60 67 61 85 62 52 63 53 64 66 66
REMARK SMILES IDX 86 67 55 68 40 69 41 70 49 71 42 72 48 73 43 74 44 75 45 76
REMARK SMILES IDX 46 77 47 78 70 79 71 80 79 81 72 82 78 83 73 84 74 85 75 86
REMARK SMILES IDX 76 87 77 88 56 89 57 90 65 91 58 92 64 93 59 94 60 95 61 96
REMARK SMILES IDX 62 97 63 98
REMARK H PARENT 8 15 11 17 84 54 54 65
REMARK Flexibility Score: inf
ROOT
ATOM      1  O   UNL     1      -1.746  -0.401  -1.886  1.00  0.00    -0.377 OA
ENDROOT
BRANCH   1   2
ATOM      2  C   UNL     1      -0.420  -0.515  -1.413  1.00  0.00     0.188 C 
BRANCH   2   3
ATOM      3  C   UNL     1       0.558   0.622  -1.733  1.00  0.00     0.188 C 
BRANCH   3   4
ATOM      4  O   UNL     1       0.812   0.665  -3.137  1.00  0.00    -0.376 OA
BRANCH   4   5
ATOM      5  C   UNL     1       2.061   0.182  -3.619  1.00  0.00     0.202 C 
BRANCH   5   6
ATOM      6  C   UNL     1       2.392  -1.310  -3.414  1.00  0.00     0.261 C 
BRANCH   6   7
ATOM      7  O   UNL     1       2.118  -1.715  -2.065  1.00  0.00    -0.461 OA
BRANCH   7   8
ATOM      8  C   UNL     1       2.777  -2.763  -1.499  1.00  0.00     0.341 C 
ATOM      9  O   UNL     1       3.694  -3.382  -2.017  1.00  0.00    -0.249 OA
BRANCH   8  10
ATOM     10  C   UNL     1       2.183  -3.044  -0.106  1.00  0.00     0.232 C 
ATOM     11  C   UNL     1       0.701  -3.447  -0.339  1.00  0.00     0.058 C 
BRANCH  10  12
ATOM     12  N   UNL     1       2.840  -4.208   0.539  1.00  0.00    -0.315 N 
ATOM     13  N   UNL     1       1.694  -4.514   2.605  1.00  0.00    -0.333 N 
ATOM     14  C   UNL     1       2.617  -4.858   1.692  1.00  0.00     0.316 C 
ATOM     15  H   UNL     1       1.591  -5.216   3.288  1.00  0.00     0.165 HD
ATOM     16  O   UNL     1       3.288  -5.868   1.913  1.00  0.00    -0.249 OA
ATOM     17  H   UNL     1       3.589  -4.577   0.017  1.00  0.00     0.166 HD
BRANCH  13  18
ATOM     18  C   UNL     1       0.803  -3.391   2.864  1.00  0.00     0.112 C 
ATOM     19  C   UNL     1      -0.662  -3.763   3.146  1.00  0.00     0.140 C 
ATOM     20  C   UNL     1      -1.227  -2.440   3.675  1.00  0.00     0.034 C 
ATOM     21  C   UNL     1      -0.059  -1.743   4.389  1.00  0.00     0.005 C 
ATOM     22  C   UNL     1       1.183  -2.590   4.109  1.00  0.00     0.028 C 
BRANCH  19  23
ATOM     23  O   UNL     1      -0.738  -4.735   4.194  1.00  0.00    -0.379 OA
ATOM     24  C   UNL     1      -1.438  -5.903   3.789  1.00  0.00     0.195 C 
ENDBRANCH  19  23
ENDBRANCH  13  18
ENDBRANCH  10  12
BRANCH  10  25
ATOM     25  C   UNL     1       2.487  -1.709   0.632  1.00  0.00     0.422 C 
ATOM     26  F   UNL     1       1.375  -0.961   0.824  1.00  0.00    -0.168 F 
ATOM     27  F   UNL     1       3.025  -1.911   1.859  1.00  0.00    -0.168 F 
ATOM     28  F   UNL     1       3.377  -0.910  -0.006  1.00  0.00    -0.168 F 
ENDBRANCH  10  25
ENDBRANCH   8  10
ENDBRANCH   7   8
ENDBRANCH   6   7
ENDBRANCH   5   6
ENDBRANCH   4   5
ENDBRANCH   3   4
ENDBRANCH   2   3
ENDBRANCH   1   2
BRANCH   1  29
ATOM     29  C   UNL     1      -1.879  -0.043  -3.248  1.00  0.00     0.188 C 
BRANCH  29  30
ATOM     30  C   UNL     1      -2.095   1.468  -3.459  1.00  0.00     0.188 C 
BRANCH  30  31
ATOM     31  O   UNL     1      -2.744   2.298  -2.493  1.00  0.00    -0.376 OA
BRANCH  31  32
ATOM     32  C   UNL     1      -3.268   1.763  -1.291  1.00  0.00     0.202 C 
BRANCH  32  33
ATOM     33  C   UNL     1      -4.590   0.987  -1.390  1.00  0.00     0.261 C 
BRANCH  33  34
ATOM     34  O   UNL     1      -4.707   0.080  -2.492  1.00  0.00    -0.460 OA
BRANCH  34  35
ATOM     35  C   UNL     1      -5.187   0.611  -3.644  1.00  0.00     0.338 C 
ATOM     36  O   UNL     1      -5.546   1.760  -3.837  1.00  0.00    -0.246 OA
BRANCH  35  37
ATOM     37  C   UNL     1      -5.082  -0.407  -4.712  1.00  0.00     0.060 A 
ATOM     38  C   UNL     1      -4.395  -0.088  -5.893  1.00  0.00     0.016 A 
ATOM     39  C   UNL     1      -5.653  -1.671  -4.546  1.00  0.00     0.016 A 
ATOM     40  C   UNL     1      -4.289  -1.027  -6.919  1.00  0.00     0.010 A 
ATOM     41  C   UNL     1      -5.584  -2.595  -5.590  1.00  0.00     0.010 A 
ATOM     42  C   UNL     1      -4.928  -2.265  -6.790  1.00  0.00    -0.014 A 
BRANCH  42  43
ATOM     43  C   UNL     1      -5.147  -3.119  -7.979  1.00  0.00     0.031 A 
ATOM     44  C   UNL     1      -6.421  -2.916  -8.750  1.00  0.00     0.074 A 
ATOM     45  C   UNL     1      -4.271  -4.072  -8.339  1.00  0.00     0.049 A 
ATOM     46  N   UNL     1      -6.925  -3.630  -9.720  1.00  0.00    -0.248 NA
ATOM     47  C   UNL     1      -7.241  -1.753  -8.366  1.00  0.00     0.031 C 
ATOM     48  C   UNL     1      -2.975  -4.318  -7.710  1.00  0.00     0.029 A 
ATOM     49  N   UNL     1      -4.359  -5.030  -9.319  1.00  0.00    -0.354 N 
ATOM     50  C   UNL     1      -8.128  -3.016 -10.049  1.00  0.00     0.074 A 
ATOM     51  C   UNL     1      -8.284  -1.879  -9.170  1.00  0.00     0.031 C 
ATOM     52  C   UNL     1      -2.400  -5.380  -8.303  1.00  0.00     0.029 A 
ATOM     53  C   UNL     1      -3.306  -5.914  -9.320  1.00  0.00     0.049 A 
ATOM     54  H   UNL     1      -5.106  -5.080  -9.959  1.00  0.00     0.167 HD
ATOM     55  C   UNL     1      -9.028  -3.374 -10.993  1.00  0.00     0.031 A 
ATOM     56  C   UNL     1      -3.120  -7.043 -10.033  1.00  0.00     0.031 A 
ATOM     57  C   UNL     1      -8.880  -4.522 -11.841  1.00  0.00     0.049 A 
ATOM     58  C   UNL     1      -4.178  -7.477 -11.017  1.00  0.00     0.074 A 
ATOM     59  C   UNL     1      -9.737  -4.980 -12.825  1.00  0.00     0.029 A 
ATOM     60  N   UNL     1      -7.807  -5.399 -11.799  1.00  0.00    -0.354 N 
ATOM     61  N   UNL     1      -5.310  -6.887 -11.322  1.00  0.00    -0.248 NA
ATOM     62  C   UNL     1      -3.935  -8.727 -11.753  1.00  0.00     0.031 C 
ATOM     63  C   UNL     1      -9.206  -6.165 -13.343  1.00  0.00     0.029 A 
ATOM     64  C   UNL     1      -7.988  -6.408 -12.726  1.00  0.00     0.049 A 
ATOM     65  H   UNL     1      -7.032  -5.315 -11.198  1.00  0.00     0.167 HD
ATOM     66  C   UNL     1      -5.894  -7.673 -12.311  1.00  0.00     0.074 A 
ATOM     67  C   UNL     1      -4.994  -8.782 -12.552  1.00  0.00     0.031 C 
ATOM     68  C   UNL     1      -7.066  -7.488 -12.967  1.00  0.00     0.031 A 
BRANCH  55  69
ATOM     69  C   UNL     1     -10.272  -2.539 -11.114  1.00  0.00    -0.014 A 
ATOM     70  C   UNL     1     -10.230  -1.241 -11.652  1.00  0.00     0.010 A 
ATOM     71  C   UNL     1     -11.507  -3.070 -10.698  1.00  0.00     0.010 A 
ATOM     72  C   UNL     1     -11.395  -0.474 -11.738  1.00  0.00     0.020 A 
ATOM     73  C   UNL     1     -12.678  -2.317 -10.807  1.00  0.00     0.020 A 
ATOM     74  C   UNL     1     -12.611  -1.017 -11.311  1.00  0.00     0.054 A 
BRANCH  74  75
ATOM     75  S   UNL     1     -14.111  -0.007 -11.451  1.00  0.00     0.124 S 
ATOM     76  O   UNL     1     -13.919   0.966 -10.379  1.00  0.00    -0.237 OA
ATOM     77  O   UNL     1     -14.013   0.526 -12.807  1.00  0.00    -0.237 OA
ATOM     78  O   UNL     1     -15.194  -0.963 -11.237  1.00  0.00    -0.744 OA
ENDBRANCH  74  75
ENDBRANCH  55  69
BRANCH  56  79
ATOM     79  C   UNL     1      -1.897  -7.866  -9.821  1.00  0.00    -0.014 A 
ATOM     80  C   UNL     1      -0.911  -7.954 -10.820  1.00  0.00     0.010 A 
ATOM     81  C   UNL     1      -1.712  -8.570  -8.617  1.00  0.00     0.010 A 
ATOM     82  C   UNL     1       0.229  -8.740 -10.624  1.00  0.00     0.020 A 
ATOM     83  C   UNL     1      -0.562  -9.336  -8.407  1.00  0.00     0.020 A 
ATOM     84  C   UNL     1       0.397  -9.425  -9.417  1.00  0.00     0.054 A 
BRANCH  84  85
ATOM     85  S   UNL     1       1.910 -10.395  -9.165  1.00  0.00     0.124 S 
ATOM     86  O   UNL     1       1.675 -11.552 -10.023  1.00  0.00    -0.237 OA
ATOM     87  O   UNL     1       2.952  -9.475  -9.613  1.00  0.00    -0.237 OA
ATOM     88  O   UNL     1       1.904 -10.667  -7.729  1.00  0.00    -0.744 OA
ENDBRANCH  84  85
ENDBRANCH  56  79
BRANCH  68  89
ATOM     89  C   UNL     1      -7.429  -8.458 -14.060  1.00  0.00    -0.014 A 
ATOM     90  C   UNL     1      -7.920  -9.741 -13.767  1.00  0.00     0.010 A 
ATOM     91  C   UNL     1      -7.399  -8.020 -15.398  1.00  0.00     0.010 A 
ATOM     92  C   UNL     1      -8.377 -10.570 -14.796  1.00  0.00     0.020 A 
ATOM     93  C   UNL     1      -7.877  -8.836 -16.425  1.00  0.00     0.020 A 
ATOM     94  C   UNL     1      -8.361 -10.108 -16.117  1.00  0.00     0.054 A 
BRANCH  94  95
ATOM     95  S   UNL     1      -9.053 -11.163 -17.421  1.00  0.00     0.124 S 
ATOM     96  O   UNL     1      -8.025 -12.190 -17.560  1.00  0.00    -0.237 OA
ATOM     97  O   UNL     1     -10.314 -11.611 -16.834  1.00  0.00    -0.237 OA
ATOM     98  O   UNL     1      -9.191 -10.261 -18.562  1.00  0.00    -0.744 OA
ENDBRANCH  94  95
ENDBRANCH  68  89
ENDBRANCH  42  43
ENDBRANCH  35  37
ENDBRANCH  34  35
ENDBRANCH  33  34
ENDBRANCH  32  33
ENDBRANCH  31  32
ENDBRANCH  30  31
ENDBRANCH  29  30
ENDBRANCH   1  29
TORSDOF 27
