REMARK SMILES CCc1ccc2[nH]c(C(=O)c3cc(C)ccn3)c(CC(=O)OCCOCCOCCOCCOC(=O)c3ccc(-c4c5nc(c(-c6ccc(S(=O)(=O)[O-])cc6)c6ccc([nH]6)c(-c6ccc(S(=O)(=O)[O-])cc6)c6nc(c(-c7ccc(S(=O)(=O)[O-])cc7)c7ccc4[nH]7)C=C6)C=C5)cc3)c2c1
REMARK SMILES IDX 28 1 27 2 26 3 25 4 24 5 23 6 22 7 20 8 21 9 19 10 18 11
REMARK SMILES IDX 3 12 4 13 98 14 5 15 97 16 6 17 7 18 8 19 2 21 1 22 9 23
REMARK SMILES IDX 10 24 11 25 12 26 17 27 13 28 16 29 14 30 15 31 29 32 30 33
REMARK SMILES IDX 31 34 32 35 33 36 34 37 35 38 36 39 37 40 38 41 96 42 39 43
REMARK SMILES IDX 95 44 40 45 41 46 42 47 89 48 43 49 94 50 88 51 90 52 44 53
REMARK SMILES IDX 93 54 87 55 86 56 45 58 75 59 56 60 74 61 57 62 60 63 73 64
REMARK SMILES IDX 91 65 58 66 59 67 72 69 92 70 61 71 46 72 47 73 55 74 48 75
REMARK SMILES IDX 54 76 49 77 50 78 51 79 52 80 53 81 76 82 77 83 85 84 78 85
REMARK SMILES IDX 84 86 79 87 80 88 81 89 82 90 83 91 62 92 63 93 71 94 64 95
REMARK SMILES IDX 70 96 65 97 66 98 67 99 68 100 69 101
REMARK H PARENT 7 20 90 57 60 68
REMARK Flexibility Score: inf
ROOT
ATOM      1  O   UNL     1      -0.029   1.641   8.282  1.00  0.00    -0.377 OA
ENDROOT
BRANCH   1   2
ATOM      2  C   UNL     1       0.629   2.524   7.402  1.00  0.00     0.188 C 
BRANCH   2   3
ATOM      3  C   UNL     1       0.765   4.054   7.565  1.00  0.00     0.188 C 
BRANCH   3   4
ATOM      4  O   UNL     1      -0.379   4.868   7.715  1.00  0.00    -0.376 OA
BRANCH   4   5
ATOM      5  C   UNL     1      -1.444   4.876   6.788  1.00  0.00     0.202 C 
BRANCH   5   6
ATOM      6  C   UNL     1      -1.339   4.408   5.322  1.00  0.00     0.261 C 
BRANCH   6   7
ATOM      7  O   UNL     1      -0.198   3.608   4.960  1.00  0.00    -0.463 OA
BRANCH   7   8
ATOM      8  C   UNL     1       0.767   4.186   4.211  1.00  0.00     0.310 C 
ATOM      9  O   UNL     1       0.649   5.314   3.733  1.00  0.00    -0.252 OA
BRANCH   8  10
ATOM     10  C   UNL     1       2.055   3.388   4.009  1.00  0.00     0.161 C 
BRANCH  10  11
ATOM     11  C   UNL     1       2.263   1.988   4.574  1.00  0.00     0.000 A 
ATOM     12  C   UNL     1       1.005  -0.805   2.260  1.00  0.00    -0.048 A 
ATOM     13  C   UNL     1       1.431  -1.862   3.073  1.00  0.00     0.006 A 
ATOM     14  C   UNL     1       1.118   0.516   2.732  1.00  0.00     0.014 A 
ATOM     15  C   UNL     1       2.032  -1.632   4.314  1.00  0.00     0.027 A 
ATOM     16  C   UNL     1       1.806   0.781   3.934  1.00  0.00     0.004 A 
ATOM     17  C   UNL     1       2.243  -0.300   4.688  1.00  0.00     0.046 A 
ATOM     18  N   UNL     1       2.873   0.217   5.789  1.00  0.00    -0.352 N 
ATOM     19  C   UNL     1       3.106   1.571   5.631  1.00  0.00     0.093 A 
ATOM     20  H   UNL     1       3.125  -0.304   6.585  1.00  0.00     0.167 HD
BRANCH  12  21
ATOM     21  C   UNL     1       0.441  -1.096   0.888  1.00  0.00     0.032 C 
ATOM     22  C   UNL     1       0.958  -0.148  -0.193  1.00  0.00     0.009 C 
ENDBRANCH  12  21
BRANCH  19  23
ATOM     23  C   UNL     1       3.999   2.373   6.483  1.00  0.00     0.227 C 
ATOM     24  O   UNL     1       4.287   3.535   6.201  1.00  0.00    -0.285 OA
BRANCH  23  25
ATOM     25  C   UNL     1       4.542   1.835   7.789  1.00  0.00     0.113 A 
ATOM     26  C   UNL     1       5.254   0.640   7.897  1.00  0.00     0.036 A 
ATOM     27  N   UNL     1       4.315   2.642   8.860  1.00  0.00    -0.253 NA
ATOM     28  C   UNL     1       5.719   0.243   9.164  1.00  0.00    -0.047 A 
ATOM     29  C   UNL     1       4.781   2.243  10.062  1.00  0.00     0.112 A 
ATOM     30  C   UNL     1       6.499  -1.021   9.377  1.00  0.00     0.044 C 
ATOM     31  C   UNL     1       5.451   1.055  10.268  1.00  0.00     0.023 A 
ENDBRANCH  23  25
ENDBRANCH  19  23
ENDBRANCH  10  11
ENDBRANCH   8  10
ENDBRANCH   7   8
ENDBRANCH   6   7
ENDBRANCH   5   6
ENDBRANCH   4   5
ENDBRANCH   3   4
ENDBRANCH   2   3
ENDBRANCH   1   2
BRANCH   1  32
ATOM     32  C   UNL     1      -1.249   2.071   8.826  1.00  0.00     0.188 C 
BRANCH  32  33
ATOM     33  C   UNL     1      -1.020   2.795  10.150  1.00  0.00     0.188 C 
BRANCH  33  34
ATOM     34  O   UNL     1       0.288   3.325  10.271  1.00  0.00    -0.376 OA
BRANCH  34  35
ATOM     35  C   UNL     1       1.325   2.526  10.832  1.00  0.00     0.202 C 
BRANCH  35  36
ATOM     36  C   UNL     1       1.607   1.052  10.449  1.00  0.00     0.261 C 
BRANCH  36  37
ATOM     37  O   UNL     1       0.505   0.146  10.410  1.00  0.00    -0.460 OA
BRANCH  37  38
ATOM     38  C   UNL     1      -0.144  -0.110  11.556  1.00  0.00     0.338 C 
ATOM     39  O   UNL     1       0.143   0.276  12.675  1.00  0.00    -0.246 OA
BRANCH  38  40
ATOM     40  C   UNL     1      -1.406  -0.751  11.148  1.00  0.00     0.060 A 
ATOM     41  C   UNL     1      -2.603  -0.089  11.446  1.00  0.00     0.016 A 
ATOM     42  C   UNL     1      -1.403  -1.929  10.391  1.00  0.00     0.016 A 
ATOM     43  C   UNL     1      -3.806  -0.602  10.985  1.00  0.00     0.010 A 
ATOM     44  C   UNL     1      -2.615  -2.470   9.970  1.00  0.00     0.010 A 
ATOM     45  C   UNL     1      -3.816  -1.818  10.294  1.00  0.00    -0.014 A 
BRANCH  45  46
ATOM     46  C   UNL     1      -5.102  -2.526  10.168  1.00  0.00     0.031 A 
ATOM     47  C   UNL     1      -5.468  -3.475  11.272  1.00  0.00     0.074 A 
ATOM     48  C   UNL     1      -5.938  -2.267   9.151  1.00  0.00     0.049 A 
ATOM     49  N   UNL     1      -6.551  -4.184  11.432  1.00  0.00    -0.248 NA
ATOM     50  C   UNL     1      -4.471  -3.640  12.346  1.00  0.00     0.031 C 
ATOM     51  C   UNL     1      -5.692  -1.304   8.078  1.00  0.00     0.029 A 
ATOM     52  N   UNL     1      -7.173  -2.784   8.869  1.00  0.00    -0.354 N 
ATOM     53  C   UNL     1      -6.364  -4.882  12.620  1.00  0.00     0.074 A 
ATOM     54  C   UNL     1      -5.053  -4.539  13.120  1.00  0.00     0.031 C 
ATOM     55  C   UNL     1      -6.754  -1.295   7.253  1.00  0.00     0.029 A 
ATOM     56  C   UNL     1      -7.732  -2.273   7.723  1.00  0.00     0.049 A 
ATOM     57  H   UNL     1      -7.619  -3.457   9.433  1.00  0.00     0.167 HD
ATOM     58  C   UNL     1      -7.214  -5.735  13.235  1.00  0.00     0.031 A 
ATOM     59  C   UNL     1      -8.899  -2.579   7.125  1.00  0.00     0.031 A 
ATOM     60  C   UNL     1      -8.496  -6.089  12.692  1.00  0.00     0.049 A 
ATOM     61  C   UNL     1      -9.789  -3.606   7.774  1.00  0.00     0.074 A 
ATOM     62  C   UNL     1      -9.447  -6.947  13.211  1.00  0.00     0.029 A 
ATOM     63  N   UNL     1      -8.998  -5.611  11.488  1.00  0.00    -0.354 N 
ATOM     64  N   UNL     1      -9.613  -4.254   8.904  1.00  0.00    -0.248 NA
ATOM     65  C   UNL     1     -11.036  -3.938   7.075  1.00  0.00     0.031 C 
ATOM     66  C   UNL     1     -10.491  -7.043  12.285  1.00  0.00     0.029 A 
ATOM     67  C   UNL     1     -10.229  -6.184  11.227  1.00  0.00     0.049 A 
ATOM     68  H   UNL     1      -8.543  -4.960  10.906  1.00  0.00     0.167 HD
ATOM     69  C   UNL     1     -10.740  -5.051   9.066  1.00  0.00     0.074 A 
ATOM     70  C   UNL     1     -11.595  -4.792   7.922  1.00  0.00     0.031 C 
ATOM     71  C   UNL     1     -11.047  -5.913  10.069  1.00  0.00     0.031 A 
BRANCH  58  72
ATOM     72  C   UNL     1      -6.734  -6.384  14.507  1.00  0.00    -0.014 A 
ATOM     73  C   UNL     1      -6.512  -5.638  15.681  1.00  0.00     0.010 A 
ATOM     74  C   UNL     1      -6.459  -7.763  14.516  1.00  0.00     0.010 A 
ATOM     75  C   UNL     1      -5.965  -6.246  16.815  1.00  0.00     0.020 A 
ATOM     76  C   UNL     1      -5.945  -8.382  15.659  1.00  0.00     0.020 A 
ATOM     77  C   UNL     1      -5.677  -7.614  16.793  1.00  0.00     0.054 A 
BRANCH  77  78
ATOM     78  S   UNL     1      -4.947  -8.374  18.268  1.00  0.00     0.124 S 
ATOM     79  O   UNL     1      -3.592  -7.829  18.250  1.00  0.00    -0.237 OA
ATOM     80  O   UNL     1      -5.807  -7.881  19.341  1.00  0.00    -0.237 OA
ATOM     81  O   UNL     1      -5.043  -9.808  18.004  1.00  0.00    -0.744 OA
ENDBRANCH  77  78
ENDBRANCH  58  72
BRANCH  59  82
ATOM     82  C   UNL     1      -9.281  -1.899   5.858  1.00  0.00    -0.014 A 
ATOM     83  C   UNL     1     -10.341  -0.977   5.830  1.00  0.00     0.010 A 
ATOM     84  C   UNL     1      -8.550  -2.134   4.677  1.00  0.00     0.010 A 
ATOM     85  C   UNL     1     -10.659  -0.299   4.649  1.00  0.00     0.020 A 
ATOM     86  C   UNL     1      -8.848  -1.438   3.502  1.00  0.00     0.020 A 
ATOM     87  C   UNL     1      -9.903  -0.525   3.495  1.00  0.00     0.054 A 
BRANCH  87  88
ATOM     88  S   UNL     1     -10.281   0.433   2.002  1.00  0.00     0.124 S 
ATOM     89  O   UNL     1     -11.573  -0.116   1.605  1.00  0.00    -0.237 OA
ATOM     90  O   UNL     1     -10.303   1.803   2.508  1.00  0.00    -0.237 OA
ATOM     91  O   UNL     1      -9.168   0.126   1.106  1.00  0.00    -0.744 OA
ENDBRANCH  87  88
ENDBRANCH  59  82
BRANCH  71  92
ATOM     92  C   UNL     1     -12.376  -6.617   9.987  1.00  0.00    -0.014 A 
ATOM     93  C   UNL     1     -12.613  -7.625   9.036  1.00  0.00     0.010 A 
ATOM     94  C   UNL     1     -13.379  -6.305  10.923  1.00  0.00     0.010 A 
ATOM     95  C   UNL     1     -13.844  -8.284   9.002  1.00  0.00     0.020 A 
ATOM     96  C   UNL     1     -14.597  -6.986  10.914  1.00  0.00     0.020 A 
ATOM     97  C   UNL     1     -14.827  -7.962   9.943  1.00  0.00     0.054 A 
BRANCH  97  98
ATOM     98  S   UNL     1     -16.399  -8.865   9.904  1.00  0.00     0.124 S 
ATOM     99  O   UNL     1     -17.027  -8.330   8.699  1.00  0.00    -0.237 OA
ATOM    100  O   UNL     1     -15.964 -10.257   9.822  1.00  0.00    -0.237 OA
ATOM    101  O   UNL     1     -17.044  -8.492  11.161  1.00  0.00    -0.744 OA
ENDBRANCH  97  98
ENDBRANCH  71  92
ENDBRANCH  45  46
ENDBRANCH  38  40
ENDBRANCH  37  38
ENDBRANCH  36  37
ENDBRANCH  35  36
ENDBRANCH  34  35
ENDBRANCH  33  34
ENDBRANCH  32  33
ENDBRANCH   1  32
TORSDOF 27
