REMARK SMILES O=C(OCCOCCOCCOCCOC(=O)[C@@H]1CC=CC[C@H]1C(=O)N1CC[NH+](Cc2ccc3c(c2)OCO3)CC1)c1ccc(-c2c3nc(c(-c4ccc(S(=O)(=O)[O-])cc4)c4ccc([nH]4)c(-c4ccc(S(=O)(=O)[O-])cc4)c4nc(c(-c5ccc(S(=O)(=O)[O-])cc5)c5ccc2[nH]5)C=C4)C=C3)cc1
REMARK SMILES IDX 9 1 8 2 7 3 6 4 5 5 4 6 3 7 2 8 1 9 42 10 43 11 101 12 44 13
REMARK SMILES IDX 100 14 45 15 46 16 47 17 94 18 48 19 99 20 93 21 95 22 49 23
REMARK SMILES IDX 98 24 92 25 91 26 50 28 80 29 61 30 79 31 62 32 65 33 78 34
REMARK SMILES IDX 96 35 63 36 64 37 77 39 97 40 66 41 51 42 52 43 60 44 53 45
REMARK SMILES IDX 59 46 54 47 55 48 56 49 57 50 58 51 81 52 82 53 90 54 83 55
REMARK SMILES IDX 89 56 84 57 85 58 86 59 87 60 88 61 67 62 68 63 76 64 69 65
REMARK SMILES IDX 75 66 70 67 71 68 72 69 73 70 74 71 10 72 11 73 12 74 13 75
REMARK SMILES IDX 14 76 15 77 16 78 17 79 18 80 19 81 23 82 20 83 22 84 21 85
REMARK SMILES IDX 24 86 25 87 26 88 27 89 41 90 28 91 40 92 29 93 30 95 31 96
REMARK SMILES IDX 32 97 36 98 33 99 35 100 34 101 37 102 39 103 38 104
REMARK H PARENT 95 27 65 38 29 94
REMARK Flexibility Score: inf
ROOT
ATOM      1  O   UNL     1       7.153  -6.066  -4.328  1.00  0.00    -0.377 OA
ENDROOT
BRANCH   1   2
ATOM      2  C   UNL     1       7.456  -7.227  -3.571  1.00  0.00     0.188 C 
BRANCH   2   3
ATOM      3  C   UNL     1       7.899  -6.967  -2.134  1.00  0.00     0.188 C 
BRANCH   3   4
ATOM      4  O   UNL     1       6.847  -6.499  -1.287  1.00  0.00    -0.376 OA
BRANCH   4   5
ATOM      5  C   UNL     1       7.129  -5.338  -0.501  1.00  0.00     0.202 C 
BRANCH   5   6
ATOM      6  C   UNL     1       8.174  -5.496   0.607  1.00  0.00     0.261 C 
BRANCH   6   7
ATOM      7  O   UNL     1       9.098  -6.583   0.436  1.00  0.00    -0.460 OA
BRANCH   7   8
ATOM      8  C   UNL     1       8.937  -7.914   0.636  1.00  0.00     0.338 C 
ATOM      9  O   UNL     1       9.908  -8.642   0.427  1.00  0.00    -0.246 OA
BRANCH   8  10
ATOM     10  C   UNL     1       7.642  -8.574   1.007  1.00  0.00     0.060 A 
ATOM     11  C   UNL     1       6.426  -7.918   1.167  1.00  0.00     0.016 A 
ATOM     12  C   UNL     1       7.647  -9.975   1.170  1.00  0.00     0.016 A 
ATOM     13  C   UNL     1       5.254  -8.602   1.420  1.00  0.00     0.010 A 
ATOM     14  C   UNL     1       6.477 -10.677   1.493  1.00  0.00     0.010 A 
ATOM     15  C   UNL     1       5.278  -9.975   1.621  1.00  0.00    -0.014 A 
BRANCH  15  16
ATOM     16  C   UNL     1       4.066 -10.518   2.248  1.00  0.00     0.031 A 
ATOM     17  C   UNL     1       3.987 -10.415   3.743  1.00  0.00     0.074 A 
ATOM     18  C   UNL     1       2.986 -10.790   1.495  1.00  0.00     0.049 A 
ATOM     19  N   UNL     1       3.008 -10.726   4.543  1.00  0.00    -0.248 NA
ATOM     20  C   UNL     1       5.161  -9.832   4.423  1.00  0.00     0.031 C 
ATOM     21  C   UNL     1       2.925 -10.675   0.036  1.00  0.00     0.029 A 
ATOM     22  N   UNL     1       1.716 -11.144   1.857  1.00  0.00    -0.354 N 
ATOM     23  C   UNL     1       3.460 -10.411   5.819  1.00  0.00     0.074 A 
ATOM     24  C   UNL     1       4.781  -9.847   5.689  1.00  0.00     0.031 C 
ATOM     25  C   UNL     1       1.667 -10.925  -0.368  1.00  0.00     0.029 A 
ATOM     26  C   UNL     1       0.862 -11.296   0.791  1.00  0.00     0.049 A 
ATOM     27  H   UNL     1       1.440 -11.277   2.793  1.00  0.00     0.167 HD
ATOM     28  C   UNL     1       2.833 -10.619   6.997  1.00  0.00     0.031 A 
ATOM     29  C   UNL     1      -0.414 -11.731   0.772  1.00  0.00     0.031 A 
ATOM     30  C   UNL     1       1.540 -11.233   7.083  1.00  0.00     0.049 A 
ATOM     31  C   UNL     1      -1.032 -12.117   2.094  1.00  0.00     0.074 A 
ATOM     32  C   UNL     1       0.848 -11.644   8.204  1.00  0.00     0.029 A 
ATOM     33  N   UNL     1       0.749 -11.536   5.981  1.00  0.00    -0.354 N 
ATOM     34  N   UNL     1      -0.551 -11.953   3.307  1.00  0.00    -0.248 NA
ATOM     35  C   UNL     1      -2.341 -12.778   2.047  1.00  0.00     0.031 C 
ATOM     36  C   UNL     1      -0.334 -12.257   7.774  1.00  0.00     0.029 A 
ATOM     37  C   UNL     1      -0.413 -12.156   6.391  1.00  0.00     0.049 A 
ATOM     38  H   UNL     1       0.983 -11.336   5.046  1.00  0.00     0.167 HD
ATOM     39  C   UNL     1      -1.503 -12.485   4.169  1.00  0.00     0.074 A 
ATOM     40  C   UNL     1      -2.599 -12.947   3.338  1.00  0.00     0.031 C 
ATOM     41  C   UNL     1      -1.476 -12.596   5.521  1.00  0.00     0.031 A 
BRANCH  28  42
ATOM     42  C   UNL     1       3.618 -10.329   8.245  1.00  0.00    -0.014 A 
ATOM     43  C   UNL     1       3.889  -9.017   8.671  1.00  0.00     0.010 A 
ATOM     44  C   UNL     1       4.149 -11.410   8.972  1.00  0.00     0.010 A 
ATOM     45  C   UNL     1       4.709  -8.793   9.783  1.00  0.00     0.020 A 
ATOM     46  C   UNL     1       4.947 -11.191  10.096  1.00  0.00     0.020 A 
ATOM     47  C   UNL     1       5.236  -9.883  10.485  1.00  0.00     0.054 A 
BRANCH  47  48
ATOM     48  S   UNL     1       6.293  -9.564  11.924  1.00  0.00     0.124 S 
ATOM     49  O   UNL     1       7.509  -9.055  11.299  1.00  0.00    -0.237 OA
ATOM     50  O   UNL     1       5.517  -8.590  12.681  1.00  0.00    -0.237 OA
ATOM     51  O   UNL     1       6.424 -10.880  12.555  1.00  0.00    -0.744 OA
ENDBRANCH  47  48
ENDBRANCH  28  42
BRANCH  29  52
ATOM     52  C   UNL     1      -1.136 -11.936  -0.518  1.00  0.00    -0.014 A 
ATOM     53  C   UNL     1      -2.339 -11.267  -0.803  1.00  0.00     0.010 A 
ATOM     54  C   UNL     1      -0.632 -12.848  -1.467  1.00  0.00     0.010 A 
ATOM     55  C   UNL     1      -3.031 -11.521  -1.995  1.00  0.00     0.020 A 
ATOM     56  C   UNL     1      -1.299 -13.079  -2.673  1.00  0.00     0.020 A 
ATOM     57  C   UNL     1      -2.505 -12.426  -2.923  1.00  0.00     0.054 A 
BRANCH  57  58
ATOM     58  S   UNL     1      -3.405 -12.728  -4.470  1.00  0.00     0.124 S 
ATOM     59  O   UNL     1      -4.556 -13.495  -4.007  1.00  0.00    -0.237 OA
ATOM     60  O   UNL     1      -3.691 -11.375  -4.938  1.00  0.00    -0.237 OA
ATOM     61  O   UNL     1      -2.445 -13.471  -5.284  1.00  0.00    -0.744 OA
ENDBRANCH  57  58
ENDBRANCH  29  52
BRANCH  41  62
ATOM     62  C   UNL     1      -2.679 -13.209   6.183  1.00  0.00    -0.014 A 
ATOM     63  C   UNL     1      -2.938 -14.586   6.091  1.00  0.00     0.010 A 
ATOM     64  C   UNL     1      -3.507 -12.399   6.981  1.00  0.00     0.010 A 
ATOM     65  C   UNL     1      -4.026 -15.140   6.769  1.00  0.00     0.020 A 
ATOM     66  C   UNL     1      -4.573 -12.955   7.686  1.00  0.00     0.020 A 
ATOM     67  C   UNL     1      -4.833 -14.321   7.565  1.00  0.00     0.054 A 
BRANCH  67  68
ATOM     68  S   UNL     1      -6.201 -15.075   8.483  1.00  0.00     0.124 S 
ATOM     69  O   UNL     1      -7.156 -15.367   7.418  1.00  0.00    -0.237 OA
ATOM     70  O   UNL     1      -5.569 -16.240   9.098  1.00  0.00    -0.237 OA
ATOM     71  O   UNL     1      -6.609 -14.030   9.418  1.00  0.00    -0.744 OA
ENDBRANCH  67  68
ENDBRANCH  41  62
ENDBRANCH  15  16
ENDBRANCH   8  10
ENDBRANCH   7   8
ENDBRANCH   6   7
ENDBRANCH   5   6
ENDBRANCH   4   5
ENDBRANCH   3   4
ENDBRANCH   2   3
ENDBRANCH   1   2
BRANCH   1  72
ATOM     72  C   UNL     1       6.324  -5.109  -3.686  1.00  0.00     0.188 C 
BRANCH  72  73
ATOM     73  C   UNL     1       4.929  -5.538  -3.177  1.00  0.00     0.188 C 
BRANCH  73  74
ATOM     74  O   UNL     1       4.613  -6.885  -3.473  1.00  0.00    -0.376 OA
BRANCH  74  75
ATOM     75  C   UNL     1       3.874  -7.093  -4.669  1.00  0.00     0.202 C 
BRANCH  75  76
ATOM     76  C   UNL     1       4.444  -6.515  -5.980  1.00  0.00     0.261 C 
BRANCH  76  77
ATOM     77  O   UNL     1       4.834  -5.117  -5.967  1.00  0.00    -0.463 OA
BRANCH  77  78
ATOM     78  C   UNL     1       3.882  -4.162  -5.969  1.00  0.00     0.310 C 
ATOM     79  O   UNL     1       2.684  -4.418  -6.067  1.00  0.00    -0.252 OA
BRANCH  78  80
ATOM     80  C   UNL     1       4.430  -2.721  -5.906  1.00  0.00     0.115 C 
ATOM     81  C   UNL     1       5.412  -2.536  -7.086  1.00  0.00     0.043 C 
ATOM     82  C   UNL     1       5.102  -2.074  -4.660  1.00  0.00     0.097 C 
ATOM     83  C   UNL     1       5.854  -1.105  -7.238  1.00  0.00    -0.030 C 
ATOM     84  C   UNL     1       5.215  -0.543  -4.891  1.00  0.00     0.041 C 
ATOM     85  C   UNL     1       5.733  -0.198  -6.257  1.00  0.00    -0.030 C 
BRANCH  82  86
ATOM     86  C   UNL     1       4.650  -2.208  -3.202  1.00  0.00     0.227 C 
ATOM     87  O   UNL     1       5.501  -2.365  -2.320  1.00  0.00    -0.275 OA
ATOM     88  N   UNL     1       3.355  -1.872  -2.885  1.00  0.00    -0.331 N 
ATOM     89  C   UNL     1       3.090  -1.209  -1.611  1.00  0.00     0.181 C 
ATOM     90  C   UNL     1       2.250  -2.683  -3.349  1.00  0.00     0.181 C 
ATOM     91  C   UNL     1       1.734  -0.463  -1.624  1.00  0.00     0.284 C 
ATOM     92  C   UNL     1       0.940  -1.901  -3.424  1.00  0.00     0.284 C 
ATOM     93  N   UNL     1       0.579  -1.174  -2.200  1.00  0.00    -0.328 N 
ATOM     94  H   UNL     1      -0.067  -0.434  -2.476  1.00  0.00     0.348 HD
BRANCH  93  95
ATOM     95  C   UNL     1      -0.253  -1.938  -1.259  1.00  0.00     0.299 C 
BRANCH  95  96
ATOM     96  C   UNL     1       0.409  -3.106  -0.569  1.00  0.00     0.010 A 
ATOM     97  C   UNL     1       1.199  -2.896   0.586  1.00  0.00     0.013 A 
ATOM     98  C   UNL     1       0.319  -4.396  -1.118  1.00  0.00     0.060 A 
ATOM     99  C   UNL     1       1.995  -3.917   1.109  1.00  0.00     0.051 A 
ATOM    100  C   UNL     1       1.115  -5.382  -0.580  1.00  0.00     0.166 A 
ATOM    101  C   UNL     1       1.948  -5.142   0.486  1.00  0.00     0.165 A 
ATOM    102  O   UNL     1       1.227  -6.649  -1.056  1.00  0.00    -0.454 OA
ATOM    103  O   UNL     1       2.707  -6.222   0.803  1.00  0.00    -0.454 OA
ATOM    104  C   UNL     1       2.197  -7.194  -0.139  1.00  0.00     0.468 C 
ENDBRANCH  95  96
ENDBRANCH  93  95
ENDBRANCH  82  86
ENDBRANCH  78  80
ENDBRANCH  77  78
ENDBRANCH  76  77
ENDBRANCH  75  76
ENDBRANCH  74  75
ENDBRANCH  73  74
ENDBRANCH  72  73
ENDBRANCH   1  72
TORSDOF 26
