REMARK SMILES Cc1cc(C(=O)OCCOCCOCCOCCOC(=O)c2ccc(-c3c4nc(c(-c5ccc(S(=O)(=O)[O-])cc5)c5ccc([nH]5)c(-c5ccc(S(=O)(=O)[O-])cc5)c5nc(c(-c6ccc(S(=O)(=O)[O-])cc6)c6ccc3[nH]6)C=C5)C=C4)cc2)c([N+](=O)[O-])cc1[N+](=O)[O-]
REMARK SMILES IDX 14 1 13 2 12 3 11 4 10 5 9 6 8 7 7 8 5 9 6 10 4 11 1 12 2 13
REMARK SMILES IDX 3 14 87 15 86 16 82 17 88 18 89 19 90 20 83 21 84 22 85 23
REMARK SMILES IDX 15 24 16 25 17 26 18 27 19 28 20 29 21 30 22 31 23 32 81 33
REMARK SMILES IDX 24 34 80 35 25 36 26 37 27 38 74 39 28 40 79 41 73 42 75 43
REMARK SMILES IDX 29 44 78 45 72 46 71 47 30 49 60 50 41 51 59 52 42 53 45 54
REMARK SMILES IDX 58 55 76 56 43 57 44 58 57 60 77 61 46 62 31 63 32 64 40 65
REMARK SMILES IDX 33 66 39 67 34 68 35 69 36 70 37 71 38 72 61 73 62 74 70 75
REMARK SMILES IDX 63 76 69 77 64 78 65 79 66 80 67 81 68 82 47 83 48 84 56 85
REMARK SMILES IDX 49 86 55 87 50 88 51 89 52 90 53 91 54 92
REMARK H PARENT 75 48 45 59
REMARK Flexibility Score: inf
ROOT
ATOM      1  C   UNL     1      -3.079  -2.050  -2.971  1.00  0.00     0.188 C 
ENDROOT
BRANCH   1   2
ATOM      2  O   UNL     1      -2.043  -1.380  -2.232  1.00  0.00    -0.377 OA
BRANCH   2   3
ATOM      3  C   UNL     1      -0.728  -1.419  -2.742  1.00  0.00     0.188 C 
BRANCH   3   4
ATOM      4  C   UNL     1       0.293  -2.346  -2.060  1.00  0.00     0.188 C 
BRANCH   4   5
ATOM      5  O   UNL     1       0.017  -3.722  -1.867  1.00  0.00    -0.376 OA
BRANCH   5   6
ATOM      6  C   UNL     1      -0.873  -4.032  -0.795  1.00  0.00     0.202 C 
BRANCH   6   7
ATOM      7  C   UNL     1      -0.478  -3.543   0.591  1.00  0.00     0.261 C 
BRANCH   7   8
ATOM      8  O   UNL     1      -0.781  -2.149   0.698  1.00  0.00    -0.459 OA
BRANCH   8   9
ATOM      9  C   UNL     1      -0.068  -1.520   1.644  1.00  0.00     0.345 C 
ATOM     10  O   UNL     1       0.545  -1.973   2.588  1.00  0.00    -0.246 OA
BRANCH   9  11
ATOM     11  C   UNL     1       0.327  -0.261   1.027  1.00  0.00     0.138 A 
ATOM     12  C   UNL     1       3.714   0.739  -0.270  1.00  0.00     0.052 C 
ATOM     13  C   UNL     1       2.268   0.922   0.104  1.00  0.00     0.028 A 
ATOM     14  C   UNL     1       1.689  -0.205   0.701  1.00  0.00     0.033 A 
ATOM     15  C   UNL     1       1.424   2.026  -0.143  1.00  0.00     0.279 A 
ATOM     16  C   UNL     1       0.028   1.929   0.084  1.00  0.00     0.172 A 
ATOM     17  C   UNL     1      -0.510   0.773   0.658  1.00  0.00     0.290 A 
BRANCH  15  18
ATOM     18  N   UNL     1       1.934   3.354  -0.540  1.00  0.00     0.063 N 
ATOM     19  O   UNL     1       1.108   4.274  -0.640  1.00  0.00    -0.258 OA
ATOM     20  O   UNL     1       3.147   3.507  -0.710  1.00  0.00    -0.258 OA
ENDBRANCH  15  18
BRANCH  17  21
ATOM     21  N   UNL     1      -1.930   0.733   0.938  1.00  0.00     0.063 N 
ATOM     22  O   UNL     1      -2.261   0.500   2.106  1.00  0.00    -0.258 OA
ATOM     23  O   UNL     1      -2.693   1.072   0.024  1.00  0.00    -0.258 OA
ENDBRANCH  17  21
ENDBRANCH   9  11
ENDBRANCH   8   9
ENDBRANCH   7   8
ENDBRANCH   6   7
ENDBRANCH   5   6
ENDBRANCH   4   5
ENDBRANCH   3   4
ENDBRANCH   2   3
ENDBRANCH   1   2
BRANCH   1  24
ATOM     24  C   UNL     1      -2.805  -2.583  -4.373  1.00  0.00     0.188 C 
BRANCH  24  25
ATOM     25  O   UNL     1      -1.841  -3.633  -4.258  1.00  0.00    -0.376 OA
BRANCH  25  26
ATOM     26  C   UNL     1      -1.101  -3.925  -5.430  1.00  0.00     0.202 C 
BRANCH  26  27
ATOM     27  C   UNL     1      -1.956  -4.290  -6.649  1.00  0.00     0.261 C 
BRANCH  27  28
ATOM     28  O   UNL     1      -2.373  -5.678  -6.642  1.00  0.00    -0.460 OA
BRANCH  28  29
ATOM     29  C   UNL     1      -3.680  -5.960  -6.352  1.00  0.00     0.338 C 
ATOM     30  O   UNL     1      -4.490  -6.306  -7.196  1.00  0.00    -0.246 OA
BRANCH  29  31
ATOM     31  C   UNL     1      -3.921  -6.069  -4.889  1.00  0.00     0.060 A 
ATOM     32  C   UNL     1      -5.188  -5.898  -4.313  1.00  0.00     0.016 A 
ATOM     33  C   UNL     1      -2.836  -6.297  -4.064  1.00  0.00     0.016 A 
ATOM     34  C   UNL     1      -5.332  -5.759  -2.917  1.00  0.00     0.010 A 
ATOM     35  C   UNL     1      -2.969  -6.090  -2.708  1.00  0.00     0.010 A 
ATOM     36  C   UNL     1      -4.200  -5.781  -2.107  1.00  0.00    -0.014 A 
BRANCH  36  37
ATOM     37  C   UNL     1      -4.107  -5.386  -0.682  1.00  0.00     0.031 A 
ATOM     38  C   UNL     1      -3.293  -6.256   0.243  1.00  0.00     0.074 A 
ATOM     39  C   UNL     1      -4.359  -4.088  -0.362  1.00  0.00     0.049 A 
ATOM     40  N   UNL     1      -2.866  -5.904   1.404  1.00  0.00    -0.248 NA
ATOM     41  C   UNL     1      -2.818  -7.600  -0.105  1.00  0.00     0.031 C 
ATOM     42  C   UNL     1      -3.749  -3.303   0.718  1.00  0.00     0.029 A 
ATOM     43  N   UNL     1      -5.157  -3.134  -0.974  1.00  0.00    -0.354 N 
ATOM     44  C   UNL     1      -1.889  -6.785   1.827  1.00  0.00     0.074 A 
ATOM     45  C   UNL     1      -1.915  -7.846   0.855  1.00  0.00     0.031 C 
ATOM     46  C   UNL     1      -4.263  -2.066   0.761  1.00  0.00     0.029 A 
ATOM     47  C   UNL     1      -5.429  -2.097  -0.081  1.00  0.00     0.049 A 
ATOM     48  H   UNL     1      -5.484  -3.182  -1.902  1.00  0.00     0.167 HD
ATOM     49  C   UNL     1      -1.118  -6.445   2.905  1.00  0.00     0.031 A 
ATOM     50  C   UNL     1      -6.680  -1.893   0.427  1.00  0.00     0.031 A 
ATOM     51  C   UNL     1      -1.678  -5.272   3.602  1.00  0.00     0.049 A 
ATOM     52  C   UNL     1      -6.682  -2.310   1.903  1.00  0.00     0.074 A 
ATOM     53  C   UNL     1      -1.184  -4.044   3.998  1.00  0.00     0.029 A 
ATOM     54  N   UNL     1      -3.057  -5.209   3.830  1.00  0.00    -0.354 N 
ATOM     55  N   UNL     1      -5.928  -3.282   2.383  1.00  0.00    -0.248 NA
ATOM     56  C   UNL     1      -7.275  -1.503   2.971  1.00  0.00     0.031 C 
ATOM     57  C   UNL     1      -2.298  -3.180   4.227  1.00  0.00     0.029 A 
ATOM     58  C   UNL     1      -3.468  -3.923   4.112  1.00  0.00     0.049 A 
ATOM     59  H   UNL     1      -3.659  -5.987   3.796  1.00  0.00     0.167 HD
ATOM     60  C   UNL     1      -5.779  -3.113   3.737  1.00  0.00     0.074 A 
ATOM     61  C   UNL     1      -6.700  -2.033   4.068  1.00  0.00     0.031 C 
ATOM     62  C   UNL     1      -4.832  -3.673   4.554  1.00  0.00     0.031 A 
BRANCH  49  63
ATOM     63  C   UNL     1       0.240  -7.053   3.271  1.00  0.00    -0.014 A 
ATOM     64  C   UNL     1       0.909  -6.603   4.434  1.00  0.00     0.010 A 
ATOM     65  C   UNL     1       0.963  -7.982   2.489  1.00  0.00     0.010 A 
ATOM     66  C   UNL     1       2.202  -7.030   4.792  1.00  0.00     0.020 A 
ATOM     67  C   UNL     1       2.249  -8.448   2.854  1.00  0.00     0.020 A 
ATOM     68  C   UNL     1       2.867  -7.959   4.001  1.00  0.00     0.054 A 
BRANCH  68  69
ATOM     69  S   UNL     1       4.522  -8.521   4.505  1.00  0.00     0.124 S 
ATOM     70  O   UNL     1       5.327  -7.312   4.348  1.00  0.00    -0.237 OA
ATOM     71  O   UNL     1       4.307  -8.957   5.882  1.00  0.00    -0.237 OA
ATOM     72  O   UNL     1       4.828  -9.593   3.560  1.00  0.00    -0.744 OA
ENDBRANCH  68  69
ENDBRANCH  49  63
BRANCH  50  73
ATOM     73  C   UNL     1      -7.708  -1.858  -0.669  1.00  0.00    -0.014 A 
ATOM     74  C   UNL     1      -7.585  -0.702  -1.486  1.00  0.00     0.010 A 
ATOM     75  C   UNL     1      -8.124  -3.054  -1.292  1.00  0.00     0.010 A 
ATOM     76  C   UNL     1      -7.537  -0.810  -2.883  1.00  0.00     0.020 A 
ATOM     77  C   UNL     1      -8.102  -3.157  -2.703  1.00  0.00     0.020 A 
ATOM     78  C   UNL     1      -7.723  -2.054  -3.480  1.00  0.00     0.054 A 
BRANCH  78  79
ATOM     79  S   UNL     1      -7.173  -2.256  -5.212  1.00  0.00     0.124 S 
ATOM     80  O   UNL     1      -8.238  -1.599  -5.960  1.00  0.00    -0.237 OA
ATOM     81  O   UNL     1      -5.879  -1.574  -5.219  1.00  0.00    -0.237 OA
ATOM     82  O   UNL     1      -7.094  -3.703  -5.370  1.00  0.00    -0.744 OA
ENDBRANCH  78  79
ENDBRANCH  50  73
BRANCH  62  83
ATOM     83  C   UNL     1      -5.157  -4.088   5.970  1.00  0.00    -0.014 A 
ATOM     84  C   UNL     1      -6.476  -4.170   6.436  1.00  0.00     0.010 A 
ATOM     85  C   UNL     1      -4.142  -4.647   6.790  1.00  0.00     0.010 A 
ATOM     86  C   UNL     1      -6.765  -4.737   7.676  1.00  0.00     0.020 A 
ATOM     87  C   UNL     1      -4.426  -5.262   8.007  1.00  0.00     0.020 A 
ATOM     88  C   UNL     1      -5.740  -5.279   8.452  1.00  0.00     0.054 A 
BRANCH  88  89
ATOM     89  S   UNL     1      -6.163  -6.051  10.026  1.00  0.00     0.124 S 
ATOM     90  O   UNL     1      -6.356  -4.884  10.883  1.00  0.00    -0.237 OA
ATOM     91  O   UNL     1      -7.377  -6.798   9.701  1.00  0.00    -0.237 OA
ATOM     92  O   UNL     1      -4.998  -6.874  10.338  1.00  0.00    -0.744 OA
ENDBRANCH  88  89
ENDBRANCH  62  83
ENDBRANCH  36  37
ENDBRANCH  29  31
ENDBRANCH  28  29
ENDBRANCH  27  28
ENDBRANCH  26  27
ENDBRANCH  25  26
ENDBRANCH  24  25
ENDBRANCH   1  24
TORSDOF 25
