REMARK SMILES COc1ccc(-c2nc3ccc(C)cc3[nH]2)c(C(=O)OCCOCCOCCOCCOC(=O)c2ccc(-c3c4nc(c(-c5ccc(S(=O)(=O)[O-])cc5)c5ccc([nH]5)c(-c5ccc(S(=O)(=O)[O-])cc5)c5nc(c(-c6ccc(S(=O)(=O)[O-])cc6)c6ccc3[nH]6)C=C5)C=C4)cc2)c1OC
REMARK SMILES IDX 27 1 26 2 25 3 24 4 23 5 22 6 21 7 20 8 18 9 19 10 17 11
REMARK SMILES IDX 3 12 4 13 95 14 5 15 6 16 2 17 1 18 96 19 97 20 7 21 8 22
REMARK SMILES IDX 16 23 9 24 15 25 10 27 14 28 11 29 12 30 13 31 28 32 29 33
REMARK SMILES IDX 30 34 31 35 32 36 33 37 34 38 35 39 36 40 94 41 37 42 93 43
REMARK SMILES IDX 38 44 39 45 40 46 87 47 41 48 92 49 86 50 88 51 42 52 91 53
REMARK SMILES IDX 85 54 84 55 43 57 73 58 54 59 72 60 55 61 58 62 71 63 89 64
REMARK SMILES IDX 56 65 57 66 70 68 90 69 59 70 44 71 45 72 53 73 46 74 52 75
REMARK SMILES IDX 47 76 48 77 49 78 50 79 51 80 74 81 75 82 83 83 76 84 82 85
REMARK SMILES IDX 77 86 78 87 79 88 80 89 81 90 60 91 61 92 69 93 62 94 68 95
REMARK SMILES IDX 63 96 64 97 65 98 66 99 67 100
REMARK H PARENT 16 26 88 56 58 67
REMARK Flexibility Score: inf
ROOT
ATOM      1  C   UNL     1       6.803  -4.064  -2.083  1.00  0.00     0.188 C 
ENDROOT
BRANCH   1   2
ATOM      2  O   UNL     1       5.398  -4.236  -1.960  1.00  0.00    -0.377 OA
BRANCH   2   3
ATOM      3  C   UNL     1       4.620  -3.442  -2.845  1.00  0.00     0.188 C 
BRANCH   3   4
ATOM      4  C   UNL     1       5.138  -3.152  -4.259  1.00  0.00     0.188 C 
BRANCH   4   5
ATOM      5  O   UNL     1       6.408  -2.497  -4.319  1.00  0.00    -0.376 OA
BRANCH   5   6
ATOM      6  C   UNL     1       6.386  -1.254  -5.022  1.00  0.00     0.202 C 
BRANCH   6   7
ATOM      7  C   UNL     1       5.883  -0.121  -4.125  1.00  0.00     0.261 C 
BRANCH   7   8
ATOM      8  O   UNL     1       4.537  -0.358  -3.675  1.00  0.00    -0.460 OA
BRANCH   8   9
ATOM      9  C   UNL     1       3.522  -0.038  -4.512  1.00  0.00     0.342 C 
ATOM     10  O   UNL     1       3.612   0.562  -5.572  1.00  0.00    -0.246 OA
BRANCH   9  11
ATOM     11  C   UNL     1       2.267  -0.655  -4.000  1.00  0.00     0.116 A 
ATOM     12  C   UNL     1       0.745  -1.125  -2.166  1.00  0.00     0.161 A 
ATOM     13  C   UNL     1      -0.051  -1.876  -3.035  1.00  0.00     0.051 A 
ATOM     14  C   UNL     1       1.913  -0.508  -2.637  1.00  0.00     0.176 A 
ATOM     15  C   UNL     1       0.298  -2.026  -4.380  1.00  0.00     0.017 A 
ATOM     16  C   UNL     1       1.473  -1.447  -4.878  1.00  0.00     0.036 A 
BRANCH  12  17
ATOM     17  O   UNL     1       0.365  -1.157  -0.851  1.00  0.00    -0.493 OA
ATOM     18  C   UNL     1       0.045   0.118  -0.303  1.00  0.00     0.278 C 
ENDBRANCH  12  17
BRANCH  14  19
ATOM     19  O   UNL     1       2.678   0.303  -1.835  1.00  0.00    -0.492 OA
ATOM     20  C   UNL     1       3.244  -0.342  -0.689  1.00  0.00     0.278 C 
ENDBRANCH  14  19
BRANCH  16  21
ATOM     21  C   UNL     1       1.991  -1.921  -6.170  1.00  0.00     0.139 A 
ATOM     22  N   UNL     1       3.095  -2.624  -6.255  1.00  0.00    -0.228 NA
ATOM     23  N   UNL     1       1.437  -1.796  -7.427  1.00  0.00    -0.338 N 
ATOM     24  C   UNL     1       3.369  -2.804  -7.569  1.00  0.00     0.089 A 
ATOM     25  C   UNL     1       2.324  -2.333  -8.347  1.00  0.00     0.066 A 
ATOM     26  H   UNL     1       0.562  -1.396  -7.636  1.00  0.00     0.168 HD
ATOM     27  C   UNL     1       4.511  -3.362  -8.149  1.00  0.00     0.031 A 
ATOM     28  C   UNL     1       2.341  -2.440  -9.743  1.00  0.00     0.031 A 
ATOM     29  C   UNL     1       4.570  -3.443  -9.538  1.00  0.00     0.006 A 
ATOM     30  C   UNL     1       3.499  -3.002 -10.330  1.00  0.00    -0.049 A 
ATOM     31  C   UNL     1       3.628  -3.141 -11.820  1.00  0.00     0.044 C 
ENDBRANCH  16  21
ENDBRANCH   9  11
ENDBRANCH   8   9
ENDBRANCH   7   8
ENDBRANCH   6   7
ENDBRANCH   5   6
ENDBRANCH   4   5
ENDBRANCH   3   4
ENDBRANCH   2   3
ENDBRANCH   1   2
BRANCH   1  32
ATOM     32  C   UNL     1       7.405  -4.994  -3.155  1.00  0.00     0.188 C 
BRANCH  32  33
ATOM     33  O   UNL     1       6.416  -5.688  -3.913  1.00  0.00    -0.376 OA
BRANCH  33  34
ATOM     34  C   UNL     1       6.061  -7.002  -3.507  1.00  0.00     0.202 C 
BRANCH  34  35
ATOM     35  C   UNL     1       5.524  -7.247  -2.085  1.00  0.00     0.261 C 
BRANCH  35  36
ATOM     36  O   UNL     1       6.326  -6.780  -0.991  1.00  0.00    -0.460 OA
BRANCH  36  37
ATOM     37  C   UNL     1       7.583  -7.252  -0.862  1.00  0.00     0.338 C 
ATOM     38  O   UNL     1       8.116  -8.116  -1.533  1.00  0.00    -0.246 OA
BRANCH  37  39
ATOM     39  C   UNL     1       8.279  -6.357   0.094  1.00  0.00     0.060 A 
ATOM     40  C   UNL     1       9.488  -5.765  -0.299  1.00  0.00     0.016 A 
ATOM     41  C   UNL     1       7.702  -6.030   1.327  1.00  0.00     0.016 A 
ATOM     42  C   UNL     1      10.140  -4.875   0.555  1.00  0.00     0.010 A 
ATOM     43  C   UNL     1       8.371  -5.165   2.195  1.00  0.00     0.010 A 
ATOM     44  C   UNL     1       9.613  -4.618   1.828  1.00  0.00    -0.014 A 
BRANCH  44  45
ATOM     45  C   UNL     1      10.499  -4.037   2.863  1.00  0.00     0.031 A 
ATOM     46  C   UNL     1      11.307  -5.002   3.690  1.00  0.00     0.074 A 
ATOM     47  C   UNL     1      10.623  -2.711   3.043  1.00  0.00     0.049 A 
ATOM     48  N   UNL     1      12.174  -4.762   4.638  1.00  0.00    -0.248 NA
ATOM     49  C   UNL     1      11.111  -6.434   3.400  1.00  0.00     0.031 C 
ATOM     50  C   UNL     1       9.932  -1.678   2.273  1.00  0.00     0.029 A 
ATOM     51  N   UNL     1      11.392  -2.008   3.938  1.00  0.00    -0.354 N 
ATOM     52  C   UNL     1      12.629  -6.010   5.051  1.00  0.00     0.074 A 
ATOM     53  C   UNL     1      11.918  -7.004   4.279  1.00  0.00     0.031 C 
ATOM     54  C   UNL     1      10.310  -0.469   2.731  1.00  0.00     0.029 A 
ATOM     55  C   UNL     1      11.249  -0.645   3.838  1.00  0.00     0.049 A 
ATOM     56  H   UNL     1      11.989  -2.440   4.590  1.00  0.00     0.167 HD
ATOM     57  C   UNL     1      13.561  -6.306   5.985  1.00  0.00     0.031 A 
ATOM     58  C   UNL     1      11.809   0.343   4.566  1.00  0.00     0.031 A 
ATOM     59  C   UNL     1      14.241  -5.320   6.776  1.00  0.00     0.049 A 
ATOM     60  C   UNL     1      12.780  -0.014   5.666  1.00  0.00     0.074 A 
ATOM     61  C   UNL     1      15.194  -5.511   7.759  1.00  0.00     0.029 A 
ATOM     62  N   UNL     1      14.027  -3.953   6.682  1.00  0.00    -0.354 N 
ATOM     63  N   UNL     1      13.216  -1.197   6.032  1.00  0.00    -0.248 NA
ATOM     64  C   UNL     1      13.341   1.101   6.442  1.00  0.00     0.031 C 
ATOM     65  C   UNL     1      15.521  -4.261   8.295  1.00  0.00     0.029 A 
ATOM     66  C   UNL     1      14.815  -3.288   7.604  1.00  0.00     0.049 A 
ATOM     67  H   UNL     1      13.407  -3.520   6.051  1.00  0.00     0.167 HD
ATOM     68  C   UNL     1      14.127  -0.966   7.059  1.00  0.00     0.074 A 
ATOM     69  C   UNL     1      14.185   0.470   7.248  1.00  0.00     0.031 C 
ATOM     70  C   UNL     1      14.857  -1.857   7.775  1.00  0.00     0.031 A 
BRANCH  57  71
ATOM     71  C   UNL     1      13.854  -7.763   6.220  1.00  0.00    -0.014 A 
ATOM     72  C   UNL     1      14.546  -8.530   5.264  1.00  0.00     0.010 A 
ATOM     73  C   UNL     1      13.425  -8.375   7.411  1.00  0.00     0.010 A 
ATOM     74  C   UNL     1      14.763  -9.893   5.476  1.00  0.00     0.020 A 
ATOM     75  C   UNL     1      13.665  -9.733   7.638  1.00  0.00     0.020 A 
ATOM     76  C   UNL     1      14.316 -10.488   6.659  1.00  0.00     0.054 A 
BRANCH  76  77
ATOM     77  S   UNL     1      14.616 -12.258   6.913  1.00  0.00     0.124 S 
ATOM     78  O   UNL     1      13.645 -12.861   6.004  1.00  0.00    -0.237 OA
ATOM     79  O   UNL     1      16.016 -12.405   6.524  1.00  0.00    -0.237 OA
ATOM     80  O   UNL     1      14.344 -12.455   8.335  1.00  0.00    -0.744 OA
ENDBRANCH  76  77
ENDBRANCH  57  71
BRANCH  58  81
ATOM     81  C   UNL     1      11.469   1.766   4.288  1.00  0.00    -0.014 A 
ATOM     82  C   UNL     1      12.423   2.639   3.737  1.00  0.00     0.010 A 
ATOM     83  C   UNL     1      10.186   2.260   4.586  1.00  0.00     0.010 A 
ATOM     84  C   UNL     1      12.107   3.982   3.504  1.00  0.00     0.020 A 
ATOM     85  C   UNL     1       9.857   3.595   4.332  1.00  0.00     0.020 A 
ATOM     86  C   UNL     1      10.824   4.451   3.801  1.00  0.00     0.054 A 
BRANCH  86  87
ATOM     87  S   UNL     1      10.419   6.184   3.446  1.00  0.00     0.124 S 
ATOM     88  O   UNL     1      11.135   6.888   4.505  1.00  0.00    -0.237 OA
ATOM     89  O   UNL     1      10.950   6.362   2.096  1.00  0.00    -0.237 OA
ATOM     90  O   UNL     1       8.962   6.221   3.543  1.00  0.00    -0.744 OA
ENDBRANCH  86  87
ENDBRANCH  58  81
BRANCH  70  91
ATOM     91  C   UNL     1      15.813  -1.309   8.801  1.00  0.00    -0.014 A 
ATOM     92  C   UNL     1      15.354  -0.752  10.007  1.00  0.00     0.010 A 
ATOM     93  C   UNL     1      17.199  -1.406   8.573  1.00  0.00     0.010 A 
ATOM     94  C   UNL     1      16.264  -0.269  10.952  1.00  0.00     0.020 A 
ATOM     95  C   UNL     1      18.111  -0.950   9.527  1.00  0.00     0.020 A 
ATOM     96  C   UNL     1      17.637  -0.368  10.704  1.00  0.00     0.054 A 
BRANCH  96  97
ATOM     97  S   UNL     1      18.799   0.234  11.960  1.00  0.00     0.124 S 
ATOM     98  O   UNL     1      18.698   1.682  11.797  1.00  0.00    -0.237 OA
ATOM     99  O   UNL     1      18.240  -0.300  13.199  1.00  0.00    -0.237 OA
ATOM    100  O   UNL     1      20.077  -0.350  11.558  1.00  0.00    -0.744 OA
ENDBRANCH  96  97
ENDBRANCH  70  91
ENDBRANCH  44  45
ENDBRANCH  37  39
ENDBRANCH  36  37
ENDBRANCH  35  36
ENDBRANCH  34  35
ENDBRANCH  33  34
ENDBRANCH  32  33
ENDBRANCH   1  32
TORSDOF 26
