REMARK SMILES [NH3+][C@@H](Cc1ccc(OC(F)F)cc1)C(=O)OCCOCCOCCOCCOC(=O)c1ccc(-c2c3nc(c(-c4ccc(S(=O)(=O)[O-])cc4)c4ccc([nH]4)c(-c4ccc(S(=O)(=O)[O-])cc4)c4nc(c(-c5ccc(S(=O)(=O)[O-])cc5)c5ccc2[nH]5)C=C4)C=C3)cc1
REMARK SMILES IDX 21 1 20 2 19 3 18 4 17 5 16 6 14 7 15 8 2 9 1 10 3 14 4 15
REMARK SMILES IDX 5 16 13 17 6 18 12 19 7 20 8 21 9 22 10 23 11 24 22 25 23 26
REMARK SMILES IDX 24 27 25 28 26 29 27 30 28 31 29 32 30 33 31 34 32 35 90 36
REMARK SMILES IDX 33 37 89 38 34 39 35 40 36 41 83 42 37 43 88 44 82 45 84 46
REMARK SMILES IDX 38 47 87 48 81 49 80 50 39 52 69 53 50 54 68 55 51 56 54 57
REMARK SMILES IDX 67 58 85 59 52 60 53 61 66 63 86 64 55 65 40 66 41 67 49 68
REMARK SMILES IDX 42 69 48 70 43 71 44 72 45 73 46 74 47 75 70 76 71 77 79 78
REMARK SMILES IDX 72 79 78 80 73 81 74 82 75 83 76 84 77 85 56 86 57 87 65 88
REMARK SMILES IDX 58 89 64 90 59 91 60 92 61 93 62 94 63 95
REMARK H PARENT 1 11 1 12 1 13 84 51 54 62
REMARK Flexibility Score: inf
ROOT
ATOM      1  C   UNL     1      -1.277  -0.885   0.990  1.00  0.00     0.188 C 
ENDROOT
BRANCH   1   2
ATOM      2  C   UNL     1      -1.768   0.172   1.992  1.00  0.00     0.188 C 
BRANCH   2   3
ATOM      3  O   UNL     1      -3.078   0.723   1.891  1.00  0.00    -0.376 OA
BRANCH   3   4
ATOM      4  C   UNL     1      -3.566   1.238   0.658  1.00  0.00     0.202 C 
BRANCH   4   5
ATOM      5  C   UNL     1      -2.714   2.119  -0.271  1.00  0.00     0.261 C 
BRANCH   5   6
ATOM      6  O   UNL     1      -1.309   1.866  -0.251  1.00  0.00    -0.459 OA
BRANCH   6   7
ATOM      7  C   UNL     1      -0.526   2.815   0.331  1.00  0.00     0.365 C 
ATOM      8  O   UNL     1      -0.934   3.849   0.848  1.00  0.00    -0.245 OA
BRANCH   7   9
ATOM      9  C   UNL     1       0.968   2.462   0.222  1.00  0.00     0.296 C 
BRANCH   9  10
ATOM     10  N   UNL     1       1.226   1.008   0.319  1.00  0.00    -0.346 N 
ATOM     11  H   UNL     1       2.228   0.834   0.241  1.00  0.00     0.345 HD
ATOM     12  H   UNL     1       0.737   0.525  -0.435  1.00  0.00     0.345 HD
ATOM     13  H   UNL     1       0.889   0.663   1.218  1.00  0.00     0.345 HD
ENDBRANCH   9  10
BRANCH   9  14
ATOM     14  C   UNL     1       1.577   3.065  -1.051  1.00  0.00     0.113 C 
BRANCH  14  15
ATOM     15  C   UNL     1       0.895   2.666  -2.341  1.00  0.00    -0.041 A 
ATOM     16  C   UNL     1       0.104   3.599  -3.018  1.00  0.00     0.008 A 
ATOM     17  C   UNL     1       0.994   1.368  -2.863  1.00  0.00     0.008 A 
ATOM     18  C   UNL     1      -0.573   3.239  -4.183  1.00  0.00     0.047 A 
ATOM     19  C   UNL     1       0.288   1.002  -4.014  1.00  0.00     0.047 A 
ATOM     20  C   UNL     1      -0.489   1.940  -4.688  1.00  0.00     0.126 A 
BRANCH  20  21
ATOM     21  O   UNL     1      -1.203   1.733  -5.830  1.00  0.00    -0.435 OA
BRANCH  21  22
ATOM     22  C   UNL     1      -1.131   0.463  -6.460  1.00  0.00     0.542 C 
ATOM     23  F   UNL     1       0.162   0.125  -6.696  1.00  0.00    -0.167 F 
ATOM     24  F   UNL     1      -1.663  -0.479  -5.641  1.00  0.00    -0.167 F 
ENDBRANCH  21  22
ENDBRANCH  20  21
ENDBRANCH  14  15
ENDBRANCH   9  14
ENDBRANCH   7   9
ENDBRANCH   6   7
ENDBRANCH   5   6
ENDBRANCH   4   5
ENDBRANCH   3   4
ENDBRANCH   2   3
ENDBRANCH   1   2
BRANCH   1  25
ATOM     25  O   UNL     1      -1.939  -0.844  -0.258  1.00  0.00    -0.377 OA
BRANCH  25  26
ATOM     26  C   UNL     1      -2.896  -1.876  -0.482  1.00  0.00     0.188 C 
BRANCH  26  27
ATOM     27  C   UNL     1      -3.803  -2.304   0.699  1.00  0.00     0.188 C 
BRANCH  27  28
ATOM     28  O   UNL     1      -3.123  -2.578   1.918  1.00  0.00    -0.376 OA
BRANCH  28  29
ATOM     29  C   UNL     1      -2.760  -3.916   2.229  1.00  0.00     0.202 C 
BRANCH  29  30
ATOM     30  C   UNL     1      -1.780  -4.653   1.297  1.00  0.00     0.261 C 
BRANCH  30  31
ATOM     31  O   UNL     1      -2.169  -4.771  -0.079  1.00  0.00    -0.460 OA
BRANCH  31  32
ATOM     32  C   UNL     1      -3.343  -5.378  -0.349  1.00  0.00     0.338 C 
ATOM     33  O   UNL     1      -4.093  -5.911   0.451  1.00  0.00    -0.246 OA
BRANCH  32  34
ATOM     34  C   UNL     1      -3.677  -5.101  -1.762  1.00  0.00     0.060 A 
ATOM     35  C   UNL     1      -4.874  -4.436  -2.057  1.00  0.00     0.016 A 
ATOM     36  C   UNL     1      -2.813  -5.490  -2.789  1.00  0.00     0.016 A 
ATOM     37  C   UNL     1      -5.232  -4.193  -3.382  1.00  0.00     0.010 A 
ATOM     38  C   UNL     1      -3.185  -5.269  -4.117  1.00  0.00     0.010 A 
ATOM     39  C   UNL     1      -4.414  -4.654  -4.420  1.00  0.00    -0.014 A 
BRANCH  39  40
ATOM     40  C   UNL     1      -4.938  -4.693  -5.806  1.00  0.00     0.031 A 
ATOM     41  C   UNL     1      -5.505  -5.992  -6.313  1.00  0.00     0.074 A 
ATOM     42  C   UNL     1      -4.932  -3.603  -6.593  1.00  0.00     0.049 A 
ATOM     43  N   UNL     1      -5.962  -6.290  -7.501  1.00  0.00    -0.248 NA
ATOM     44  C   UNL     1      -5.559  -7.104  -5.349  1.00  0.00     0.031 C 
ATOM     45  C   UNL     1      -4.466  -2.274  -6.202  1.00  0.00     0.029 A 
ATOM     46  N   UNL     1      -5.330  -3.450  -7.899  1.00  0.00    -0.354 N 
ATOM     47  C   UNL     1      -6.341  -7.627  -7.432  1.00  0.00     0.074 A 
ATOM     48  C   UNL     1      -6.036  -8.087  -6.096  1.00  0.00     0.031 C 
ATOM     49  C   UNL     1      -4.593  -1.443  -7.252  1.00  0.00     0.029 A 
ATOM     50  C   UNL     1      -5.104  -2.191  -8.399  1.00  0.00     0.049 A 
ATOM     51  H   UNL     1      -5.738  -4.175  -8.426  1.00  0.00     0.167 HD
ATOM     52  C   UNL     1      -6.893  -8.401  -8.396  1.00  0.00     0.031 A 
ATOM     53  C   UNL     1      -5.258  -1.707  -9.649  1.00  0.00     0.031 A 
ATOM     54  C   UNL     1      -7.178  -7.942  -9.729  1.00  0.00     0.049 A 
ATOM     55  C   UNL     1      -5.795  -2.609 -10.730  1.00  0.00     0.074 A 
ATOM     56  C   UNL     1      -7.753  -8.644 -10.774  1.00  0.00     0.029 A 
ATOM     57  N   UNL     1      -6.898  -6.671 -10.206  1.00  0.00    -0.354 N 
ATOM     58  N   UNL     1      -6.170  -3.864 -10.647  1.00  0.00    -0.248 NA
ATOM     59  C   UNL     1      -5.936  -2.027 -12.072  1.00  0.00     0.031 C 
ATOM     60  C   UNL     1      -7.755  -7.819 -11.902  1.00  0.00     0.029 A 
ATOM     61  C   UNL     1      -7.256  -6.578 -11.540  1.00  0.00     0.049 A 
ATOM     62  H   UNL     1      -6.504  -5.942  -9.674  1.00  0.00     0.167 HD
ATOM     63  C   UNL     1      -6.621  -4.211 -11.917  1.00  0.00     0.074 A 
ATOM     64  C   UNL     1      -6.482  -3.031 -12.746  1.00  0.00     0.031 C 
ATOM     65  C   UNL     1      -7.111  -5.397 -12.356  1.00  0.00     0.031 A 
BRANCH  52  66
ATOM     66  C   UNL     1      -7.176  -9.841  -8.055  1.00  0.00    -0.014 A 
ATOM     67  C   UNL     1      -8.189 -10.197  -7.145  1.00  0.00     0.010 A 
ATOM     68  C   UNL     1      -6.431 -10.858  -8.680  1.00  0.00     0.010 A 
ATOM     69  C   UNL     1      -8.421 -11.540  -6.836  1.00  0.00     0.020 A 
ATOM     70  C   UNL     1      -6.683 -12.203  -8.399  1.00  0.00     0.020 A 
ATOM     71  C   UNL     1      -7.665 -12.535  -7.464  1.00  0.00     0.054 A 
BRANCH  71  72
ATOM     72  S   UNL     1      -8.002 -14.270  -7.058  1.00  0.00     0.124 S 
ATOM     73  O   UNL     1      -7.490 -14.364  -5.693  1.00  0.00    -0.237 OA
ATOM     74  O   UNL     1      -9.454 -14.352  -7.191  1.00  0.00    -0.237 OA
ATOM     75  O   UNL     1      -7.244 -15.015  -8.059  1.00  0.00    -0.744 OA
ENDBRANCH  71  72
ENDBRANCH  52  66
BRANCH  53  76
ATOM     76  C   UNL     1      -4.862  -0.305  -9.954  1.00  0.00    -0.014 A 
ATOM     77  C   UNL     1      -5.827   0.667 -10.268  1.00  0.00     0.010 A 
ATOM     78  C   UNL     1      -3.504   0.062  -9.932  1.00  0.00     0.010 A 
ATOM     79  C   UNL     1      -5.441   1.979 -10.561  1.00  0.00     0.020 A 
ATOM     80  C   UNL     1      -3.116   1.378 -10.193  1.00  0.00     0.020 A 
ATOM     81  C   UNL     1      -4.088   2.327 -10.513  1.00  0.00     0.054 A 
BRANCH  81  82
ATOM     82  S   UNL     1      -3.615   4.050 -10.828  1.00  0.00     0.124 S 
ATOM     83  O   UNL     1      -3.824   4.165 -12.267  1.00  0.00    -0.237 OA
ATOM     84  O   UNL     1      -4.552   4.790  -9.987  1.00  0.00    -0.237 OA
ATOM     85  O   UNL     1      -2.222   4.102 -10.388  1.00  0.00    -0.744 OA
ENDBRANCH  81  82
ENDBRANCH  53  76
BRANCH  65  86
ATOM     86  C   UNL     1      -7.577  -5.478 -13.787  1.00  0.00    -0.014 A 
ATOM     87  C   UNL     1      -6.667  -5.462 -14.859  1.00  0.00     0.010 A 
ATOM     88  C   UNL     1      -8.949  -5.645 -14.057  1.00  0.00     0.010 A 
ATOM     89  C   UNL     1      -7.124  -5.583 -16.175  1.00  0.00     0.020 A 
ATOM     90  C   UNL     1      -9.405  -5.799 -15.368  1.00  0.00     0.020 A 
ATOM     91  C   UNL     1      -8.490  -5.754 -16.421  1.00  0.00     0.054 A 
BRANCH  91  92
ATOM     92  S   UNL     1      -9.049  -5.962 -18.134  1.00  0.00     0.124 S 
ATOM     93  O   UNL     1      -8.861  -4.621 -18.680  1.00  0.00    -0.237 OA
ATOM     94  O   UNL     1      -8.138  -6.983 -18.645  1.00  0.00    -0.237 OA
ATOM     95  O   UNL     1     -10.440  -6.388 -17.996  1.00  0.00    -0.744 OA
ENDBRANCH  91  92
ENDBRANCH  65  86
ENDBRANCH  39  40
ENDBRANCH  32  34
ENDBRANCH  31  32
ENDBRANCH  30  31
ENDBRANCH  29  30
ENDBRANCH  28  29
ENDBRANCH  27  28
ENDBRANCH  26  27
ENDBRANCH  25  26
ENDBRANCH   1  25
TORSDOF 28
