REMARK SMILES Cc1ccc(NC(=O)N2CCCC[C@@H]2C(=O)OCCOCCOCCOCCOC(=O)c2ccc(-c3c4nc(c(-c5ccc(S(=O)(=O)[O-])cc5)c5ccc([nH]5)c(-c5ccc(S(=O)(=O)[O-])cc5)c5nc(c(-c6ccc(S(=O)(=O)[O-])cc6)c6ccc3[nH]6)C=C5)C=C4)cc2)cc1
REMARK SMILES IDX 24 1 23 2 22 3 21 4 20 5 19 6 18 7 17 8 15 9 16 10 14 11
REMARK SMILES IDX 9 12 10 13 11 14 13 15 12 16 7 17 6 18 8 20 5 21 1 22 2 23
REMARK SMILES IDX 3 24 93 25 4 26 92 27 25 28 26 29 27 30 28 31 29 32 30 33
REMARK SMILES IDX 31 34 32 35 33 36 91 37 34 38 90 39 35 40 36 41 37 42 84 43
REMARK SMILES IDX 38 44 89 45 83 46 85 47 39 48 88 49 82 50 81 51 40 53 70 54
REMARK SMILES IDX 51 55 69 56 52 57 55 58 68 59 86 60 53 61 54 62 67 64 87 65
REMARK SMILES IDX 56 66 41 67 42 68 50 69 43 70 49 71 44 72 45 73 46 74 47 75
REMARK SMILES IDX 48 76 71 77 72 78 80 79 73 80 79 81 74 82 75 83 76 84 77 85
REMARK SMILES IDX 78 86 57 87 58 88 66 89 59 90 65 91 60 92 61 93 62 94 63 95
REMARK SMILES IDX 64 96
REMARK H PARENT 6 19 85 52 55 63
REMARK Flexibility Score: inf
ROOT
ATOM      1  C   UNL     1      -0.353  -2.474   4.639  1.00  0.00     0.188 C 
ENDROOT
BRANCH   1   2
ATOM      2  O   UNL     1      -0.438  -3.127   3.387  1.00  0.00    -0.377 OA
BRANCH   2   3
ATOM      3  C   UNL     1       0.696  -3.024   2.554  1.00  0.00     0.188 C 
BRANCH   3   4
ATOM      4  C   UNL     1       1.262  -1.620   2.225  1.00  0.00     0.188 C 
BRANCH   4   5
ATOM      5  O   UNL     1       0.571  -0.400   2.468  1.00  0.00    -0.376 OA
BRANCH   5   6
ATOM      6  C   UNL     1      -0.841  -0.322   2.397  1.00  0.00     0.202 C 
BRANCH   6   7
ATOM      7  C   UNL     1      -1.529   0.069   1.103  1.00  0.00     0.261 C 
BRANCH   7   8
ATOM      8  O   UNL     1      -2.299  -1.007   0.533  1.00  0.00    -0.462 OA
BRANCH   8   9
ATOM      9  C   UNL     1      -1.537  -2.050   0.244  1.00  0.00     0.329 C 
ATOM     10  O   UNL     1      -0.315  -2.056   0.405  1.00  0.00    -0.250 OA
BRANCH   9  11
ATOM     11  C   UNL     1      -2.126  -3.276  -0.327  1.00  0.00     0.196 C 
ATOM     12  N   UNL     1      -3.038  -3.164  -1.448  1.00  0.00    -0.311 N 
ATOM     13  C   UNL     1      -3.549  -4.446  -1.931  1.00  0.00     0.122 C 
ATOM     14  C   UNL     1      -3.849  -5.513  -0.861  1.00  0.00     0.022 C 
ATOM     15  C   UNL     1      -2.682  -4.137   0.817  1.00  0.00     0.037 C 
ATOM     16  C   UNL     1      -2.846  -5.549   0.285  1.00  0.00     0.005 C 
BRANCH  12  17
ATOM     17  C   UNL     1      -3.212  -2.061  -2.256  1.00  0.00     0.322 C 
ATOM     18  N   UNL     1      -2.328  -1.026  -2.331  1.00  0.00    -0.308 N 
ATOM     19  H   UNL     1      -2.788  -0.171  -2.498  1.00  0.00     0.171 HD
ATOM     20  O   UNL     1      -4.271  -1.934  -2.885  1.00  0.00    -0.248 OA
BRANCH  18  21
ATOM     21  C   UNL     1      -0.921  -0.848  -2.234  1.00  0.00     0.042 A 
ATOM     22  C   UNL     1       3.051  -0.199  -0.596  1.00  0.00     0.044 C 
ATOM     23  C   UNL     1       1.741  -0.401  -1.310  1.00  0.00    -0.051 A 
ATOM     24  C   UNL     1       1.342  -1.649  -1.818  1.00  0.00     0.005 A 
ATOM     25  C   UNL     1       0.836   0.650  -1.407  1.00  0.00     0.005 A 
ATOM     26  C   UNL     1       0.025  -1.867  -2.298  1.00  0.00     0.026 A 
ATOM     27  C   UNL     1      -0.459   0.436  -1.911  1.00  0.00     0.026 A 
ENDBRANCH  18  21
ENDBRANCH  12  17
ENDBRANCH   9  11
ENDBRANCH   8   9
ENDBRANCH   7   8
ENDBRANCH   6   7
ENDBRANCH   5   6
ENDBRANCH   4   5
ENDBRANCH   3   4
ENDBRANCH   2   3
ENDBRANCH   1   2
BRANCH   1  28
ATOM     28  C   UNL     1       1.059  -2.170   5.155  1.00  0.00     0.188 C 
BRANCH  28  29
ATOM     29  O   UNL     1       1.940  -3.272   5.242  1.00  0.00    -0.376 OA
BRANCH  29  30
ATOM     30  C   UNL     1       1.327  -4.439   5.775  1.00  0.00     0.202 C 
BRANCH  30  31
ATOM     31  C   UNL     1       0.390  -4.328   7.028  1.00  0.00     0.261 C 
BRANCH  31  32
ATOM     32  O   UNL     1       0.193  -2.995   7.617  1.00  0.00    -0.460 OA
BRANCH  32  33
ATOM     33  C   UNL     1      -1.105  -2.537   7.734  1.00  0.00     0.338 C 
ATOM     34  O   UNL     1      -2.069  -3.250   7.477  1.00  0.00    -0.246 OA
BRANCH  33  35
ATOM     35  C   UNL     1      -1.245  -0.997   7.809  1.00  0.00     0.060 A 
ATOM     36  C   UNL     1      -2.527  -0.471   7.950  1.00  0.00     0.016 A 
ATOM     37  C   UNL     1      -0.392  -0.194   7.073  1.00  0.00     0.016 A 
ATOM     38  C   UNL     1      -3.065   0.432   7.027  1.00  0.00     0.010 A 
ATOM     39  C   UNL     1      -0.926   0.582   6.038  1.00  0.00     0.010 A 
ATOM     40  C   UNL     1      -2.307   0.767   5.923  1.00  0.00    -0.014 A 
BRANCH  40  41
ATOM     41  C   UNL     1      -2.922   1.009   4.589  1.00  0.00     0.031 A 
ATOM     42  C   UNL     1      -2.484   2.200   3.771  1.00  0.00     0.074 A 
ATOM     43  C   UNL     1      -3.596  -0.067   4.067  1.00  0.00     0.049 A 
ATOM     44  N   UNL     1      -2.953   2.539   2.619  1.00  0.00    -0.248 NA
ATOM     45  C   UNL     1      -1.358   3.065   4.139  1.00  0.00     0.031 C 
ATOM     46  C   UNL     1      -4.060  -0.384   2.707  1.00  0.00     0.029 A 
ATOM     47  N   UNL     1      -4.084  -1.172   4.775  1.00  0.00    -0.354 N 
ATOM     48  C   UNL     1      -2.026   3.355   1.960  1.00  0.00     0.074 A 
ATOM     49  C   UNL     1      -1.084   3.704   2.992  1.00  0.00     0.031 C 
ATOM     50  C   UNL     1      -4.841  -1.482   2.697  1.00  0.00     0.029 A 
ATOM     51  C   UNL     1      -5.178  -1.709   4.076  1.00  0.00     0.049 A 
ATOM     52  H   UNL     1      -3.720  -1.516   5.622  1.00  0.00     0.167 HD
ATOM     53  C   UNL     1      -2.100   3.517   0.592  1.00  0.00     0.031 A 
ATOM     54  C   UNL     1      -6.423  -1.399   4.558  1.00  0.00     0.031 A 
ATOM     55  C   UNL     1      -3.335   2.879   0.052  1.00  0.00     0.049 A 
ATOM     56  C   UNL     1      -7.066  -0.254   3.659  1.00  0.00     0.074 A 
ATOM     57  C   UNL     1      -3.699   2.137  -1.059  1.00  0.00     0.029 A 
ATOM     58  N   UNL     1      -4.492   2.893   0.842  1.00  0.00    -0.354 N 
ATOM     59  N   UNL     1      -6.405   0.681   2.986  1.00  0.00    -0.248 NA
ATOM     60  C   UNL     1      -8.470  -0.270   3.235  1.00  0.00     0.031 C 
ATOM     61  C   UNL     1      -4.958   1.510  -0.791  1.00  0.00     0.029 A 
ATOM     62  C   UNL     1      -5.445   1.999   0.417  1.00  0.00     0.049 A 
ATOM     63  H   UNL     1      -4.611   3.483   1.622  1.00  0.00     0.167 HD
ATOM     64  C   UNL     1      -7.201   1.266   2.010  1.00  0.00     0.074 A 
ATOM     65  C   UNL     1      -8.502   0.664   2.260  1.00  0.00     0.031 C 
ATOM     66  C   UNL     1      -6.798   2.087   0.969  1.00  0.00     0.031 A 
BRANCH  53  67
ATOM     67  C   UNL     1      -0.975   4.080  -0.332  1.00  0.00    -0.014 A 
ATOM     68  C   UNL     1      -1.172   4.156  -1.735  1.00  0.00     0.010 A 
ATOM     69  C   UNL     1       0.321   4.474   0.080  1.00  0.00     0.010 A 
ATOM     70  C   UNL     1      -0.156   4.508  -2.656  1.00  0.00     0.020 A 
ATOM     71  C   UNL     1       1.341   4.877  -0.828  1.00  0.00     0.020 A 
ATOM     72  C   UNL     1       1.104   4.868  -2.199  1.00  0.00     0.054 A 
BRANCH  72  73
ATOM     73  S   UNL     1       2.383   5.365  -3.400  1.00  0.00     0.124 S 
ATOM     74  O   UNL     1       2.687   4.109  -4.080  1.00  0.00    -0.237 OA
ATOM     75  O   UNL     1       1.693   6.365  -4.210  1.00  0.00    -0.237 OA
ATOM     76  O   UNL     1       3.461   5.890  -2.563  1.00  0.00    -0.744 OA
ENDBRANCH  72  73
ENDBRANCH  53  67
BRANCH  54  77
ATOM     77  C   UNL     1      -6.424  -1.742   6.056  1.00  0.00    -0.014 A 
ATOM     78  C   UNL     1      -5.992  -3.070   6.404  1.00  0.00     0.010 A 
ATOM     79  C   UNL     1      -6.377  -0.808   7.099  1.00  0.00     0.010 A 
ATOM     80  C   UNL     1      -5.382  -3.396   7.640  1.00  0.00     0.020 A 
ATOM     81  C   UNL     1      -5.818  -1.150   8.374  1.00  0.00     0.020 A 
ATOM     82  C   UNL     1      -5.263  -2.421   8.620  1.00  0.00     0.054 A 
BRANCH  82  83
ATOM     83  S   UNL     1      -4.450  -2.830  10.241  1.00  0.00     0.124 S 
ATOM     84  O   UNL     1      -4.805  -4.231  10.446  1.00  0.00    -0.237 OA
ATOM     85  O   UNL     1      -3.023  -2.590  10.043  1.00  0.00    -0.237 OA
ATOM     86  O   UNL     1      -5.084  -1.884  11.155  1.00  0.00    -0.744 OA
ENDBRANCH  82  83
ENDBRANCH  54  77
BRANCH  66  87
ATOM     87  C   UNL     1      -7.634   3.189   0.284  1.00  0.00    -0.014 A 
ATOM     88  C   UNL     1      -8.986   3.448   0.504  1.00  0.00     0.010 A 
ATOM     89  C   UNL     1      -6.953   4.148  -0.537  1.00  0.00     0.010 A 
ATOM     90  C   UNL     1      -9.605   4.593  -0.037  1.00  0.00     0.020 A 
ATOM     91  C   UNL     1      -7.542   5.302  -1.050  1.00  0.00     0.020 A 
ATOM     92  C   UNL     1      -8.877   5.521  -0.789  1.00  0.00     0.054 A 
BRANCH  92  93
ATOM     93  S   UNL     1      -9.672   7.038  -1.362  1.00  0.00     0.124 S 
ATOM     94  O   UNL     1     -10.657   6.525  -2.310  1.00  0.00    -0.237 OA
ATOM     95  O   UNL     1     -10.216   7.589  -0.124  1.00  0.00    -0.237 OA
ATOM     96  O   UNL     1      -8.582   7.809  -1.955  1.00  0.00    -0.744 OA
ENDBRANCH  92  93
ENDBRANCH  66  87
ENDBRANCH  40  41
ENDBRANCH  33  35
ENDBRANCH  32  33
ENDBRANCH  31  32
ENDBRANCH  30  31
ENDBRANCH  29  30
ENDBRANCH  28  29
ENDBRANCH   1  28
TORSDOF 25
