REMARK SMILES O=C(COc1ccc(Br)cc1/C=C1\C(=O)Nc2ccc(Br)cc21)OCCOCCOCCOCCOC(=O)c1ccc(-c2c3nc(c(-c4ccc(S(=O)(=O)[O-])cc4)c4ccc([nH]4)c(-c4ccc(S(=O)(=O)[O-])cc4)c4nc(c(-c5ccc(S(=O)(=O)[O-])cc5)c5ccc2[nH]5)C=C4)C=C3)cc1
REMARK SMILES IDX 30 1 29 2 28 3 27 4 26 5 25 6 24 7 2 8 1 9 3 10 4 11 5 12
REMARK SMILES IDX 6 13 11 14 7 15 10 16 8 17 9 18 12 19 13 20 14 21 23 22
REMARK SMILES IDX 15 23 16 24 17 25 22 26 18 28 20 29 19 30 21 31 31 32 32 33
REMARK SMILES IDX 33 34 34 35 35 36 36 37 37 38 38 39 39 40 40 41 98 42 41 43
REMARK SMILES IDX 97 44 42 45 43 46 44 47 91 48 45 49 96 50 90 51 92 52 46 53
REMARK SMILES IDX 95 54 89 55 88 56 47 58 77 59 58 60 76 61 59 62 62 63 75 64
REMARK SMILES IDX 93 65 60 66 61 67 74 69 94 70 63 71 48 72 49 73 57 74 50 75
REMARK SMILES IDX 56 76 51 77 52 78 53 79 54 80 55 81 78 82 79 83 87 84 80 85
REMARK SMILES IDX 86 86 81 87 82 88 83 89 84 90 85 91 64 92 65 93 73 94 66 95
REMARK SMILES IDX 72 96 67 97 68 98 69 99 70 100 71 101
REMARK H PARENT 16 27 92 57 62 68
REMARK Flexibility Score: inf
ROOT
ATOM      1  O   UNL     1       2.776  -2.505   2.370  1.00  0.00    -0.377 OA
ENDROOT
BRANCH   1   2
ATOM      2  C   UNL     1       2.260  -1.669   1.334  1.00  0.00     0.188 C 
BRANCH   2   3
ATOM      3  C   UNL     1       2.939  -1.893  -0.024  1.00  0.00     0.188 C 
BRANCH   3   4
ATOM      4  O   UNL     1       4.332  -1.617  -0.022  1.00  0.00    -0.376 OA
BRANCH   4   5
ATOM      5  C   UNL     1       4.863  -0.316  -0.200  1.00  0.00     0.202 C 
BRANCH   5   6
ATOM      6  C   UNL     1       4.104   0.909   0.307  1.00  0.00     0.261 C 
BRANCH   6   7
ATOM      7  O   UNL     1       2.717   1.016  -0.079  1.00  0.00    -0.461 OA
BRANCH   7   8
ATOM      8  C   UNL     1       2.215   0.942  -1.331  1.00  0.00     0.344 C 
ATOM      9  O   UNL     1       0.999   0.854  -1.494  1.00  0.00    -0.248 OA
BRANCH   8  10
ATOM     10  C   UNL     1       3.178   0.905  -2.511  1.00  0.00     0.351 C 
BRANCH  10  11
ATOM     11  O   UNL     1       4.238   1.872  -2.512  1.00  0.00    -0.481 OA
BRANCH  11  12
ATOM     12  C   UNL     1       3.708   3.065  -2.962  1.00  0.00     0.127 A 
ATOM     13  C   UNL     1       2.876   3.766  -2.068  1.00  0.00     0.048 A 
ATOM     14  C   UNL     1       3.840   3.427  -4.317  1.00  0.00     0.018 A 
ATOM     15  C   UNL     1       1.978   4.702  -2.551  1.00  0.00     0.019 A 
ATOM     16  C   UNL     1       2.891   4.353  -4.765  1.00  0.00     0.027 A 
ATOM     17  C   UNL     1       1.959   4.955  -3.910  1.00  0.00     0.018 A 
ATOM     18  Br  UNL     1       0.637   6.100  -4.632  1.00  0.00    -0.051 Br
BRANCH  14  19
ATOM     19  C   UNL     1       4.877   2.784  -5.187  1.00  0.00     0.026 C 
ATOM     20  C   UNL     1       5.086   2.850  -6.520  1.00  0.00     0.050 C 
ATOM     21  C   UNL     1       4.247   3.555  -7.549  1.00  0.00     0.256 C 
ATOM     22  C   UNL     1       5.876   1.871  -7.294  1.00  0.00     0.012 A 
ATOM     23  O   UNL     1       3.857   4.704  -7.575  1.00  0.00    -0.269 OA
ATOM     24  N   UNL     1       4.147   2.649  -8.587  1.00  0.00    -0.321 N 
ATOM     25  C   UNL     1       5.137   1.681  -8.473  1.00  0.00     0.049 A 
ATOM     26  C   UNL     1       7.118   1.274  -7.167  1.00  0.00     0.026 A 
ATOM     27  H   UNL     1       3.473   2.684  -9.303  1.00  0.00     0.170 HD
ATOM     28  C   UNL     1       5.484   0.781  -9.456  1.00  0.00     0.028 A 
ATOM     29  C   UNL     1       7.538   0.430  -8.209  1.00  0.00     0.018 A 
ATOM     30  C   UNL     1       6.711   0.141  -9.313  1.00  0.00     0.018 A 
ATOM     31  Br  UNL     1       9.296  -0.276  -8.197  1.00  0.00    -0.051 Br
ENDBRANCH  14  19
ENDBRANCH  11  12
ENDBRANCH  10  11
ENDBRANCH   8  10
ENDBRANCH   7   8
ENDBRANCH   6   7
ENDBRANCH   5   6
ENDBRANCH   4   5
ENDBRANCH   3   4
ENDBRANCH   2   3
ENDBRANCH   1   2
BRANCH   1  32
ATOM     32  C   UNL     1       4.134  -2.255   2.701  1.00  0.00     0.188 C 
BRANCH  32  33
ATOM     33  C   UNL     1       5.174  -3.264   2.158  1.00  0.00     0.188 C 
BRANCH  33  34
ATOM     34  O   UNL     1       4.821  -4.388   1.360  1.00  0.00    -0.376 OA
BRANCH  34  35
ATOM     35  C   UNL     1       3.595  -5.072   1.556  1.00  0.00     0.202 C 
BRANCH  35  36
ATOM     36  C   UNL     1       3.309  -5.750   2.898  1.00  0.00     0.261 C 
BRANCH  36  37
ATOM     37  O   UNL     1       3.540  -4.922   4.039  1.00  0.00    -0.460 OA
BRANCH  37  38
ATOM     38  C   UNL     1       4.709  -5.154   4.689  1.00  0.00     0.338 C 
ATOM     39  O   UNL     1       5.534  -6.004   4.438  1.00  0.00    -0.246 OA
BRANCH  38  40
ATOM     40  C   UNL     1       4.929  -4.053   5.655  1.00  0.00     0.060 A 
ATOM     41  C   UNL     1       3.894  -3.563   6.454  1.00  0.00     0.016 A 
ATOM     42  C   UNL     1       6.210  -3.486   5.723  1.00  0.00     0.016 A 
ATOM     43  C   UNL     1       4.157  -2.537   7.362  1.00  0.00     0.010 A 
ATOM     44  C   UNL     1       6.470  -2.451   6.619  1.00  0.00     0.010 A 
ATOM     45  C   UNL     1       5.454  -2.001   7.472  1.00  0.00    -0.014 A 
BRANCH  45  46
ATOM     46  C   UNL     1       5.800  -1.182   8.654  1.00  0.00     0.031 A 
ATOM     47  C   UNL     1       5.879   0.309   8.607  1.00  0.00     0.074 A 
ATOM     48  C   UNL     1       6.046  -1.850   9.798  1.00  0.00     0.049 A 
ATOM     49  N   UNL     1       6.017   1.143   9.604  1.00  0.00    -0.248 NA
ATOM     50  C   UNL     1       5.803   0.951   7.287  1.00  0.00     0.031 C 
ATOM     51  C   UNL     1       6.030  -3.311   9.927  1.00  0.00     0.029 A 
ATOM     52  N   UNL     1       6.327  -1.406  11.062  1.00  0.00    -0.354 N 
ATOM     53  C   UNL     1       6.019   2.412   9.043  1.00  0.00     0.074 A 
ATOM     54  C   UNL     1       5.915   2.236   7.609  1.00  0.00     0.031 C 
ATOM     55  C   UNL     1       6.238  -3.639  11.209  1.00  0.00     0.029 A 
ATOM     56  C   UNL     1       6.423  -2.419  11.987  1.00  0.00     0.049 A 
ATOM     57  H   UNL     1       6.449  -0.455  11.287  1.00  0.00     0.167 HD
ATOM     58  C   UNL     1       6.085   3.605   9.680  1.00  0.00     0.031 A 
ATOM     59  C   UNL     1       6.604  -2.377  13.320  1.00  0.00     0.031 A 
ATOM     60  C   UNL     1       6.208   3.748  11.111  1.00  0.00     0.049 A 
ATOM     61  C   UNL     1       6.682  -1.040  13.996  1.00  0.00     0.074 A 
ATOM     62  C   UNL     1       6.229   4.917  11.854  1.00  0.00     0.029 A 
ATOM     63  N   UNL     1       6.340   2.702  12.012  1.00  0.00    -0.354 N 
ATOM     64  N   UNL     1       6.583   0.154  13.463  1.00  0.00    -0.248 NA
ATOM     65  C   UNL     1       6.870  -1.040  15.452  1.00  0.00     0.031 C 
ATOM     66  C   UNL     1       6.445   4.580  13.192  1.00  0.00     0.029 A 
ATOM     67  C   UNL     1       6.478   3.199  13.298  1.00  0.00     0.049 A 
ATOM     68  H   UNL     1       6.337   1.747  11.773  1.00  0.00     0.167 HD
ATOM     69  C   UNL     1       6.670   1.049  14.522  1.00  0.00     0.074 A 
ATOM     70  C   UNL     1       6.816   0.257  15.727  1.00  0.00     0.031 C 
ATOM     71  C   UNL     1       6.627   2.403  14.493  1.00  0.00     0.031 A 
BRANCH  58  72
ATOM     72  C   UNL     1       6.001   4.870   8.863  1.00  0.00    -0.014 A 
ATOM     73  C   UNL     1       7.099   5.749   8.814  1.00  0.00     0.010 A 
ATOM     74  C   UNL     1       4.781   5.269   8.287  1.00  0.00     0.010 A 
ATOM     75  C   UNL     1       6.969   7.018   8.241  1.00  0.00     0.020 A 
ATOM     76  C   UNL     1       4.654   6.527   7.691  1.00  0.00     0.020 A 
ATOM     77  C   UNL     1       5.742   7.404   7.696  1.00  0.00     0.054 A 
BRANCH  77  78
ATOM     78  S   UNL     1       5.577   9.073   7.005  1.00  0.00     0.124 S 
ATOM     79  O   UNL     1       5.524   9.902   8.205  1.00  0.00    -0.237 OA
ATOM     80  O   UNL     1       6.788   9.204   6.197  1.00  0.00    -0.237 OA
ATOM     81  O   UNL     1       4.335   9.003   6.237  1.00  0.00    -0.744 OA
ENDBRANCH  77  78
ENDBRANCH  58  72
BRANCH  59  82
ATOM     82  C   UNL     1       6.621  -3.652  14.085  1.00  0.00    -0.014 A 
ATOM     83  C   UNL     1       7.676  -4.569  13.924  1.00  0.00     0.010 A 
ATOM     84  C   UNL     1       5.527  -4.002  14.896  1.00  0.00     0.010 A 
ATOM     85  C   UNL     1       7.614  -5.831  14.518  1.00  0.00     0.020 A 
ATOM     86  C   UNL     1       5.476  -5.253  15.517  1.00  0.00     0.020 A 
ATOM     87  C   UNL     1       6.508  -6.169  15.301  1.00  0.00     0.054 A 
BRANCH  87  88
ATOM     88  S   UNL     1       6.427  -7.830  16.026  1.00  0.00     0.124 S 
ATOM     89  O   UNL     1       6.065  -8.644  14.870  1.00  0.00    -0.237 OA
ATOM     90  O   UNL     1       7.784  -8.023  16.532  1.00  0.00    -0.237 OA
ATOM     91  O   UNL     1       5.395  -7.705  17.052  1.00  0.00    -0.744 OA
ENDBRANCH  87  88
ENDBRANCH  59  82
BRANCH  71  92
ATOM     92  C   UNL     1       6.736   3.142  15.801  1.00  0.00    -0.014 A 
ATOM     93  C   UNL     1       5.636   3.882  16.275  1.00  0.00     0.010 A 
ATOM     94  C   UNL     1       7.956   3.208  16.496  1.00  0.00     0.010 A 
ATOM     95  C   UNL     1       5.763   4.703  17.398  1.00  0.00     0.020 A 
ATOM     96  C   UNL     1       8.079   4.005  17.638  1.00  0.00     0.020 A 
ATOM     97  C   UNL     1       6.989   4.768  18.065  1.00  0.00     0.054 A 
BRANCH  97  98
ATOM     98  S   UNL     1       7.146   5.864  19.502  1.00  0.00     0.124 S 
ATOM     99  O   UNL     1       7.268   7.176  18.874  1.00  0.00    -0.237 OA
ATOM    100  O   UNL     1       5.901   5.626  20.227  1.00  0.00    -0.237 OA
ATOM    101  O   UNL     1       8.350   5.378  20.172  1.00  0.00    -0.744 OA
ENDBRANCH  97  98
ENDBRANCH  71  92
ENDBRANCH  45  46
ENDBRANCH  38  40
ENDBRANCH  37  38
ENDBRANCH  36  37
ENDBRANCH  35  36
ENDBRANCH  34  35
ENDBRANCH  33  34
ENDBRANCH  32  33
ENDBRANCH   1  32
TORSDOF 26
