REMARK SMILES O=C(OCCOCCOCCOCCOC(=O)[C@H]1CC[C@H]2CCCC[C@@H]2[N@H+]1C[C@@H]1CCCCO1)c1ccc(-c2c3nc(c(-c4ccc(S(=O)(=O)[O-])cc4)c4ccc([nH]4)c(-c4ccc(S(=O)(=O)[O-])cc4)c4nc(c(-c5ccc(S(=O)(=O)[O-])cc5)c5ccc2[nH]5)C=C4)C=C3)cc1
REMARK SMILES IDX 8 1 7 2 6 3 5 4 4 5 3 6 2 7 1 8 35 9 36 10 94 11 37 12 93 13
REMARK SMILES IDX 38 14 39 15 40 16 87 17 41 18 92 19 86 20 88 21 42 22 91 23
REMARK SMILES IDX 85 24 84 25 43 27 73 28 54 29 72 30 55 31 58 32 71 33 89 34
REMARK SMILES IDX 56 35 57 36 70 38 90 39 59 40 44 41 45 42 53 43 46 44 52 45
REMARK SMILES IDX 47 46 48 47 49 48 50 49 51 50 74 51 75 52 83 53 76 54 82 55
REMARK SMILES IDX 77 56 78 57 79 58 80 59 81 60 60 61 61 62 69 63 62 64 68 65
REMARK SMILES IDX 63 66 64 67 65 68 66 69 67 70 9 71 10 72 11 73 12 74 13 75
REMARK SMILES IDX 14 76 15 77 16 78 17 79 18 80 19 81 27 82 20 83 26 84 21 86
REMARK SMILES IDX 25 87 22 88 24 89 23 90 28 91 29 92 30 93 34 94 31 95 33 96
REMARK SMILES IDX 32 97
REMARK H PARENT 88 26 58 37 27 85
REMARK Flexibility Score: inf
ROOT
ATOM      1  C   UNL     1       2.397  -2.822  -0.067  1.00  0.00     0.188 C 
ENDROOT
BRANCH   1   2
ATOM      2  C   UNL     1       2.411  -1.369   0.401  1.00  0.00     0.188 C 
BRANCH   2   3
ATOM      3  O   UNL     1       3.741  -0.888   0.502  1.00  0.00    -0.376 OA
BRANCH   3   4
ATOM      4  C   UNL     1       4.126  -0.303   1.732  1.00  0.00     0.202 C 
BRANCH   4   5
ATOM      5  C   UNL     1       4.164   1.220   1.645  1.00  0.00     0.261 C 
BRANCH   5   6
ATOM      6  O   UNL     1       2.868   1.734   1.301  1.00  0.00    -0.460 OA
BRANCH   6   7
ATOM      7  C   UNL     1       2.294   1.808   0.077  1.00  0.00     0.338 C 
ATOM      8  O   UNL     1       1.074   1.967   0.025  1.00  0.00    -0.246 OA
BRANCH   7   9
ATOM      9  C   UNL     1       3.038   1.745  -1.225  1.00  0.00     0.060 A 
ATOM     10  C   UNL     1       4.241   1.072  -1.468  1.00  0.00     0.016 A 
ATOM     11  C   UNL     1       2.402   2.357  -2.321  1.00  0.00     0.016 A 
ATOM     12  C   UNL     1       4.795   0.995  -2.740  1.00  0.00     0.010 A 
ATOM     13  C   UNL     1       2.962   2.311  -3.599  1.00  0.00     0.010 A 
ATOM     14  C   UNL     1       4.173   1.641  -3.800  1.00  0.00    -0.014 A 
BRANCH  14  15
ATOM     15  C   UNL     1       4.939   1.812  -5.042  1.00  0.00     0.031 A 
ATOM     16  C   UNL     1       5.696   3.095  -5.199  1.00  0.00     0.074 A 
ATOM     17  C   UNL     1       5.029   0.815  -5.936  1.00  0.00     0.049 A 
ATOM     18  N   UNL     1       6.380   3.535  -6.216  1.00  0.00    -0.248 NA
ATOM     19  C   UNL     1       5.682   4.005  -4.037  1.00  0.00     0.031 C 
ATOM     20  C   UNL     1       4.433  -0.514  -5.784  1.00  0.00     0.029 A 
ATOM     21  N   UNL     1       5.665   0.764  -7.146  1.00  0.00    -0.354 N 
ATOM     22  C   UNL     1       6.846   4.787  -5.833  1.00  0.00     0.074 A 
ATOM     23  C   UNL     1       6.370   5.038  -4.494  1.00  0.00     0.031 C 
ATOM     24  C   UNL     1       4.718  -1.245  -6.875  1.00  0.00     0.029 A 
ATOM     25  C   UNL     1       5.461  -0.417  -7.820  1.00  0.00     0.049 A 
ATOM     26  H   UNL     1       6.215   1.500  -7.500  1.00  0.00     0.167 HD
ATOM     27  C   UNL     1       7.591   5.655  -6.554  1.00  0.00     0.031 A 
ATOM     28  C   UNL     1       5.798  -0.756  -9.079  1.00  0.00     0.031 A 
ATOM     29  C   UNL     1       8.015   5.379  -7.898  1.00  0.00     0.049 A 
ATOM     30  C   UNL     1       6.541   0.262  -9.905  1.00  0.00     0.074 A 
ATOM     31  C   UNL     1       8.727   6.184  -8.763  1.00  0.00     0.029 A 
ATOM     32  N   UNL     1       7.745   4.193  -8.573  1.00  0.00    -0.354 N 
ATOM     33  N   UNL     1       6.942   1.466  -9.560  1.00  0.00    -0.248 NA
ATOM     34  C   UNL     1       6.873  -0.112 -11.284  1.00  0.00     0.031 C 
ATOM     35  C   UNL     1       8.833   5.510  -9.984  1.00  0.00     0.029 A 
ATOM     36  C   UNL     1       8.253   4.254  -9.855  1.00  0.00     0.049 A 
ATOM     37  H   UNL     1       7.263   3.424  -8.192  1.00  0.00     0.167 HD
ATOM     38  C   UNL     1       7.590   1.987 -10.673  1.00  0.00     0.074 A 
ATOM     39  C   UNL     1       7.538   0.960 -11.697  1.00  0.00     0.031 C 
ATOM     40  C   UNL     1       8.175   3.200 -10.840  1.00  0.00     0.031 A 
BRANCH  27  41
ATOM     41  C   UNL     1       7.875   6.994  -5.928  1.00  0.00    -0.014 A 
ATOM     42  C   UNL     1       8.719   7.128  -4.810  1.00  0.00     0.010 A 
ATOM     43  C   UNL     1       7.227   8.135  -6.434  1.00  0.00     0.010 A 
ATOM     44  C   UNL     1       8.858   8.365  -4.172  1.00  0.00     0.020 A 
ATOM     45  C   UNL     1       7.388   9.380  -5.819  1.00  0.00     0.020 A 
ATOM     46  C   UNL     1       8.182   9.481  -4.676  1.00  0.00     0.054 A 
BRANCH  46  47
ATOM     47  S   UNL     1       8.357  11.066  -3.812  1.00  0.00     0.124 S 
ATOM     48  O   UNL     1       7.576  10.836  -2.600  1.00  0.00    -0.237 OA
ATOM     49  O   UNL     1       9.798  11.171  -3.622  1.00  0.00    -0.237 OA
ATOM     50  O   UNL     1       7.781  12.035  -4.747  1.00  0.00    -0.744 OA
ENDBRANCH  46  47
ENDBRANCH  27  41
BRANCH  28  51
ATOM     51  C   UNL     1       5.368  -2.070  -9.635  1.00  0.00    -0.014 A 
ATOM     52  C   UNL     1       6.298  -3.073  -9.955  1.00  0.00     0.010 A 
ATOM     53  C   UNL     1       3.995  -2.338  -9.813  1.00  0.00     0.010 A 
ATOM     54  C   UNL     1       5.866  -4.314 -10.440  1.00  0.00     0.020 A 
ATOM     55  C   UNL     1       3.558  -3.584 -10.268  1.00  0.00     0.020 A 
ATOM     56  C   UNL     1       4.497  -4.564 -10.586  1.00  0.00     0.054 A 
BRANCH  56  57
ATOM     57  S   UNL     1       3.956  -6.202 -11.152  1.00  0.00     0.124 S 
ATOM     58  O   UNL     1       4.357  -6.188 -12.555  1.00  0.00    -0.237 OA
ATOM     59  O   UNL     1       4.714  -7.101 -10.286  1.00  0.00    -0.237 OA
ATOM     60  O   UNL     1       2.514  -6.188 -10.913  1.00  0.00    -0.744 OA
ENDBRANCH  56  57
ENDBRANCH  28  51
BRANCH  40  61
ATOM     61  C   UNL     1       8.838   3.469 -12.163  1.00  0.00    -0.014 A 
ATOM     62  C   UNL     1       8.081   3.724 -13.319  1.00  0.00     0.010 A 
ATOM     63  C   UNL     1      10.240   3.568 -12.217  1.00  0.00     0.010 A 
ATOM     64  C   UNL     1       8.720   4.061 -14.513  1.00  0.00     0.020 A 
ATOM     65  C   UNL     1      10.880   3.936 -13.400  1.00  0.00     0.020 A 
ATOM     66  C   UNL     1      10.115   4.172 -14.544  1.00  0.00     0.054 A 
BRANCH  66  67
ATOM     67  S   UNL     1      10.915   4.689 -16.086  1.00  0.00     0.124 S 
ATOM     68  O   UNL     1      10.760   3.499 -16.921  1.00  0.00    -0.237 OA
ATOM     69  O   UNL     1      10.116   5.846 -16.487  1.00  0.00    -0.237 OA
ATOM     70  O   UNL     1      12.283   4.993 -15.683  1.00  0.00    -0.744 OA
ENDBRANCH  66  67
ENDBRANCH  40  61
ENDBRANCH  14  15
ENDBRANCH   7   9
ENDBRANCH   6   7
ENDBRANCH   5   6
ENDBRANCH   4   5
ENDBRANCH   3   4
ENDBRANCH   2   3
ENDBRANCH   1   2
BRANCH   1  71
ATOM     71  O   UNL     1       3.652  -3.501  -0.046  1.00  0.00    -0.377 OA
BRANCH  71  72
ATOM     72  C   UNL     1       4.707  -2.971  -0.854  1.00  0.00     0.188 C 
BRANCH  72  73
ATOM     73  C   UNL     1       5.448  -4.095  -1.585  1.00  0.00     0.188 C 
BRANCH  73  74
ATOM     74  O   UNL     1       4.853  -4.554  -2.796  1.00  0.00    -0.376 OA
BRANCH  74  75
ATOM     75  C   UNL     1       3.441  -4.721  -2.807  1.00  0.00     0.202 C 
BRANCH  75  76
ATOM     76  C   UNL     1       2.872  -5.921  -2.027  1.00  0.00     0.261 C 
BRANCH  76  77
ATOM     77  O   UNL     1       3.189  -5.948  -0.615  1.00  0.00    -0.459 OA
BRANCH  77  78
ATOM     78  C   UNL     1       4.094  -6.877  -0.220  1.00  0.00     0.364 C 
ATOM     79  O   UNL     1       4.593  -7.699  -0.990  1.00  0.00    -0.245 OA
BRANCH  78  80
ATOM     80  C   UNL     1       4.538  -6.820   1.259  1.00  0.00     0.295 C 
ATOM     81  C   UNL     1       5.527  -5.736   1.692  1.00  0.00     0.078 C 
ATOM     82  N   UNL     1       3.516  -7.069   2.303  1.00  0.00    -0.318 N 
ATOM     83  C   UNL     1       5.878  -5.865   3.191  1.00  0.00     0.016 C 
ATOM     84  C   UNL     1       4.138  -7.665   3.500  1.00  0.00     0.187 C 
ATOM     85  H   UNL     1       2.888  -7.759   1.891  1.00  0.00     0.349 HD
ATOM     86  C   UNL     1       5.634  -7.277   3.682  1.00  0.00     0.048 C 
ATOM     87  C   UNL     1       4.156  -9.210   3.470  1.00  0.00     0.065 C 
ATOM     88  C   UNL     1       6.020  -7.583   5.126  1.00  0.00     0.010 C 
ATOM     89  C   UNL     1       4.695  -9.767   4.801  1.00  0.00     0.006 C 
ATOM     90  C   UNL     1       5.978  -9.098   5.329  1.00  0.00     0.001 C 
BRANCH  82  91
ATOM     91  C   UNL     1       2.512  -6.003   2.571  1.00  0.00     0.295 C 
BRANCH  91  92
ATOM     92  C   UNL     1       2.478  -4.723   3.537  1.00  0.00     0.173 C 
ATOM     93  C   UNL     1       3.226  -3.425   3.233  1.00  0.00     0.038 C 
ATOM     94  O   UNL     1       2.318  -4.949   4.934  1.00  0.00    -0.372 OA
ATOM     95  C   UNL     1       4.376  -2.997   4.125  1.00  0.00     0.005 C 
ATOM     96  C   UNL     1       3.441  -4.754   5.769  1.00  0.00     0.161 C 
ATOM     97  C   UNL     1       4.315  -3.530   5.538  1.00  0.00     0.029 C 
ENDBRANCH  91  92
ENDBRANCH  82  91
ENDBRANCH  78  80
ENDBRANCH  77  78
ENDBRANCH  76  77
ENDBRANCH  75  76
ENDBRANCH  74  75
ENDBRANCH  73  74
ENDBRANCH  72  73
ENDBRANCH  71  72
ENDBRANCH   1  71
TORSDOF 25
