REMARK SMILES CN(C)C(=O)c1cccc(N2CCC3(CC2)[C@H](C(=O)OCCOCCOCCOCCOC(=O)c2ccc(-c4c5nc(c(-c6ccc(S(=O)(=O)[O-])cc6)c6ccc([nH]6)c(-c6ccc(S(=O)(=O)[O-])cc6)c6nc(c(-c7ccc(S(=O)(=O)[O-])cc7)c7ccc4[nH]7)C=C6)C=C5)cc2)CC(=O)N3C)n1
REMARK SMILES IDX 27 1 26 2 25 3 24 4 23 5 22 6 21 7 20 8 18 9 19 10 17 11
REMARK SMILES IDX 11 12 12 13 16 14 13 15 15 16 14 17 98 18 95 19 96 20 99 21
REMARK SMILES IDX 97 22 10 23 6 24 7 25 100 26 8 27 9 28 4 29 1 30 2 31 3 32
REMARK SMILES IDX 5 33 28 34 29 35 30 36 31 37 32 38 33 39 34 40 35 41 36 42
REMARK SMILES IDX 94 43 37 44 93 45 38 46 39 47 40 48 87 49 41 50 92 51 86 52
REMARK SMILES IDX 88 53 42 54 91 55 85 56 84 57 43 59 73 60 54 61 72 62 55 63
REMARK SMILES IDX 58 64 71 65 89 66 56 67 57 68 70 70 90 71 59 72 44 73 45 74
REMARK SMILES IDX 53 75 46 76 52 77 47 78 48 79 49 80 50 81 51 82 74 83 75 84
REMARK SMILES IDX 83 85 76 86 82 87 77 88 78 89 79 90 80 91 81 92 60 93 61 94
REMARK SMILES IDX 69 95 62 96 68 97 63 98 64 99 65 100 66 101 67 102
REMARK H PARENT 88 58 58 69
REMARK Flexibility Score: inf
ROOT
ATOM      1  C   UNL     1       2.465   8.169   2.610  1.00  0.00     0.188 C 
ENDROOT
BRANCH   1   2
ATOM      2  O   UNL     1       2.296   8.787   3.877  1.00  0.00    -0.377 OA
BRANCH   2   3
ATOM      3  C   UNL     1       1.082   9.407   4.249  1.00  0.00     0.188 C 
BRANCH   3   4
ATOM      4  C   UNL     1       1.374  10.676   5.052  1.00  0.00     0.188 C 
BRANCH   4   5
ATOM      5  O   UNL     1       2.222  11.640   4.429  1.00  0.00    -0.376 OA
BRANCH   5   6
ATOM      6  C   UNL     1       3.497  11.216   3.940  1.00  0.00     0.202 C 
BRANCH   6   7
ATOM      7  C   UNL     1       4.525  10.618   4.929  1.00  0.00     0.261 C 
BRANCH   7   8
ATOM      8  O   UNL     1       4.178   9.351   5.559  1.00  0.00    -0.463 OA
BRANCH   8   9
ATOM      9  C   UNL     1       3.859   9.436   6.864  1.00  0.00     0.311 C 
ATOM     10  O   UNL     1       3.836  10.510   7.471  1.00  0.00    -0.252 OA
BRANCH   9  11
ATOM     11  C   UNL     1       3.372   8.182   7.588  1.00  0.00     0.134 C 
ATOM     12  N   UNL     1       1.697   4.745   5.622  1.00  0.00    -0.356 N 
ATOM     13  C   UNL     1       3.066   4.981   5.167  1.00  0.00     0.120 C 
ATOM     14  C   UNL     1       1.531   4.747   7.072  1.00  0.00     0.120 C 
ATOM     15  C   UNL     1       3.521   6.374   5.660  1.00  0.00     0.051 C 
ATOM     16  C   UNL     1       1.948   6.110   7.625  1.00  0.00     0.051 C 
ATOM     17  C   UNL     1       3.344   6.658   7.161  1.00  0.00     0.060 C 
ATOM     18  N   UNL     1       4.429   6.087   7.985  1.00  0.00    -0.339 N 
ATOM     19  C   UNL     1       4.105   8.192   8.942  1.00  0.00     0.118 C 
ATOM     20  C   UNL     1       4.939   6.958   8.931  1.00  0.00     0.223 C 
ATOM     21  C   UNL     1       4.989   4.756   7.854  1.00  0.00     0.147 C 
ATOM     22  O   UNL     1       5.868   6.747   9.693  1.00  0.00    -0.275 OA
BRANCH  12  23
ATOM     23  C   UNL     1       0.853   3.943   4.853  1.00  0.00     0.129 A 
ATOM     24  C   UNL     1       0.471   2.345   3.182  1.00  0.00     0.130 A 
ATOM     25  C   UNL     1      -0.910   2.463   3.278  1.00  0.00     0.034 A 
ATOM     26  N   UNL     1       1.349   3.074   3.942  1.00  0.00    -0.226 NA
ATOM     27  C   UNL     1      -1.418   3.384   4.180  1.00  0.00     0.006 A 
ATOM     28  C   UNL     1      -0.533   4.114   4.974  1.00  0.00     0.047 A 
BRANCH  24  29
ATOM     29  C   UNL     1       1.049   1.285   2.288  1.00  0.00     0.272 C 
ATOM     30  C   UNL     1       1.078   0.012   0.201  1.00  0.00     0.146 C 
ATOM     31  N   UNL     1       0.636   1.180   0.946  1.00  0.00    -0.343 N 
ATOM     32  C   UNL     1      -0.071   2.202   0.193  1.00  0.00     0.146 C 
ATOM     33  O   UNL     1       1.833   0.476   2.785  1.00  0.00    -0.267 OA
ENDBRANCH  24  29
ENDBRANCH  12  23
ENDBRANCH   9  11
ENDBRANCH   8   9
ENDBRANCH   7   8
ENDBRANCH   6   7
ENDBRANCH   5   6
ENDBRANCH   4   5
ENDBRANCH   3   4
ENDBRANCH   2   3
ENDBRANCH   1   2
BRANCH   1  34
ATOM     34  C   UNL     1       1.454   8.524   1.523  1.00  0.00     0.188 C 
BRANCH  34  35
ATOM     35  O   UNL     1       0.110   8.096   1.763  1.00  0.00    -0.376 OA
BRANCH  35  36
ATOM     36  C   UNL     1      -0.063   6.832   2.399  1.00  0.00     0.202 C 
BRANCH  36  37
ATOM     37  C   UNL     1       0.204   5.644   1.490  1.00  0.00     0.261 C 
BRANCH  37  38
ATOM     38  O   UNL     1       1.602   5.454   1.233  1.00  0.00    -0.460 OA
BRANCH  38  39
ATOM     39  C   UNL     1       1.980   5.661  -0.048  1.00  0.00     0.338 C 
ATOM     40  O   UNL     1       1.266   5.961  -0.987  1.00  0.00    -0.246 OA
BRANCH  39  41
ATOM     41  C   UNL     1       3.447   5.623  -0.141  1.00  0.00     0.060 A 
ATOM     42  C   UNL     1       4.089   6.730  -0.709  1.00  0.00     0.016 A 
ATOM     43  C   UNL     1       4.161   4.473   0.202  1.00  0.00     0.016 A 
ATOM     44  C   UNL     1       5.445   6.664  -1.007  1.00  0.00     0.010 A 
ATOM     45  C   UNL     1       5.520   4.404  -0.110  1.00  0.00     0.010 A 
ATOM     46  C   UNL     1       6.150   5.479  -0.762  1.00  0.00    -0.014 A 
BRANCH  46  47
ATOM     47  C   UNL     1       7.486   5.304  -1.372  1.00  0.00     0.031 A 
ATOM     48  C   UNL     1       7.588   4.527  -2.657  1.00  0.00     0.074 A 
ATOM     49  C   UNL     1       8.571   5.862  -0.809  1.00  0.00     0.049 A 
ATOM     50  N   UNL     1       8.649   4.221  -3.355  1.00  0.00    -0.248 NA
ATOM     51  C   UNL     1       6.326   4.027  -3.233  1.00  0.00     0.031 C 
ATOM     52  C   UNL     1       8.568   6.672   0.410  1.00  0.00     0.029 A 
ATOM     53  N   UNL     1       9.888   5.825  -1.186  1.00  0.00    -0.354 N 
ATOM     54  C   UNL     1       8.188   3.478  -4.437  1.00  0.00     0.074 A 
ATOM     55  C   UNL     1       6.754   3.365  -4.299  1.00  0.00     0.031 C 
ATOM     56  C   UNL     1       9.830   7.041   0.690  1.00  0.00     0.029 A 
ATOM     57  C   UNL     1      10.729   6.464  -0.307  1.00  0.00     0.049 A 
ATOM     58  H   UNL     1      10.201   5.384  -2.009  1.00  0.00     0.167 HD
ATOM     59  C   UNL     1       8.902   2.939  -5.451  1.00  0.00     0.031 A 
ATOM     60  C   UNL     1      12.074   6.542  -0.295  1.00  0.00     0.031 A 
ATOM     61  C   UNL     1      10.329   3.063  -5.574  1.00  0.00     0.049 A 
ATOM     62  C   UNL     1      12.847   5.885  -1.410  1.00  0.00     0.074 A 
ATOM     63  C   UNL     1      11.149   2.585  -6.580  1.00  0.00     0.029 A 
ATOM     64  N   UNL     1      11.148   3.703  -4.656  1.00  0.00    -0.354 N 
ATOM     65  N   UNL     1      12.394   5.223  -2.449  1.00  0.00    -0.248 NA
ATOM     66  C   UNL     1      14.311   5.993  -1.357  1.00  0.00     0.031 C 
ATOM     67  C   UNL     1      12.472   2.878  -6.236  1.00  0.00     0.029 A 
ATOM     68  C   UNL     1      12.469   3.603  -5.054  1.00  0.00     0.049 A 
ATOM     69  H   UNL     1      10.836   4.161  -3.842  1.00  0.00     0.167 HD
ATOM     70  C   UNL     1      13.516   4.863  -3.188  1.00  0.00     0.074 A 
ATOM     71  C   UNL     1      14.665   5.397  -2.487  1.00  0.00     0.031 C 
ATOM     72  C   UNL     1      13.593   4.154  -4.341  1.00  0.00     0.031 A 
BRANCH  59  73
ATOM     73  C   UNL     1       8.168   2.133  -6.490  1.00  0.00    -0.014 A 
ATOM     74  C   UNL     1       7.344   2.747  -7.450  1.00  0.00     0.010 A 
ATOM     75  C   UNL     1       8.379   0.743  -6.558  1.00  0.00     0.010 A 
ATOM     76  C   UNL     1       6.737   1.984  -8.452  1.00  0.00     0.020 A 
ATOM     77  C   UNL     1       7.795  -0.019  -7.573  1.00  0.00     0.020 A 
ATOM     78  C   UNL     1       6.973   0.606  -8.511  1.00  0.00     0.054 A 
BRANCH  78  79
ATOM     79  S   UNL     1       6.232  -0.346  -9.867  1.00  0.00     0.124 S 
ATOM     80  O   UNL     1       4.816  -0.333  -9.506  1.00  0.00    -0.237 OA
ATOM     81  O   UNL     1       6.587   0.445 -11.042  1.00  0.00    -0.237 OA
ATOM     82  O   UNL     1       6.884  -1.649  -9.774  1.00  0.00    -0.744 OA
ENDBRANCH  78  79
ENDBRANCH  59  73
BRANCH  60  83
ATOM     83  C   UNL     1      12.777   7.226   0.826  1.00  0.00    -0.014 A 
ATOM     84  C   UNL     1      13.522   8.398   0.609  1.00  0.00     0.010 A 
ATOM     85  C   UNL     1      12.728   6.680   2.123  1.00  0.00     0.010 A 
ATOM     86  C   UNL     1      14.236   8.988   1.657  1.00  0.00     0.020 A 
ATOM     87  C   UNL     1      13.411   7.286   3.180  1.00  0.00     0.020 A 
ATOM     88  C   UNL     1      14.179   8.425   2.935  1.00  0.00     0.054 A 
BRANCH  88  89
ATOM     89  S   UNL     1      15.107   9.211   4.281  1.00  0.00     0.124 S 
ATOM     90  O   UNL     1      16.484   8.868   3.938  1.00  0.00    -0.237 OA
ATOM     91  O   UNL     1      14.749  10.619   4.129  1.00  0.00    -0.237 OA
ATOM     92  O   UNL     1      14.581   8.567   5.482  1.00  0.00    -0.744 OA
ENDBRANCH  88  89
ENDBRANCH  60  83
BRANCH  72  93
ATOM     93  C   UNL     1      14.959   3.955  -4.944  1.00  0.00    -0.014 A 
ATOM     94  C   UNL     1      15.900   3.093  -4.355  1.00  0.00     0.010 A 
ATOM     95  C   UNL     1      15.276   4.596  -6.156  1.00  0.00     0.010 A 
ATOM     96  C   UNL     1      17.149   2.903  -4.951  1.00  0.00     0.020 A 
ATOM     97  C   UNL     1      16.510   4.382  -6.772  1.00  0.00     0.020 A 
ATOM     98  C   UNL     1      17.446   3.548  -6.157  1.00  0.00     0.054 A 
BRANCH  98  99
ATOM     99  S   UNL     1      19.057   3.249  -6.932  1.00  0.00     0.124 S 
ATOM    100  O   UNL     1      19.959   3.987  -6.052  1.00  0.00    -0.237 OA
ATOM    101  O   UNL     1      19.174   1.794  -6.875  1.00  0.00    -0.237 OA
ATOM    102  O   UNL     1      18.904   3.804  -8.275  1.00  0.00    -0.744 OA
ENDBRANCH  98  99
ENDBRANCH  72  93
ENDBRANCH  46  47
ENDBRANCH  39  41
ENDBRANCH  38  39
ENDBRANCH  37  38
ENDBRANCH  36  37
ENDBRANCH  35  36
ENDBRANCH  34  35
ENDBRANCH   1  34
TORSDOF 25
