REMARK SMILES Cc1ccc([C@@]23C[C@@H]4C[C@@H](C[C@@](C(=O)N5CCC(C(=O)OCCOCCOCCOCCOC(=O)c6ccc(-c7c8nc(c(-c9ccc(S(=O)(=O)[O-])cc9)c9ccc([nH]9)c(-c9ccc(S(=O)(=O)[O-])cc9)c9nc(c(-c%10ccc(S(=O)(=O)[O-])cc%10)c%10ccc7[nH]%10)C=C9)C=C8)cc6)CC5)(C4)C2)C3)cc1
REMARK SMILES IDX 28 1 27 2 26 3 25 4 24 5 23 6 22 7 21 8 19 9 20 10 18 11
REMARK SMILES IDX 13 12 14 13 15 14 16 15 97 16 17 17 96 18 12 19 6 20 7 21
REMARK SMILES IDX 99 22 100 23 8 24 10 25 9 26 98 27 11 28 5 29 1 30 2 31 3 32
REMARK SMILES IDX 102 33 4 34 101 35 29 36 30 37 31 38 32 39 33 40 34 41 35 42
REMARK SMILES IDX 36 43 37 44 95 45 38 46 94 47 39 48 40 49 41 50 88 51 42 52
REMARK SMILES IDX 93 53 87 54 89 55 43 56 92 57 86 58 85 59 44 61 74 62 55 63
REMARK SMILES IDX 73 64 56 65 59 66 72 67 90 68 57 69 58 70 71 72 91 73 60 74
REMARK SMILES IDX 45 75 46 76 54 77 47 78 53 79 48 80 49 81 50 82 51 83 52 84
REMARK SMILES IDX 75 85 76 86 84 87 77 88 83 89 78 90 79 91 80 92 81 93 82 94
REMARK SMILES IDX 61 95 62 96 70 97 63 98 69 99 64 100 65 101 66 102 67 103
REMARK SMILES IDX 68 104
REMARK H PARENT 89 60 59 71
REMARK Flexibility Score: inf
ROOT
ATOM      1  C   UNL     1      -6.487  -2.649  -8.351  1.00  0.00     0.188 C 
ENDROOT
BRANCH   1   2
ATOM      2  O   UNL     1      -5.694  -1.948  -7.418  1.00  0.00    -0.377 OA
BRANCH   2   3
ATOM      3  C   UNL     1      -5.002  -2.659  -6.419  1.00  0.00     0.188 C 
BRANCH   3   4
ATOM      4  C   UNL     1      -4.254  -3.925  -6.862  1.00  0.00     0.188 C 
BRANCH   4   5
ATOM      5  O   UNL     1      -5.021  -5.055  -7.278  1.00  0.00    -0.376 OA
BRANCH   5   6
ATOM      6  C   UNL     1      -6.165  -5.372  -6.501  1.00  0.00     0.202 C 
BRANCH   6   7
ATOM      7  C   UNL     1      -6.002  -6.604  -5.642  1.00  0.00     0.261 C 
BRANCH   7   8
ATOM      8  O   UNL     1      -5.808  -6.216  -4.282  1.00  0.00    -0.463 OA
BRANCH   8   9
ATOM      9  C   UNL     1      -4.530  -6.080  -3.903  1.00  0.00     0.309 C 
ATOM     10  O   UNL     1      -3.543  -6.406  -4.557  1.00  0.00    -0.252 OA
BRANCH   9  11
ATOM     11  C   UNL     1      -4.437  -5.255  -2.659  1.00  0.00     0.103 C 
ATOM     12  C   UNL     1      -5.782  -2.353   0.149  1.00  0.00     0.228 C 
ATOM     13  O   UNL     1      -6.607  -2.734   0.985  1.00  0.00    -0.274 OA
ATOM     14  N   UNL     1      -5.148  -3.261  -0.710  1.00  0.00    -0.342 N 
ATOM     15  C   UNL     1      -5.155  -4.683  -0.341  1.00  0.00     0.120 C 
ATOM     16  C   UNL     1      -4.295  -2.942  -1.864  1.00  0.00     0.120 C 
ATOM     17  C   UNL     1      -5.421  -5.595  -1.539  1.00  0.00     0.037 C 
ATOM     18  C   UNL     1      -4.630  -3.798  -3.055  1.00  0.00     0.037 C 
BRANCH  12  19
ATOM     19  C   UNL     1      -5.353  -0.865   0.131  1.00  0.00     0.051 C 
ATOM     20  C   UNL     1      -3.192   0.547   0.206  1.00  0.00    -0.003 C 
ATOM     21  C   UNL     1      -3.699   1.194  -1.118  1.00  0.00     0.015 C 
ATOM     22  C   UNL     1      -3.825  -0.844   0.296  1.00  0.00     0.028 C 
ATOM     23  C   UNL     1      -3.756   1.340   1.410  1.00  0.00     0.015 C 
ATOM     24  C   UNL     1      -5.239   1.301  -1.149  1.00  0.00    -0.009 C 
ATOM     25  C   UNL     1      -5.302   1.370   1.361  1.00  0.00    -0.009 C 
ATOM     26  C   UNL     1      -5.727   2.092   0.072  1.00  0.00     0.007 C 
ATOM     27  C   UNL     1      -5.867  -0.099  -1.105  1.00  0.00     0.020 C 
ATOM     28  C   UNL     1      -5.883  -0.069   1.362  1.00  0.00     0.020 C 
BRANCH  20  29
ATOM     29  C   UNL     1      -1.652   0.437   0.211  1.00  0.00    -0.042 A 
ATOM     30  C   UNL     1       2.677   0.119  -0.028  1.00  0.00     0.044 C 
ATOM     31  C   UNL     1       1.188   0.249   0.069  1.00  0.00    -0.051 A 
ATOM     32  C   UNL     1       0.411  -0.901   0.152  1.00  0.00     0.004 A 
ATOM     33  C   UNL     1       0.548   1.492   0.067  1.00  0.00     0.004 A 
ATOM     34  C   UNL     1      -0.979  -0.805   0.234  1.00  0.00     0.004 A 
ATOM     35  C   UNL     1      -0.851   1.585   0.136  1.00  0.00     0.004 A 
ENDBRANCH  20  29
ENDBRANCH  12  19
ENDBRANCH   9  11
ENDBRANCH   8   9
ENDBRANCH   7   8
ENDBRANCH   6   7
ENDBRANCH   5   6
ENDBRANCH   4   5
ENDBRANCH   3   4
ENDBRANCH   2   3
ENDBRANCH   1   2
BRANCH   1  36
ATOM     36  C   UNL     1      -5.989  -2.381  -9.770  1.00  0.00     0.188 C 
BRANCH  36  37
ATOM     37  O   UNL     1      -5.228  -1.201  -9.965  1.00  0.00    -0.376 OA
BRANCH  37  38
ATOM     38  C   UNL     1      -5.723   0.014  -9.390  1.00  0.00     0.202 C 
BRANCH  38  39
ATOM     39  C   UNL     1      -7.252   0.237  -9.209  1.00  0.00     0.261 C 
BRANCH  39  40
ATOM     40  O   UNL     1      -8.007  -0.253 -10.347  1.00  0.00    -0.460 OA
BRANCH  40  41
ATOM     41  C   UNL     1      -9.373  -0.293 -10.250  1.00  0.00     0.338 C 
ATOM     42  O   UNL     1     -10.119   0.481 -10.830  1.00  0.00    -0.246 OA
BRANCH  41  43
ATOM     43  C   UNL     1      -9.873  -1.593  -9.715  1.00  0.00     0.060 A 
ATOM     44  C   UNL     1     -10.895  -1.659  -8.771  1.00  0.00     0.016 A 
ATOM     45  C   UNL     1      -9.293  -2.781 -10.145  1.00  0.00     0.016 A 
ATOM     46  C   UNL     1     -11.118  -2.855  -8.070  1.00  0.00     0.010 A 
ATOM     47  C   UNL     1      -9.415  -3.930  -9.371  1.00  0.00     0.010 A 
ATOM     48  C   UNL     1     -10.246  -3.938  -8.249  1.00  0.00    -0.014 A 
BRANCH  48  49
ATOM     49  C   UNL     1      -9.904  -4.875  -7.152  1.00  0.00     0.031 A 
ATOM     50  C   UNL     1      -9.704  -6.347  -7.355  1.00  0.00     0.074 A 
ATOM     51  C   UNL     1      -9.472  -4.300  -5.995  1.00  0.00     0.049 A 
ATOM     52  N   UNL     1      -9.483  -7.182  -6.395  1.00  0.00    -0.248 NA
ATOM     53  C   UNL     1      -9.694  -7.024  -8.652  1.00  0.00     0.031 C 
ATOM     54  C   UNL     1      -8.760  -4.906  -4.873  1.00  0.00     0.029 A 
ATOM     55  N   UNL     1      -9.637  -2.986  -5.561  1.00  0.00    -0.354 N 
ATOM     56  C   UNL     1      -8.966  -8.348  -6.923  1.00  0.00     0.074 A 
ATOM     57  C   UNL     1      -9.202  -8.232  -8.339  1.00  0.00     0.031 C 
ATOM     58  C   UNL     1      -8.620  -4.024  -3.871  1.00  0.00     0.029 A 
ATOM     59  C   UNL     1      -9.500  -2.920  -4.168  1.00  0.00     0.049 A 
ATOM     60  H   UNL     1      -9.823  -2.217  -6.147  1.00  0.00     0.167 HD
ATOM     61  C   UNL     1      -8.268  -9.203  -6.109  1.00  0.00     0.031 A 
ATOM     62  C   UNL     1     -10.633  -2.717  -3.426  1.00  0.00     0.031 A 
ATOM     63  C   UNL     1      -8.456  -8.881  -4.672  1.00  0.00     0.049 A 
ATOM     64  C   UNL     1     -11.179  -4.005  -2.772  1.00  0.00     0.074 A 
ATOM     65  C   UNL     1      -7.636  -8.740  -3.562  1.00  0.00     0.029 A 
ATOM     66  N   UNL     1      -9.716  -8.446  -4.242  1.00  0.00    -0.354 N 
ATOM     67  N   UNL     1     -10.699  -5.206  -3.019  1.00  0.00    -0.248 NA
ATOM     68  C   UNL     1     -12.231  -4.081  -1.766  1.00  0.00     0.031 C 
ATOM     69  C   UNL     1      -8.379  -8.058  -2.541  1.00  0.00     0.029 A 
ATOM     70  C   UNL     1      -9.679  -7.870  -2.987  1.00  0.00     0.049 A 
ATOM     71  H   UNL     1     -10.537  -8.540  -4.777  1.00  0.00     0.167 HD
ATOM     72  C   UNL     1     -11.295  -6.175  -2.258  1.00  0.00     0.074 A 
ATOM     73  C   UNL     1     -12.261  -5.404  -1.487  1.00  0.00     0.031 C 
ATOM     74  C   UNL     1     -10.944  -7.506  -2.326  1.00  0.00     0.031 A 
BRANCH  61  75
ATOM     75  C   UNL     1      -7.229 -10.203  -6.641  1.00  0.00    -0.014 A 
ATOM     76  C   UNL     1      -6.631 -11.155  -5.786  1.00  0.00     0.010 A 
ATOM     77  C   UNL     1      -6.714 -10.177  -7.960  1.00  0.00     0.010 A 
ATOM     78  C   UNL     1      -5.620 -12.042  -6.226  1.00  0.00     0.020 A 
ATOM     79  C   UNL     1      -5.734 -11.080  -8.424  1.00  0.00     0.020 A 
ATOM     80  C   UNL     1      -5.188 -12.011  -7.551  1.00  0.00     0.054 A 
BRANCH  80  81
ATOM     81  S   UNL     1      -3.933 -13.199  -8.124  1.00  0.00     0.124 S 
ATOM     82  O   UNL     1      -2.740 -12.777  -7.397  1.00  0.00    -0.237 OA
ATOM     83  O   UNL     1      -4.498 -14.482  -7.715  1.00  0.00    -0.237 OA
ATOM     84  O   UNL     1      -3.885 -12.984  -9.570  1.00  0.00    -0.744 OA
ENDBRANCH  80  81
ENDBRANCH  61  75
BRANCH  62  85
ATOM     85  C   UNL     1     -11.188  -1.346  -3.724  1.00  0.00    -0.014 A 
ATOM     86  C   UNL     1     -10.395  -0.276  -3.233  1.00  0.00     0.010 A 
ATOM     87  C   UNL     1     -11.930  -1.097  -4.899  1.00  0.00     0.010 A 
ATOM     88  C   UNL     1     -10.143   0.870  -4.007  1.00  0.00     0.020 A 
ATOM     89  C   UNL     1     -11.697   0.069  -5.668  1.00  0.00     0.020 A 
ATOM     90  C   UNL     1     -10.742   1.001  -5.255  1.00  0.00     0.054 A 
BRANCH  90  91
ATOM     91  S   UNL     1     -10.058   2.225  -6.430  1.00  0.00     0.124 S 
ATOM     92  O   UNL     1     -10.650   3.473  -5.963  1.00  0.00    -0.237 OA
ATOM     93  O   UNL     1      -8.615   2.092  -6.228  1.00  0.00    -0.237 OA
ATOM     94  O   UNL     1     -10.528   1.737  -7.723  1.00  0.00    -0.744 OA
ENDBRANCH  90  91
ENDBRANCH  62  85
BRANCH  74  95
ATOM     95  C   UNL     1     -11.743  -8.700  -1.798  1.00  0.00    -0.014 A 
ATOM     96  C   UNL     1     -12.993  -8.632  -1.177  1.00  0.00     0.010 A 
ATOM     97  C   UNL     1     -11.259 -10.015  -2.069  1.00  0.00     0.010 A 
ATOM     98  C   UNL     1     -13.720  -9.794  -0.867  1.00  0.00     0.020 A 
ATOM     99  C   UNL     1     -11.989 -11.175  -1.811  1.00  0.00     0.020 A 
ATOM    100  C   UNL     1     -13.225 -11.055  -1.206  1.00  0.00     0.054 A 
BRANCH 100 101
ATOM    101  S   UNL     1     -14.236 -12.519  -0.898  1.00  0.00     0.124 S 
ATOM    102  O   UNL     1     -14.233 -12.587   0.561  1.00  0.00    -0.237 OA
ATOM    103  O   UNL     1     -15.511 -12.151  -1.508  1.00  0.00    -0.237 OA
ATOM    104  O   UNL     1     -13.515 -13.594  -1.574  1.00  0.00    -0.744 OA
ENDBRANCH 100 101
ENDBRANCH  74  95
ENDBRANCH  48  49
ENDBRANCH  41  43
ENDBRANCH  40  41
ENDBRANCH  39  40
ENDBRANCH  38  39
ENDBRANCH  37  38
ENDBRANCH  36  37
ENDBRANCH   1  36
TORSDOF 25
