REMARK SMILES Cc1cc(C)c2c(c1)C=C(C(=O)OCCOCCOCCOCCOC(=O)c1ccc(-c3c4nc(c(-c5ccc(S(=O)(=O)[O-])cc5)c5ccc([nH]5)c(-c5ccc(S(=O)(=O)[O-])cc5)c5nc(c(-c6ccc(S(=O)(=O)[O-])cc6)c6ccc3[nH]6)C=C5)C=C4)cc1)[C@@H](C(F)(F)F)O2
REMARK SMILES IDX 20 1 19 2 18 3 17 4 16 5 15 6 14 7 13 8 11 9 12 10 10 11
REMARK SMILES IDX 1 12 2 13 3 14 8 15 4 16 7 17 5 18 6 19 9 20 93 21 88 22
REMARK SMILES IDX 89 23 90 24 91 25 92 26 21 27 22 28 23 29 24 30 25 31 26 32
REMARK SMILES IDX 27 33 28 34 29 35 87 36 30 37 86 38 31 39 32 40 33 41 80 42
REMARK SMILES IDX 34 43 85 44 79 45 81 46 35 47 84 48 78 49 77 50 36 52 66 53
REMARK SMILES IDX 47 54 65 55 48 56 51 57 64 58 82 59 49 60 50 61 63 63 83 64
REMARK SMILES IDX 52 65 37 66 38 67 46 68 39 69 45 70 40 71 41 72 42 73 43 74
REMARK SMILES IDX 44 75 67 76 68 77 76 78 69 79 75 80 70 81 71 82 72 83 73 84
REMARK SMILES IDX 74 85 53 86 54 87 62 88 55 89 61 90 56 91 57 92 58 93 59 94
REMARK SMILES IDX 60 95
REMARK H PARENT 81 51 51 62
REMARK Flexibility Score: inf
ROOT
ATOM      1  C   UNL     1      -1.763   9.482  -2.714  1.00  0.00     0.188 C 
ENDROOT
BRANCH   1   2
ATOM      2  O   UNL     1      -1.023   8.295  -2.997  1.00  0.00    -0.377 OA
BRANCH   2   3
ATOM      3  C   UNL     1      -0.824   7.384  -1.932  1.00  0.00     0.188 C 
BRANCH   3   4
ATOM      4  C   UNL     1       0.436   7.688  -1.099  1.00  0.00     0.188 C 
BRANCH   4   5
ATOM      5  O   UNL     1       1.003   8.978  -1.207  1.00  0.00    -0.376 OA
BRANCH   5   6
ATOM      6  C   UNL     1       1.651   9.459  -2.374  1.00  0.00     0.202 C 
BRANCH   6   7
ATOM      7  C   UNL     1       1.866   8.711  -3.705  1.00  0.00     0.261 C 
BRANCH   7   8
ATOM      8  O   UNL     1       1.389   7.375  -3.807  1.00  0.00    -0.460 OA
BRANCH   8   9
ATOM      9  C   UNL     1       2.228   6.405  -3.405  1.00  0.00     0.338 C 
ATOM     10  O   UNL     1       3.362   6.542  -2.979  1.00  0.00    -0.246 OA
BRANCH   9  11
ATOM     11  C   UNL     1       1.471   5.138  -3.387  1.00  0.00     0.087 C 
ATOM     12  C   UNL     1       0.912   0.015  -0.067  1.00  0.00     0.044 C 
ATOM     13  C   UNL     1       0.608   0.949  -1.200  1.00  0.00    -0.050 A 
ATOM     14  C   UNL     1      -0.122   0.528  -2.317  1.00  0.00     0.010 A 
ATOM     15  C   UNL     1       1.114   2.252  -1.171  1.00  0.00     0.015 A 
ATOM     16  C   UNL     1      -0.361   1.397  -3.394  1.00  0.00    -0.008 A 
ATOM     17  C   UNL     1       0.921   3.111  -2.257  1.00  0.00     0.018 A 
ATOM     18  C   UNL     1      -1.115   0.914  -4.601  1.00  0.00     0.048 C 
ATOM     19  C   UNL     1       0.155   2.700  -3.349  1.00  0.00     0.130 A 
ATOM     20  C   UNL     1       1.606   4.387  -2.288  1.00  0.00     0.027 C 
ATOM     21  O   UNL     1      -0.114   3.510  -4.417  1.00  0.00    -0.475 OA
ATOM     22  C   UNL     1       0.565   4.790  -4.537  1.00  0.00     0.316 C 
BRANCH  22  23
ATOM     23  C   UNL     1       1.304   4.815  -5.880  1.00  0.00     0.430 C 
ATOM     24  F   UNL     1       0.500   4.415  -6.894  1.00  0.00    -0.167 F 
ATOM     25  F   UNL     1       1.744   6.055  -6.192  1.00  0.00    -0.167 F 
ATOM     26  F   UNL     1       2.381   3.995  -5.869  1.00  0.00    -0.167 F 
ENDBRANCH  22  23
ENDBRANCH   9  11
ENDBRANCH   8   9
ENDBRANCH   7   8
ENDBRANCH   6   7
ENDBRANCH   5   6
ENDBRANCH   4   5
ENDBRANCH   3   4
ENDBRANCH   2   3
ENDBRANCH   1   2
BRANCH   1  27
ATOM     27  C   UNL     1      -1.728  10.106  -1.300  1.00  0.00     0.188 C 
BRANCH  27  28
ATOM     28  O   UNL     1      -1.848   9.165  -0.241  1.00  0.00    -0.376 OA
BRANCH  28  29
ATOM     29  C   UNL     1      -3.084   9.054   0.444  1.00  0.00     0.202 C 
BRANCH  29  30
ATOM     30  C   UNL     1      -4.268   8.489  -0.353  1.00  0.00     0.261 C 
BRANCH  30  31
ATOM     31  O   UNL     1      -4.596   9.185  -1.562  1.00  0.00    -0.460 OA
BRANCH  31  32
ATOM     32  C   UNL     1      -4.981  10.473  -1.444  1.00  0.00     0.338 C 
ATOM     33  O   UNL     1      -5.109  11.111  -0.412  1.00  0.00    -0.246 OA
BRANCH  32  34
ATOM     34  C   UNL     1      -5.040  11.047  -2.802  1.00  0.00     0.060 A 
ATOM     35  C   UNL     1      -4.229  12.146  -3.115  1.00  0.00     0.016 A 
ATOM     36  C   UNL     1      -5.898  10.500  -3.758  1.00  0.00     0.016 A 
ATOM     37  C   UNL     1      -4.306  12.730  -4.379  1.00  0.00     0.010 A 
ATOM     38  C   UNL     1      -5.994  11.101  -5.013  1.00  0.00     0.010 A 
ATOM     39  C   UNL     1      -5.227  12.240  -5.314  1.00  0.00    -0.014 A 
BRANCH  39  40
ATOM     40  C   UNL     1      -5.551  13.028  -6.524  1.00  0.00     0.031 A 
ATOM     41  C   UNL     1      -6.759  13.924  -6.481  1.00  0.00     0.074 A 
ATOM     42  C   UNL     1      -4.800  12.947  -7.636  1.00  0.00     0.049 A 
ATOM     43  N   UNL     1      -7.318  14.608  -7.443  1.00  0.00    -0.248 NA
ATOM     44  C   UNL     1      -7.426  14.063  -5.174  1.00  0.00     0.031 C 
ATOM     45  C   UNL     1      -3.567  12.173  -7.772  1.00  0.00     0.029 A 
ATOM     46  N   UNL     1      -4.979  13.519  -8.870  1.00  0.00    -0.354 N 
ATOM     47  C   UNL     1      -8.407  15.249  -6.864  1.00  0.00     0.074 A 
ATOM     48  C   UNL     1      -8.444  14.858  -5.472  1.00  0.00     0.031 C 
ATOM     49  C   UNL     1      -3.108  12.306  -9.029  1.00  0.00     0.029 A 
ATOM     50  C   UNL     1      -4.039  13.133  -9.796  1.00  0.00     0.049 A 
ATOM     51  H   UNL     1      -5.710  14.145  -9.073  1.00  0.00     0.167 HD
ATOM     52  C   UNL     1      -9.297  16.088  -7.442  1.00  0.00     0.031 A 
ATOM     53  C   UNL     1      -3.961  13.391 -11.117  1.00  0.00     0.031 A 
ATOM     54  C   UNL     1      -9.264  16.456  -8.833  1.00  0.00     0.049 A 
ATOM     55  C   UNL     1      -5.022  14.248 -11.761  1.00  0.00     0.074 A 
ATOM     56  C   UNL     1     -10.126  17.291  -9.521  1.00  0.00     0.029 A 
ATOM     57  N   UNL     1      -8.323  16.009  -9.748  1.00  0.00    -0.354 N 
ATOM     58  N   UNL     1      -6.060  14.832 -11.209  1.00  0.00    -0.248 NA
ATOM     59  C   UNL     1      -4.896  14.485 -13.205  1.00  0.00     0.031 C 
ATOM     60  C   UNL     1      -9.743  17.300 -10.865  1.00  0.00     0.029 A 
ATOM     61  C   UNL     1      -8.596  16.533 -10.999  1.00  0.00     0.049 A 
ATOM     62  H   UNL     1      -7.572  15.408  -9.538  1.00  0.00     0.167 HD
ATOM     63  C   UNL     1      -6.690  15.534 -12.232  1.00  0.00     0.074 A 
ATOM     64  C   UNL     1      -5.908  15.312 -13.432  1.00  0.00     0.031 C 
ATOM     65  C   UNL     1      -7.809  16.299 -12.184  1.00  0.00     0.031 A 
BRANCH  52  66
ATOM     66  C   UNL     1     -10.404  16.641  -6.585  1.00  0.00    -0.014 A 
ATOM     67  C   UNL     1     -10.148  17.611  -5.599  1.00  0.00     0.010 A 
ATOM     68  C   UNL     1     -11.731  16.237  -6.819  1.00  0.00     0.010 A 
ATOM     69  C   UNL     1     -11.198  18.157  -4.855  1.00  0.00     0.020 A 
ATOM     70  C   UNL     1     -12.787  16.801  -6.096  1.00  0.00     0.020 A 
ATOM     71  C   UNL     1     -12.511  17.753  -5.114  1.00  0.00     0.054 A 
BRANCH  71  72
ATOM     72  S   UNL     1     -13.857  18.525  -4.174  1.00  0.00     0.124 S 
ATOM     73  O   UNL     1     -13.619  18.010  -2.827  1.00  0.00    -0.237 OA
ATOM     74  O   UNL     1     -13.595  19.950  -4.357  1.00  0.00    -0.237 OA
ATOM     75  O   UNL     1     -15.067  18.026  -4.824  1.00  0.00    -0.744 OA
ENDBRANCH  71  72
ENDBRANCH  52  66
BRANCH  53  76
ATOM     76  C   UNL     1      -2.849  12.816 -11.924  1.00  0.00    -0.014 A 
ATOM     77  C   UNL     1      -1.862  13.649 -12.480  1.00  0.00     0.010 A 
ATOM     78  C   UNL     1      -2.769  11.427 -12.140  1.00  0.00     0.010 A 
ATOM     79  C   UNL     1      -0.825  13.107 -13.245  1.00  0.00     0.020 A 
ATOM     80  C   UNL     1      -1.716  10.878 -12.878  1.00  0.00     0.020 A 
ATOM     81  C   UNL     1      -0.755  11.723 -13.433  1.00  0.00     0.054 A 
BRANCH  81  82
ATOM     82  S   UNL     1       0.633  11.043 -14.383  1.00  0.00     0.124 S 
ATOM     83  O   UNL     1       0.342  11.519 -15.731  1.00  0.00    -0.237 OA
ATOM     84  O   UNL     1       1.787  11.655 -13.730  1.00  0.00    -0.237 OA
ATOM     85  O   UNL     1       0.507   9.600 -14.188  1.00  0.00    -0.744 OA
ENDBRANCH  81  82
ENDBRANCH  53  76
BRANCH  65  86
ATOM     86  C   UNL     1      -8.234  16.995 -13.453  1.00  0.00    -0.014 A 
ATOM     87  C   UNL     1      -8.746  16.281 -14.549  1.00  0.00     0.010 A 
ATOM     88  C   UNL     1      -8.159  18.400 -13.526  1.00  0.00     0.010 A 
ATOM     89  C   UNL     1      -9.130  16.954 -15.713  1.00  0.00     0.020 A 
ATOM     90  C   UNL     1      -8.574  19.078 -14.674  1.00  0.00     0.020 A 
ATOM     91  C   UNL     1      -9.038  18.348 -15.769  1.00  0.00     0.054 A 
BRANCH  91  92
ATOM     92  S   UNL     1      -9.552  19.195 -17.287  1.00  0.00     0.124 S 
ATOM     93  O   UNL     1      -8.503  18.803 -18.224  1.00  0.00    -0.237 OA
ATOM     94  O   UNL     1     -10.870  18.620 -17.543  1.00  0.00    -0.237 OA
ATOM     95  O   UNL     1      -9.557  20.608 -16.914  1.00  0.00    -0.744 OA
ENDBRANCH  91  92
ENDBRANCH  65  86
ENDBRANCH  39  40
ENDBRANCH  32  34
ENDBRANCH  31  32
ENDBRANCH  30  31
ENDBRANCH  29  30
ENDBRANCH  28  29
ENDBRANCH  27  28
ENDBRANCH   1  27
TORSDOF 24
