REMARK SMILES O=C(OCCOCCOCCOCCOC(=O)[C@@H]1[C@H](C(=O)Nc2ccccc2OC(F)F)[C@@H]2C=C[C@H]1C2)c1ccc(-c2c3nc(c(-c4ccc(S(=O)(=O)[O-])cc4)c4ccc([nH]4)c(-c4ccc(S(=O)(=O)[O-])cc4)c4nc(c(-c5ccc(S(=O)(=O)[O-])cc5)c5ccc2[nH]5)C=C4)C=C3)cc1
REMARK SMILES IDX 10 1 9 2 8 3 7 4 6 5 5 6 4 7 3 8 2 9 1 10 38 11 39 12 97 13
REMARK SMILES IDX 40 14 96 15 41 16 42 17 43 18 90 19 44 20 95 21 89 22 91 23
REMARK SMILES IDX 45 24 94 25 88 26 87 27 46 29 76 30 57 31 75 32 58 33 61 34
REMARK SMILES IDX 74 35 92 36 59 37 60 38 73 40 93 41 62 42 47 43 48 44 56 45
REMARK SMILES IDX 49 46 55 47 50 48 51 49 52 50 53 51 54 52 77 53 78 54 86 55
REMARK SMILES IDX 79 56 85 57 80 58 81 59 82 60 83 61 84 62 63 63 64 64 72 65
REMARK SMILES IDX 65 66 71 67 66 68 67 69 68 70 69 71 70 72 11 73 12 74 13 75
REMARK SMILES IDX 14 76 15 77 16 78 17 79 18 80 19 81 36 82 33 83 35 84 37 85
REMARK SMILES IDX 34 86 20 87 21 88 22 89 23 91 24 92 28 93 25 94 27 95 26 96
REMARK SMILES IDX 29 97 30 98 31 99 32 100
REMARK H PARENT 91 28 61 39 22 90
REMARK Flexibility Score: inf
ROOT
ATOM      1  C   UNL     1       5.218   2.601   1.842  1.00  0.00     0.188 C 
ENDROOT
BRANCH   1   2
ATOM      2  O   UNL     1       3.814   2.788   1.941  1.00  0.00    -0.377 OA
BRANCH   2   3
ATOM      3  C   UNL     1       2.978   1.652   1.751  1.00  0.00     0.188 C 
BRANCH   3   4
ATOM      4  C   UNL     1       3.004   1.222   0.283  1.00  0.00     0.188 C 
BRANCH   4   5
ATOM      5  O   UNL     1       4.300   0.679   0.101  1.00  0.00    -0.376 OA
BRANCH   5   6
ATOM      6  C   UNL     1       4.676  -0.046  -1.038  1.00  0.00     0.202 C 
BRANCH   6   7
ATOM      7  C   UNL     1       3.610  -0.451  -2.030  1.00  0.00     0.261 C 
BRANCH   7   8
ATOM      8  O   UNL     1       2.336  -1.006  -1.586  1.00  0.00    -0.460 OA
BRANCH   8   9
ATOM      9  C   UNL     1       1.837  -1.903  -0.708  1.00  0.00     0.338 C 
ATOM     10  O   UNL     1       0.638  -2.162  -0.739  1.00  0.00    -0.246 OA
BRANCH   9  11
ATOM     11  C   UNL     1       2.652  -2.589   0.318  1.00  0.00     0.060 A 
ATOM     12  C   UNL     1       3.527  -1.904   1.132  1.00  0.00     0.016 A 
ATOM     13  C   UNL     1       2.415  -3.926   0.635  1.00  0.00     0.016 A 
ATOM     14  C   UNL     1       4.393  -2.523   1.997  1.00  0.00     0.010 A 
ATOM     15  C   UNL     1       3.157  -4.549   1.652  1.00  0.00     0.010 A 
ATOM     16  C   UNL     1       4.207  -3.860   2.285  1.00  0.00    -0.014 A 
BRANCH  16  17
ATOM     17  C   UNL     1       5.241  -4.507   3.113  1.00  0.00     0.031 A 
ATOM     18  C   UNL     1       6.079  -5.562   2.455  1.00  0.00     0.074 A 
ATOM     19  C   UNL     1       5.558  -4.009   4.327  1.00  0.00     0.049 A 
ATOM     20  N   UNL     1       6.972  -6.351   2.979  1.00  0.00    -0.248 NA
ATOM     21  C   UNL     1       5.889  -5.750   1.003  1.00  0.00     0.031 C 
ATOM     22  C   UNL     1       4.927  -2.844   4.966  1.00  0.00     0.029 A 
ATOM     23  N   UNL     1       6.533  -4.372   5.218  1.00  0.00    -0.354 N 
ATOM     24  C   UNL     1       7.402  -7.165   1.939  1.00  0.00     0.074 A 
ATOM     25  C   UNL     1       6.674  -6.784   0.754  1.00  0.00     0.031 C 
ATOM     26  C   UNL     1       5.569  -2.559   6.109  1.00  0.00     0.029 A 
ATOM     27  C   UNL     1       6.564  -3.591   6.352  1.00  0.00     0.049 A 
ATOM     28  H   UNL     1       7.153  -5.120   5.062  1.00  0.00     0.167 HD
ATOM     29  C   UNL     1       8.324  -8.150   1.984  1.00  0.00     0.031 A 
ATOM     30  C   UNL     1       7.275  -3.739   7.485  1.00  0.00     0.031 A 
ATOM     31  C   UNL     1       9.036  -8.481   3.185  1.00  0.00     0.049 A 
ATOM     32  C   UNL     1       8.198  -4.925   7.556  1.00  0.00     0.074 A 
ATOM     33  C   UNL     1       9.909  -9.524   3.417  1.00  0.00     0.029 A 
ATOM     34  N   UNL     1       8.959  -7.744   4.360  1.00  0.00    -0.354 N 
ATOM     35  N   UNL     1       8.487  -5.798   6.616  1.00  0.00    -0.248 NA
ATOM     36  C   UNL     1       8.869  -5.167   8.836  1.00  0.00     0.031 C 
ATOM     37  C   UNL     1      10.324  -9.444   4.751  1.00  0.00     0.029 A 
ATOM     38  C   UNL     1       9.761  -8.314   5.328  1.00  0.00     0.049 A 
ATOM     39  H   UNL     1       8.414  -6.934   4.484  1.00  0.00     0.167 HD
ATOM     40  C   UNL     1       9.381  -6.690   7.191  1.00  0.00     0.074 A 
ATOM     41  C   UNL     1       9.612  -6.225   8.546  1.00  0.00     0.031 C 
ATOM     42  C   UNL     1       9.951  -7.803   6.662  1.00  0.00     0.031 A 
BRANCH  29  43
ATOM     43  C   UNL     1       8.520  -8.964   0.737  1.00  0.00    -0.014 A 
ATOM     44  C   UNL     1       9.171  -8.440  -0.394  1.00  0.00     0.010 A 
ATOM     45  C   UNL     1       8.004 -10.271   0.687  1.00  0.00     0.010 A 
ATOM     46  C   UNL     1       9.277  -9.201  -1.563  1.00  0.00     0.020 A 
ATOM     47  C   UNL     1       8.131 -11.044  -0.470  1.00  0.00     0.020 A 
ATOM     48  C   UNL     1       8.757 -10.499  -1.592  1.00  0.00     0.054 A 
BRANCH  48  49
ATOM     49  S   UNL     1       8.934 -11.476  -3.110  1.00  0.00     0.124 S 
ATOM     50  O   UNL     1       8.008 -10.801  -4.014  1.00  0.00    -0.237 OA
ATOM     51  O   UNL     1      10.354 -11.309  -3.429  1.00  0.00    -0.237 OA
ATOM     52  O   UNL     1       8.544 -12.821  -2.706  1.00  0.00    -0.744 OA
ENDBRANCH  48  49
ENDBRANCH  29  43
BRANCH  30  53
ATOM     53  C   UNL     1       7.046  -2.846   8.661  1.00  0.00    -0.014 A 
ATOM     54  C   UNL     1       8.082  -2.075   9.218  1.00  0.00     0.010 A 
ATOM     55  C   UNL     1       5.773  -2.796   9.266  1.00  0.00     0.010 A 
ATOM     56  C   UNL     1       7.859  -1.308  10.370  1.00  0.00     0.020 A 
ATOM     57  C   UNL     1       5.536  -2.002  10.390  1.00  0.00     0.020 A 
ATOM     58  C   UNL     1       6.588  -1.280  10.951  1.00  0.00     0.054 A 
BRANCH  58  59
ATOM     59  S   UNL     1       6.317  -0.283  12.443  1.00  0.00     0.124 S 
ATOM     60  O   UNL     1       7.013  -1.064  13.460  1.00  0.00    -0.237 OA
ATOM     61  O   UNL     1       6.936   0.992  12.088  1.00  0.00    -0.237 OA
ATOM     62  O   UNL     1       4.862  -0.245  12.569  1.00  0.00    -0.744 OA
ENDBRANCH  58  59
ENDBRANCH  30  53
BRANCH  42  63
ATOM     63  C   UNL     1      10.900  -8.552   7.550  1.00  0.00    -0.014 A 
ATOM     64  C   UNL     1      10.433  -9.299   8.645  1.00  0.00     0.010 A 
ATOM     65  C   UNL     1      12.274  -8.536   7.253  1.00  0.00     0.010 A 
ATOM     66  C   UNL     1      11.335  -9.983   9.458  1.00  0.00     0.020 A 
ATOM     67  C   UNL     1      13.174  -9.248   8.043  1.00  0.00     0.020 A 
ATOM     68  C   UNL     1      12.700  -9.951   9.152  1.00  0.00     0.054 A 
BRANCH  68  69
ATOM     69  S   UNL     1      13.848 -10.871  10.208  1.00  0.00     0.124 S 
ATOM     70  O   UNL     1      13.894 -10.035  11.404  1.00  0.00    -0.237 OA
ATOM     71  O   UNL     1      13.177 -12.159  10.364  1.00  0.00    -0.237 OA
ATOM     72  O   UNL     1      15.082 -10.908   9.426  1.00  0.00    -0.744 OA
ENDBRANCH  68  69
ENDBRANCH  42  63
ENDBRANCH  16  17
ENDBRANCH   9  11
ENDBRANCH   8   9
ENDBRANCH   7   8
ENDBRANCH   6   7
ENDBRANCH   5   6
ENDBRANCH   4   5
ENDBRANCH   3   4
ENDBRANCH   2   3
ENDBRANCH   1   2
BRANCH   1  73
ATOM     73  C   UNL     1       5.901   1.911   3.018  1.00  0.00     0.188 C 
BRANCH  73  74
ATOM     74  O   UNL     1       5.053   1.367   4.008  1.00  0.00    -0.376 OA
BRANCH  74  75
ATOM     75  C   UNL     1       4.255   2.256   4.791  1.00  0.00     0.202 C 
BRANCH  75  76
ATOM     76  C   UNL     1       4.570   3.772   4.878  1.00  0.00     0.261 C 
BRANCH  76  77
ATOM     77  O   UNL     1       4.235   4.559   3.691  1.00  0.00    -0.463 OA
BRANCH  77  78
ATOM     78  C   UNL     1       5.042   5.582   3.321  1.00  0.00     0.310 C 
ATOM     79  O   UNL     1       6.098   5.791   3.923  1.00  0.00    -0.252 OA
BRANCH  78  80
ATOM     80  C   UNL     1       4.689   6.435   2.049  1.00  0.00     0.119 C 
ATOM     81  C   UNL     1       3.686   7.622   1.681  1.00  0.00     0.100 C 
ATOM     82  C   UNL     1       5.210   5.978   0.638  1.00  0.00     0.027 C 
ATOM     83  C   UNL     1       3.923   7.762   0.133  1.00  0.00     0.025 C 
ATOM     84  C   UNL     1       4.109   5.516  -0.288  1.00  0.00    -0.027 C 
ATOM     85  C   UNL     1       5.402   7.364  -0.025  1.00  0.00     0.017 C 
ATOM     86  C   UNL     1       3.350   6.579  -0.595  1.00  0.00    -0.027 C 
BRANCH  81  87
ATOM     87  C   UNL     1       2.263   8.161   2.068  1.00  0.00     0.229 C 
ATOM     88  O   UNL     1       2.218   9.319   2.533  1.00  0.00    -0.274 OA
ATOM     89  N   UNL     1       1.022   7.661   1.784  1.00  0.00    -0.323 N 
ATOM     90  H   UNL     1       0.293   8.312   1.899  1.00  0.00     0.170 HD
BRANCH  89  91
ATOM     91  C   UNL     1       0.594   6.404   1.361  1.00  0.00     0.084 A 
ATOM     92  C   UNL     1      -0.583   6.222   0.628  1.00  0.00     0.030 A 
ATOM     93  C   UNL     1       1.334   5.300   1.649  1.00  0.00     0.149 A 
ATOM     94  C   UNL     1      -0.790   5.027  -0.079  1.00  0.00     0.002 A 
ATOM     95  C   UNL     1       1.274   4.245   0.764  1.00  0.00     0.049 A 
ATOM     96  C   UNL     1       0.216   4.079  -0.108  1.00  0.00     0.004 A 
BRANCH  93  97
ATOM     97  O   UNL     1       2.147   5.205   2.718  1.00  0.00    -0.433 OA
BRANCH  97  98
ATOM     98  C   UNL     1       1.662   5.665   3.989  1.00  0.00     0.542 C 
ATOM     99  F   UNL     1       2.352   6.785   4.323  1.00  0.00    -0.167 F 
ATOM    100  F   UNL     1       0.345   5.978   3.976  1.00  0.00    -0.167 F 
ENDBRANCH  97  98
ENDBRANCH  93  97
ENDBRANCH  89  91
ENDBRANCH  81  87
ENDBRANCH  78  80
ENDBRANCH  77  78
ENDBRANCH  76  77
ENDBRANCH  75  76
ENDBRANCH  74  75
ENDBRANCH  73  74
ENDBRANCH   1  73
TORSDOF 27
