REMARK SMILES O=C(OCCOCCOCCOCCOC(=O)c1ccc(-c2c3nc(c(-c4ccc(S(=O)(=O)[O-])cc4)c4ccc([nH]4)c(-c4ccc(S(=O)(=O)[O-])cc4)c4nc(c(-c5ccc(S(=O)(=O)[O-])cc5)c5ccc2[nH]5)C=C4)C=C3)cc1)c1ccc(CNC(=O)c2ccccc2I)cc1
REMARK SMILES IDX 9 1 8 2 7 3 6 4 5 5 4 6 3 7 2 8 1 9 78 10 79 11 94 12 80 13
REMARK SMILES IDX 93 14 81 15 82 16 83 17 84 18 85 20 86 21 87 22 91 23 88 24
REMARK SMILES IDX 90 25 92 26 89 27 10 28 11 29 12 30 13 31 14 32 15 33 16 34
REMARK SMILES IDX 17 35 18 36 19 37 77 38 20 39 76 40 21 41 22 42 23 43 70 44
REMARK SMILES IDX 24 45 75 46 69 47 71 48 25 49 74 50 68 51 67 52 26 54 56 55
REMARK SMILES IDX 37 56 55 57 38 58 41 59 54 60 72 61 39 62 40 63 53 65 73 66
REMARK SMILES IDX 42 67 27 68 28 69 36 70 29 71 35 72 30 73 31 74 32 75 33 76
REMARK SMILES IDX 34 77 57 78 58 79 66 80 59 81 65 82 60 83 61 84 62 85 63 86
REMARK SMILES IDX 64 87 43 88 44 89 52 90 45 91 51 92 46 93 47 94 48 95 49 96
REMARK SMILES IDX 50 97
REMARK H PARENT 83 19 71 53 41 64
REMARK Flexibility Score: inf
ROOT
ATOM      1  O   UNL     1       2.499  -0.153  -3.787  1.00  0.00    -0.377 OA
ENDROOT
BRANCH   1   2
ATOM      2  C   UNL     1       1.823   0.271  -2.607  1.00  0.00     0.188 C 
BRANCH   2   3
ATOM      3  C   UNL     1       2.256  -0.423  -1.317  1.00  0.00     0.188 C 
BRANCH   3   4
ATOM      4  O   UNL     1       3.591  -0.050  -0.956  1.00  0.00    -0.376 OA
BRANCH   4   5
ATOM      5  C   UNL     1       4.393  -1.120  -0.453  1.00  0.00     0.202 C 
BRANCH   5   6
ATOM      6  C   UNL     1       4.187  -1.414   1.033  1.00  0.00     0.261 C 
BRANCH   6   7
ATOM      7  O   UNL     1       2.826  -1.195   1.437  1.00  0.00    -0.460 OA
BRANCH   7   8
ATOM      8  C   UNL     1       2.332  -0.056   1.979  1.00  0.00     0.338 C 
ATOM      9  O   UNL     1       1.130   0.035   2.220  1.00  0.00    -0.246 OA
BRANCH   8  10
ATOM     10  C   UNL     1       3.205   1.079   2.382  1.00  0.00     0.060 A 
ATOM     11  C   UNL     1       4.173   1.666   1.564  1.00  0.00     0.016 A 
ATOM     12  C   UNL     1       2.931   1.668   3.622  1.00  0.00     0.016 A 
ATOM     13  C   UNL     1       4.895   2.779   1.993  1.00  0.00     0.006 A 
ATOM     14  C   UNL     1       3.636   2.798   4.047  1.00  0.00     0.006 A 
ATOM     15  C   UNL     1       4.632   3.357   3.237  1.00  0.00    -0.029 A 
BRANCH  15  16
ATOM     16  C   UNL     1       5.373   4.598   3.648  1.00  0.00     0.152 C 
BRANCH  16  17
ATOM     17  N   UNL     1       6.792   4.341   3.791  1.00  0.00    -0.348 N 
ATOM     18  C   UNL     1       7.861   4.902   3.144  1.00  0.00     0.252 C 
ATOM     19  H   UNL     1       7.024   3.655   4.458  1.00  0.00     0.164 HD
ATOM     20  O   UNL     1       8.996   4.484   3.357  1.00  0.00    -0.269 OA
BRANCH  18  21
ATOM     21  C   UNL     1       7.669   5.950   2.119  1.00  0.00     0.053 A 
ATOM     22  C   UNL     1       8.122   5.629   0.828  1.00  0.00     0.015 A 
ATOM     23  C   UNL     1       7.157   7.230   2.371  1.00  0.00     0.026 A 
ATOM     24  C   UNL     1       8.011   6.552  -0.213  1.00  0.00     0.001 A 
ATOM     25  C   UNL     1       7.013   8.137   1.312  1.00  0.00     0.015 A 
ATOM     26  I   UNL     1       6.701   7.954   4.289  1.00  0.00    -0.043 I 
ATOM     27  C   UNL     1       7.437   7.797   0.025  1.00  0.00     0.001 A 
ENDBRANCH  18  21
ENDBRANCH  16  17
ENDBRANCH  15  16
ENDBRANCH   8  10
ENDBRANCH   7   8
ENDBRANCH   6   7
ENDBRANCH   5   6
ENDBRANCH   4   5
ENDBRANCH   3   4
ENDBRANCH   2   3
ENDBRANCH   1   2
BRANCH   1  28
ATOM     28  C   UNL     1       3.920  -0.167  -3.745  1.00  0.00     0.188 C 
BRANCH  28  29
ATOM     29  C   UNL     1       4.666   1.148  -3.433  1.00  0.00     0.188 C 
BRANCH  29  30
ATOM     30  O   UNL     1       3.839   2.293  -3.262  1.00  0.00    -0.376 OA
BRANCH  30  31
ATOM     31  C   UNL     1       3.821   3.204  -4.357  1.00  0.00     0.202 C 
BRANCH  31  32
ATOM     32  C   UNL     1       3.010   2.730  -5.569  1.00  0.00     0.261 C 
BRANCH  32  33
ATOM     33  O   UNL     1       3.526   1.558  -6.222  1.00  0.00    -0.460 OA
BRANCH  33  34
ATOM     34  C   UNL     1       4.774   1.606  -6.741  1.00  0.00     0.338 C 
ATOM     35  O   UNL     1       5.502   2.581  -6.811  1.00  0.00    -0.246 OA
BRANCH  34  36
ATOM     36  C   UNL     1       5.199   0.203  -6.970  1.00  0.00     0.060 A 
ATOM     37  C   UNL     1       6.432  -0.218  -6.451  1.00  0.00     0.016 A 
ATOM     38  C   UNL     1       4.326  -0.727  -7.547  1.00  0.00     0.016 A 
ATOM     39  C   UNL     1       6.786  -1.571  -6.498  1.00  0.00     0.010 A 
ATOM     40  C   UNL     1       4.689  -2.074  -7.609  1.00  0.00     0.010 A 
ATOM     41  C   UNL     1       5.925  -2.503  -7.096  1.00  0.00    -0.014 A 
BRANCH  41  42
ATOM     42  C   UNL     1       6.386  -3.887  -7.372  1.00  0.00     0.031 A 
ATOM     43  C   UNL     1       7.033  -4.153  -8.703  1.00  0.00     0.074 A 
ATOM     44  C   UNL     1       6.211  -4.893  -6.493  1.00  0.00     0.049 A 
ATOM     45  N   UNL     1       7.462  -5.281  -9.204  1.00  0.00    -0.248 NA
ATOM     46  C   UNL     1       7.218  -2.989  -9.587  1.00  0.00     0.031 C 
ATOM     47  C   UNL     1       5.618  -4.772  -5.162  1.00  0.00     0.029 A 
ATOM     48  N   UNL     1       6.508  -6.231  -6.606  1.00  0.00    -0.354 N 
ATOM     49  C   UNL     1       7.962  -4.965 -10.461  1.00  0.00     0.074 A 
ATOM     50  C   UNL     1       7.768  -3.545 -10.655  1.00  0.00     0.031 C 
ATOM     51  C   UNL     1       5.579  -5.990  -4.590  1.00  0.00     0.029 A 
ATOM     52  C   UNL     1       6.114  -6.982  -5.523  1.00  0.00     0.049 A 
ATOM     53  H   UNL     1       6.961  -6.616  -7.391  1.00  0.00     0.167 HD
ATOM     54  C   UNL     1       8.532  -5.782 -11.376  1.00  0.00     0.031 A 
ATOM     55  C   UNL     1       6.156  -8.316  -5.321  1.00  0.00     0.031 A 
ATOM     56  C   UNL     1       8.706  -7.196 -11.203  1.00  0.00     0.049 A 
ATOM     57  C   UNL     1       6.721  -9.216  -6.396  1.00  0.00     0.074 A 
ATOM     58  C   UNL     1       9.302  -8.097 -12.068  1.00  0.00     0.029 A 
ATOM     59  N   UNL     1       8.269  -7.920 -10.107  1.00  0.00    -0.354 N 
ATOM     60  N   UNL     1       7.249  -8.892  -7.552  1.00  0.00    -0.248 NA
ATOM     61  C   UNL     1       6.692 -10.665  -6.136  1.00  0.00     0.031 C 
ATOM     62  C   UNL     1       9.172  -9.377 -11.520  1.00  0.00     0.029 A 
ATOM     63  C   UNL     1       8.547  -9.263 -10.289  1.00  0.00     0.049 A 
ATOM     64  H   UNL     1       7.826  -7.536  -9.316  1.00  0.00     0.167 HD
ATOM     65  C   UNL     1       7.632 -10.093  -8.145  1.00  0.00     0.074 A 
ATOM     66  C   UNL     1       7.295 -11.148  -7.213  1.00  0.00     0.031 C 
ATOM     67  C   UNL     1       8.208 -10.304  -9.354  1.00  0.00     0.031 A 
BRANCH  54  68
ATOM     68  C   UNL     1       8.985  -5.165 -12.668  1.00  0.00    -0.014 A 
ATOM     69  C   UNL     1      10.149  -4.377 -12.723  1.00  0.00     0.010 A 
ATOM     70  C   UNL     1       8.271  -5.426 -13.850  1.00  0.00     0.010 A 
ATOM     71  C   UNL     1      10.582  -3.848 -13.941  1.00  0.00     0.020 A 
ATOM     72  C   UNL     1       8.713  -4.917 -15.072  1.00  0.00     0.020 A 
ATOM     73  C   UNL     1       9.862  -4.124 -15.108  1.00  0.00     0.054 A 
BRANCH  73  74
ATOM     74  S   UNL     1      10.480  -3.471 -16.683  1.00  0.00     0.124 S 
ATOM     75  O   UNL     1      10.172  -2.048 -16.559  1.00  0.00    -0.237 OA
ATOM     76  O   UNL     1      11.900  -3.812 -16.635  1.00  0.00    -0.237 OA
ATOM     77  O   UNL     1       9.703  -4.192 -17.687  1.00  0.00    -0.744 OA
ENDBRANCH  73  74
ENDBRANCH  54  68
BRANCH  55  78
ATOM     78  C   UNL     1       5.605  -8.913  -4.070  1.00  0.00    -0.014 A 
ATOM     79  C   UNL     1       6.451  -9.541  -3.139  1.00  0.00     0.010 A 
ATOM     80  C   UNL     1       4.218  -8.911  -3.836  1.00  0.00     0.010 A 
ATOM     81  C   UNL     1       5.919 -10.183  -2.015  1.00  0.00     0.020 A 
ATOM     82  C   UNL     1       3.684  -9.527  -2.700  1.00  0.00     0.020 A 
ATOM     83  C   UNL     1       4.537 -10.175  -1.805  1.00  0.00     0.054 A 
BRANCH  83  84
ATOM     84  S   UNL     1       3.867 -10.994  -0.330  1.00  0.00     0.124 S 
ATOM     85  O   UNL     1       3.970 -12.403  -0.693  1.00  0.00    -0.237 OA
ATOM     86  O   UNL     1       4.775 -10.542   0.721  1.00  0.00    -0.237 OA
ATOM     87  O   UNL     1       2.508 -10.467  -0.237  1.00  0.00    -0.744 OA
ENDBRANCH  83  84
ENDBRANCH  55  78
BRANCH  67  88
ATOM     88  C   UNL     1       8.536 -11.723  -9.740  1.00  0.00    -0.014 A 
ATOM     89  C   UNL     1       7.525 -12.628 -10.106  1.00  0.00     0.010 A 
ATOM     90  C   UNL     1       9.881 -12.133  -9.810  1.00  0.00     0.010 A 
ATOM     91  C   UNL     1       7.851 -13.926 -10.511  1.00  0.00     0.020 A 
ATOM     92  C   UNL     1      10.212 -13.421 -10.240  1.00  0.00     0.020 A 
ATOM     93  C   UNL     1       9.193 -14.314 -10.576  1.00  0.00     0.054 A 
BRANCH  93  94
ATOM     94  S   UNL     1       9.593 -15.986 -11.155  1.00  0.00     0.124 S 
ATOM     95  O   UNL     1       9.224 -16.803 -10.002  1.00  0.00    -0.237 OA
ATOM     96  O   UNL     1       8.737 -16.134 -12.330  1.00  0.00    -0.237 OA
ATOM     97  O   UNL     1      11.025 -15.921 -11.439  1.00  0.00    -0.744 OA
ENDBRANCH  93  94
ENDBRANCH  67  88
ENDBRANCH  41  42
ENDBRANCH  34  36
ENDBRANCH  33  34
ENDBRANCH  32  33
ENDBRANCH  31  32
ENDBRANCH  30  31
ENDBRANCH  29  30
ENDBRANCH  28  29
ENDBRANCH   1  28
TORSDOF 26
