REMARK SMILES COC(=O)c1c(NC(=O)c2ccncc2C(=O)OCCOCCOCCOCCOC(=O)c2ccc(-c3c4nc(c(-c5ccc(S(=O)(=O)[O-])cc5)c5ccc([nH]5)c(-c5ccc(S(=O)(=O)[O-])cc5)c5nc(c(-c6ccc(S(=O)(=O)[O-])cc6)c6ccc3[nH]6)C=C5)C=C4)cc2)sc2c1CCCCCC2
REMARK SMILES IDX 23 1 22 2 21 3 20 4 19 5 18 6 16 7 17 8 15 9 10 10 11 11
REMARK SMILES IDX 12 12 14 13 13 14 8 15 7 16 9 18 6 19 5 20 95 21 93 22 94 23
REMARK SMILES IDX 3 24 4 25 2 26 1 27 96 28 97 29 98 30 101 32 100 33 99 34
REMARK SMILES IDX 24 36 25 37 26 38 27 39 28 40 29 41 30 42 31 43 32 44 33 45
REMARK SMILES IDX 34 46 92 47 35 48 91 49 36 50 37 51 38 52 85 53 39 54 90 55
REMARK SMILES IDX 84 56 86 57 40 58 89 59 83 60 82 61 41 63 71 64 52 65 70 66
REMARK SMILES IDX 53 67 56 68 69 69 87 70 54 71 55 72 68 74 88 75 57 76 42 77
REMARK SMILES IDX 43 78 51 79 44 80 50 81 45 82 46 83 47 84 48 85 49 86 72 87
REMARK SMILES IDX 73 88 81 89 74 90 80 91 75 92 76 93 77 94 78 95 79 96 58 97
REMARK SMILES IDX 59 98 67 99 60 100 66 101 61 102 62 103 63 104 64 105 65 106
REMARK H PARENT 7 17 86 62 56 73
REMARK Flexibility Score: 100.00
ROOT
ATOM      1  C   UNL     1      -0.551  -2.263  -2.827  1.00  0.00     0.188 C 
ENDROOT
BRANCH   1   2
ATOM      2  C   UNL     1      -0.497  -3.155  -1.567  1.00  0.00     0.188 C 
BRANCH   2   3
ATOM      3  O   UNL     1      -1.335  -4.290  -1.480  1.00  0.00    -0.376 OA
BRANCH   3   4
ATOM      4  C   UNL     1      -2.743  -4.205  -1.365  1.00  0.00     0.202 C 
BRANCH   4   5
ATOM      5  C   UNL     1      -3.540  -2.902  -1.214  1.00  0.00     0.261 C 
BRANCH   5   6
ATOM      6  O   UNL     1      -2.786  -1.698  -1.091  1.00  0.00    -0.460 OA
BRANCH   6   7
ATOM      7  C   UNL     1      -2.520  -1.286   0.157  1.00  0.00     0.340 C 
ATOM      8  O   UNL     1      -2.783  -1.902   1.180  1.00  0.00    -0.246 OA
BRANCH   7   9
ATOM      9  C   UNL     1      -1.725  -0.038   0.173  1.00  0.00     0.091 A 
ATOM     10  C   UNL     1      -1.747   1.019  -0.745  1.00  0.00     0.057 A 
ATOM     11  C   UNL     1      -1.134   2.229  -0.412  1.00  0.00     0.035 A 
ATOM     12  C   UNL     1      -0.358   2.280   0.730  1.00  0.00     0.112 A 
ATOM     13  C   UNL     1      -0.899   0.114   1.280  1.00  0.00     0.127 A 
ATOM     14  N   UNL     1      -0.192   1.233   1.561  1.00  0.00    -0.264 NA
BRANCH  10  15
ATOM     15  C   UNL     1      -2.507   0.968  -1.995  1.00  0.00     0.257 C 
ATOM     16  N   UNL     1      -2.003   1.362  -3.208  1.00  0.00    -0.313 N 
ATOM     17  H   UNL     1      -2.649   1.208  -3.935  1.00  0.00     0.171 HD
ATOM     18  O   UNL     1      -3.696   0.654  -1.918  1.00  0.00    -0.269 OA
BRANCH  16  19
ATOM     19  C   UNL     1      -0.830   1.917  -3.680  1.00  0.00     0.110 A 
ATOM     20  C   UNL     1       0.494   2.148  -3.339  1.00  0.00     0.098 A 
ATOM     21  C   UNL     1       1.157   3.017  -4.335  1.00  0.00    -0.017 A 
ATOM     22  S   UNL     1      -1.205   2.601  -5.204  1.00  0.00    -0.122 S 
ATOM     23  C   UNL     1       0.276   3.445  -5.319  1.00  0.00     0.011 A 
BRANCH  20  24
ATOM     24  C   UNL     1       1.225   1.672  -2.169  1.00  0.00     0.341 C 
ATOM     25  O   UNL     1       1.843   2.437  -1.431  1.00  0.00    -0.246 OA
BRANCH  24  26
ATOM     26  O   UNL     1       1.242   0.319  -2.038  1.00  0.00    -0.465 OA
ATOM     27  C   UNL     1       2.138  -0.151  -1.026  1.00  0.00     0.282 C 
ENDBRANCH  24  26
ENDBRANCH  20  24
BRANCH  21  28
ATOM     28  C   UNL     1       2.622   3.391  -4.275  1.00  0.00     0.037 C 
BRANCH  28  29
ATOM     29  C   UNL     1       3.471   2.704  -5.346  1.00  0.00     0.005 C 
BRANCH  29  30
ATOM     30  C   UNL     1       3.009   2.846  -6.795  1.00  0.00     0.000 CG0
ATOM     31  G   UNL     1       2.844   4.278  -7.299  1.00  0.00     0.000 G0
ENDBRANCH  29  30
ENDBRANCH  28  29
ENDBRANCH  21  28
BRANCH  23  32
ATOM     32  C   UNL     1       0.395   4.427  -6.466  1.00  0.00     0.047 C 
BRANCH  32  33
ATOM     33  C   UNL     1       1.733   5.129  -6.678  1.00  0.00     0.006 C 
BRANCH  33  34
ATOM     34  C   UNL     1       2.844   4.278  -7.299  1.00  0.00     0.000 CG0
ATOM     35  G   UNL     1       3.009   2.846  -6.795  1.00  0.00     0.000 G0
ENDBRANCH  33  34
ENDBRANCH  32  33
ENDBRANCH  23  32
ENDBRANCH  16  19
ENDBRANCH  10  15
ENDBRANCH   7   9
ENDBRANCH   6   7
ENDBRANCH   5   6
ENDBRANCH   4   5
ENDBRANCH   3   4
ENDBRANCH   2   3
ENDBRANCH   1   2
BRANCH   1  36
ATOM     36  O   UNL     1      -1.715  -2.332  -3.624  1.00  0.00    -0.377 OA
BRANCH  36  37
ATOM     37  C   UNL     1      -1.923  -3.441  -4.489  1.00  0.00     0.188 C 
BRANCH  37  38
ATOM     38  C   UNL     1      -1.087  -4.743  -4.411  1.00  0.00     0.188 C 
BRANCH  38  39
ATOM     39  O   UNL     1       0.144  -4.626  -3.720  1.00  0.00    -0.376 OA
BRANCH  39  40
ATOM     40  C   UNL     1       1.389  -4.757  -4.374  1.00  0.00     0.202 C 
BRANCH  40  41
ATOM     41  C   UNL     1       1.768  -3.680  -5.382  1.00  0.00     0.261 C 
BRANCH  41  42
ATOM     42  O   UNL     1       0.673  -3.196  -6.132  1.00  0.00    -0.460 OA
BRANCH  42  43
ATOM     43  C   UNL     1       0.236  -4.031  -7.084  1.00  0.00     0.338 C 
ATOM     44  O   UNL     1       0.539  -5.219  -7.220  1.00  0.00    -0.246 OA
BRANCH  43  45
ATOM     45  C   UNL     1      -0.573  -3.267  -8.027  1.00  0.00     0.060 A 
ATOM     46  C   UNL     1      -1.138  -3.989  -9.076  1.00  0.00     0.016 A 
ATOM     47  C   UNL     1      -0.405  -1.872  -8.067  1.00  0.00     0.016 A 
ATOM     48  C   UNL     1      -1.235  -3.358 -10.289  1.00  0.00     0.010 A 
ATOM     49  C   UNL     1      -0.484  -1.250  -9.283  1.00  0.00     0.010 A 
ATOM     50  C   UNL     1      -0.782  -2.037 -10.388  1.00  0.00    -0.014 A 
BRANCH  50  51
ATOM     51  C   UNL     1      -0.639  -1.482 -11.707  1.00  0.00     0.031 A 
ATOM     52  C   UNL     1      -1.929  -1.106 -12.301  1.00  0.00     0.074 A 
ATOM     53  C   UNL     1       0.556  -1.298 -12.291  1.00  0.00     0.049 A 
ATOM     54  N   UNL     1      -2.580  -1.756 -13.203  1.00  0.00    -0.248 NA
ATOM     55  C   UNL     1      -2.676  -0.011 -11.667  1.00  0.00     0.031 C 
ATOM     56  C   UNL     1       1.895  -1.386 -11.704  1.00  0.00     0.029 A 
ATOM     57  N   UNL     1       0.803  -0.877 -13.555  1.00  0.00    -0.354 N 
ATOM     58  C   UNL     1      -3.735  -1.020 -13.413  1.00  0.00     0.074 A 
ATOM     59  C   UNL     1      -3.841  -0.099 -12.307  1.00  0.00     0.031 C 
ATOM     60  C   UNL     1       2.781  -0.793 -12.539  1.00  0.00     0.029 A 
ATOM     61  C   UNL     1       2.094  -0.419 -13.766  1.00  0.00     0.049 A 
ATOM     62  H   UNL     1       0.122  -0.896 -14.266  1.00  0.00     0.167 HD
ATOM     63  C   UNL     1      -4.369  -1.030 -14.614  1.00  0.00     0.031 A 
ATOM     64  C   UNL     1       2.514   0.294 -14.842  1.00  0.00     0.031 A 
ATOM     65  C   UNL     1      -3.902  -2.093 -15.464  1.00  0.00     0.049 A 
ATOM     66  C   UNL     1       1.538   0.044 -15.937  1.00  0.00     0.074 A 
ATOM     67  C   UNL     1      -3.899  -3.471 -15.382  1.00  0.00     0.029 A 
ATOM     68  N   UNL     1      -2.958  -1.763 -16.411  1.00  0.00    -0.354 N 
ATOM     69  N   UNL     1       1.383  -1.122 -16.500  1.00  0.00    -0.248 NA
ATOM     70  C   UNL     1       0.407   0.952 -16.077  1.00  0.00     0.031 C 
ATOM     71  C   UNL     1      -2.652  -3.874 -15.944  1.00  0.00     0.029 A 
ATOM     72  C   UNL     1      -1.985  -2.730 -16.390  1.00  0.00     0.049 A 
ATOM     73  H   UNL     1      -2.978  -0.973 -16.999  1.00  0.00     0.167 HD
ATOM     74  C   UNL     1       0.011  -1.258 -16.677  1.00  0.00     0.074 A 
ATOM     75  C   UNL     1      -0.527   0.088 -16.489  1.00  0.00     0.031 C 
ATOM     76  C   UNL     1      -0.585  -2.488 -16.677  1.00  0.00     0.031 A 
BRANCH  63  77
ATOM     77  C   UNL     1      -5.095   0.170 -15.148  1.00  0.00    -0.014 A 
ATOM     78  C   UNL     1      -5.872   0.035 -16.310  1.00  0.00     0.010 A 
ATOM     79  C   UNL     1      -4.825   1.480 -14.694  1.00  0.00     0.010 A 
ATOM     80  C   UNL     1      -6.321   1.163 -17.008  1.00  0.00     0.020 A 
ATOM     81  C   UNL     1      -5.306   2.607 -15.354  1.00  0.00     0.020 A 
ATOM     82  C   UNL     1      -6.026   2.440 -16.527  1.00  0.00     0.054 A 
BRANCH  82  83
ATOM     83  S   UNL     1      -6.529   3.887 -17.485  1.00  0.00     0.124 S 
ATOM     84  O   UNL     1      -5.712   3.749 -18.687  1.00  0.00    -0.237 OA
ATOM     85  O   UNL     1      -7.961   3.659 -17.659  1.00  0.00    -0.237 OA
ATOM     86  O   UNL     1      -6.182   5.010 -16.617  1.00  0.00    -0.744 OA
ENDBRANCH  82  83
ENDBRANCH  63  77
BRANCH  64  87
ATOM     87  C   UNL     1       3.450   1.447 -14.837  1.00  0.00    -0.014 A 
ATOM     88  C   UNL     1       3.961   1.978 -16.036  1.00  0.00     0.010 A 
ATOM     89  C   UNL     1       3.623   2.207 -13.660  1.00  0.00     0.010 A 
ATOM     90  C   UNL     1       4.567   3.247 -16.065  1.00  0.00     0.020 A 
ATOM     91  C   UNL     1       4.231   3.467 -13.681  1.00  0.00     0.020 A 
ATOM     92  C   UNL     1       4.680   3.993 -14.888  1.00  0.00     0.054 A 
BRANCH  92  93
ATOM     93  S   UNL     1       5.298   5.701 -14.960  1.00  0.00     0.124 S 
ATOM     94  O   UNL     1       6.715   5.507 -15.254  1.00  0.00    -0.237 OA
ATOM     95  O   UNL     1       4.502   6.283 -16.036  1.00  0.00    -0.237 OA
ATOM     96  O   UNL     1       5.009   6.228 -13.626  1.00  0.00    -0.744 OA
ENDBRANCH  92  93
ENDBRANCH  64  87
BRANCH  76  97
ATOM     97  C   UNL     1       0.305  -3.711 -16.753  1.00  0.00    -0.014 A 
ATOM     98  C   UNL     1       1.252  -4.053 -15.766  1.00  0.00     0.010 A 
ATOM     99  C   UNL     1       0.064  -4.626 -17.792  1.00  0.00     0.010 A 
ATOM    100  C   UNL     1       1.956  -5.266 -15.836  1.00  0.00     0.020 A 
ATOM    101  C   UNL     1       0.749  -5.842 -17.859  1.00  0.00     0.020 A 
ATOM    102  C   UNL     1       1.700  -6.153 -16.886  1.00  0.00     0.054 A 
BRANCH 102 103
ATOM    103  S   UNL     1       2.582  -7.738 -16.955  1.00  0.00     0.124 S 
ATOM    104  O   UNL     1       3.951  -7.327 -17.252  1.00  0.00    -0.237 OA
ATOM    105  O   UNL     1       2.366  -8.289 -15.619  1.00  0.00    -0.237 OA
ATOM    106  O   UNL     1       1.909  -8.465 -18.031  1.00  0.00    -0.744 OA
ENDBRANCH 102 103
ENDBRANCH  76  97
ENDBRANCH  50  51
ENDBRANCH  43  45
ENDBRANCH  42  43
ENDBRANCH  41  42
ENDBRANCH  40  41
ENDBRANCH  39  40
ENDBRANCH  38  39
ENDBRANCH  37  38
ENDBRANCH  36  37
ENDBRANCH   1  36
TORSDOF 27
