REMARK SMILES O=C(OCCOCCOCCOCCOC(=O)c1nnn(Cc2ccccc2Cl)c1-c1ccc(Cl)cc1)c1ccc(-c2c3nc(c(-c4ccc(S(=O)(=O)[O-])cc4)c4ccc([nH]4)c(-c4ccc(S(=O)(=O)[O-])cc4)c4nc(c(-c5ccc(S(=O)(=O)[O-])cc5)c5ccc2[nH]5)C=C4)C=C3)cc1
REMARK SMILES IDX 8 1 7 2 6 3 5 4 4 5 3 6 2 7 1 8 38 9 39 10 97 11 40 12 96 13
REMARK SMILES IDX 41 14 42 15 43 16 90 17 44 18 95 19 89 20 91 21 45 22 94 23
REMARK SMILES IDX 88 24 87 25 46 27 76 28 57 29 75 30 58 31 61 32 74 33 92 34
REMARK SMILES IDX 59 35 60 36 73 38 93 39 62 40 47 41 48 42 56 43 49 44 55 45
REMARK SMILES IDX 50 46 51 47 52 48 53 49 54 50 77 51 78 52 86 53 79 54 85 55
REMARK SMILES IDX 80 56 81 57 82 58 83 59 84 60 63 61 64 62 72 63 65 64 71 65
REMARK SMILES IDX 66 66 67 67 68 68 69 69 70 70 9 71 10 72 11 73 12 74 13 75
REMARK SMILES IDX 14 76 15 77 16 78 17 79 18 80 19 81 30 82 20 83 21 84 31 85
REMARK SMILES IDX 32 86 37 87 33 88 36 89 34 90 35 91 22 92 23 93 24 94 28 95
REMARK SMILES IDX 25 96 27 97 29 98 26 99
REMARK H PARENT 91 26 61 37
REMARK Flexibility Score: inf
ROOT
ATOM      1  C   UNL     1       2.357  -1.406  -1.369  1.00  0.00     0.188 C 
ENDROOT
BRANCH   1   2
ATOM      2  C   UNL     1       3.005  -0.015  -1.399  1.00  0.00     0.188 C 
BRANCH   2   3
ATOM      3  O   UNL     1       4.374   0.174  -1.101  1.00  0.00    -0.376 OA
BRANCH   3   4
ATOM      4  C   UNL     1       5.101  -0.234   0.038  1.00  0.00     0.202 C 
BRANCH   4   5
ATOM      5  C   UNL     1       4.553  -0.693   1.393  1.00  0.00     0.261 C 
BRANCH   5   6
ATOM      6  O   UNL     1       3.188  -1.074   1.471  1.00  0.00    -0.460 OA
BRANCH   6   7
ATOM      7  C   UNL     1       2.082  -0.329   1.652  1.00  0.00     0.338 C 
ATOM      8  O   UNL     1       1.002  -0.916   1.718  1.00  0.00    -0.246 OA
BRANCH   7   9
ATOM      9  C   UNL     1       2.071   1.158   1.664  1.00  0.00     0.060 A 
ATOM     10  C   UNL     1       3.183   1.990   1.807  1.00  0.00     0.016 A 
ATOM     11  C   UNL     1       0.797   1.746   1.533  1.00  0.00     0.016 A 
ATOM     12  C   UNL     1       3.019   3.352   1.975  1.00  0.00     0.010 A 
ATOM     13  C   UNL     1       0.627   3.112   1.680  1.00  0.00     0.010 A 
ATOM     14  C   UNL     1       1.738   3.890   1.982  1.00  0.00    -0.014 A 
BRANCH  14  15
ATOM     15  C   UNL     1       1.617   5.270   2.406  1.00  0.00     0.031 A 
ATOM     16  C   UNL     1       2.156   6.296   1.487  1.00  0.00     0.074 A 
ATOM     17  C   UNL     1       1.028   5.578   3.576  1.00  0.00     0.049 A 
ATOM     18  N   UNL     1       3.138   7.112   1.690  1.00  0.00    -0.248 NA
ATOM     19  C   UNL     1       1.587   6.354   0.134  1.00  0.00     0.031 C 
ATOM     20  C   UNL     1       0.246   4.688   4.439  1.00  0.00     0.029 A 
ATOM     21  N   UNL     1       0.901   6.792   4.176  1.00  0.00    -0.354 N 
ATOM     22  C   UNL     1       3.177   7.937   0.570  1.00  0.00     0.074 A 
ATOM     23  C   UNL     1       2.309   7.333  -0.411  1.00  0.00     0.031 C 
ATOM     24  C   UNL     1      -0.475   5.436   5.299  1.00  0.00     0.029 A 
ATOM     25  C   UNL     1      -0.101   6.830   5.133  1.00  0.00     0.049 A 
ATOM     26  H   UNL     1       1.466   7.567   3.952  1.00  0.00     0.167 HD
ATOM     27  C   UNL     1       3.726   9.183   0.607  1.00  0.00     0.031 A 
ATOM     28  C   UNL     1      -0.655   7.939   5.675  1.00  0.00     0.031 A 
ATOM     29  C   UNL     1       4.591   9.371   1.741  1.00  0.00     0.049 A 
ATOM     30  C   UNL     1       0.293   9.062   5.479  1.00  0.00     0.074 A 
ATOM     31  C   UNL     1       5.739   8.761   2.204  1.00  0.00     0.029 A 
ATOM     32  N   UNL     1       4.112  10.124   2.786  1.00  0.00    -0.354 N 
ATOM     33  N   UNL     1       1.450   9.143   6.076  1.00  0.00    -0.248 NA
ATOM     34  C   UNL     1       0.140   9.915   4.310  1.00  0.00     0.031 C 
ATOM     35  C   UNL     1       5.646   8.819   3.625  1.00  0.00     0.029 A 
ATOM     36  C   UNL     1       4.464   9.488   3.948  1.00  0.00     0.049 A 
ATOM     37  H   UNL     1       3.607  10.966   2.713  1.00  0.00     0.167 HD
ATOM     38  C   UNL     1       2.297   9.722   5.143  1.00  0.00     0.074 A 
ATOM     39  C   UNL     1       1.410  10.286   4.130  1.00  0.00     0.031 C 
ATOM     40  C   UNL     1       3.636   9.449   5.137  1.00  0.00     0.031 A 
BRANCH  27  41
ATOM     41  C   UNL     1       3.154  10.348  -0.165  1.00  0.00    -0.014 A 
ATOM     42  C   UNL     1       3.824  11.587  -0.139  1.00  0.00     0.010 A 
ATOM     43  C   UNL     1       1.834  10.344  -0.666  1.00  0.00     0.010 A 
ATOM     44  C   UNL     1       3.175  12.771  -0.519  1.00  0.00     0.020 A 
ATOM     45  C   UNL     1       1.196  11.507  -1.093  1.00  0.00     0.020 A 
ATOM     46  C   UNL     1       1.856  12.721  -0.974  1.00  0.00     0.054 A 
BRANCH  46  47
ATOM     47  S   UNL     1       0.974  14.261  -1.326  1.00  0.00     0.124 S 
ATOM     48  O   UNL     1       0.813  14.822   0.012  1.00  0.00    -0.237 OA
ATOM     49  O   UNL     1       1.909  14.963  -2.201  1.00  0.00    -0.237 OA
ATOM     50  O   UNL     1      -0.256  13.809  -1.972  1.00  0.00    -0.744 OA
ENDBRANCH  46  47
ENDBRANCH  27  41
BRANCH  28  51
ATOM     51  C   UNL     1      -2.078   8.122   6.048  1.00  0.00    -0.014 A 
ATOM     52  C   UNL     1      -2.489   9.230   6.806  1.00  0.00     0.010 A 
ATOM     53  C   UNL     1      -3.078   7.333   5.439  1.00  0.00     0.010 A 
ATOM     54  C   UNL     1      -3.849   9.569   6.903  1.00  0.00     0.020 A 
ATOM     55  C   UNL     1      -4.434   7.654   5.545  1.00  0.00     0.020 A 
ATOM     56  C   UNL     1      -4.811   8.788   6.256  1.00  0.00     0.054 A 
BRANCH  56  57
ATOM     57  S   UNL     1      -6.543   9.331   6.238  1.00  0.00     0.124 S 
ATOM     58  O   UNL     1      -6.956   9.098   7.618  1.00  0.00    -0.237 OA
ATOM     59  O   UNL     1      -6.431  10.731   5.838  1.00  0.00    -0.237 OA
ATOM     60  O   UNL     1      -7.168   8.456   5.247  1.00  0.00    -0.744 OA
ENDBRANCH  56  57
ENDBRANCH  28  51
BRANCH  40  61
ATOM     61  C   UNL     1       4.244   8.796   6.357  1.00  0.00    -0.014 A 
ATOM     62  C   UNL     1       3.842   7.538   6.845  1.00  0.00     0.010 A 
ATOM     63  C   UNL     1       5.363   9.415   6.944  1.00  0.00     0.010 A 
ATOM     64  C   UNL     1       4.522   6.931   7.910  1.00  0.00     0.020 A 
ATOM     65  C   UNL     1       6.057   8.807   7.993  1.00  0.00     0.020 A 
ATOM     66  C   UNL     1       5.628   7.571   8.478  1.00  0.00     0.054 A 
BRANCH  66  67
ATOM     67  S   UNL     1       6.538   6.751   9.817  1.00  0.00     0.124 S 
ATOM     68  O   UNL     1       5.599   6.828  10.932  1.00  0.00    -0.237 OA
ATOM     69  O   UNL     1       6.769   5.412   9.280  1.00  0.00    -0.237 OA
ATOM     70  O   UNL     1       7.745   7.564   9.967  1.00  0.00    -0.744 OA
ENDBRANCH  66  67
ENDBRANCH  40  61
ENDBRANCH  14  15
ENDBRANCH   7   9
ENDBRANCH   6   7
ENDBRANCH   5   6
ENDBRANCH   4   5
ENDBRANCH   3   4
ENDBRANCH   2   3
ENDBRANCH   1   2
BRANCH   1  71
ATOM     71  O   UNL     1       2.880  -2.336  -2.302  1.00  0.00    -0.377 OA
BRANCH  71  72
ATOM     72  C   UNL     1       4.194  -2.769  -2.010  1.00  0.00     0.188 C 
BRANCH  72  73
ATOM     73  C   UNL     1       5.295  -2.191  -2.924  1.00  0.00     0.188 C 
BRANCH  73  74
ATOM     74  O   UNL     1       5.043  -1.566  -4.181  1.00  0.00    -0.376 OA
BRANCH  74  75
ATOM     75  C   UNL     1       3.770  -1.609  -4.795  1.00  0.00     0.202 C 
BRANCH  75  76
ATOM     76  C   UNL     1       3.397  -2.933  -5.464  1.00  0.00     0.261 C 
BRANCH  76  77
ATOM     77  O   UNL     1       3.628  -4.085  -4.649  1.00  0.00    -0.458 OA
BRANCH  77  78
ATOM     78  C   UNL     1       4.856  -4.669  -4.768  1.00  0.00     0.361 C 
ATOM     79  O   UNL     1       5.719  -4.355  -5.579  1.00  0.00    -0.244 OA
BRANCH  78  80
ATOM     80  C   UNL     1       5.022  -5.733  -3.797  1.00  0.00     0.198 A 
ATOM     81  N   UNL     1       5.969  -5.712  -2.811  1.00  0.00    -0.122 NA
ATOM     82  C   UNL     1       4.230  -6.867  -3.670  1.00  0.00     0.104 A 
ATOM     83  N   UNL     1       5.777  -6.769  -2.040  1.00  0.00    -0.066 NA
ATOM     84  N   UNL     1       4.782  -7.505  -2.583  1.00  0.00    -0.239 N 
BRANCH  82  85
ATOM     85  C   UNL     1       3.130  -7.288  -4.527  1.00  0.00     0.002 A 
ATOM     86  C   UNL     1       3.317  -7.266  -5.920  1.00  0.00     0.012 A 
ATOM     87  C   UNL     1       1.852  -7.533  -4.016  1.00  0.00     0.012 A 
ATOM     88  C   UNL     1       2.241  -7.439  -6.788  1.00  0.00     0.021 A 
ATOM     89  C   UNL     1       0.774  -7.727  -4.889  1.00  0.00     0.021 A 
ATOM     90  C   UNL     1       0.971  -7.664  -6.268  1.00  0.00     0.041 A 
ATOM     91  Cl  UNL     1      -0.365  -7.835  -7.337  1.00  0.00    -0.084 Cl
ENDBRANCH  82  85
BRANCH  84  92
ATOM     92  C   UNL     1       4.531  -8.836  -2.057  1.00  0.00     0.183 C 
BRANCH  92  93
ATOM     93  C   UNL     1       5.673  -9.762  -2.410  1.00  0.00    -0.008 A 
ATOM     94  C   UNL     1       5.693 -10.352  -3.688  1.00  0.00     0.007 A 
ATOM     95  C   UNL     1       6.768  -9.980  -1.556  1.00  0.00     0.046 A 
ATOM     96  C   UNL     1       6.778 -11.125  -4.103  1.00  0.00     0.000 A 
ATOM     97  C   UNL     1       7.857 -10.749  -1.980  1.00  0.00     0.021 A 
ATOM     98  Cl  UNL     1       6.837  -9.331   0.043  1.00  0.00    -0.084 Cl
ATOM     99  C   UNL     1       7.863 -11.318  -3.253  1.00  0.00     0.002 A 
ENDBRANCH  92  93
ENDBRANCH  84  92
ENDBRANCH  78  80
ENDBRANCH  77  78
ENDBRANCH  76  77
ENDBRANCH  75  76
ENDBRANCH  74  75
ENDBRANCH  73  74
ENDBRANCH  72  73
ENDBRANCH  71  72
ENDBRANCH   1  71
TORSDOF 26
