REMARK SMILES COc1ccc(S(=O)(=O)N2CCCC[C@@H]2C(=O)OCCOCCOCCOCCOC(=O)c2ccc(-c3c4nc(c(-c5ccc(S(=O)(=O)[O-])cc5)c5ccc([nH]5)c(-c5ccc(S(=O)(=O)[O-])cc5)c5nc(c(-c6ccc(S(=O)(=O)[O-])cc6)c6ccc3[nH]6)C=C5)C=C4)cc2)cc1C
REMARK SMILES IDX 24 1 23 2 22 3 21 4 20 5 19 6 18 7 16 8 17 9 15 10 10 11
REMARK SMILES IDX 11 12 12 13 14 14 13 15 7 16 8 17 9 18 6 19 3 20 4 21 94 22
REMARK SMILES IDX 5 23 93 24 95 25 2 26 1 27 25 28 26 29 27 30 28 31 29 32
REMARK SMILES IDX 30 33 31 34 32 35 33 36 34 37 92 38 35 39 91 40 36 41 37 42
REMARK SMILES IDX 38 43 85 44 39 45 90 46 84 47 86 48 40 49 89 50 83 51 82 52
REMARK SMILES IDX 41 54 71 55 52 56 70 57 53 58 56 59 69 60 87 61 54 62 55 63
REMARK SMILES IDX 68 65 88 66 57 67 42 68 43 69 51 70 44 71 50 72 45 73 46 74
REMARK SMILES IDX 47 75 48 76 49 77 72 78 73 79 81 80 74 81 80 82 75 83 76 84
REMARK SMILES IDX 77 85 78 86 79 87 58 88 59 89 67 90 60 91 66 92 61 93 62 94
REMARK SMILES IDX 63 95 64 96 65 97
REMARK H PARENT 86 53 56 64
REMARK Flexibility Score: inf
ROOT
ATOM      1  O   UNL     1       8.680   7.550   4.916  1.00  0.00    -0.377 OA
ENDROOT
BRANCH   1   2
ATOM      2  C   UNL     1       7.550   6.882   4.438  1.00  0.00     0.188 C 
BRANCH   2   3
ATOM      3  C   UNL     1       6.371   7.819   4.075  1.00  0.00     0.188 C 
BRANCH   3   4
ATOM      4  O   UNL     1       5.594   8.687   5.126  1.00  0.00    -0.376 OA
BRANCH   4   5
ATOM      5  C   UNL     1       4.030   8.814   5.606  1.00  0.00     0.202 C 
BRANCH   5   6
ATOM      6  C   UNL     1       2.397   8.164   5.149  1.00  0.00     0.261 C 
BRANCH   6   7
ATOM      7  O   UNL     1       1.808   6.612   4.381  1.00  0.00    -0.462 OA
BRANCH   7   8
ATOM      8  C   UNL     1       2.017   5.310   3.602  1.00  0.00     0.324 C 
ATOM      9  O   UNL     1       1.329   5.132   2.582  1.00  0.00    -0.250 OA
BRANCH   8  10
ATOM     10  C   UNL     1       3.138   3.951   3.932  1.00  0.00     0.183 C 
ATOM     11  N   UNL     1       2.800   2.908   5.070  1.00  0.00    -0.184 NA
ATOM     12  C   UNL     1       3.813   1.941   5.588  1.00  0.00     0.103 C 
ATOM     13  C   UNL     1       5.242   2.393   5.527  1.00  0.00     0.017 C 
ATOM     14  C   UNL     1       4.707   4.022   3.705  1.00  0.00     0.032 C 
ATOM     15  C   UNL     1       5.556   2.812   4.110  1.00  0.00     0.004 C 
BRANCH  11  16
ATOM     16  S   UNL     1       1.232   2.230   5.143  1.00  0.00     0.243 S 
ATOM     17  O   UNL     1       0.328   3.289   5.518  1.00  0.00    -0.207 OA
ATOM     18  O   UNL     1       1.275   1.005   5.907  1.00  0.00    -0.207 OA
BRANCH  16  19
ATOM     19  C   UNL     1       0.910   1.774   3.473  1.00  0.00     0.083 A 
ATOM     20  C   UNL     1       0.627   1.465   0.761  1.00  0.00     0.121 A 
ATOM     21  C   UNL     1      -0.455   1.924   1.518  1.00  0.00     0.048 A 
ATOM     22  C   UNL     1       1.885   1.262   1.331  1.00  0.00    -0.008 A 
ATOM     23  C   UNL     1      -0.304   2.116   2.886  1.00  0.00     0.025 A 
ATOM     24  C   UNL     1       1.973   1.277   2.713  1.00  0.00     0.029 A 
ATOM     25  C   UNL     1       3.144   1.101   0.535  1.00  0.00     0.048 C 
BRANCH  20  26
ATOM     26  O   UNL     1       0.400   1.160  -0.552  1.00  0.00    -0.496 OA
ATOM     27  C   UNL     1       0.484  -0.261  -0.703  1.00  0.00     0.278 C 
ENDBRANCH  20  26
ENDBRANCH  16  19
ENDBRANCH  11  16
ENDBRANCH   8  10
ENDBRANCH   7   8
ENDBRANCH   6   7
ENDBRANCH   5   6
ENDBRANCH   4   5
ENDBRANCH   3   4
ENDBRANCH   2   3
ENDBRANCH   1   2
BRANCH   1  28
ATOM     28  C   UNL     1       8.877   8.823   4.325  1.00  0.00     0.188 C 
BRANCH  28  29
ATOM     29  C   UNL     1       9.391   8.787   2.896  1.00  0.00     0.188 C 
BRANCH  29  30
ATOM     30  O   UNL     1       8.438   8.429   1.889  1.00  0.00    -0.376 OA
BRANCH  30  31
ATOM     31  C   UNL     1       8.930   8.663   0.564  1.00  0.00     0.202 C 
BRANCH  31  32
ATOM     32  C   UNL     1       9.299  10.138   0.283  1.00  0.00     0.261 C 
BRANCH  32  33
ATOM     33  O   UNL     1       8.122  10.973   0.204  1.00  0.00    -0.460 OA
BRANCH  33  34
ATOM     34  C   UNL     1       7.617  11.445   1.379  1.00  0.00     0.338 C 
ATOM     35  O   UNL     1       8.195  12.215   2.126  1.00  0.00    -0.246 OA
BRANCH  34  36
ATOM     36  C   UNL     1       6.290  10.799   1.640  1.00  0.00     0.060 A 
ATOM     37  C   UNL     1       5.533  11.081   2.765  1.00  0.00     0.016 A 
ATOM     38  C   UNL     1       5.901   9.711   0.859  1.00  0.00     0.016 A 
ATOM     39  C   UNL     1       4.531  10.162   3.153  1.00  0.00     0.010 A 
ATOM     40  C   UNL     1       5.142   8.678   1.419  1.00  0.00     0.010 A 
ATOM     41  C   UNL     1       4.514   8.823   2.660  1.00  0.00    -0.014 A 
BRANCH  41  42
ATOM     42  C   UNL     1       3.783   7.462   3.355  1.00  0.00     0.031 A 
ATOM     43  C   UNL     1       2.380   7.732   2.401  1.00  0.00     0.074 A 
ATOM     44  C   UNL     1       4.087   6.577   4.721  1.00  0.00     0.049 A 
ATOM     45  N   UNL     1       1.268   8.255   2.862  1.00  0.00    -0.248 NA
ATOM     46  C   UNL     1       2.336   7.789   0.921  1.00  0.00     0.031 C 
ATOM     47  C   UNL     1       3.226   5.578   5.711  1.00  0.00     0.029 A 
ATOM     48  N   UNL     1       5.137   6.564   5.803  1.00  0.00    -0.354 N 
ATOM     49  C   UNL     1       0.316   8.125   1.913  1.00  0.00     0.074 A 
ATOM     50  C   UNL     1       1.077   8.196   0.692  1.00  0.00     0.031 C 
ATOM     51  C   UNL     1       3.753   5.180   6.865  1.00  0.00     0.029 A 
ATOM     52  C   UNL     1       4.745   6.127   7.098  1.00  0.00     0.049 A 
ATOM     53  H   UNL     1       6.061   6.848   5.619  1.00  0.00     0.167 HD
ATOM     54  C   UNL     1      -0.921   7.620   2.205  1.00  0.00     0.031 A 
ATOM     55  C   UNL     1       4.652   6.925   8.210  1.00  0.00     0.031 A 
ATOM     56  C   UNL     1      -1.045   7.089   3.614  1.00  0.00     0.049 A 
ATOM     57  C   UNL     1       3.085   7.209   8.501  1.00  0.00     0.074 A 
ATOM     58  C   UNL     1      -1.251   5.796   4.066  1.00  0.00     0.029 A 
ATOM     59  N   UNL     1      -0.693   7.807   4.798  1.00  0.00    -0.354 N 
ATOM     60  N   UNL     1       2.134   7.210   7.577  1.00  0.00    -0.248 NA
ATOM     61  C   UNL     1       2.465   7.289   9.819  1.00  0.00     0.031 C 
ATOM     62  C   UNL     1      -0.970   5.727   5.455  1.00  0.00     0.029 A 
ATOM     63  C   UNL     1      -0.512   6.952   5.925  1.00  0.00     0.049 A 
ATOM     64  H   UNL     1      -0.586   8.785   4.833  1.00  0.00     0.167 HD
ATOM     65  C   UNL     1       0.843   7.307   8.086  1.00  0.00     0.074 A 
ATOM     66  C   UNL     1       1.142   7.309   9.525  1.00  0.00     0.031 C 
ATOM     67  C   UNL     1      -0.367   7.368   7.369  1.00  0.00     0.031 A 
BRANCH  54  68
ATOM     68  C   UNL     1      -1.772   7.193   0.992  1.00  0.00    -0.014 A 
ATOM     69  C   UNL     1      -2.511   5.997   0.969  1.00  0.00     0.010 A 
ATOM     70  C   UNL     1      -1.802   7.940  -0.213  1.00  0.00     0.010 A 
ATOM     71  C   UNL     1      -3.129   5.511  -0.201  1.00  0.00     0.020 A 
ATOM     72  C   UNL     1      -2.373   7.448  -1.404  1.00  0.00     0.020 A 
ATOM     73  C   UNL     1      -3.031   6.225  -1.392  1.00  0.00     0.054 A 
BRANCH  73  74
ATOM     74  S   UNL     1      -3.813   5.564  -2.892  1.00  0.00     0.124 S 
ATOM     75  O   UNL     1      -3.161   4.267  -3.056  1.00  0.00    -0.237 OA
ATOM     76  O   UNL     1      -5.223   5.514  -2.514  1.00  0.00    -0.237 OA
ATOM     77  O   UNL     1      -3.485   6.550  -3.921  1.00  0.00    -0.744 OA
ENDBRANCH  73  74
ENDBRANCH  54  68
BRANCH  55  78
ATOM     78  C   UNL     1       5.939   7.727   8.392  1.00  0.00    -0.014 A 
ATOM     79  C   UNL     1       7.141   6.952   8.413  1.00  0.00     0.010 A 
ATOM     80  C   UNL     1       6.119   9.107   8.190  1.00  0.00     0.010 A 
ATOM     81  C   UNL     1       8.418   7.489   8.147  1.00  0.00     0.020 A 
ATOM     82  C   UNL     1       7.408   9.657   7.912  1.00  0.00     0.020 A 
ATOM     83  C   UNL     1       8.553   8.848   7.897  1.00  0.00     0.054 A 
BRANCH  83  84
ATOM     84  S   UNL     1      10.210   9.522   7.480  1.00  0.00     0.124 S 
ATOM     85  O   UNL     1      10.793   9.761   8.796  1.00  0.00    -0.237 OA
ATOM     86  O   UNL     1      10.863   8.455   6.722  1.00  0.00    -0.237 OA
ATOM     87  O   UNL     1       9.904  10.729   6.713  1.00  0.00    -0.744 OA
ENDBRANCH  83  84
ENDBRANCH  55  78
BRANCH  67  88
ATOM     88  C   UNL     1      -1.744   7.641   8.009  1.00  0.00    -0.014 A 
ATOM     89  C   UNL     1      -1.945   8.250   9.249  1.00  0.00     0.010 A 
ATOM     90  C   UNL     1      -2.930   7.371   7.260  1.00  0.00     0.010 A 
ATOM     91  C   UNL     1      -3.240   8.504   9.738  1.00  0.00     0.020 A 
ATOM     92  C   UNL     1      -4.217   7.647   7.713  1.00  0.00     0.020 A 
ATOM     93  C   UNL     1      -4.365   8.199   8.968  1.00  0.00     0.054 A 
BRANCH  93  94
ATOM     94  S   UNL     1      -6.014   8.607   9.578  1.00  0.00     0.124 S 
ATOM     95  O   UNL     1      -6.246   7.545  10.553  1.00  0.00    -0.237 OA
ATOM     96  O   UNL     1      -5.822   9.943  10.137  1.00  0.00    -0.237 OA
ATOM     97  O   UNL     1      -6.855   8.554   8.384  1.00  0.00    -0.744 OA
ENDBRANCH  93  94
ENDBRANCH  67  88
ENDBRANCH  41  42
ENDBRANCH  34  36
ENDBRANCH  33  34
ENDBRANCH  32  33
ENDBRANCH  31  32
ENDBRANCH  30  31
ENDBRANCH  29  30
ENDBRANCH  28  29
ENDBRANCH   1  28
TORSDOF 26
