REMARK SMILES O=C(OCCOCCOCCOCCOC(=O)c1cccc(S(=O)(=O)Nc2ccccc2N2CCOCC2)c1)c1ccc(-c2c3nc(c(-c4ccc(S(=O)(=O)[O-])cc4)c4ccc([nH]4)c(-c4ccc(S(=O)(=O)[O-])cc4)c4nc(c(-c5ccc(S(=O)(=O)[O-])cc5)c5ccc2[nH]5)C=C4)C=C3)cc1
REMARK SMILES IDX 10 1 9 2 8 3 7 4 6 5 5 6 4 7 3 8 2 9 1 10 40 11 41 12 99 13
REMARK SMILES IDX 42 14 98 15 43 16 44 17 45 18 92 19 46 20 97 21 91 22 93 23
REMARK SMILES IDX 47 24 96 25 90 26 89 27 48 29 78 30 59 31 77 32 60 33 63 34
REMARK SMILES IDX 76 35 94 36 61 37 62 38 75 40 95 41 64 42 49 43 50 44 58 45
REMARK SMILES IDX 51 46 57 47 52 48 53 49 54 50 55 51 56 52 79 53 80 54 88 55
REMARK SMILES IDX 81 56 87 57 82 58 83 59 84 60 85 61 86 62 65 63 66 64 74 65
REMARK SMILES IDX 67 66 73 67 68 68 69 69 70 70 71 71 72 72 11 73 12 74 13 75
REMARK SMILES IDX 14 76 15 77 16 78 17 79 18 80 19 81 39 82 20 83 22 84 21 85
REMARK SMILES IDX 23 86 24 87 25 88 26 89 27 91 28 92 32 93 29 94 31 95 30 96
REMARK SMILES IDX 33 97 34 98 38 99 35 100 37 101 36 102
REMARK H PARENT 93 28 63 39 26 90
REMARK Flexibility Score: inf
ROOT
ATOM      1  C   UNL     1       4.033  -1.532  -2.595  1.00  0.00     0.188 C 
ENDROOT
BRANCH   1   2
ATOM      2  O   UNL     1       2.646  -1.752  -2.822  1.00  0.00    -0.377 OA
BRANCH   2   3
ATOM      3  C   UNL     1       1.754  -1.081  -1.927  1.00  0.00     0.188 C 
BRANCH   3   4
ATOM      4  C   UNL     1       2.087  -1.291  -0.448  1.00  0.00     0.188 C 
BRANCH   4   5
ATOM      5  O   UNL     1       3.317  -0.628  -0.149  1.00  0.00    -0.376 OA
BRANCH   5   6
ATOM      6  C   UNL     1       4.186  -1.305   0.757  1.00  0.00     0.202 C 
BRANCH   6   7
ATOM      7  C   UNL     1       4.016  -0.827   2.194  1.00  0.00     0.261 C 
BRANCH   7   8
ATOM      8  O   UNL     1       2.654  -0.469   2.465  1.00  0.00    -0.460 OA
BRANCH   8   9
ATOM      9  C   UNL     1       2.066   0.727   2.208  1.00  0.00     0.338 C 
ATOM     10  O   UNL     1       0.849   0.828   2.365  1.00  0.00    -0.246 OA
BRANCH   9  11
ATOM     11  C   UNL     1       2.824   1.964   1.840  1.00  0.00     0.060 A 
ATOM     12  C   UNL     1       3.932   2.027   0.989  1.00  0.00     0.016 A 
ATOM     13  C   UNL     1       2.323   3.171   2.355  1.00  0.00     0.016 A 
ATOM     14  C   UNL     1       4.584   3.226   0.730  1.00  0.00     0.010 A 
ATOM     15  C   UNL     1       2.957   4.386   2.084  1.00  0.00     0.010 A 
ATOM     16  C   UNL     1       4.119   4.404   1.306  1.00  0.00    -0.014 A 
BRANCH  16  17
ATOM     17  C   UNL     1       4.998   5.587   1.272  1.00  0.00     0.031 A 
ATOM     18  C   UNL     1       5.804   5.876   2.505  1.00  0.00     0.074 A 
ATOM     19  C   UNL     1       5.170   6.284   0.136  1.00  0.00     0.049 A 
ATOM     20  N   UNL     1       6.591   6.882   2.765  1.00  0.00    -0.248 NA
ATOM     21  C   UNL     1       5.718   4.880   3.589  1.00  0.00     0.031 C 
ATOM     22  C   UNL     1       4.548   5.969  -1.152  1.00  0.00     0.029 A 
ATOM     23  N   UNL     1       5.947   7.380  -0.126  1.00  0.00    -0.354 N 
ATOM     24  C   UNL     1       7.059   6.662   4.056  1.00  0.00     0.074 A 
ATOM     25  C   UNL     1       6.478   5.426   4.523  1.00  0.00     0.031 C 
ATOM     26  C   UNL     1       4.991   6.839  -2.075  1.00  0.00     0.029 A 
ATOM     27  C   UNL     1       5.867   7.812  -1.429  1.00  0.00     0.049 A 
ATOM     28  H   UNL     1       6.510   7.817   0.553  1.00  0.00     0.167 HD
ATOM     29  C   UNL     1       7.886   7.441   4.790  1.00  0.00     0.031 A 
ATOM     30  C   UNL     1       6.416   8.895  -2.011  1.00  0.00     0.031 A 
ATOM     31  C   UNL     1       8.426   8.677   4.300  1.00  0.00     0.049 A 
ATOM     32  C   UNL     1       7.247   9.808  -1.148  1.00  0.00     0.074 A 
ATOM     33  C   UNL     1       9.188   9.618   4.963  1.00  0.00     0.029 A 
ATOM     34  N   UNL     1       8.251   9.137   3.000  1.00  0.00    -0.354 N 
ATOM     35  N   UNL     1       7.596   9.656   0.110  1.00  0.00    -0.248 NA
ATOM     36  C   UNL     1       7.735  11.046  -1.766  1.00  0.00     0.031 C 
ATOM     37  C   UNL     1       9.441  10.668   4.071  1.00  0.00     0.029 A 
ATOM     38  C   UNL     1       8.878  10.356   2.841  1.00  0.00     0.049 A 
ATOM     39  H   UNL     1       7.752   8.662   2.296  1.00  0.00     0.167 HD
ATOM     40  C   UNL     1       8.346  10.778   0.436  1.00  0.00     0.074 A 
ATOM     41  C   UNL     1       8.419  11.588  -0.767  1.00  0.00     0.031 C 
ATOM     42  C   UNL     1       8.917  11.121   1.619  1.00  0.00     0.031 A 
BRANCH  29  43
ATOM     43  C   UNL     1       8.136   7.008   6.208  1.00  0.00    -0.014 A 
ATOM     44  C   UNL     1       8.953   5.902   6.508  1.00  0.00     0.010 A 
ATOM     45  C   UNL     1       7.460   7.663   7.253  1.00  0.00     0.010 A 
ATOM     46  C   UNL     1       9.037   5.421   7.819  1.00  0.00     0.020 A 
ATOM     47  C   UNL     1       7.560   7.199   8.568  1.00  0.00     0.020 A 
ATOM     48  C   UNL     1       8.325   6.062   8.837  1.00  0.00     0.054 A 
BRANCH  48  49
ATOM     49  S   UNL     1       8.401   5.388  10.520  1.00  0.00     0.124 S 
ATOM     50  O   UNL     1       7.527   4.222  10.415  1.00  0.00    -0.237 OA
ATOM     51  O   UNL     1       9.822   5.093  10.686  1.00  0.00    -0.237 OA
ATOM     52  O   UNL     1       7.893   6.476  11.352  1.00  0.00    -0.744 OA
ENDBRANCH  48  49
ENDBRANCH  29  43
BRANCH  30  53
ATOM     53  C   UNL     1       6.142   9.199  -3.444  1.00  0.00    -0.014 A 
ATOM     54  C   UNL     1       7.164   9.139  -4.408  1.00  0.00     0.010 A 
ATOM     55  C   UNL     1       4.837   9.525  -3.862  1.00  0.00     0.010 A 
ATOM     56  C   UNL     1       6.886   9.396  -5.757  1.00  0.00     0.020 A 
ATOM     57  C   UNL     1       4.549   9.755  -5.210  1.00  0.00     0.020 A 
ATOM     58  C   UNL     1       5.578   9.696  -6.150  1.00  0.00     0.054 A 
BRANCH  58  59
ATOM     59  S   UNL     1       5.222   9.951  -7.912  1.00  0.00     0.124 S 
ATOM     60  O   UNL     1       5.768  11.284  -8.143  1.00  0.00    -0.237 OA
ATOM     61  O   UNL     1       5.947   8.851  -8.545  1.00  0.00    -0.237 OA
ATOM     62  O   UNL     1       3.766   9.847  -7.985  1.00  0.00    -0.744 OA
ENDBRANCH  58  59
ENDBRANCH  30  53
BRANCH  42  63
ATOM     63  C   UNL     1       9.680  12.412   1.654  1.00  0.00    -0.014 A 
ATOM     64  C   UNL     1       9.008  13.644   1.720  1.00  0.00     0.010 A 
ATOM     65  C   UNL     1      11.085  12.382   1.700  1.00  0.00     0.010 A 
ATOM     66  C   UNL     1       9.733  14.832   1.814  1.00  0.00     0.020 A 
ATOM     67  C   UNL     1      11.812  13.566   1.817  1.00  0.00     0.020 A 
ATOM     68  C   UNL     1      11.131  14.785   1.862  1.00  0.00     0.054 A 
BRANCH  68  69
ATOM     69  S   UNL     1      12.052  16.335   2.047  1.00  0.00     0.124 S 
ATOM     70  O   UNL     1      12.000  16.881   0.694  1.00  0.00    -0.237 OA
ATOM     71  O   UNL     1      11.270  17.058   3.048  1.00  0.00    -0.237 OA
ATOM     72  O   UNL     1      13.373  15.899   2.495  1.00  0.00    -0.744 OA
ENDBRANCH  68  69
ENDBRANCH  42  63
ENDBRANCH  16  17
ENDBRANCH   9  11
ENDBRANCH   8   9
ENDBRANCH   7   8
ENDBRANCH   6   7
ENDBRANCH   5   6
ENDBRANCH   4   5
ENDBRANCH   3   4
ENDBRANCH   2   3
ENDBRANCH   1   2
BRANCH   1  73
ATOM     73  C   UNL     1       4.605  -0.108  -2.771  1.00  0.00     0.188 C 
BRANCH  73  74
ATOM     74  O   UNL     1       3.639   0.919  -2.961  1.00  0.00    -0.376 OA
BRANCH  74  75
ATOM     75  C   UNL     1       3.661   1.541  -4.245  1.00  0.00     0.202 C 
BRANCH  75  76
ATOM     76  C   UNL     1       2.822   0.802  -5.297  1.00  0.00     0.261 C 
BRANCH  76  77
ATOM     77  O   UNL     1       3.134  -0.590  -5.455  1.00  0.00    -0.460 OA
BRANCH  77  78
ATOM     78  C   UNL     1       4.396  -0.902  -5.808  1.00  0.00     0.338 C 
ATOM     79  O   UNL     1       5.295  -0.126  -6.082  1.00  0.00    -0.246 OA
BRANCH  78  80
ATOM     80  C   UNL     1       4.594  -2.368  -5.707  1.00  0.00     0.061 A 
ATOM     81  C   UNL     1       5.838  -2.872  -5.294  1.00  0.00     0.016 A 
ATOM     82  C   UNL     1       3.582  -3.240  -6.082  1.00  0.00     0.038 A 
ATOM     83  C   UNL     1       6.066  -4.250  -5.275  1.00  0.00     0.002 A 
ATOM     84  C   UNL     1       3.899  -4.583  -6.269  1.00  0.00     0.088 A 
ATOM     85  C   UNL     1       5.111  -5.110  -5.812  1.00  0.00     0.022 A 
BRANCH  84  86
ATOM     86  S   UNL     1       2.839  -5.547  -7.319  1.00  0.00     0.261 S 
ATOM     87  O   UNL     1       3.420  -6.870  -7.418  1.00  0.00    -0.201 OA
ATOM     88  O   UNL     1       1.473  -5.360  -6.881  1.00  0.00    -0.201 OA
BRANCH  86  89
ATOM     89  N   UNL     1       3.073  -4.844  -8.859  1.00  0.00    -0.278 N 
ATOM     90  H   UNL     1       3.371  -5.396  -9.618  1.00  0.00     0.180 HD
BRANCH  89  91
ATOM     91  C   UNL     1       2.829  -3.431  -9.033  1.00  0.00     0.072 A 
ATOM     92  C   UNL     1       1.514  -2.965  -8.887  1.00  0.00     0.029 A 
ATOM     93  C   UNL     1       3.922  -2.524  -9.172  1.00  0.00     0.061 A 
ATOM     94  C   UNL     1       1.255  -1.597  -8.825  1.00  0.00     0.002 A 
ATOM     95  C   UNL     1       3.614  -1.151  -9.124  1.00  0.00     0.028 A 
ATOM     96  C   UNL     1       2.304  -0.693  -8.939  1.00  0.00     0.002 A 
BRANCH  93  97
ATOM     97  N   UNL     1       5.248  -2.965  -9.240  1.00  0.00    -0.365 N 
ATOM     98  C   UNL     1       5.681  -3.755 -10.407  1.00  0.00     0.145 C 
ATOM     99  C   UNL     1       6.354  -2.099  -8.758  1.00  0.00     0.145 C 
ATOM    100  C   UNL     1       6.893  -4.603  -9.979  1.00  0.00     0.181 C 
ATOM    101  C   UNL     1       7.582  -2.964  -8.426  1.00  0.00     0.181 C 
ATOM    102  O   UNL     1       7.984  -3.772  -9.544  1.00  0.00    -0.378 OA
ENDBRANCH  93  97
ENDBRANCH  89  91
ENDBRANCH  86  89
ENDBRANCH  84  86
ENDBRANCH  78  80
ENDBRANCH  77  78
ENDBRANCH  76  77
ENDBRANCH  75  76
ENDBRANCH  74  75
ENDBRANCH  73  74
ENDBRANCH   1  73
TORSDOF 27
