REMARK SMILES CN(C)S(=O)(=O)c1ccc(-n2c(CCC(=O)OCCOCCOCCOCCOC(=O)c3ccc(-c4c5nc(c(-c6ccc(S(=O)(=O)[O-])cc6)c6ccc([nH]6)c(-c6ccc(S(=O)(=O)[O-])cc6)c6nc(c(-c7ccc(S(=O)(=O)[O-])cc7)c7ccc4[nH]7)C=C6)C=C5)cc3)ccc2-c2ccc(F)cc2)cc1
REMARK SMILES IDX 22 1 21 2 20 3 19 4 18 5 17 6 15 7 16 8 14 9 13 10 12 11
REMARK SMILES IDX 11 12 94 13 92 14 93 15 10 16 7 17 8 18 103 19 9 20 102 21
REMARK SMILES IDX 4 22 5 23 6 24 2 25 1 26 3 27 95 28 96 29 101 30 97 31
REMARK SMILES IDX 100 32 98 33 99 34 23 35 24 36 25 37 26 38 27 39 28 40 29 41
REMARK SMILES IDX 30 42 31 43 32 44 33 45 91 46 34 47 90 48 35 49 36 50 37 51
REMARK SMILES IDX 84 52 38 53 89 54 83 55 85 56 39 57 88 58 82 59 81 60 40 62
REMARK SMILES IDX 70 63 51 64 69 65 52 66 55 67 68 68 86 69 53 70 54 71 67 73
REMARK SMILES IDX 87 74 56 75 41 76 42 77 50 78 43 79 49 80 44 81 45 82 46 83
REMARK SMILES IDX 47 84 48 85 71 86 72 87 80 88 73 89 79 90 74 91 75 92 76 93
REMARK SMILES IDX 77 94 78 95 57 96 58 97 66 98 59 99 65 100 60 101 61 102
REMARK SMILES IDX 62 103 63 104 64 105
REMARK H PARENT 85 61 55 72
REMARK Flexibility Score: inf
ROOT
ATOM      1  C   UNL     1       2.299  -0.800   6.654  1.00  0.00     0.188 C 
ENDROOT
BRANCH   1   2
ATOM      2  C   UNL     1       2.032  -1.869   5.587  1.00  0.00     0.188 C 
BRANCH   2   3
ATOM      3  O   UNL     1       0.554  -1.789   5.119  1.00  0.00    -0.376 OA
BRANCH   3   4
ATOM      4  C   UNL     1      -1.179  -2.730   4.811  1.00  0.00     0.202 C 
BRANCH   4   5
ATOM      5  C   UNL     1      -1.890  -4.118   5.574  1.00  0.00     0.261 C 
BRANCH   5   6
ATOM      6  O   UNL     1      -1.790  -4.279   7.020  1.00  0.00    -0.463 OA
BRANCH   6   7
ATOM      7  C   UNL     1      -1.142  -5.390   7.474  1.00  0.00     0.306 C 
ATOM      8  O   UNL     1      -1.107  -6.451   6.857  1.00  0.00    -0.252 OA
BRANCH   7   9
ATOM      9  C   UNL     1      -0.362  -5.199   8.780  1.00  0.00     0.129 C 
BRANCH   9  10
ATOM     10  C   UNL     1       0.371  -3.884   9.083  1.00  0.00     0.066 C 
BRANCH  10  11
ATOM     11  C   UNL     1      -0.522  -2.702   9.174  1.00  0.00     0.024 A 
ATOM     12  N   UNL     1      -0.925  -1.919   8.097  1.00  0.00    -0.314 N 
ATOM     13  C   UNL     1      -1.933  -1.049   8.579  1.00  0.00     0.053 A 
ATOM     14  C   UNL     1      -1.046  -2.156  10.330  1.00  0.00     0.024 A 
ATOM     15  C   UNL     1      -1.919  -1.124   9.961  1.00  0.00     0.029 A 
BRANCH  12  16
ATOM     16  C   UNL     1      -0.470  -2.019   6.735  1.00  0.00     0.046 A 
ATOM     17  C   UNL     1       0.330  -2.057   3.210  1.00  0.00     0.082 A 
ATOM     18  C   UNL     1      -0.494  -0.656   3.938  1.00  0.00     0.024 A 
ATOM     19  C   UNL     1       0.757  -3.500   4.207  1.00  0.00     0.024 A 
ATOM     20  C   UNL     1      -0.858  -0.612   5.681  1.00  0.00     0.028 A 
ATOM     21  C   UNL     1       0.386  -3.478   6.000  1.00  0.00     0.028 A 
BRANCH  17  22
ATOM     22  S   UNL     1       0.961  -1.921   1.570  1.00  0.00     0.242 S 
ATOM     23  O   UNL     1       0.363  -2.972   0.792  1.00  0.00    -0.207 OA
ATOM     24  O   UNL     1       2.407  -1.802   1.705  1.00  0.00    -0.207 OA
BRANCH  22  25
ATOM     25  N   UNL     1       0.370  -0.421   0.965  1.00  0.00    -0.204 NA
ATOM     26  C   UNL     1       1.136   0.074  -0.209  1.00  0.00     0.124 C 
ATOM     27  C   UNL     1      -1.087  -0.373   0.683  1.00  0.00     0.124 C 
ENDBRANCH  22  25
ENDBRANCH  17  22
ENDBRANCH  12  16
BRANCH  13  28
ATOM     28  C   UNL     1      -2.891  -0.251   7.793  1.00  0.00    -0.001 A 
ATOM     29  C   UNL     1      -2.947   1.145   7.948  1.00  0.00     0.013 A 
ATOM     30  C   UNL     1      -3.754  -0.863   6.870  1.00  0.00     0.013 A 
ATOM     31  C   UNL     1      -3.789   1.917   7.140  1.00  0.00     0.040 A 
ATOM     32  C   UNL     1      -4.585  -0.090   6.053  1.00  0.00     0.040 A 
ATOM     33  C   UNL     1      -4.587   1.293   6.189  1.00  0.00     0.123 A 
ATOM     34  F   UNL     1      -5.365   2.032   5.387  1.00  0.00    -0.207 F 
ENDBRANCH  13  28
ENDBRANCH  10  11
ENDBRANCH   9  10
ENDBRANCH   7   9
ENDBRANCH   6   7
ENDBRANCH   5   6
ENDBRANCH   4   5
ENDBRANCH   3   4
ENDBRANCH   2   3
ENDBRANCH   1   2
BRANCH   1  35
ATOM     35  O   UNL     1       2.238   0.562   6.250  1.00  0.00    -0.377 OA
BRANCH  35  36
ATOM     36  C   UNL     1       2.230   0.861   4.869  1.00  0.00     0.188 C 
BRANCH  36  37
ATOM     37  C   UNL     1       3.492   1.465   4.248  1.00  0.00     0.188 C 
BRANCH  37  38
ATOM     38  O   UNL     1       4.801   1.053   4.604  1.00  0.00    -0.376 OA
BRANCH  38  39
ATOM     39  C   UNL     1       5.195   0.814   5.946  1.00  0.00     0.202 C 
BRANCH  39  40
ATOM     40  C   UNL     1       5.123   1.900   7.023  1.00  0.00     0.261 C 
BRANCH  40  41
ATOM     41  O   UNL     1       3.803   2.338   7.296  1.00  0.00    -0.460 OA
BRANCH  41  42
ATOM     42  C   UNL     1       3.465   3.401   6.548  1.00  0.00     0.338 C 
ATOM     43  O   UNL     1       4.165   4.000   5.745  1.00  0.00    -0.246 OA
BRANCH  42  44
ATOM     44  C   UNL     1       2.108   3.851   6.889  1.00  0.00     0.060 A 
ATOM     45  C   UNL     1       1.482   4.486   5.803  1.00  0.00     0.016 A 
ATOM     46  C   UNL     1       2.141   4.418   8.161  1.00  0.00     0.016 A 
ATOM     47  C   UNL     1       1.278   5.844   5.885  1.00  0.00     0.010 A 
ATOM     48  C   UNL     1       2.024   5.785   8.226  1.00  0.00     0.010 A 
ATOM     49  C   UNL     1       1.638   6.490   7.071  1.00  0.00    -0.014 A 
BRANCH  49  50
ATOM     50  C   UNL     1       1.326   7.910   7.213  1.00  0.00     0.031 A 
ATOM     51  C   UNL     1      -0.066   8.042   7.854  1.00  0.00     0.074 A 
ATOM     52  C   UNL     1       2.287   8.800   6.806  1.00  0.00     0.049 A 
ATOM     53  N   UNL     1      -0.752   9.106   8.098  1.00  0.00    -0.248 NA
ATOM     54  C   UNL     1      -0.821   6.824   8.303  1.00  0.00     0.031 C 
ATOM     55  C   UNL     1       3.596   8.446   6.192  1.00  0.00     0.029 A 
ATOM     56  N   UNL     1       2.374  10.177   6.828  1.00  0.00    -0.354 N 
ATOM     57  C   UNL     1      -1.844   8.734   8.908  1.00  0.00     0.074 A 
ATOM     58  C   UNL     1      -1.881   7.310   8.947  1.00  0.00     0.031 C 
ATOM     59  C   UNL     1       4.288   9.557   5.837  1.00  0.00     0.029 A 
ATOM     60  C   UNL     1       3.546  10.737   6.239  1.00  0.00     0.049 A 
ATOM     61  H   UNL     1       1.671  10.738   7.227  1.00  0.00     0.167 HD
ATOM     62  C   UNL     1      -2.568   9.649   9.605  1.00  0.00     0.031 A 
ATOM     63  C   UNL     1       3.881  12.059   6.095  1.00  0.00     0.031 A 
ATOM     64  C   UNL     1      -2.168  10.961   9.231  1.00  0.00     0.049 A 
ATOM     65  C   UNL     1       2.939  12.772   6.964  1.00  0.00     0.074 A 
ATOM     66  C   UNL     1      -2.308  11.634   8.045  1.00  0.00     0.029 A 
ATOM     67  N   UNL     1      -1.153  11.522   9.971  1.00  0.00    -0.354 N 
ATOM     68  N   UNL     1       3.019  12.794   8.258  1.00  0.00    -0.248 NA
ATOM     69  C   UNL     1       1.835  13.526   6.364  1.00  0.00     0.031 C 
ATOM     70  C   UNL     1      -1.050  12.241   7.885  1.00  0.00     0.029 A 
ATOM     71  C   UNL     1      -0.322  12.146   9.078  1.00  0.00     0.049 A 
ATOM     72  H   UNL     1      -1.046  11.483  10.948  1.00  0.00     0.167 HD
ATOM     73  C   UNL     1       1.753  13.173   8.608  1.00  0.00     0.074 A 
ATOM     74  C   UNL     1       1.225  13.919   7.481  1.00  0.00     0.031 C 
ATOM     75  C   UNL     1       1.050  12.376   9.453  1.00  0.00     0.031 A 
BRANCH  62  76
ATOM     76  C   UNL     1      -3.470   9.505  10.788  1.00  0.00    -0.014 A 
ATOM     77  C   UNL     1      -4.268  10.632  11.103  1.00  0.00     0.010 A 
ATOM     78  C   UNL     1      -3.292   8.524  11.774  1.00  0.00     0.010 A 
ATOM     79  C   UNL     1      -4.732  10.854  12.395  1.00  0.00     0.020 A 
ATOM     80  C   UNL     1      -3.797   8.722  13.068  1.00  0.00     0.020 A 
ATOM     81  C   UNL     1      -4.462   9.912  13.381  1.00  0.00     0.054 A 
BRANCH  81  82
ATOM     82  S   UNL     1      -4.922  10.316  15.085  1.00  0.00     0.124 S 
ATOM     83  O   UNL     1      -3.968  11.369  15.419  1.00  0.00    -0.237 OA
ATOM     84  O   UNL     1      -6.310  10.752  14.940  1.00  0.00    -0.237 OA
ATOM     85  O   UNL     1      -4.745   9.053  15.797  1.00  0.00    -0.744 OA
ENDBRANCH  81  82
ENDBRANCH  62  76
BRANCH  63  86
ATOM     86  C   UNL     1       4.842  12.994   5.383  1.00  0.00    -0.014 A 
ATOM     87  C   UNL     1       5.693  12.666   4.324  1.00  0.00     0.010 A 
ATOM     88  C   UNL     1       4.694  14.394   5.642  1.00  0.00     0.010 A 
ATOM     89  C   UNL     1       6.210  13.681   3.473  1.00  0.00     0.020 A 
ATOM     90  C   UNL     1       5.135  15.394   4.776  1.00  0.00     0.020 A 
ATOM     91  C   UNL     1       5.868  15.028   3.665  1.00  0.00     0.054 A 
BRANCH  91  92
ATOM     92  S   UNL     1       6.210  16.286   2.395  1.00  0.00     0.124 S 
ATOM     93  O   UNL     1       7.566  16.711   2.726  1.00  0.00    -0.237 OA
ATOM     94  O   UNL     1       6.069  15.536   1.149  1.00  0.00    -0.237 OA
ATOM     95  O   UNL     1       5.170  17.290   2.619  1.00  0.00    -0.744 OA
ENDBRANCH  91  92
ENDBRANCH  63  86
BRANCH  75  96
ATOM     96  C   UNL     1       1.889  11.526  10.407  1.00  0.00    -0.014 A 
ATOM     97  C   UNL     1       2.837  12.160  11.237  1.00  0.00     0.010 A 
ATOM     98  C   UNL     1       1.853  10.116  10.444  1.00  0.00     0.010 A 
ATOM     99  C   UNL     1       3.717  11.432  12.053  1.00  0.00     0.020 A 
ATOM    100  C   UNL     1       2.732   9.373  11.264  1.00  0.00     0.020 A 
ATOM    101  C   UNL     1       3.660  10.039  12.066  1.00  0.00     0.054 A 
BRANCH 101 102
ATOM    102  S   UNL     1       4.813   9.132  13.143  1.00  0.00     0.124 S 
ATOM    103  O   UNL     1       6.122   9.561  12.656  1.00  0.00    -0.237 OA
ATOM    104  O   UNL     1       4.455   9.620  14.473  1.00  0.00    -0.237 OA
ATOM    105  O   UNL     1       4.496   7.726  12.895  1.00  0.00    -0.744 OA
ENDBRANCH 101 102
ENDBRANCH  75  96
ENDBRANCH  49  50
ENDBRANCH  42  44
ENDBRANCH  41  42
ENDBRANCH  40  41
ENDBRANCH  39  40
ENDBRANCH  38  39
ENDBRANCH  37  38
ENDBRANCH  36  37
ENDBRANCH  35  36
ENDBRANCH   1  35
TORSDOF 29
