REMARK SMILES Cc1ccc([C@H](C)NC(=O)[C@H]2[C@@H]3CC[C@@H](C3)[C@@H]2C(=O)OCCOCCOCCOCCOC(=O)c2ccc(-c3c4nc(c(-c5ccc(S(=O)(=O)[O-])cc5)c5ccc([nH]5)c(-c5ccc(S(=O)(=O)[O-])cc5)c5nc(c(-c6ccc(S(=O)(=O)[O-])cc6)c6ccc3[nH]6)C=C5)C=C4)cc2)cc1
REMARK SMILES IDX 26 1 25 2 24 3 23 4 22 5 21 6 20 7 18 8 19 9 17 10 11 11
REMARK SMILES IDX 12 12 13 13 16 14 15 15 14 16 9 17 8 18 10 20 6 21 7 22 5 23
REMARK SMILES IDX 1 24 2 25 3 26 96 27 4 28 95 29 27 30 28 31 29 32 30 33
REMARK SMILES IDX 31 34 32 35 33 36 34 37 35 38 36 39 94 40 37 41 93 42 38 43
REMARK SMILES IDX 39 44 40 45 87 46 41 47 92 48 86 49 88 50 42 51 91 52 85 53
REMARK SMILES IDX 84 54 43 56 73 57 54 58 72 59 55 60 58 61 71 62 89 63 56 64
REMARK SMILES IDX 57 65 70 67 90 68 59 69 44 70 45 71 53 72 46 73 52 74 47 75
REMARK SMILES IDX 48 76 49 77 50 78 51 79 74 80 75 81 83 82 76 83 82 84 77 85
REMARK SMILES IDX 78 86 79 87 80 88 81 89 60 90 61 91 69 92 62 93 68 94 63 95
REMARK SMILES IDX 64 96 65 97 66 98 67 99
REMARK H PARENT 8 19 88 55 58 66
REMARK Flexibility Score: inf
ROOT
ATOM      1  O   UNL     1      -6.567   4.549   0.598  1.00  0.00    -0.377 OA
ENDROOT
BRANCH   1   2
ATOM      2  C   UNL     1      -5.794   5.236  -0.379  1.00  0.00     0.188 C 
BRANCH   2   3
ATOM      3  C   UNL     1      -6.278   5.040  -1.796  1.00  0.00     0.188 C 
BRANCH   3   4
ATOM      4  O   UNL     1      -5.601   3.912  -2.315  1.00  0.00    -0.376 OA
BRANCH   4   5
ATOM      5  C   UNL     1      -6.299   2.704  -2.124  1.00  0.00     0.202 C 
BRANCH   5   6
ATOM      6  C   UNL     1      -5.760   1.643  -1.197  1.00  0.00     0.261 C 
BRANCH   6   7
ATOM      7  O   UNL     1      -4.995   2.185  -0.161  1.00  0.00    -0.463 OA
BRANCH   7   8
ATOM      8  C   UNL     1      -3.748   2.409  -0.630  1.00  0.00     0.310 C 
ATOM      9  O   UNL     1      -3.371   2.395  -1.797  1.00  0.00    -0.252 OA
BRANCH   8  10
ATOM     10  C   UNL     1      -2.779   2.477   0.477  1.00  0.00     0.115 C 
ATOM     11  C   UNL     1      -3.195   1.752   1.745  1.00  0.00     0.096 C 
ATOM     12  C   UNL     1      -2.481   2.660   2.793  1.00  0.00     0.002 C 
ATOM     13  C   UNL     1      -3.388   3.889   3.033  1.00  0.00     0.005 C 
ATOM     14  C   UNL     1      -1.328   3.312   1.993  1.00  0.00     0.009 C 
ATOM     15  C   UNL     1      -2.259   3.845   0.901  1.00  0.00     0.004 C 
ATOM     16  C   UNL     1      -3.161   4.723   1.773  1.00  0.00     0.005 C 
BRANCH  11  17
ATOM     17  C   UNL     1      -2.968   0.230   1.870  1.00  0.00     0.224 C 
ATOM     18  N   UNL     1      -2.875  -0.634   0.805  1.00  0.00    -0.349 N 
ATOM     19  H   UNL     1      -3.451  -1.430   0.856  1.00  0.00     0.164 HD
ATOM     20  O   UNL     1      -3.050  -0.292   2.990  1.00  0.00    -0.275 OA
BRANCH  18  21
ATOM     21  C   UNL     1      -2.039  -0.537  -0.396  1.00  0.00     0.109 C 
ATOM     22  C   UNL     1      -0.571  -0.694  -0.006  1.00  0.00     0.036 C 
BRANCH  21  23
ATOM     23  C   UNL     1      -2.400  -1.414  -1.585  1.00  0.00    -0.026 A 
ATOM     24  C   UNL     1      -3.839  -3.322  -5.193  1.00  0.00     0.044 C 
ATOM     25  C   UNL     1      -3.195  -2.760  -3.957  1.00  0.00    -0.051 A 
ATOM     26  C   UNL     1      -2.520  -1.541  -4.036  1.00  0.00     0.004 A 
ATOM     27  C   UNL     1      -3.410  -3.332  -2.692  1.00  0.00     0.004 A 
ATOM     28  C   UNL     1      -2.129  -0.884  -2.869  1.00  0.00     0.006 A 
ATOM     29  C   UNL     1      -3.009  -2.670  -1.515  1.00  0.00     0.006 A 
ENDBRANCH  21  23
ENDBRANCH  18  21
ENDBRANCH  11  17
ENDBRANCH   8  10
ENDBRANCH   7   8
ENDBRANCH   6   7
ENDBRANCH   5   6
ENDBRANCH   4   5
ENDBRANCH   3   4
ENDBRANCH   2   3
ENDBRANCH   1   2
BRANCH   1  30
ATOM     30  C   UNL     1      -7.766   5.237   0.864  1.00  0.00     0.188 C 
BRANCH  30  31
ATOM     31  C   UNL     1      -7.626   6.383   1.880  1.00  0.00     0.188 C 
BRANCH  31  32
ATOM     32  O   UNL     1      -7.289   6.055   3.262  1.00  0.00    -0.376 OA
BRANCH  32  33
ATOM     33  C   UNL     1      -7.936   6.216   4.631  1.00  0.00     0.202 C 
BRANCH  33  34
ATOM     34  C   UNL     1      -9.243   5.215   5.578  1.00  0.00     0.261 C 
BRANCH  34  35
ATOM     35  O   UNL     1     -11.027   4.982   5.242  1.00  0.00    -0.460 OA
BRANCH  35  36
ATOM     36  C   UNL     1     -12.303   4.879   4.284  1.00  0.00     0.338 C 
ATOM     37  O   UNL     1     -13.364   4.656   4.883  1.00  0.00    -0.246 OA
BRANCH  36  38
ATOM     38  C   UNL     1     -12.390   4.595   2.489  1.00  0.00     0.060 A 
ATOM     39  C   UNL     1     -12.978   3.406   2.034  1.00  0.00     0.016 A 
ATOM     40  C   UNL     1     -11.820   5.311   1.363  1.00  0.00     0.016 A 
ATOM     41  C   UNL     1     -12.749   2.896   0.691  1.00  0.00     0.010 A 
ATOM     42  C   UNL     1     -11.548   4.805   0.058  1.00  0.00     0.010 A 
ATOM     43  C   UNL     1     -11.890   3.516  -0.270  1.00  0.00    -0.014 A 
BRANCH  43  44
ATOM     44  C   UNL     1     -11.013   2.715  -1.225  1.00  0.00     0.031 A 
ATOM     45  C   UNL     1     -10.175   3.005  -2.533  1.00  0.00     0.074 A 
ATOM     46  C   UNL     1     -10.252   1.908  -0.459  1.00  0.00     0.049 A 
ATOM     47  N   UNL     1      -9.510   2.080  -3.222  1.00  0.00    -0.248 NA
ATOM     48  C   UNL     1      -9.947   4.335  -3.099  1.00  0.00     0.031 C 
ATOM     49  C   UNL     1      -8.884   2.335  -0.277  1.00  0.00     0.029 A 
ATOM     50  N   UNL     1     -10.464   1.090   0.632  1.00  0.00    -0.354 N 
ATOM     51  C   UNL     1      -8.725   2.694  -4.229  1.00  0.00     0.074 A 
ATOM     52  C   UNL     1      -9.094   4.099  -4.115  1.00  0.00     0.031 C 
ATOM     53  C   UNL     1      -8.295   1.575   0.620  1.00  0.00     0.029 A 
ATOM     54  C   UNL     1      -9.277   0.619   1.117  1.00  0.00     0.049 A 
ATOM     55  H   UNL     1     -11.349   0.875   1.007  1.00  0.00     0.167 HD
ATOM     56  C   UNL     1      -7.693   2.099  -4.962  1.00  0.00     0.031 A 
ATOM     57  C   UNL     1      -8.900   0.003   2.251  1.00  0.00     0.031 A 
ATOM     58  C   UNL     1      -7.185   0.783  -4.385  1.00  0.00     0.049 A 
ATOM     59  C   UNL     1      -8.085  -1.058   1.344  1.00  0.00     0.074 A 
ATOM     60  C   UNL     1      -5.875   0.325  -4.207  1.00  0.00     0.029 A 
ATOM     61  N   UNL     1      -7.952  -0.073  -3.561  1.00  0.00    -0.354 N 
ATOM     62  N   UNL     1      -7.501  -0.887   0.154  1.00  0.00    -0.248 NA
ATOM     63  C   UNL     1      -8.402  -2.487   1.527  1.00  0.00     0.031 C 
ATOM     64  C   UNL     1      -5.859  -0.704  -3.250  1.00  0.00     0.029 A 
ATOM     65  C   UNL     1      -7.138  -0.936  -2.807  1.00  0.00     0.049 A 
ATOM     66  H   UNL     1      -8.935  -0.066  -3.520  1.00  0.00     0.167 HD
ATOM     67  C   UNL     1      -7.693  -2.025  -0.652  1.00  0.00     0.074 A 
ATOM     68  C   UNL     1      -8.149  -3.013   0.315  1.00  0.00     0.031 C 
ATOM     69  C   UNL     1      -7.599  -2.103  -2.042  1.00  0.00     0.031 A 
BRANCH  56  70
ATOM     70  C   UNL     1      -6.790   2.859  -6.088  1.00  0.00    -0.014 A 
ATOM     71  C   UNL     1      -5.571   2.308  -6.584  1.00  0.00     0.010 A 
ATOM     72  C   UNL     1      -7.113   4.076  -6.735  1.00  0.00     0.010 A 
ATOM     73  C   UNL     1      -4.698   2.937  -7.513  1.00  0.00     0.020 A 
ATOM     74  C   UNL     1      -6.263   4.719  -7.698  1.00  0.00     0.020 A 
ATOM     75  C   UNL     1      -5.048   4.151  -8.073  1.00  0.00     0.054 A 
BRANCH  75  76
ATOM     76  S   UNL     1      -3.978   4.874  -9.366  1.00  0.00     0.124 S 
ATOM     77  O   UNL     1      -2.759   5.211  -8.634  1.00  0.00    -0.237 OA
ATOM     78  O   UNL     1      -3.844   3.779 -10.325  1.00  0.00    -0.237 OA
ATOM     79  O   UNL     1      -4.743   6.021  -9.851  1.00  0.00    -0.744 OA
ENDBRANCH  75  76
ENDBRANCH  56  70
BRANCH  57  80
ATOM     80  C   UNL     1      -8.856   1.230   3.243  1.00  0.00    -0.014 A 
ATOM     81  C   UNL     1      -7.949   2.278   3.351  1.00  0.00     0.010 A 
ATOM     82  C   UNL     1     -10.094   1.738   3.611  1.00  0.00     0.010 A 
ATOM     83  C   UNL     1      -8.343   3.767   3.385  1.00  0.00     0.020 A 
ATOM     84  C   UNL     1     -10.434   3.194   3.644  1.00  0.00     0.020 A 
ATOM     85  C   UNL     1      -9.659   4.411   3.352  1.00  0.00     0.054 A 
BRANCH  85  86
ATOM     86  S   UNL     1     -10.319   6.659   3.601  1.00  0.00     0.124 S 
ATOM     87  O   UNL     1     -10.167   7.130   4.993  1.00  0.00    -0.237 OA
ATOM     88  O   UNL     1      -9.593   7.546   2.757  1.00  0.00    -0.237 OA
ATOM     89  O   UNL     1     -11.746   6.816   3.295  1.00  0.00    -0.744 OA
ENDBRANCH  85  86
ENDBRANCH  57  80
BRANCH  69  90
ATOM     90  C   UNL     1      -7.781  -3.356  -2.965  1.00  0.00    -0.014 A 
ATOM     91  C   UNL     1      -7.972  -4.680  -2.556  1.00  0.00     0.010 A 
ATOM     92  C   UNL     1      -7.676  -3.191  -4.384  1.00  0.00     0.010 A 
ATOM     93  C   UNL     1      -8.133  -5.736  -3.482  1.00  0.00     0.020 A 
ATOM     94  C   UNL     1      -7.809  -4.228  -5.317  1.00  0.00     0.020 A 
ATOM     95  C   UNL     1      -8.067  -5.502  -4.856  1.00  0.00     0.054 A 
BRANCH  95  96
ATOM     96  S   UNL     1      -8.294  -6.875  -6.012  1.00  0.00     0.124 S 
ATOM     97  O   UNL     1      -7.336  -7.861  -5.519  1.00  0.00    -0.237 OA
ATOM     98  O   UNL     1      -9.701  -7.213  -5.811  1.00  0.00    -0.237 OA
ATOM     99  O   UNL     1      -7.973  -6.299  -7.315  1.00  0.00    -0.744 OA
ENDBRANCH  95  96
ENDBRANCH  69  90
ENDBRANCH  43  44
ENDBRANCH  36  38
ENDBRANCH  35  36
ENDBRANCH  34  35
ENDBRANCH  33  34
ENDBRANCH  32  33
ENDBRANCH  31  32
ENDBRANCH  30  31
ENDBRANCH   1  30
TORSDOF 26
