REMARK SMILES O=C(OCCOCCOCCOCCOC(=O)c1ccc(-c2c3nc(c(-c4ccc(S(=O)(=O)[O-])cc4)c4ccc([nH]4)c(-c4ccc(S(=O)(=O)[O-])cc4)c4nc(c(-c5ccc(S(=O)(=O)[O-])cc5)c5ccc2[nH]5)C=C4)C=C3)cc1)C1=Cc2cc(S(F)(F)(F)(F)F)cc(Br)c2O[C@H]1C(F)(F)F
REMARK SMILES IDX 10 1 9 2 8 3 7 4 6 5 5 6 4 7 3 8 2 9 1 10 78 11 79 12 94 13
REMARK SMILES IDX 80 14 93 15 81 16 92 17 82 18 90 19 89 20 91 21 95 22 96 23
REMARK SMILES IDX 97 24 98 25 83 26 84 27 85 28 86 29 87 30 88 31 11 32 12 33
REMARK SMILES IDX 13 34 14 35 15 36 16 37 17 38 18 39 19 40 77 41 20 42 76 43
REMARK SMILES IDX 21 44 22 45 23 46 70 47 24 48 75 49 69 50 71 51 25 52 74 53
REMARK SMILES IDX 68 54 67 55 26 57 56 58 37 59 55 60 38 61 41 62 54 63 72 64
REMARK SMILES IDX 39 65 40 66 53 68 73 69 42 70 27 71 28 72 36 73 29 74 35 75
REMARK SMILES IDX 30 76 31 77 32 78 33 79 34 80 57 81 58 82 66 83 59 84 65 85
REMARK SMILES IDX 60 86 61 87 62 88 63 89 64 90 43 91 44 92 52 93 45 94 51 95
REMARK SMILES IDX 46 96 47 97 48 98 49 99 50 100
REMARK H PARENT 71 56 41 67
REMARK Flexibility Score: inf
ROOT
ATOM      1  C   UNL     1       4.447   2.000  -1.917  1.00  0.00     0.188 C 
ENDROOT
BRANCH   1   2
ATOM      2  O   UNL     1       3.027   2.000  -1.917  1.00  0.00    -0.377 OA
BRANCH   2   3
ATOM      3  C   UNL     1       2.553   2.442  -0.653  1.00  0.00     0.188 C 
BRANCH   3   4
ATOM      4  C   UNL     1       3.060   1.507   0.433  1.00  0.00     0.188 C 
BRANCH   4   5
ATOM      5  O   UNL     1       4.480   1.507   0.433  1.00  0.00    -0.376 OA
BRANCH   5   6
ATOM      6  C   UNL     1       4.953   1.065  -0.831  1.00  0.00     0.202 C 
BRANCH   6   7
ATOM      7  C   UNL     1       4.447  -0.343  -1.098  1.00  0.00     0.261 C 
BRANCH   7   8
ATOM      8  O   UNL     1       3.027  -0.343  -1.098  1.00  0.00    -0.460 OA
BRANCH   8   9
ATOM      9  C   UNL     1       2.317   0.063   0.063  1.00  0.00     0.338 C 
ATOM     10  O   UNL     1       1.046   0.063   0.063  1.00  0.00    -0.246 OA
BRANCH   9  11
ATOM     11  C   UNL     1       3.077   0.497   1.306  1.00  0.00     0.087 C 
ATOM     12  C   UNL     1       4.437   0.497   1.306  1.00  0.00     0.027 C 
ATOM     13  C   UNL     1       2.317   0.932   2.548  1.00  0.00     0.316 C 
ATOM     14  C   UNL     1       5.197   0.063   0.063  1.00  0.00     0.020 A 
ATOM     15  O   UNL     1       3.671   1.307  -1.268  1.00  0.00    -0.474 OA
ATOM     16  C   UNL     1       6.230  -0.848   0.212  1.00  0.00     0.036 A 
ATOM     17  C   UNL     1       4.833   0.501  -1.136  1.00  0.00     0.142 A 
ATOM     18  C   UNL     1       7.015  -1.020  -0.953  1.00  0.00     0.109 A 
ATOM     19  C   UNL     1       5.569   0.181  -2.251  1.00  0.00     0.062 A 
ATOM     20  C   UNL     1       6.639  -0.666  -2.168  1.00  0.00     0.044 A 
ATOM     21  Br  UNL     1       5.081   0.952  -3.986  1.00  0.00    -0.047 Br
BRANCH  13  22
ATOM     22  C   UNL     1       0.822   0.840   2.286  1.00  0.00     0.430 C 
ATOM     23  F   UNL     1       0.614   0.286   1.095  1.00  0.00    -0.167 F 
ATOM     24  F   UNL     1       0.252   0.094   3.228  1.00  0.00    -0.167 F 
ATOM     25  F   UNL     1       0.293   2.060   2.306  1.00  0.00    -0.167 F 
ENDBRANCH  13  22
BRANCH  18  26
ATOM     26  S   UNL     1       8.647  -1.779  -0.763  1.00  0.00     0.310 S 
ATOM     27  F   UNL     1       8.530  -1.783   0.819  1.00  0.00    -0.094 F 
ATOM     28  F   UNL     1       9.275  -0.339  -0.644  1.00  0.00    -0.094 F 
ATOM     29  F   UNL     1      10.048  -2.434  -0.600  1.00  0.00    -0.094 F 
ATOM     30  F   UNL     1       7.983  -3.212  -0.744  1.00  0.00    -0.094 F 
ATOM     31  F   UNL     1       7.207  -1.129  -0.817  1.00  0.00    -0.094 F 
ENDBRANCH  18  26
ENDBRANCH   9  11
ENDBRANCH   8   9
ENDBRANCH   7   8
ENDBRANCH   6   7
ENDBRANCH   5   6
ENDBRANCH   4   5
ENDBRANCH   3   4
ENDBRANCH   2   3
ENDBRANCH   1   2
BRANCH   1  32
ATOM     32  C   UNL     1       4.953   3.408  -1.650  1.00  0.00     0.188 C 
BRANCH  32  33
ATOM     33  O   UNL     1       4.480   3.850  -0.387  1.00  0.00    -0.376 OA
BRANCH  33  34
ATOM     34  C   UNL     1       3.060   3.850  -0.387  1.00  0.00     0.202 C 
BRANCH  34  35
ATOM     35  C   UNL     1       2.553   4.785  -1.473  1.00  0.00     0.261 C 
BRANCH  35  36
ATOM     36  O   UNL     1       3.027   4.343  -2.736  1.00  0.00    -0.460 OA
BRANCH  36  37
ATOM     37  C   UNL     1       4.423   4.257  -2.981  1.00  0.00     0.338 C 
ATOM     38  O   UNL     1       5.248   4.576  -2.070  1.00  0.00    -0.246 OA
BRANCH  37  39
ATOM     39  C   UNL     1       4.929   3.784  -4.334  1.00  0.00     0.060 A 
ATOM     40  C   UNL     1       5.891   2.788  -4.347  1.00  0.00     0.016 A 
ATOM     41  C   UNL     1       4.398   4.243  -5.461  1.00  0.00     0.016 A 
ATOM     42  C   UNL     1       6.441   2.538  -5.627  1.00  0.00     0.010 A 
ATOM     43  C   UNL     1       4.897   3.852  -6.680  1.00  0.00     0.010 A 
ATOM     44  C   UNL     1       5.888   2.914  -6.766  1.00  0.00    -0.014 A 
BRANCH  44  45
ATOM     45  C   UNL     1       6.331   2.336  -8.100  1.00  0.00     0.031 A 
ATOM     46  C   UNL     1       6.837   3.191  -9.080  1.00  0.00     0.074 A 
ATOM     47  C   UNL     1       6.078   0.990  -8.303  1.00  0.00     0.049 A 
ATOM     48  N   UNL     1       7.189   2.880 -10.328  1.00  0.00    -0.248 NA
ATOM     49  C   UNL     1       7.075   4.628  -8.877  1.00  0.00     0.031 C 
ATOM     50  C   UNL     1       5.575   0.119  -7.316  1.00  0.00     0.029 A 
ATOM     51  N   UNL     1       6.257   0.261  -9.457  1.00  0.00    -0.354 N 
ATOM     52  C   UNL     1       7.649   3.962 -10.961  1.00  0.00     0.074 A 
ATOM     53  C   UNL     1       7.576   5.103 -10.039  1.00  0.00     0.031 C 
ATOM     54  C   UNL     1       5.442  -1.114  -7.872  1.00  0.00     0.029 A 
ATOM     55  C   UNL     1       5.859  -1.035  -9.214  1.00  0.00     0.049 A 
ATOM     56  H   UNL     1       6.608   0.607 -10.310  1.00  0.00     0.167 HD
ATOM     57  C   UNL     1       8.127   4.041 -12.270  1.00  0.00     0.031 A 
ATOM     58  C   UNL     1       5.853  -2.101 -10.099  1.00  0.00     0.031 A 
ATOM     59  C   UNL     1       8.161   2.964 -13.142  1.00  0.00     0.049 A 
ATOM     60  C   UNL     1       6.277  -2.009 -11.427  1.00  0.00     0.074 A 
ATOM     61  C   UNL     1       8.647   3.025 -14.462  1.00  0.00     0.029 A 
ATOM     62  N   UNL     1       7.741   1.674 -12.906  1.00  0.00    -0.354 N 
ATOM     63  N   UNL     1       6.773  -0.937 -12.047  1.00  0.00    -0.248 NA
ATOM     64  C   UNL     1       6.244  -3.123 -12.383  1.00  0.00     0.031 C 
ATOM     65  C   UNL     1       8.514   1.791 -15.018  1.00  0.00     0.029 A 
ATOM     66  C   UNL     1       7.941   0.940 -14.054  1.00  0.00     0.049 A 
ATOM     67  H   UNL     1       7.363   1.335 -12.062  1.00  0.00     0.167 HD
ATOM     68  C   UNL     1       7.086  -1.239 -13.308  1.00  0.00     0.074 A 
ATOM     69  C   UNL     1       6.743  -2.648 -13.545  1.00  0.00     0.031 C 
ATOM     70  C   UNL     1       7.647  -0.398 -14.271  1.00  0.00     0.031 A 
BRANCH  57  71
ATOM     71  C   UNL     1       8.640   5.383 -12.767  1.00  0.00    -0.014 A 
ATOM     72  C   UNL     1       9.729   6.028 -12.205  1.00  0.00     0.010 A 
ATOM     73  C   UNL     1       8.008   5.888 -13.820  1.00  0.00     0.010 A 
ATOM     74  C   UNL     1       9.900   7.359 -12.652  1.00  0.00     0.020 A 
ATOM     75  C   UNL     1       8.320   7.141 -14.288  1.00  0.00     0.020 A 
ATOM     76  C   UNL     1       9.346   7.861 -13.741  1.00  0.00     0.054 A 
BRANCH  76  77
ATOM     77  S   UNL     1       9.916   9.416 -14.472  1.00  0.00     0.124 S 
ATOM     78  O   UNL     1       9.756  10.546 -13.453  1.00  0.00    -0.237 OA
ATOM     79  O   UNL     1      11.389   9.286 -14.863  1.00  0.00    -0.237 OA
ATOM     80  O   UNL     1       8.985   9.766 -15.863  1.00  0.00    -0.744 OA
ENDBRANCH  76  77
ENDBRANCH  57  71
BRANCH  58  81
ATOM     81  C   UNL     1       5.356  -3.447  -9.597  1.00  0.00    -0.014 A 
ATOM     82  C   UNL     1       6.141  -4.584  -9.687  1.00  0.00     0.010 A 
ATOM     83  C   UNL     1       4.106  -3.506  -9.151  1.00  0.00     0.010 A 
ATOM     84  C   UNL     1       5.417  -5.793  -9.552  1.00  0.00     0.020 A 
ATOM     85  C   UNL     1       3.506  -4.718  -8.911  1.00  0.00     0.020 A 
ATOM     86  C   UNL     1       4.205  -5.886  -9.037  1.00  0.00     0.054 A 
BRANCH  86  87
ATOM     87  S   UNL     1       3.507  -7.476  -8.524  1.00  0.00     0.124 S 
ATOM     88  O   UNL     1       3.443  -8.417  -9.729  1.00  0.00    -0.237 OA
ATOM     89  O   UNL     1       4.392  -8.095  -7.439  1.00  0.00    -0.237 OA
ATOM     90  O   UNL     1       1.932  -7.233  -7.905  1.00  0.00    -0.744 OA
ENDBRANCH  86  87
ENDBRANCH  58  81
BRANCH  70  91
ATOM     91  C   UNL     1       7.954  -0.983 -15.639  1.00  0.00    -0.014 A 
ATOM     92  C   UNL     1       6.873  -1.389 -16.404  1.00  0.00     0.010 A 
ATOM     93  C   UNL     1       9.188  -0.996 -16.129  1.00  0.00     0.010 A 
ATOM     94  C   UNL     1       7.233  -2.071 -17.590  1.00  0.00     0.020 A 
ATOM     95  C   UNL     1       9.447  -1.558 -17.356  1.00  0.00     0.020 A 
ATOM     96  C   UNL     1       8.433  -2.033 -18.141  1.00  0.00     0.054 A 
BRANCH  96  97
ATOM     97  S   UNL     1       8.720  -2.581 -19.842  1.00  0.00     0.124 S 
ATOM     98  O   UNL     1       8.325  -4.053 -19.977  1.00  0.00    -0.237 OA
ATOM     99  O   UNL     1       7.875  -1.736 -20.799  1.00  0.00    -0.237 OA
ATOM    100  O   UNL     1      10.375  -2.396 -20.229  1.00  0.00    -0.744 OA
ENDBRANCH  96  97
ENDBRANCH  70  91
ENDBRANCH  44  45
ENDBRANCH  37  39
ENDBRANCH  36  37
ENDBRANCH  35  36
ENDBRANCH  34  35
ENDBRANCH  33  34
ENDBRANCH  32  33
ENDBRANCH   1  32
TORSDOF 25
