REMARK SMILES Cc1cc(C(=O)N[C@@H]2C(=O)N3C(C(=O)OCCOCCOCCOCCOC(=O)c4ccc(-c5c6nc(c(-c7ccc(S(=O)(=O)[O-])cc7)c7ccc([nH]7)c(-c7ccc(S(=O)(=O)[O-])cc7)c7nc(c(-c8ccc(S(=O)(=O)[O-])cc8)c8ccc5[nH]8)C=C7)C=C6)cc4)=C(CSc4nnc(C)s4)CS[C@H]23)n(C)n1
REMARK SMILES IDX 21 1 20 2 19 3 18 4 17 5 16 6 15 7 13 8 14 9 12 10 8 11 9 12
REMARK SMILES IDX 101 13 10 14 11 15 100 16 99 17 90 18 7 19 5 20 6 21 4 23
REMARK SMILES IDX 1 24 2 25 3 26 104 27 102 28 103 29 91 30 92 31 93 32 94 33
REMARK SMILES IDX 98 34 95 35 96 36 97 37 22 38 23 39 24 40 25 41 26 42 27 43
REMARK SMILES IDX 28 44 29 45 30 46 31 47 89 48 32 49 88 50 33 51 34 52 35 53
REMARK SMILES IDX 82 54 36 55 87 56 81 57 83 58 37 59 86 60 80 61 79 62 38 64
REMARK SMILES IDX 68 65 49 66 67 67 50 68 53 69 66 70 84 71 51 72 52 73 65 75
REMARK SMILES IDX 85 76 54 77 39 78 40 79 48 80 41 81 47 82 42 83 43 84 44 85
REMARK SMILES IDX 45 86 46 87 69 88 70 89 78 90 71 91 77 92 72 93 73 94 74 95
REMARK SMILES IDX 75 96 76 97 55 98 56 99 64 100 57 101 63 102 58 103 59 104
REMARK SMILES IDX 60 105 61 106 62 107
REMARK H PARENT 7 22 83 63 53 74
REMARK Flexibility Score: inf
ROOT
ATOM      1  O   UNL     1      -5.427  -0.536  -0.648  1.00  0.00    -0.377 OA
ENDROOT
BRANCH   1   2
ATOM      2  C   UNL     1      -4.023  -0.758  -0.623  1.00  0.00     0.188 C 
BRANCH   2   3
ATOM      3  C   UNL     1      -2.977   0.381  -0.775  1.00  0.00     0.188 C 
BRANCH   3   4
ATOM      4  O   UNL     1      -3.427   1.516  -1.490  1.00  0.00    -0.376 OA
BRANCH   4   5
ATOM      5  C   UNL     1      -2.983   1.782  -2.800  1.00  0.00     0.202 C 
BRANCH   5   6
ATOM      6  C   UNL     1      -3.119   0.727  -3.907  1.00  0.00     0.261 C 
BRANCH   6   7
ATOM      7  O   UNL     1      -3.271  -0.629  -3.479  1.00  0.00    -0.459 OA
BRANCH   7   8
ATOM      8  C   UNL     1      -2.141  -1.347  -3.325  1.00  0.00     0.355 C 
ATOM      9  O   UNL     1      -1.002  -0.935  -3.505  1.00  0.00    -0.244 OA
BRANCH   8  10
ATOM     10  C   UNL     1      -2.417  -2.742  -2.834  1.00  0.00     0.132 C 
ATOM     11  C   UNL     1      -0.271  -4.148  -0.581  1.00  0.00     0.206 C 
ATOM     12  C   UNL     1      -1.024  -2.797  -0.706  1.00  0.00     0.253 C 
ATOM     13  C   UNL     1      -1.197  -4.586  -1.758  1.00  0.00     0.181 C 
ATOM     14  O   UNL     1      -1.130  -1.813  -0.027  1.00  0.00    -0.272 OA
ATOM     15  N   UNL     1      -1.538  -3.201  -1.899  1.00  0.00    -0.289 N 
ATOM     16  S   UNL     1      -2.720  -5.472  -1.362  1.00  0.00    -0.129 SA
ATOM     17  C   UNL     1      -3.456  -5.054  -2.963  1.00  0.00     0.106 C 
ATOM     18  C   UNL     1      -3.381  -3.570  -3.325  1.00  0.00    -0.019 C 
BRANCH  11  19
ATOM     19  N   UNL     1      -0.302  -4.943   0.670  1.00  0.00    -0.336 N 
ATOM     20  C   UNL     1       0.005  -6.287   0.810  1.00  0.00     0.270 C 
ATOM     21  O   UNL     1      -0.066  -6.782   1.933  1.00  0.00    -0.268 OA
ATOM     22  H   UNL     1      -0.570  -4.465   1.488  1.00  0.00     0.164 HD
BRANCH  20  23
ATOM     23  C   UNL     1       0.319  -7.049  -0.384  1.00  0.00     0.126 A 
ATOM     24  C   UNL     1       0.393  -7.426  -3.998  1.00  0.00     0.069 C 
ATOM     25  C   UNL     1       0.456  -7.599  -2.526  1.00  0.00     0.060 A 
ATOM     26  C   UNL     1       0.947  -6.687  -1.568  1.00  0.00     0.059 A 
ATOM     27  N   UNL     1      -0.078  -8.666  -1.931  1.00  0.00    -0.178 NA
ATOM     28  N   UNL     1      -0.028  -8.362  -0.613  1.00  0.00    -0.263 N 
ATOM     29  C   UNL     1      -0.343  -9.407   0.329  1.00  0.00     0.174 C 
ENDBRANCH  20  23
ENDBRANCH  11  19
BRANCH  18  30
ATOM     30  C   UNL     1      -4.419  -3.204  -4.363  1.00  0.00     0.111 C 
BRANCH  30  31
ATOM     31  S   UNL     1      -5.945  -2.413  -3.807  1.00  0.00    -0.089 SA
BRANCH  31  32
ATOM     32  C   UNL     1      -6.486  -3.145  -2.318  1.00  0.00     0.174 A 
ATOM     33  N   UNL     1      -5.818  -4.039  -1.626  1.00  0.00    -0.132 NA
ATOM     34  S   UNL     1      -7.969  -2.686  -1.576  1.00  0.00    -0.091 S 
ATOM     35  N   UNL     1      -6.400  -4.318  -0.404  1.00  0.00    -0.143 NA
ATOM     36  C   UNL     1      -7.495  -3.614  -0.211  1.00  0.00     0.115 A 
ATOM     37  C   UNL     1      -8.276  -3.585   1.052  1.00  0.00     0.081 C 
ENDBRANCH  31  32
ENDBRANCH  30  31
ENDBRANCH  18  30
ENDBRANCH   8  10
ENDBRANCH   7   8
ENDBRANCH   6   7
ENDBRANCH   5   6
ENDBRANCH   4   5
ENDBRANCH   3   4
ENDBRANCH   2   3
ENDBRANCH   1   2
BRANCH   1  38
ATOM     38  C   UNL     1      -5.901   0.693  -1.163  1.00  0.00     0.188 C 
BRANCH  38  39
ATOM     39  C   UNL     1      -5.782   1.837  -0.141  1.00  0.00     0.188 C 
BRANCH  39  40
ATOM     40  O   UNL     1      -4.976   1.554   0.988  1.00  0.00    -0.376 OA
BRANCH  40  41
ATOM     41  C   UNL     1      -5.439   0.704   2.026  1.00  0.00     0.202 C 
BRANCH  41  42
ATOM     42  C   UNL     1      -6.647  -0.259   1.963  1.00  0.00     0.261 C 
BRANCH  42  43
ATOM     43  O   UNL     1      -7.663  -0.066   0.975  1.00  0.00    -0.460 OA
BRANCH  43  44
ATOM     44  C   UNL     1      -8.552   0.930   1.161  1.00  0.00     0.338 C 
ATOM     45  O   UNL     1      -8.602   1.706   2.095  1.00  0.00    -0.246 OA
BRANCH  44  46
ATOM     46  C   UNL     1      -9.356   1.022  -0.081  1.00  0.00     0.060 A 
ATOM     47  C   UNL     1      -9.231   2.154  -0.898  1.00  0.00     0.016 A 
ATOM     48  C   UNL     1     -10.207  -0.021  -0.450  1.00  0.00     0.016 A 
ATOM     49  C   UNL     1      -9.973   2.256  -2.075  1.00  0.00     0.010 A 
ATOM     50  C   UNL     1     -10.966   0.090  -1.618  1.00  0.00     0.010 A 
ATOM     51  C   UNL     1     -10.880   1.246  -2.415  1.00  0.00    -0.014 A 
BRANCH  51  52
ATOM     52  C   UNL     1     -11.897   1.501  -3.464  1.00  0.00     0.031 A 
ATOM     53  C   UNL     1     -13.280   1.900  -3.023  1.00  0.00     0.074 A 
ATOM     54  C   UNL     1     -11.600   1.417  -4.773  1.00  0.00     0.049 A 
ATOM     55  N   UNL     1     -14.346   2.132  -3.743  1.00  0.00    -0.248 NA
ATOM     56  C   UNL     1     -13.487   2.052  -1.573  1.00  0.00     0.031 C 
ATOM     57  C   UNL     1     -10.285   1.097  -5.327  1.00  0.00     0.029 A 
ATOM     58  N   UNL     1     -12.398   1.592  -5.877  1.00  0.00    -0.354 N 
ATOM     59  C   UNL     1     -15.352   2.440  -2.834  1.00  0.00     0.074 A 
ATOM     60  C   UNL     1     -14.779   2.331  -1.511  1.00  0.00     0.031 C 
ATOM     61  C   UNL     1     -10.369   1.095  -6.669  1.00  0.00     0.029 A 
ATOM     62  C   UNL     1     -11.749   1.370  -7.068  1.00  0.00     0.049 A 
ATOM     63  H   UNL     1     -13.346   1.851  -5.820  1.00  0.00     0.167 HD
ATOM     64  C   UNL     1     -16.637   2.789  -3.078  1.00  0.00     0.031 A 
ATOM     65  C   UNL     1     -12.221   1.367  -8.331  1.00  0.00     0.031 A 
ATOM     66  C   UNL     1     -17.206   2.882  -4.396  1.00  0.00     0.049 A 
ATOM     67  C   UNL     1     -13.679   1.670  -8.575  1.00  0.00     0.074 A 
ATOM     68  C   UNL     1     -18.495   3.239  -4.751  1.00  0.00     0.029 A 
ATOM     69  N   UNL     1     -16.528   2.605  -5.573  1.00  0.00    -0.354 N 
ATOM     70  N   UNL     1     -14.615   1.981  -7.709  1.00  0.00    -0.248 NA
ATOM     71  C   UNL     1     -14.141   1.630  -9.970  1.00  0.00     0.031 C 
ATOM     72  C   UNL     1     -18.616   3.107  -6.138  1.00  0.00     0.029 A 
ATOM     73  C   UNL     1     -17.381   2.749  -6.655  1.00  0.00     0.049 A 
ATOM     74  H   UNL     1     -15.580   2.344  -5.631  1.00  0.00     0.167 HD
ATOM     75  C   UNL     1     -15.767   2.206  -8.458  1.00  0.00     0.074 A 
ATOM     76  C   UNL     1     -15.406   2.009  -9.847  1.00  0.00     0.031 C 
ATOM     77  C   UNL     1     -17.010   2.549  -8.034  1.00  0.00     0.031 A 
BRANCH  64  78
ATOM     78  C   UNL     1     -17.524   3.050  -1.888  1.00  0.00    -0.014 A 
ATOM     79  C   UNL     1     -17.328   4.167  -1.055  1.00  0.00     0.010 A 
ATOM     80  C   UNL     1     -18.590   2.173  -1.614  1.00  0.00     0.010 A 
ATOM     81  C   UNL     1     -18.153   4.376   0.054  1.00  0.00     0.020 A 
ATOM     82  C   UNL     1     -19.438   2.397  -0.527  1.00  0.00     0.020 A 
ATOM     83  C   UNL     1     -19.202   3.489   0.311  1.00  0.00     0.054 A 
BRANCH  83  84
ATOM     84  S   UNL     1     -20.267   3.796   1.746  1.00  0.00     0.124 S 
ATOM     85  O   UNL     1     -19.367   3.500   2.858  1.00  0.00    -0.237 OA
ATOM     86  O   UNL     1     -20.623   5.203   1.583  1.00  0.00    -0.237 OA
ATOM     87  O   UNL     1     -21.369   2.852   1.571  1.00  0.00    -0.744 OA
ENDBRANCH  83  84
ENDBRANCH  64  78
BRANCH  65  88
ATOM     88  C   UNL     1     -11.310   1.045  -9.466  1.00  0.00    -0.014 A 
ATOM     89  C   UNL     1     -10.974   2.022 -10.420  1.00  0.00     0.010 A 
ATOM     90  C   UNL     1     -10.773  -0.249  -9.599  1.00  0.00     0.010 A 
ATOM     91  C   UNL     1     -10.126   1.710 -11.488  1.00  0.00     0.020 A 
ATOM     92  C   UNL     1      -9.900  -0.557 -10.646  1.00  0.00     0.020 A 
ATOM     93  C   UNL     1      -9.588   0.423 -11.589  1.00  0.00     0.054 A 
BRANCH  93  94
ATOM     94  S   UNL     1      -8.436   0.062 -12.943  1.00  0.00     0.124 S 
ATOM     95  O   UNL     1      -9.317   0.078 -14.106  1.00  0.00    -0.237 OA
ATOM     96  O   UNL     1      -7.487   1.168 -12.850  1.00  0.00    -0.237 OA
ATOM     97  O   UNL     1      -7.891  -1.247 -12.589  1.00  0.00    -0.744 OA
ENDBRANCH  93  94
ENDBRANCH  65  88
BRANCH  77  98
ATOM     98  C   UNL     1     -18.070   2.779  -9.082  1.00  0.00    -0.014 A 
ATOM     99  C   UNL     1     -18.606   1.719  -9.834  1.00  0.00     0.010 A 
ATOM    100  C   UNL     1     -18.587   4.076  -9.267  1.00  0.00     0.010 A 
ATOM    101  C   UNL     1     -19.613   1.957 -10.774  1.00  0.00     0.020 A 
ATOM    102  C   UNL     1     -19.617   4.312 -10.180  1.00  0.00     0.020 A 
ATOM    103  C   UNL     1     -20.115   3.252 -10.939  1.00  0.00     0.054 A 
BRANCH 103 104
ATOM    104  S   UNL     1     -21.454   3.523 -12.131  1.00  0.00     0.124 S 
ATOM    105  O   UNL     1     -20.769   3.337 -13.407  1.00  0.00    -0.237 OA
ATOM    106  O   UNL     1     -22.414   2.481 -11.774  1.00  0.00    -0.237 OA
ATOM    107  O   UNL     1     -21.895   4.889 -11.855  1.00  0.00    -0.744 OA
ENDBRANCH 103 104
ENDBRANCH  77  98
ENDBRANCH  51  52
ENDBRANCH  44  46
ENDBRANCH  43  44
ENDBRANCH  42  43
ENDBRANCH  41  42
ENDBRANCH  40  41
ENDBRANCH  39  40
ENDBRANCH  38  39
ENDBRANCH   1  38
TORSDOF 28
