REMARK SMILES C#CCN(CC(=O)OCCOCCOCCOCCOC(=O)c1ccc(-c2c3nc(c(-c4ccc(S(=O)(=O)[O-])cc4)c4ccc([nH]4)c(-c4ccc(S(=O)(=O)[O-])cc4)c4nc(c(-c5ccc(S(=O)(=O)[O-])cc5)c5ccc2[nH]5)C=C4)C=C3)cc1)C(=O)N[C@@H](C)CCCC
REMARK SMILES IDX 12 1 11 2 10 3 9 4 8 5 6 6 7 7 5 8 4 9 3 10 2 11 1 12 83 13
REMARK SMILES IDX 84 14 85 15 86 17 87 18 88 19 89 20 90 21 91 22 13 23 14 24
REMARK SMILES IDX 15 25 16 26 17 27 18 28 19 29 20 30 21 31 22 32 23 33 24 34
REMARK SMILES IDX 82 35 25 36 81 37 26 38 27 39 28 40 75 41 29 42 80 43 74 44
REMARK SMILES IDX 76 45 30 46 79 47 73 48 72 49 31 51 61 52 42 53 60 54 43 55
REMARK SMILES IDX 46 56 59 57 77 58 44 59 45 60 58 62 78 63 47 64 32 65 33 66
REMARK SMILES IDX 41 67 34 68 40 69 35 70 36 71 37 72 38 73 39 74 62 75 63 76
REMARK SMILES IDX 71 77 64 78 70 79 65 80 66 81 67 82 68 83 69 84 48 85 49 86
REMARK SMILES IDX 57 87 50 88 56 89 51 90 52 91 53 92 54 93 55 94
REMARK H PARENT 85 16 76 50 46 61
REMARK Flexibility Score: inf
ROOT
ATOM      1  C   UNL     1      -4.980   0.932  -2.383  1.00  0.00     0.188 C 
ENDROOT
BRANCH   1   2
ATOM      2  O   UNL     1      -6.331   0.905  -2.780  1.00  0.00    -0.376 OA
BRANCH   2   3
ATOM      3  C   UNL     1      -7.136  -0.130  -2.216  1.00  0.00     0.202 C 
BRANCH   3   4
ATOM      4  C   UNL     1      -6.798  -0.684  -0.802  1.00  0.00     0.261 C 
BRANCH   4   5
ATOM      5  O   UNL     1      -5.393  -0.972  -0.508  1.00  0.00    -0.462 OA
BRANCH   5   6
ATOM      6  C   UNL     1      -4.733  -1.856  -1.292  1.00  0.00     0.325 C 
ATOM      7  O   UNL     1      -5.312  -2.743  -1.915  1.00  0.00    -0.250 OA
BRANCH   6   8
ATOM      8  C   UNL     1      -3.166  -1.733  -1.252  1.00  0.00     0.245 C 
BRANCH   8   9
ATOM      9  N   UNL     1      -2.307  -0.499  -1.327  1.00  0.00    -0.303 N 
BRANCH   9  10
ATOM     10  C   UNL     1      -1.769   0.081  -0.020  1.00  0.00     0.211 C 
BRANCH  10  11
ATOM     11  C   UNL     1      -0.249   0.081  -0.020  1.00  0.00    -0.085 C 
ATOM     12  C   UNL     1       1.055   0.081  -0.020  1.00  0.00     0.006 C 
ENDBRANCH  10  11
ENDBRANCH   9  10
BRANCH   9  13
ATOM     13  C   UNL     1      -1.835   0.130  -2.459  1.00  0.00     0.318 C 
ATOM     14  O   UNL     1      -1.155   1.163  -2.382  1.00  0.00    -0.249 OA
ATOM     15  N   UNL     1      -2.041  -0.222  -3.737  1.00  0.00    -0.336 N 
ATOM     16  H   UNL     1      -1.544   0.403  -4.313  1.00  0.00     0.165 HD
BRANCH  15  17
ATOM     17  C   UNL     1      -2.730  -1.190  -4.598  1.00  0.00     0.080 C 
ATOM     18  C   UNL     1      -3.650  -0.460  -5.600  1.00  0.00     0.031 C 
BRANCH  17  19
ATOM     19  C   UNL     1      -1.730  -1.985  -5.471  1.00  0.00     0.024 C 
BRANCH  19  20
ATOM     20  C   UNL     1      -0.512  -2.602  -4.790  1.00  0.00     0.002 C 
BRANCH  20  21
ATOM     21  C   UNL     1      -0.780  -3.446  -3.552  1.00  0.00    -0.003 C 
ATOM     22  C   UNL     1      -1.900  -4.461  -3.717  1.00  0.00     0.004 C 
ENDBRANCH  20  21
ENDBRANCH  19  20
ENDBRANCH  17  19
ENDBRANCH  15  17
ENDBRANCH   9  13
ENDBRANCH   8   9
ENDBRANCH   6   8
ENDBRANCH   5   6
ENDBRANCH   4   5
ENDBRANCH   3   4
ENDBRANCH   2   3
ENDBRANCH   1   2
BRANCH   1  23
ATOM     23  C   UNL     1      -4.206   2.235  -2.398  1.00  0.00     0.188 C 
BRANCH  23  24
ATOM     24  O   UNL     1      -4.955   3.411  -2.173  1.00  0.00    -0.377 OA
BRANCH  24  25
ATOM     25  C   UNL     1      -6.059   3.591  -3.043  1.00  0.00     0.188 C 
BRANCH  25  26
ATOM     26  C   UNL     1      -5.780   3.594  -4.560  1.00  0.00     0.188 C 
BRANCH  26  27
ATOM     27  O   UNL     1      -4.677   2.801  -4.998  1.00  0.00    -0.376 OA
BRANCH  27  28
ATOM     28  C   UNL     1      -3.594   3.522  -5.597  1.00  0.00     0.202 C 
BRANCH  28  29
ATOM     29  C   UNL     1      -2.614   4.266  -4.660  1.00  0.00     0.261 C 
BRANCH  29  30
ATOM     30  O   UNL     1      -3.212   5.104  -3.665  1.00  0.00    -0.460 OA
BRANCH  30  31
ATOM     31  C   UNL     1      -3.850   6.212  -4.109  1.00  0.00     0.338 C 
ATOM     32  O   UNL     1      -3.919   6.597  -5.252  1.00  0.00    -0.246 OA
BRANCH  31  33
ATOM     33  C   UNL     1      -4.659   6.745  -2.986  1.00  0.00     0.060 A 
ATOM     34  C   UNL     1      -6.030   6.924  -3.205  1.00  0.00     0.016 A 
ATOM     35  C   UNL     1      -4.105   7.001  -1.728  1.00  0.00     0.016 A 
ATOM     36  C   UNL     1      -6.858   7.319  -2.159  1.00  0.00     0.010 A 
ATOM     37  C   UNL     1      -4.927   7.458  -0.692  1.00  0.00     0.010 A 
ATOM     38  C   UNL     1      -6.305   7.628  -0.910  1.00  0.00    -0.014 A 
BRANCH  38  39
ATOM     39  C   UNL     1      -7.158   8.352   0.057  1.00  0.00     0.031 A 
ATOM     40  C   UNL     1      -7.175   9.853  -0.029  1.00  0.00     0.074 A 
ATOM     41  C   UNL     1      -7.964   7.700   0.914  1.00  0.00     0.049 A 
ATOM     42  N   UNL     1      -7.916  10.712   0.618  1.00  0.00    -0.248 NA
ATOM     43  C   UNL     1      -6.235  10.467  -0.986  1.00  0.00     0.031 C 
ATOM     44  C   UNL     1      -8.056   6.247   1.055  1.00  0.00     0.029 A 
ATOM     45  N   UNL     1      -8.872   8.184   1.822  1.00  0.00    -0.354 N 
ATOM     46  C   UNL     1      -7.531  11.963   0.151  1.00  0.00     0.074 A 
ATOM     47  C   UNL     1      -6.481  11.757  -0.819  1.00  0.00     0.031 C 
ATOM     48  C   UNL     1      -8.969   5.958   2.001  1.00  0.00     0.029 A 
ATOM     49  C   UNL     1      -9.511   7.203   2.543  1.00  0.00     0.049 A 
ATOM     50  H   UNL     1      -9.050   9.144   1.946  1.00  0.00     0.167 HD
ATOM     51  C   UNL     1      -8.013  13.176   0.501  1.00  0.00     0.031 A 
ATOM     52  C   UNL     1     -10.418   7.306   3.536  1.00  0.00     0.031 A 
ATOM     53  C   UNL     1      -9.048  13.371   1.479  1.00  0.00     0.049 A 
ATOM     54  C   UNL     1     -10.899   8.678   3.943  1.00  0.00     0.074 A 
ATOM     55  C   UNL     1      -9.631  14.558   1.884  1.00  0.00     0.029 A 
ATOM     56  N   UNL     1      -9.639  12.359   2.219  1.00  0.00    -0.354 N 
ATOM     57  N   UNL     1     -10.575   9.849   3.446  1.00  0.00    -0.248 NA
ATOM     58  C   UNL     1     -11.881   8.740   5.035  1.00  0.00     0.031 C 
ATOM     59  C   UNL     1     -10.520  14.271   2.924  1.00  0.00     0.029 A 
ATOM     60  C   UNL     1     -10.550  12.898   3.111  1.00  0.00     0.049 A 
ATOM     61  H   UNL     1      -9.440  11.399   2.124  1.00  0.00     0.167 HD
ATOM     62  C   UNL     1     -11.331  10.783   4.148  1.00  0.00     0.074 A 
ATOM     63  C   UNL     1     -12.151  10.037   5.081  1.00  0.00     0.031 C 
ATOM     64  C   UNL     1     -11.347  12.136   4.038  1.00  0.00     0.031 A 
BRANCH  51  65
ATOM     65  C   UNL     1      -7.392  14.389  -0.134  1.00  0.00    -0.014 A 
ATOM     66  C   UNL     1      -7.622  14.716  -1.482  1.00  0.00     0.010 A 
ATOM     67  C   UNL     1      -6.615  15.254   0.659  1.00  0.00     0.010 A 
ATOM     68  C   UNL     1      -7.079  15.883  -2.027  1.00  0.00     0.020 A 
ATOM     69  C   UNL     1      -6.093  16.434   0.125  1.00  0.00     0.020 A 
ATOM     70  C   UNL     1      -6.325  16.738  -1.217  1.00  0.00     0.054 A 
BRANCH  70  71
ATOM     71  S   UNL     1      -5.696  18.283  -1.931  1.00  0.00     0.124 S 
ATOM     72  O   UNL     1      -4.666  17.797  -2.845  1.00  0.00    -0.237 OA
ATOM     73  O   UNL     1      -6.885  18.846  -2.566  1.00  0.00    -0.237 OA
ATOM     74  O   UNL     1      -5.201  19.025  -0.774  1.00  0.00    -0.744 OA
ENDBRANCH  70  71
ENDBRANCH  51  65
BRANCH  52  75
ATOM     75  C   UNL     1     -10.905   6.088   4.246  1.00  0.00    -0.014 A 
ATOM     76  C   UNL     1     -12.254   5.692   4.186  1.00  0.00     0.010 A 
ATOM     77  C   UNL     1     -10.014   5.336   5.035  1.00  0.00     0.010 A 
ATOM     78  C   UNL     1     -12.707   4.594   4.927  1.00  0.00     0.020 A 
ATOM     79  C   UNL     1     -10.454   4.218   5.748  1.00  0.00     0.020 A 
ATOM     80  C   UNL     1     -11.803   3.864   5.704  1.00  0.00     0.054 A 
BRANCH  80  81
ATOM     81  S   UNL     1     -12.404   2.430   6.640  1.00  0.00     0.124 S 
ATOM     82  O   UNL     1     -13.171   3.063   7.707  1.00  0.00    -0.237 OA
ATOM     83  O   UNL     1     -13.186   1.708   5.639  1.00  0.00    -0.237 OA
ATOM     84  O   UNL     1     -11.177   1.759   7.063  1.00  0.00    -0.744 OA
ENDBRANCH  80  81
ENDBRANCH  52  75
BRANCH  64  85
ATOM     85  C   UNL     1     -12.301  12.891   4.928  1.00  0.00    -0.014 A 
ATOM     86  C   UNL     1     -12.108  12.957   6.320  1.00  0.00     0.010 A 
ATOM     87  C   UNL     1     -13.394  13.568   4.357  1.00  0.00     0.010 A 
ATOM     88  C   UNL     1     -13.024  13.634   7.129  1.00  0.00     0.020 A 
ATOM     89  C   UNL     1     -14.290  14.279   5.158  1.00  0.00     0.020 A 
ATOM     90  C   UNL     1     -14.113  14.287   6.542  1.00  0.00     0.054 A 
BRANCH  90  91
ATOM     91  S   UNL     1     -15.287  15.160   7.613  1.00  0.00     0.124 S 
ATOM     92  O   UNL     1     -15.999  14.054   8.248  1.00  0.00    -0.237 OA
ATOM     93  O   UNL     1     -14.409  15.930   8.491  1.00  0.00    -0.237 OA
ATOM     94  O   UNL     1     -16.080  15.957   6.680  1.00  0.00    -0.744 OA
ENDBRANCH  90  91
ENDBRANCH  64  85
ENDBRANCH  38  39
ENDBRANCH  31  33
ENDBRANCH  30  31
ENDBRANCH  29  30
ENDBRANCH  28  29
ENDBRANCH  27  28
ENDBRANCH  26  27
ENDBRANCH  25  26
ENDBRANCH  24  25
ENDBRANCH  23  24
ENDBRANCH   1  23
TORSDOF 31
