REMARK SMILES Cc1noc(C)c1[C@H](C)NC(=O)NC[C@@](C)(O)C(=O)OCCOCCOCCOCCOC(=O)c1ccc(-c2c3nc(c(-c4ccc(S(=O)(=O)[O-])cc4)c4ccc([nH]4)c(-c4ccc(S(=O)(=O)[O-])cc4)c4nc(c(-c5ccc(S(=O)(=O)[O-])cc5)c5ccc2[nH]5)C=C4)C=C3)cc1
REMARK SMILES IDX 25 1 24 2 23 3 22 4 21 5 20 6 18 7 19 8 15 9 16 10 14 11
REMARK SMILES IDX 13 12 10 13 11 14 12 16 8 18 9 19 7 20 1 21 2 22 3 23 4 24
REMARK SMILES IDX 5 25 6 26 17 27 26 29 27 30 28 31 29 32 30 33 31 34 32 35
REMARK SMILES IDX 33 36 34 37 35 38 36 39 94 40 37 41 93 42 38 43 39 44 40 45
REMARK SMILES IDX 87 46 41 47 92 48 86 49 88 50 42 51 91 52 85 53 84 54 43 56
REMARK SMILES IDX 73 57 54 58 72 59 55 60 58 61 71 62 89 63 56 64 57 65 70 67
REMARK SMILES IDX 90 68 59 69 44 70 45 71 53 72 46 73 52 74 47 75 48 76 49 77
REMARK SMILES IDX 50 78 51 79 74 80 75 81 83 82 76 83 82 84 77 85 78 86 79 87
REMARK SMILES IDX 80 88 81 89 60 90 61 91 69 92 62 93 68 94 63 95 64 96 65 97
REMARK SMILES IDX 66 98 67 99
REMARK H PARENT 10 15 13 17 17 28 88 55 58 66
REMARK Flexibility Score: inf
ROOT
ATOM      1  C   UNL     1       1.741   5.275  -2.707  1.00  0.00     0.188 C 
ENDROOT
BRANCH   1   2
ATOM      2  C   UNL     1       0.515   5.216  -1.800  1.00  0.00     0.188 C 
BRANCH   2   3
ATOM      3  O   UNL     1      -0.435   6.267  -1.773  1.00  0.00    -0.376 OA
BRANCH   3   4
ATOM      4  C   UNL     1      -0.071   7.632  -1.704  1.00  0.00     0.202 C 
BRANCH   4   5
ATOM      5  C   UNL     1       1.011   8.120  -0.737  1.00  0.00     0.261 C 
BRANCH   5   6
ATOM      6  O   UNL     1       2.049   7.165  -0.508  1.00  0.00    -0.461 OA
BRANCH   6   7
ATOM      7  C   UNL     1       2.105   6.617   0.737  1.00  0.00     0.339 C 
ATOM      8  O   UNL     1       1.431   6.989   1.690  1.00  0.00    -0.249 OA
BRANCH   7   9
ATOM      9  C   UNL     1       3.144   5.467   0.806  1.00  0.00     0.176 C 
ATOM     10  C   UNL     1       4.235   5.953   1.762  1.00  0.00     0.057 C 
BRANCH   9  11
ATOM     11  C   UNL     1       2.489   4.128   1.256  1.00  0.00     0.164 C 
BRANCH  11  12
ATOM     12  N   UNL     1       1.463   4.218   2.281  1.00  0.00    -0.335 N 
ATOM     13  N   UNL     1      -0.448   2.929   1.688  1.00  0.00    -0.331 N 
ATOM     14  C   UNL     1       0.265   3.684   2.521  1.00  0.00     0.315 C 
ATOM     15  H   UNL     1      -1.270   2.598   2.116  1.00  0.00     0.165 HD
ATOM     16  O   UNL     1      -0.240   3.921   3.622  1.00  0.00    -0.249 OA
ATOM     17  H   UNL     1       1.723   4.845   2.993  1.00  0.00     0.165 HD
BRANCH  13  18
ATOM     18  C   UNL     1      -0.338   2.460   0.315  1.00  0.00     0.116 C 
ATOM     19  C   UNL     1       0.045   0.982   0.340  1.00  0.00     0.036 C 
BRANCH  18  20
ATOM     20  C   UNL     1      -1.631   2.765  -0.405  1.00  0.00     0.040 A 
ATOM     21  C   UNL     1      -2.230   5.172   0.521  1.00  0.00     0.071 C 
ATOM     22  C   UNL     1      -2.439   3.950  -0.296  1.00  0.00     0.086 A 
ATOM     23  N   UNL     1      -3.520   3.886  -1.080  1.00  0.00    -0.085 NA
ATOM     24  O   UNL     1      -3.409   2.712  -1.780  1.00  0.00    -0.361 OA
ATOM     25  C   UNL     1      -2.282   2.055  -1.404  1.00  0.00     0.139 A 
ATOM     26  C   UNL     1      -2.041   0.800  -2.144  1.00  0.00     0.091 C 
ENDBRANCH  18  20
ENDBRANCH  13  18
ENDBRANCH  11  12
ENDBRANCH   9  11
BRANCH   9  27
ATOM     27  O   UNL     1       3.774   5.190  -0.455  1.00  0.00    -0.377 OA
ATOM     28  H   UNL     1       4.409   4.465  -0.347  1.00  0.00     0.212 HD
ENDBRANCH   9  27
ENDBRANCH   7   9
ENDBRANCH   6   7
ENDBRANCH   5   6
ENDBRANCH   4   5
ENDBRANCH   3   4
ENDBRANCH   2   3
ENDBRANCH   1   2
BRANCH   1  29
ATOM     29  O   UNL     1       1.452   4.980  -4.061  1.00  0.00    -0.377 OA
BRANCH  29  30
ATOM     30  C   UNL     1       0.655   5.957  -4.696  1.00  0.00     0.188 C 
BRANCH  30  31
ATOM     31  C   UNL     1      -0.850   5.641  -4.783  1.00  0.00     0.188 C 
BRANCH  31  32
ATOM     32  O   UNL     1      -1.379   4.321  -4.885  1.00  0.00    -0.376 OA
BRANCH  32  33
ATOM     33  C   UNL     1      -0.540   3.185  -4.899  1.00  0.00     0.202 C 
BRANCH  33  34
ATOM     34  C   UNL     1       0.097   2.847  -6.250  1.00  0.00     0.261 C 
BRANCH  34  35
ATOM     35  O   UNL     1       0.704   3.961  -6.909  1.00  0.00    -0.460 OA
BRANCH  35  36
ATOM     36  C   UNL     1      -0.098   4.653  -7.757  1.00  0.00     0.338 C 
ATOM     37  O   UNL     1      -1.240   4.383  -8.088  1.00  0.00    -0.246 OA
BRANCH  36  38
ATOM     38  C   UNL     1       0.581   5.925  -8.089  1.00  0.00     0.060 A 
ATOM     39  C   UNL     1      -0.147   7.121  -7.990  1.00  0.00     0.016 A 
ATOM     40  C   UNL     1       1.946   5.948  -8.393  1.00  0.00     0.016 A 
ATOM     41  C   UNL     1       0.482   8.344  -8.218  1.00  0.00     0.010 A 
ATOM     42  C   UNL     1       2.566   7.167  -8.660  1.00  0.00     0.010 A 
ATOM     43  C   UNL     1       1.825   8.361  -8.613  1.00  0.00    -0.014 A 
BRANCH  43  44
ATOM     44  C   UNL     1       2.368   9.542  -9.317  1.00  0.00     0.031 A 
ATOM     45  C   UNL     1       2.189   9.561 -10.812  1.00  0.00     0.074 A 
ATOM     46  C   UNL     1       3.041  10.514  -8.679  1.00  0.00     0.049 A 
ATOM     47  N   UNL     1       2.714  10.359 -11.699  1.00  0.00    -0.248 NA
ATOM     48  C   UNL     1       1.311   8.520 -11.382  1.00  0.00     0.031 C 
ATOM     49  C   UNL     1       3.229  10.614  -7.232  1.00  0.00     0.029 A 
ATOM     50  N   UNL     1       3.721  11.594  -9.183  1.00  0.00    -0.354 N 
ATOM     51  C   UNL     1       2.256   9.899 -12.928  1.00  0.00     0.074 A 
ATOM     52  C   UNL     1       1.415   8.754 -12.680  1.00  0.00     0.031 C 
ATOM     53  C   UNL     1       4.004  11.683  -6.967  1.00  0.00     0.029 A 
ATOM     54  C   UNL     1       4.401  12.312  -8.226  1.00  0.00     0.049 A 
ATOM     55  H   UNL     1       3.721  11.833 -10.138  1.00  0.00     0.167 HD
ATOM     56  C   UNL     1       2.525  10.383 -14.159  1.00  0.00     0.031 A 
ATOM     57  C   UNL     1       5.275  13.330  -8.367  1.00  0.00     0.031 A 
ATOM     58  C   UNL     1       3.375  11.514 -14.392  1.00  0.00     0.049 A 
ATOM     59  C   UNL     1       5.600  13.822  -9.758  1.00  0.00     0.074 A 
ATOM     60  C   UNL     1       3.711  12.101 -15.597  1.00  0.00     0.029 A 
ATOM     61  N   UNL     1       4.026  12.223 -13.396  1.00  0.00    -0.354 N 
ATOM     62  N   UNL     1       5.143  13.393 -10.912  1.00  0.00    -0.248 NA
ATOM     63  C   UNL     1       6.556  14.934  -9.869  1.00  0.00     0.031 C 
ATOM     64  C   UNL     1       4.608  13.138 -15.333  1.00  0.00     0.029 A 
ATOM     65  C   UNL     1       4.776  13.236 -13.959  1.00  0.00     0.049 A 
ATOM     66  H   UNL     1       3.962  12.034 -12.432  1.00  0.00     0.167 HD
ATOM     67  C   UNL     1       5.722  14.211 -11.879  1.00  0.00     0.074 A 
ATOM     68  C   UNL     1       6.562  15.157 -11.177  1.00  0.00     0.031 C 
ATOM     69  C   UNL     1       5.571  14.186 -13.226  1.00  0.00     0.031 A 
BRANCH  56  70
ATOM     70  C   UNL     1       1.933   9.667 -15.339  1.00  0.00    -0.014 A 
ATOM     71  C   UNL     1       0.561   9.756 -15.634  1.00  0.00     0.010 A 
ATOM     72  C   UNL     1       2.775   8.934 -16.195  1.00  0.00     0.010 A 
ATOM     73  C   UNL     1       0.040   9.113 -16.759  1.00  0.00     0.020 A 
ATOM     74  C   UNL     1       2.262   8.312 -17.335  1.00  0.00     0.020 A 
ATOM     75  C   UNL     1       0.895   8.400 -17.606  1.00  0.00     0.054 A 
BRANCH  75  76
ATOM     76  S   UNL     1       0.203   7.635 -19.097  1.00  0.00     0.124 S 
ATOM     77  O   UNL     1      -0.556   6.518 -18.538  1.00  0.00    -0.237 OA
ATOM     78  O   UNL     1      -0.598   8.715 -19.667  1.00  0.00    -0.237 OA
ATOM     79  O   UNL     1       1.381   7.260 -19.874  1.00  0.00    -0.744 OA
ENDBRANCH  75  76
ENDBRANCH  56  70
BRANCH  57  80
ATOM     80  C   UNL     1       5.946  13.925  -7.176  1.00  0.00    -0.014 A 
ATOM     81  C   UNL     1       5.685  15.252  -6.789  1.00  0.00     0.010 A 
ATOM     82  C   UNL     1       6.884  13.176  -6.442  1.00  0.00     0.010 A 
ATOM     83  C   UNL     1       6.373  15.829  -5.716  1.00  0.00     0.020 A 
ATOM     84  C   UNL     1       7.553  13.739  -5.350  1.00  0.00     0.020 A 
ATOM     85  C   UNL     1       7.306  15.068  -5.005  1.00  0.00     0.054 A 
BRANCH  85  86
ATOM     86  S   UNL     1       8.177  15.828  -3.606  1.00  0.00     0.124 S 
ATOM     87  O   UNL     1       9.122  16.712  -4.280  1.00  0.00    -0.237 OA
ATOM     88  O   UNL     1       7.095  16.491  -2.882  1.00  0.00    -0.237 OA
ATOM     89  O   UNL     1       8.771  14.686  -2.913  1.00  0.00    -0.744 OA
ENDBRANCH  85  86
ENDBRANCH  57  80
BRANCH  69  90
ATOM     90  C   UNL     1       6.256  15.252 -14.034  1.00  0.00    -0.014 A 
ATOM     91  C   UNL     1       7.637  15.207 -14.288  1.00  0.00     0.010 A 
ATOM     92  C   UNL     1       5.471  16.241 -14.657  1.00  0.00     0.010 A 
ATOM     93  C   UNL     1       8.222  16.139 -15.149  1.00  0.00     0.020 A 
ATOM     94  C   UNL     1       6.048  17.156 -15.538  1.00  0.00     0.020 A 
ATOM     95  C   UNL     1       7.422  17.102 -15.774  1.00  0.00     0.054 A 
BRANCH  95  96
ATOM     96  S   UNL     1       8.191  18.240 -16.959  1.00  0.00     0.124 S 
ATOM     97  O   UNL     1       8.932  19.139 -16.079  1.00  0.00    -0.237 OA
ATOM     98  O   UNL     1       9.007  17.347 -17.778  1.00  0.00    -0.237 OA
ATOM     99  O   UNL     1       7.053  18.843 -17.650  1.00  0.00    -0.744 OA
ENDBRANCH  95  96
ENDBRANCH  69  90
ENDBRANCH  43  44
ENDBRANCH  36  38
ENDBRANCH  35  36
ENDBRANCH  34  35
ENDBRANCH  33  34
ENDBRANCH  32  33
ENDBRANCH  31  32
ENDBRANCH  30  31
ENDBRANCH  29  30
ENDBRANCH   1  29
TORSDOF 28
