REMARK SMILES Cc1oc2c(C)c3oc(=O)c(CCC(=O)N[C@H](Cc4ccc(Cl)cc4)C(=O)OCCOCCOCCOCCOC(=O)c4ccc(-c5c6nc(c(-c7ccc(S(=O)(=O)[O-])cc7)c7ccc([nH]7)c(-c7ccc(S(=O)(=O)[O-])cc7)c7nc(c(-c8ccc(S(=O)(=O)[O-])cc8)c8ccc5[nH]8)C=C7)C=C6)cc4)c(C)c3cc2c1C
REMARK SMILES IDX 33 1 32 2 31 3 30 4 29 5 28 6 26 7 27 8 17 9 16 10 14 11
REMARK SMILES IDX 15 12 13 14 12 15 11 16 1 17 2 18 3 19 108 20 4 21 107 22
REMARK SMILES IDX 109 23 5 24 106 25 6 26 7 27 105 28 8 29 103 30 9 31 104 32
REMARK SMILES IDX 10 33 18 34 19 35 20 36 25 37 21 38 24 39 22 40 23 41 34 42
REMARK SMILES IDX 35 43 36 44 37 45 38 46 39 47 40 48 41 49 42 50 43 51 44 52
REMARK SMILES IDX 102 53 45 54 101 55 46 56 47 57 48 58 95 59 49 60 100 61
REMARK SMILES IDX 94 62 96 63 50 64 99 65 93 66 92 67 51 69 81 70 62 71 80 72
REMARK SMILES IDX 63 73 66 74 79 75 97 76 64 77 65 78 78 80 98 81 67 82 52 83
REMARK SMILES IDX 53 84 61 85 54 86 60 87 55 88 56 89 57 90 58 91 59 92 82 93
REMARK SMILES IDX 83 94 91 95 84 96 90 97 85 98 86 99 87 100 88 101 89 102
REMARK SMILES IDX 68 103 69 104 77 105 70 106 76 107 71 108 72 109 73 110
REMARK SMILES IDX 74 111 75 112
REMARK H PARENT 16 13 96 68 66 79
REMARK Flexibility Score: inf
ROOT
ATOM      1  C   UNL     1       0.234  -3.434   9.027  1.00  0.00     0.188 C 
ENDROOT
BRANCH   1   2
ATOM      2  C   UNL     1       1.539  -4.235   9.013  1.00  0.00     0.188 C 
BRANCH   2   3
ATOM      3  O   UNL     1       2.714  -3.576   8.610  1.00  0.00    -0.376 OA
BRANCH   3   4
ATOM      4  C   UNL     1       2.909  -3.257   7.253  1.00  0.00     0.202 C 
BRANCH   4   5
ATOM      5  C   UNL     1       2.004  -3.753   6.122  1.00  0.00     0.261 C 
BRANCH   5   6
ATOM      6  O   UNL     1       0.570  -3.629   6.263  1.00  0.00    -0.462 OA
BRANCH   6   7
ATOM      7  C   UNL     1      -0.347  -4.805   6.144  1.00  0.00     0.329 C 
ATOM      8  O   UNL     1       0.228  -5.740   6.784  1.00  0.00    -0.250 OA
BRANCH   7   9
ATOM      9  C   UNL     1      -2.058  -4.857   4.821  1.00  0.00     0.196 C 
BRANCH   9  10
ATOM     10  N   UNL     1      -2.410  -5.974   3.558  1.00  0.00    -0.342 N 
ATOM     11  C   UNL     1      -1.743  -6.350   2.407  1.00  0.00     0.221 C 
ATOM     12  O   UNL     1      -2.297  -6.227   1.317  1.00  0.00    -0.275 OA
ATOM     13  H   UNL     1      -3.267  -6.443   3.682  1.00  0.00     0.164 HD
BRANCH  11  14
ATOM     14  C   UNL     1      -0.440  -7.134   2.546  1.00  0.00     0.105 C 
BRANCH  14  15
ATOM     15  C   UNL     1       0.611  -6.419   3.354  1.00  0.00     0.053 C 
BRANCH  15  16
ATOM     16  C   UNL     1      -0.135  -5.519   4.272  1.00  0.00     0.042 A 
ATOM     17  C   UNL     1      -4.056   0.734   9.648  1.00  0.00     0.088 C 
ATOM     18  C   UNL     1      -3.646  -0.291   8.662  1.00  0.00     0.105 A 
ATOM     19  O   UNL     1      -3.607  -1.597   9.038  1.00  0.00    -0.461 OA
ATOM     20  C   UNL     1      -3.264  -0.180   7.344  1.00  0.00    -0.002 A 
ATOM     21  C   UNL     1      -3.024  -2.301   8.006  1.00  0.00     0.141 A 
ATOM     22  C   UNL     1      -2.535  -1.385   7.050  1.00  0.00     0.025 A 
ATOM     23  C   UNL     1      -3.603   0.956   6.458  1.00  0.00     0.049 C 
ATOM     24  C   UNL     1      -2.922  -3.703   8.002  1.00  0.00     0.036 A 
ATOM     25  C   UNL     1      -1.571  -1.732   6.014  1.00  0.00     0.024 A 
ATOM     26  C   UNL     1      -3.354  -4.597   9.104  1.00  0.00     0.052 C 
ATOM     27  C   UNL     1      -2.203  -4.041   6.855  1.00  0.00     0.145 A 
ATOM     28  C   UNL     1      -1.387  -3.073   5.661  1.00  0.00     0.022 A 
ATOM     29  O   UNL     1      -1.979  -5.809   6.660  1.00  0.00    -0.422 OA
ATOM     30  C   UNL     1      -0.337  -3.947   4.259  1.00  0.00    -0.030 A 
ATOM     31  C   UNL     1      -1.087  -6.712   5.459  1.00  0.00     0.339 A 
ATOM     32  C   UNL     1       0.382  -3.281   3.104  1.00  0.00     0.046 C 
ATOM     33  O   UNL     1      -1.063  -7.935   5.459  1.00  0.00    -0.246 OA
ENDBRANCH  15  16
ENDBRANCH  14  15
ENDBRANCH  11  14
ENDBRANCH   9  10
BRANCH   9  34
ATOM     34  C   UNL     1      -3.130  -3.499   4.082  1.00  0.00     0.072 C 
BRANCH  34  35
ATOM     35  C   UNL     1      -3.006  -2.041   3.494  1.00  0.00    -0.045 A 
ATOM     36  C   UNL     1      -1.845  -1.289   3.269  1.00  0.00     0.005 A 
ATOM     37  C   UNL     1      -4.182  -1.283   3.342  1.00  0.00     0.005 A 
ATOM     38  C   UNL     1      -1.781   0.089   3.030  1.00  0.00     0.021 A 
ATOM     39  C   UNL     1      -4.154   0.113   3.085  1.00  0.00     0.021 A 
ATOM     40  C   UNL     1      -2.950   0.798   2.960  1.00  0.00     0.041 A 
ATOM     41  Cl  UNL     1      -2.885   2.511   2.865  1.00  0.00    -0.084 Cl
ENDBRANCH  34  35
ENDBRANCH   9  34
ENDBRANCH   7   9
ENDBRANCH   6   7
ENDBRANCH   5   6
ENDBRANCH   4   5
ENDBRANCH   3   4
ENDBRANCH   2   3
ENDBRANCH   1   2
BRANCH   1  42
ATOM     42  O   UNL     1       0.168  -2.028   8.909  1.00  0.00    -0.377 OA
BRANCH  42  43
ATOM     43  C   UNL     1       1.211  -1.253   9.447  1.00  0.00     0.188 C 
BRANCH  43  44
ATOM     44  C   UNL     1       1.795  -1.702  10.800  1.00  0.00     0.188 C 
BRANCH  44  45
ATOM     45  O   UNL     1       1.225  -2.874  11.353  1.00  0.00    -0.376 OA
BRANCH  45  46
ATOM     46  C   UNL     1       0.054  -2.818  12.156  1.00  0.00     0.202 C 
BRANCH  46  47
ATOM     47  C   UNL     1      -1.201  -2.033  11.707  1.00  0.00     0.261 C 
BRANCH  47  48
ATOM     48  O   UNL     1      -0.976  -0.692  11.285  1.00  0.00    -0.460 OA
BRANCH  48  49
ATOM     49  C   UNL     1      -0.354   0.038  12.216  1.00  0.00     0.338 C 
ATOM     50  O   UNL     1      -0.026  -0.295  13.342  1.00  0.00    -0.246 OA
BRANCH  49  51
ATOM     51  C   UNL     1      -0.040   1.355  11.699  1.00  0.00     0.060 A 
ATOM     52  C   UNL     1       1.285   1.631  11.326  1.00  0.00     0.016 A 
ATOM     53  C   UNL     1      -0.911   2.329  12.150  1.00  0.00     0.016 A 
ATOM     54  C   UNL     1       1.813   2.865  11.587  1.00  0.00     0.010 A 
ATOM     55  C   UNL     1      -0.365   3.549  12.459  1.00  0.00     0.010 A 
ATOM     56  C   UNL     1       1.001   3.791  12.221  1.00  0.00    -0.014 A 
BRANCH  56  57
ATOM     57  C   UNL     1       1.645   5.055  12.554  1.00  0.00     0.031 A 
ATOM     58  C   UNL     1       0.828   6.192  12.052  1.00  0.00     0.074 A 
ATOM     59  C   UNL     1       2.490   5.102  13.607  1.00  0.00     0.049 A 
ATOM     60  N   UNL     1      -0.239   6.542  12.705  1.00  0.00    -0.248 NA
ATOM     61  C   UNL     1       0.815   6.620  10.654  1.00  0.00     0.031 C 
ATOM     62  C   UNL     1       2.399   4.208  14.777  1.00  0.00     0.029 A 
ATOM     63  N   UNL     1       3.451   6.017  13.964  1.00  0.00    -0.354 N 
ATOM     64  C   UNL     1      -1.103   7.146  11.818  1.00  0.00     0.074 A 
ATOM     65  C   UNL     1      -0.384   7.226  10.565  1.00  0.00     0.031 C 
ATOM     66  C   UNL     1       3.082   4.763  15.799  1.00  0.00     0.029 A 
ATOM     67  C   UNL     1       3.767   5.962  15.328  1.00  0.00     0.049 A 
ATOM     68  H   UNL     1       3.871   6.642  13.331  1.00  0.00     0.167 HD
ATOM     69  C   UNL     1      -2.366   7.485  12.191  1.00  0.00     0.031 A 
ATOM     70  C   UNL     1       3.951   7.089  16.072  1.00  0.00     0.031 A 
ATOM     71  C   UNL     1      -2.747   7.057  13.513  1.00  0.00     0.049 A 
ATOM     72  C   UNL     1       2.529   7.611  16.151  1.00  0.00     0.074 A 
ATOM     73  C   UNL     1      -3.602   6.148  14.096  1.00  0.00     0.029 A 
ATOM     74  N   UNL     1      -2.102   7.648  14.573  1.00  0.00    -0.354 N 
ATOM     75  N   UNL     1       1.571   7.138  16.907  1.00  0.00    -0.248 NA
ATOM     76  C   UNL     1       2.063   8.457  15.051  1.00  0.00     0.031 C 
ATOM     77  C   UNL     1      -3.087   5.931  15.417  1.00  0.00     0.029 A 
ATOM     78  C   UNL     1      -1.941   6.714  15.562  1.00  0.00     0.049 A 
ATOM     79  H   UNL     1      -1.806   8.586  14.616  1.00  0.00     0.167 HD
ATOM     80  C   UNL     1       0.383   7.362  16.201  1.00  0.00     0.074 A 
ATOM     81  C   UNL     1       0.761   8.206  15.085  1.00  0.00     0.031 C 
ATOM     82  C   UNL     1      -0.797   6.718  16.458  1.00  0.00     0.031 A 
BRANCH  69  83
ATOM     83  C   UNL     1      -3.198   8.473  11.477  1.00  0.00    -0.014 A 
ATOM     84  C   UNL     1      -3.110   9.784  11.983  1.00  0.00     0.010 A 
ATOM     85  C   UNL     1      -4.173   8.170  10.519  1.00  0.00     0.010 A 
ATOM     86  C   UNL     1      -4.005  10.768  11.589  1.00  0.00     0.020 A 
ATOM     87  C   UNL     1      -5.070   9.169  10.101  1.00  0.00     0.020 A 
ATOM     88  C   UNL     1      -4.989  10.453  10.657  1.00  0.00     0.054 A 
BRANCH  88  89
ATOM     89  S   UNL     1      -6.177  11.755  10.233  1.00  0.00     0.124 S 
ATOM     90  O   UNL     1      -6.815  12.024  11.519  1.00  0.00    -0.237 OA
ATOM     91  O   UNL     1      -5.305  12.814   9.731  1.00  0.00    -0.237 OA
ATOM     92  O   UNL     1      -7.034  11.128   9.230  1.00  0.00    -0.744 OA
ENDBRANCH  88  89
ENDBRANCH  69  83
BRANCH  70  93
ATOM     93  C   UNL     1       5.127   7.913  15.630  1.00  0.00    -0.014 A 
ATOM     94  C   UNL     1       6.357   7.237  15.450  1.00  0.00     0.010 A 
ATOM     95  C   UNL     1       5.094   9.283  15.324  1.00  0.00     0.010 A 
ATOM     96  C   UNL     1       7.450   7.854  14.839  1.00  0.00     0.020 A 
ATOM     97  C   UNL     1       6.180   9.907  14.690  1.00  0.00     0.020 A 
ATOM     98  C   UNL     1       7.338   9.177  14.420  1.00  0.00     0.054 A 
BRANCH  98  99
ATOM     99  S   UNL     1       8.704   9.892  13.467  1.00  0.00     0.124 S 
ATOM    100  O   UNL     1       9.816   9.812  14.410  1.00  0.00    -0.237 OA
ATOM    101  O   UNL     1       8.782   8.986  12.323  1.00  0.00    -0.237 OA
ATOM    102  O   UNL     1       8.240  11.241  13.158  1.00  0.00    -0.744 OA
ENDBRANCH  98  99
ENDBRANCH  70  93
BRANCH  82 103
ATOM    103  C   UNL     1      -0.846   5.869  17.693  1.00  0.00    -0.014 A 
ATOM    104  C   UNL     1      -0.750   6.490  18.947  1.00  0.00     0.010 A 
ATOM    105  C   UNL     1      -1.109   4.486  17.636  1.00  0.00     0.010 A 
ATOM    106  C   UNL     1      -0.971   5.766  20.118  1.00  0.00     0.020 A 
ATOM    107  C   UNL     1      -1.347   3.756  18.808  1.00  0.00     0.020 A 
ATOM    108  C   UNL     1      -1.297   4.410  20.041  1.00  0.00     0.054 A 
BRANCH 108 109
ATOM    109  S   UNL     1      -1.728   3.549  21.576  1.00  0.00     0.124 S 
ATOM    110  O   UNL     1      -0.489   3.631  22.345  1.00  0.00    -0.237 OA
ATOM    111  O   UNL     1      -2.836   4.353  22.086  1.00  0.00    -0.237 OA
ATOM    112  O   UNL     1      -2.096   2.205  21.135  1.00  0.00    -0.744 OA
ENDBRANCH 108 109
ENDBRANCH  82 103
ENDBRANCH  56  57
ENDBRANCH  49  51
ENDBRANCH  48  49
ENDBRANCH  47  48
ENDBRANCH  46  47
ENDBRANCH  45  46
ENDBRANCH  44  45
ENDBRANCH  43  44
ENDBRANCH  42  43
ENDBRANCH   1  42
TORSDOF 29
