REMARK SMILES COc1ccc(-c2cc(Cl)cc3c2O[C@@H](C(F)(F)F)C(C(=O)OCCOCCOCCOCCOC(=O)c2ccc(-c4c5nc(c(-c6ccc(S(=O)(=O)[O-])cc6)c6ccc([nH]6)c(-c6ccc(S(=O)(=O)[O-])cc6)c6nc(c(-c7ccc(S(=O)(=O)[O-])cc7)c7ccc4[nH]7)C=C6)C=C5)cc2)=C3)cc1C
REMARK SMILES IDX 30 1 29 2 28 3 27 4 26 5 25 6 24 7 23 8 21 9 22 10 20 11
REMARK SMILES IDX 7 12 8 13 13 14 9 15 12 16 14 17 10 18 11 19 98 20 15 21
REMARK SMILES IDX 6 22 3 23 4 24 100 25 5 26 99 27 101 28 2 29 1 30 16 31
REMARK SMILES IDX 17 32 18 33 19 34 31 35 32 36 33 37 34 38 35 39 36 40 37 41
REMARK SMILES IDX 38 42 39 43 97 44 40 45 96 46 41 47 42 48 43 49 90 50 44 51
REMARK SMILES IDX 95 52 89 53 91 54 45 55 94 56 88 57 87 58 46 60 76 61 57 62
REMARK SMILES IDX 75 63 58 64 61 65 74 66 92 67 59 68 60 69 73 71 93 72 62 73
REMARK SMILES IDX 47 74 48 75 56 76 49 77 55 78 50 79 51 80 52 81 53 82 54 83
REMARK SMILES IDX 77 84 78 85 86 86 79 87 85 88 80 89 81 90 82 91 83 92 84 93
REMARK SMILES IDX 63 94 64 95 72 96 65 97 71 98 66 99 67 100 68 101 69 102
REMARK SMILES IDX 70 103
REMARK H PARENT 91 59 61 70
REMARK Flexibility Score: inf
ROOT
ATOM      1  C   UNL     1      -5.626  -5.529   5.498  1.00  0.00     0.188 C 
ENDROOT
BRANCH   1   2
ATOM      2  O   UNL     1      -4.681  -5.700   6.535  1.00  0.00    -0.377 OA
BRANCH   2   3
ATOM      3  C   UNL     1      -3.384  -5.753   5.966  1.00  0.00     0.188 C 
BRANCH   3   4
ATOM      4  C   UNL     1      -3.046  -4.694   4.851  1.00  0.00     0.188 C 
BRANCH   4   5
ATOM      5  O   UNL     1      -3.351  -4.706   3.132  1.00  0.00    -0.376 OA
BRANCH   5   6
ATOM      6  C   UNL     1      -2.221  -5.004   1.742  1.00  0.00     0.202 C 
BRANCH   6   7
ATOM      7  C   UNL     1      -0.426  -5.534   1.537  1.00  0.00     0.261 C 
BRANCH   7   8
ATOM      8  O   UNL     1       0.689  -6.426   2.499  1.00  0.00    -0.460 OA
BRANCH   8   9
ATOM      9  C   UNL     1       1.533  -6.181   3.605  1.00  0.00     0.338 C 
ATOM     10  O   UNL     1       1.466  -5.070   4.069  1.00  0.00    -0.246 OA
BRANCH   9  11
ATOM     11  C   UNL     1       2.381  -7.102   4.606  1.00  0.00     0.087 C 
ATOM     12  C   UNL     1       1.570  -3.813   6.602  1.00  0.00     0.026 A 
ATOM     13  C   UNL     1       2.457  -3.176   7.478  1.00  0.00     0.033 A 
ATOM     14  C   UNL     1       1.838  -5.211   6.454  1.00  0.00     0.135 A 
ATOM     15  C   UNL     1       3.574  -3.868   7.961  1.00  0.00     0.042 A 
ATOM     16  C   UNL     1       3.160  -5.608   6.386  1.00  0.00     0.019 A 
ATOM     17  O   UNL     1       0.934  -6.308   6.413  1.00  0.00    -0.475 OA
ATOM     18  Cl  UNL     1       4.589  -3.111   9.121  1.00  0.00    -0.084 Cl
ATOM     19  C   UNL     1       3.961  -5.082   7.377  1.00  0.00     0.032 A 
ATOM     20  C   UNL     1       3.474  -6.647   5.327  1.00  0.00     0.027 C 
ATOM     21  C   UNL     1       1.562  -7.556   5.807  1.00  0.00     0.316 C 
BRANCH  12  22
ATOM     22  C   UNL     1       1.219  -2.885   5.426  1.00  0.00    -0.014 A 
ATOM     23  C   UNL     1       0.361  -0.677   2.534  1.00  0.00     0.121 A 
ATOM     24  C   UNL     1      -0.320  -0.679   4.027  1.00  0.00     0.047 A 
ATOM     25  C   UNL     1       1.724  -1.693   2.377  1.00  0.00    -0.008 A 
ATOM     26  C   UNL     1       0.076  -1.722   5.387  1.00  0.00     0.013 A 
ATOM     27  C   UNL     1       2.196  -2.902   4.002  1.00  0.00     0.016 A 
ATOM     28  C   UNL     1       2.479  -1.221   1.022  1.00  0.00     0.048 C 
BRANCH  23  29
ATOM     29  O   UNL     1      -0.119   0.278   1.683  1.00  0.00    -0.496 OA
ATOM     30  C   UNL     1      -0.005   0.111   0.271  1.00  0.00     0.278 C 
ENDBRANCH  23  29
ENDBRANCH  12  22
BRANCH  21  31
ATOM     31  C   UNL     1       1.128  -9.026   5.530  1.00  0.00     0.430 C 
ATOM     32  F   UNL     1       2.144  -9.855   5.939  1.00  0.00    -0.167 F 
ATOM     33  F   UNL     1       0.045  -9.437   6.224  1.00  0.00    -0.167 F 
ATOM     34  F   UNL     1       0.968  -9.354   4.230  1.00  0.00    -0.167 F 
ENDBRANCH  21  31
ENDBRANCH   9  11
ENDBRANCH   8   9
ENDBRANCH   7   8
ENDBRANCH   6   7
ENDBRANCH   5   6
ENDBRANCH   4   5
ENDBRANCH   3   4
ENDBRANCH   2   3
ENDBRANCH   1   2
BRANCH   1  35
ATOM     35  C   UNL     1      -5.946  -4.061   5.237  1.00  0.00     0.188 C 
BRANCH  35  36
ATOM     36  O   UNL     1      -4.981  -3.143   5.686  1.00  0.00    -0.376 OA
BRANCH  36  37
ATOM     37  C   UNL     1      -4.885  -2.620   6.971  1.00  0.00     0.202 C 
BRANCH  37  38
ATOM     38  C   UNL     1      -5.925  -1.525   6.988  1.00  0.00     0.261 C 
BRANCH  38  39
ATOM     39  O   UNL     1      -5.723  -0.521   5.924  1.00  0.00    -0.460 OA
BRANCH  39  40
ATOM     40  C   UNL     1      -5.921  -0.832   4.585  1.00  0.00     0.338 C 
ATOM     41  O   UNL     1      -7.019  -0.801   4.056  1.00  0.00    -0.246 OA
BRANCH  40  42
ATOM     42  C   UNL     1      -4.607  -1.064   3.857  1.00  0.00     0.060 A 
ATOM     43  C   UNL     1      -4.412  -1.653   2.601  1.00  0.00     0.016 A 
ATOM     44  C   UNL     1      -3.493  -0.950   4.634  1.00  0.00     0.016 A 
ATOM     45  C   UNL     1      -3.137  -2.264   2.256  1.00  0.00     0.010 A 
ATOM     46  C   UNL     1      -2.506  -1.906   4.437  1.00  0.00     0.010 A 
ATOM     47  C   UNL     1      -2.183  -2.595   3.262  1.00  0.00    -0.014 A 
BRANCH  47  48
ATOM     48  C   UNL     1      -0.906  -3.783   3.520  1.00  0.00     0.031 A 
ATOM     49  C   UNL     1       0.634  -2.791   3.263  1.00  0.00     0.074 A 
ATOM     50  C   UNL     1      -1.159  -5.381   3.781  1.00  0.00     0.049 A 
ATOM     51  N   UNL     1       1.715  -3.615   2.239  1.00  0.00    -0.248 NA
ATOM     52  C   UNL     1       1.850  -1.167   4.099  1.00  0.00     0.031 C 
ATOM     53  C   UNL     1      -0.707  -6.543   4.614  1.00  0.00     0.029 A 
ATOM     54  N   UNL     1      -2.291  -6.429   3.396  1.00  0.00    -0.354 N 
ATOM     55  C   UNL     1       3.401  -2.966   2.398  1.00  0.00     0.074 A 
ATOM     56  C   UNL     1       3.376  -1.385   3.504  1.00  0.00     0.031 C 
ATOM     57  C   UNL     1      -0.995  -7.795   4.123  1.00  0.00     0.029 A 
ATOM     58  C   UNL     1      -1.903  -7.678   3.062  1.00  0.00     0.049 A 
ATOM     59  H   UNL     1      -3.243  -6.176   3.401  1.00  0.00     0.167 HD
ATOM     60  C   UNL     1       4.519  -3.765   2.307  1.00  0.00     0.031 A 
ATOM     61  C   UNL     1      -2.287  -8.537   2.084  1.00  0.00     0.031 A 
ATOM     62  C   UNL     1       4.264  -5.221   2.100  1.00  0.00     0.049 A 
ATOM     63  C   UNL     1      -1.004  -8.841   1.236  1.00  0.00     0.074 A 
ATOM     64  C   UNL     1       4.802  -6.362   2.680  1.00  0.00     0.029 A 
ATOM     65  N   UNL     1       3.203  -5.731   1.310  1.00  0.00    -0.354 N 
ATOM     66  N   UNL     1       0.232  -8.527   1.591  1.00  0.00    -0.248 NA
ATOM     67  C   UNL     1      -1.005  -9.426  -0.108  1.00  0.00     0.031 C 
ATOM     68  C   UNL     1       4.098  -7.527   2.243  1.00  0.00     0.029 A 
ATOM     69  C   UNL     1       3.098  -7.151   1.363  1.00  0.00     0.049 A 
ATOM     70  H   UNL     1       2.600  -5.162   0.779  1.00  0.00     0.167 HD
ATOM     71  C   UNL     1       1.092  -8.547   0.499  1.00  0.00     0.074 A 
ATOM     72  C   UNL     1       0.273  -9.242  -0.502  1.00  0.00     0.031 C 
ATOM     73  C   UNL     1       2.349  -7.961   0.360  1.00  0.00     0.031 A 
BRANCH  60  74
ATOM     74  C   UNL     1       5.787  -3.096   2.894  1.00  0.00    -0.014 A 
ATOM     75  C   UNL     1       6.617  -3.720   3.841  1.00  0.00     0.010 A 
ATOM     76  C   UNL     1       6.094  -1.730   2.642  1.00  0.00     0.010 A 
ATOM     77  C   UNL     1       7.603  -3.015   4.569  1.00  0.00     0.020 A 
ATOM     78  C   UNL     1       7.000  -0.990   3.433  1.00  0.00     0.020 A 
ATOM     79  C   UNL     1       7.765  -1.644   4.388  1.00  0.00     0.054 A 
BRANCH  79  80
ATOM     80  S   UNL     1       8.961  -0.724   5.402  1.00  0.00     0.124 S 
ATOM     81  O   UNL     1       8.863  -1.372   6.707  1.00  0.00    -0.237 OA
ATOM     82  O   UNL     1      10.208  -0.954   4.679  1.00  0.00    -0.237 OA
ATOM     83  O   UNL     1       8.461   0.650   5.362  1.00  0.00    -0.744 OA
ENDBRANCH  79  80
ENDBRANCH  60  74
BRANCH  61  84
ATOM     84  C   UNL     1      -3.772  -8.349   1.723  1.00  0.00    -0.014 A 
ATOM     85  C   UNL     1      -4.691  -8.662   2.773  1.00  0.00     0.010 A 
ATOM     86  C   UNL     1      -4.279  -7.508   0.716  1.00  0.00     0.010 A 
ATOM     87  C   UNL     1      -5.927  -7.993   2.941  1.00  0.00     0.020 A 
ATOM     88  C   UNL     1      -5.500  -6.795   0.902  1.00  0.00     0.020 A 
ATOM     89  C   UNL     1      -6.294  -7.004   2.035  1.00  0.00     0.054 A 
BRANCH  89  90
ATOM     90  S   UNL     1      -7.656  -5.828   2.415  1.00  0.00     0.124 S 
ATOM     91  O   UNL     1      -8.719  -6.266   1.520  1.00  0.00    -0.237 OA
ATOM     92  O   UNL     1      -7.921  -6.048   3.836  1.00  0.00    -0.237 OA
ATOM     93  O   UNL     1      -7.057  -4.536   2.096  1.00  0.00    -0.744 OA
ENDBRANCH  89  90
ENDBRANCH  61  84
BRANCH  73  94
ATOM     94  C   UNL     1       3.211  -8.210  -0.861  1.00  0.00    -0.014 A 
ATOM     95  C   UNL     1       3.349  -9.476  -1.440  1.00  0.00     0.010 A 
ATOM     96  C   UNL     1       4.109  -7.198  -1.283  1.00  0.00     0.010 A 
ATOM     97  C   UNL     1       4.263  -9.684  -2.477  1.00  0.00     0.020 A 
ATOM     98  C   UNL     1       5.074  -7.415  -2.255  1.00  0.00     0.020 A 
ATOM     99  C   UNL     1       5.110  -8.648  -2.883  1.00  0.00     0.054 A 
BRANCH  99 100
ATOM    100  S   UNL     1       6.268  -8.921  -4.236  1.00  0.00     0.124 S 
ATOM    101  O   UNL     1       6.815 -10.240  -3.929  1.00  0.00    -0.237 OA
ATOM    102  O   UNL     1       5.380  -8.861  -5.395  1.00  0.00    -0.237 OA
ATOM    103  O   UNL     1       7.214  -7.815  -4.117  1.00  0.00    -0.744 OA
ENDBRANCH  99 100
ENDBRANCH  73  94
ENDBRANCH  47  48
ENDBRANCH  40  42
ENDBRANCH  39  40
ENDBRANCH  38  39
ENDBRANCH  37  38
ENDBRANCH  36  37
ENDBRANCH  35  36
ENDBRANCH   1  35
TORSDOF 26
