REMARK SMILES C[C@H](C(=O)OCCOCCOCCOCCOC(=O)c1ccc(-c2c3nc(c(-c4ccc(S(=O)(=O)[O-])cc4)c4ccc([nH]4)c(-c4ccc(S(=O)(=O)[O-])cc4)c4nc(c(-c5ccc(S(=O)(=O)[O-])cc5)c5ccc2[nH]5)C=C4)C=C3)cc1)c1cccc(C(=O)c2ccccc2)c1
REMARK SMILES IDX 11 1 10 2 9 3 8 4 7 5 6 6 5 7 3 8 4 9 2 10 1 11 80 12 81 13
REMARK SMILES IDX 93 14 82 15 84 16 83 17 85 18 86 19 87 20 88 21 92 22 89 23
REMARK SMILES IDX 91 24 90 25 12 26 13 27 14 28 15 29 16 30 17 31 18 32 19 33
REMARK SMILES IDX 20 34 21 35 79 36 22 37 78 38 23 39 24 40 25 41 72 42 26 43
REMARK SMILES IDX 77 44 71 45 73 46 27 47 76 48 70 49 69 50 28 52 58 53 39 54
REMARK SMILES IDX 57 55 40 56 43 57 56 58 74 59 41 60 42 61 55 63 75 64 44 65
REMARK SMILES IDX 29 66 30 67 38 68 31 69 37 70 32 71 33 72 34 73 35 74 36 75
REMARK SMILES IDX 59 76 60 77 68 78 61 79 67 80 62 81 63 82 64 83 65 84 66 85
REMARK SMILES IDX 45 86 46 87 54 88 47 89 53 90 48 91 49 92 50 93 51 94 52 95
REMARK H PARENT 73 51 43 62
REMARK Flexibility Score: inf
ROOT
ATOM      1  O   UNL     1      -0.742   0.291  -2.108  1.00  0.00    -0.377 OA
ENDROOT
BRANCH   1   2
ATOM      2  C   UNL     1      -0.591   1.085  -0.950  1.00  0.00     0.188 C 
BRANCH   2   3
ATOM      3  C   UNL     1       0.760   1.817  -0.826  1.00  0.00     0.188 C 
BRANCH   3   4
ATOM      4  O   UNL     1       1.876   1.491  -1.651  1.00  0.00    -0.376 OA
BRANCH   4   5
ATOM      5  C   UNL     1       1.906   0.253  -2.343  1.00  0.00     0.202 C 
BRANCH   5   6
ATOM      6  C   UNL     1       1.890  -1.046  -1.512  1.00  0.00     0.261 C 
BRANCH   6   7
ATOM      7  O   UNL     1       1.067  -1.026  -0.321  1.00  0.00    -0.463 OA
BRANCH   7   8
ATOM      8  C   UNL     1       1.710  -0.911   0.862  1.00  0.00     0.313 C 
ATOM      9  O   UNL     1       2.936  -0.957   0.963  1.00  0.00    -0.252 OA
BRANCH   8  10
ATOM     10  C   UNL     1       0.826  -0.701   2.105  1.00  0.00     0.126 C 
ATOM     11  C   UNL     1       1.425   0.478   2.896  1.00  0.00     0.025 C 
BRANCH  10  12
ATOM     12  C   UNL     1      -0.712  -0.632   2.010  1.00  0.00    -0.033 A 
ATOM     13  C   UNL     1      -1.456   0.532   2.310  1.00  0.00     0.004 A 
ATOM     14  C   UNL     1      -1.447  -1.787   1.688  1.00  0.00     0.016 A 
ATOM     15  C   UNL     1      -2.856   0.548   2.275  1.00  0.00     0.001 A 
ATOM     16  C   UNL     1      -2.859  -1.799   1.738  1.00  0.00     0.023 A 
ATOM     17  C   UNL     1      -3.558  -0.618   2.000  1.00  0.00     0.012 A 
BRANCH  16  18
ATOM     18  C   UNL     1      -3.662  -3.045   1.559  1.00  0.00     0.193 C 
ATOM     19  O   UNL     1      -4.858  -2.979   1.289  1.00  0.00    -0.289 OA
BRANCH  18  20
ATOM     20  C   UNL     1      -3.037  -4.375   1.729  1.00  0.00     0.022 A 
ATOM     21  C   UNL     1      -3.313  -5.368   0.787  1.00  0.00     0.012 A 
ATOM     22  C   UNL     1      -2.163  -4.631   2.793  1.00  0.00     0.012 A 
ATOM     23  C   UNL     1      -2.646  -6.590   0.863  1.00  0.00     0.001 A 
ATOM     24  C   UNL     1      -1.490  -5.849   2.857  1.00  0.00     0.001 A 
ATOM     25  C   UNL     1      -1.722  -6.821   1.884  1.00  0.00     0.000 A 
ENDBRANCH  18  20
ENDBRANCH  16  18
ENDBRANCH  10  12
ENDBRANCH   8  10
ENDBRANCH   7   8
ENDBRANCH   6   7
ENDBRANCH   5   6
ENDBRANCH   4   5
ENDBRANCH   3   4
ENDBRANCH   2   3
ENDBRANCH   1   2
BRANCH   1  26
ATOM     26  C   UNL     1      -1.599   0.819  -3.099  1.00  0.00     0.188 C 
BRANCH  26  27
ATOM     27  C   UNL     1      -1.282   2.263  -3.514  1.00  0.00     0.188 C 
BRANCH  27  28
ATOM     28  O   UNL     1      -1.325   3.179  -2.424  1.00  0.00    -0.376 OA
BRANCH  28  29
ATOM     29  C   UNL     1      -2.510   3.930  -2.205  1.00  0.00     0.202 C 
BRANCH  29  30
ATOM     30  C   UNL     1      -3.777   3.189  -1.740  1.00  0.00     0.261 C 
BRANCH  30  31
ATOM     31  O   UNL     1      -4.260   2.120  -2.567  1.00  0.00    -0.460 OA
BRANCH  31  32
ATOM     32  C   UNL     1      -4.524   2.378  -3.865  1.00  0.00     0.338 C 
ATOM     33  O   UNL     1      -4.466   3.463  -4.418  1.00  0.00    -0.246 OA
BRANCH  32  34
ATOM     34  C   UNL     1      -4.668   1.079  -4.561  1.00  0.00     0.060 A 
ATOM     35  C   UNL     1      -3.831   0.802  -5.651  1.00  0.00     0.016 A 
ATOM     36  C   UNL     1      -5.591   0.124  -4.125  1.00  0.00     0.016 A 
ATOM     37  C   UNL     1      -3.934  -0.415  -6.326  1.00  0.00     0.010 A 
ATOM     38  C   UNL     1      -5.717  -1.082  -4.822  1.00  0.00     0.010 A 
ATOM     39  C   UNL     1      -4.913  -1.342  -5.947  1.00  0.00    -0.014 A 
BRANCH  39  40
ATOM     40  C   UNL     1      -5.244  -2.465  -6.858  1.00  0.00     0.031 A 
ATOM     41  C   UNL     1      -6.396  -2.280  -7.811  1.00  0.00     0.074 A 
ATOM     42  C   UNL     1      -4.528  -3.603  -6.872  1.00  0.00     0.049 A 
ATOM     43  N   UNL     1      -6.896  -3.116  -8.682  1.00  0.00    -0.248 NA
ATOM     44  C   UNL     1      -7.073  -0.972  -7.775  1.00  0.00     0.031 C 
ATOM     45  C   UNL     1      -3.356  -3.879  -6.044  1.00  0.00     0.029 A 
ATOM     46  N   UNL     1      -4.689  -4.745  -7.619  1.00  0.00    -0.354 N 
ATOM     47  C   UNL     1      -7.953  -2.443  -9.286  1.00  0.00     0.074 A 
ATOM     48  C   UNL     1      -8.037  -1.140  -8.666  1.00  0.00     0.031 C 
ATOM     49  C   UNL     1      -2.906  -5.116  -6.325  1.00  0.00     0.029 A 
ATOM     50  C   UNL     1      -3.780  -5.733  -7.322  1.00  0.00     0.049 A 
ATOM     51  H   UNL     1      -5.391  -4.847  -8.302  1.00  0.00     0.167 HD
ATOM     52  C   UNL     1      -8.779  -2.871 -10.269  1.00  0.00     0.031 A 
ATOM     53  C   UNL     1      -3.680  -6.995  -7.787  1.00  0.00     0.031 A 
ATOM     54  C   UNL     1      -8.702  -4.175 -10.870  1.00  0.00     0.049 A 
ATOM     55  C   UNL     1      -4.669  -7.480  -8.819  1.00  0.00     0.074 A 
ATOM     56  C   UNL     1      -9.484  -4.700 -11.884  1.00  0.00     0.029 A 
ATOM     57  N   UNL     1      -7.799  -5.162 -10.507  1.00  0.00    -0.354 N 
ATOM     58  N   UNL     1      -5.647  -6.825  -9.399  1.00  0.00    -0.248 NA
ATOM     59  C   UNL     1      -4.534  -8.875  -9.266  1.00  0.00     0.031 C 
ATOM     60  C   UNL     1      -9.099  -6.029 -12.084  1.00  0.00     0.029 A 
ATOM     61  C   UNL     1      -8.026  -6.307 -11.252  1.00  0.00     0.049 A 
ATOM     62  H   UNL     1      -7.099  -5.064  -9.821  1.00  0.00     0.167 HD
ATOM     63  C   UNL     1      -6.221  -7.717 -10.301  1.00  0.00     0.074 A 
ATOM     64  C   UNL     1      -5.472  -8.952 -10.200  1.00  0.00     0.031 C 
ATOM     65  C   UNL     1      -7.270  -7.529 -11.141  1.00  0.00     0.031 A 
BRANCH  52  66
ATOM     66  C   UNL     1      -9.871  -1.936 -10.719  1.00  0.00    -0.014 A 
ATOM     67  C   UNL     1      -9.584  -0.766 -11.445  1.00  0.00     0.010 A 
ATOM     68  C   UNL     1     -11.212  -2.255 -10.439  1.00  0.00     0.010 A 
ATOM     69  C   UNL     1     -10.616   0.084 -11.853  1.00  0.00     0.020 A 
ATOM     70  C   UNL     1     -12.249  -1.424 -10.871  1.00  0.00     0.020 A 
ATOM     71  C   UNL     1     -11.942  -0.251 -11.563  1.00  0.00     0.054 A 
BRANCH  71  72
ATOM     72  S   UNL     1     -13.263   0.855 -12.131  1.00  0.00     0.124 S 
ATOM     73  O   UNL     1     -13.081   2.014 -11.261  1.00  0.00    -0.237 OA
ATOM     74  O   UNL     1     -12.920   1.065 -13.536  1.00  0.00    -0.237 OA
ATOM     75  O   UNL     1     -14.484   0.088 -11.898  1.00  0.00    -0.744 OA
ENDBRANCH  71  72
ENDBRANCH  52  66
BRANCH  53  76
ATOM     76  C   UNL     1      -2.620  -7.905  -7.267  1.00  0.00    -0.014 A 
ATOM     77  C   UNL     1      -1.580  -8.353  -8.102  1.00  0.00     0.010 A 
ATOM     78  C   UNL     1      -2.654  -8.344  -5.930  1.00  0.00     0.010 A 
ATOM     79  C   UNL     1      -0.608  -9.234  -7.617  1.00  0.00     0.020 A 
ATOM     80  C   UNL     1      -1.667  -9.199  -5.432  1.00  0.00     0.020 A 
ATOM     81  C   UNL     1      -0.655  -9.647  -6.282  1.00  0.00     0.054 A 
BRANCH  81  82
ATOM     82  S   UNL     1       0.645 -10.751  -5.661  1.00  0.00     0.124 S 
ATOM     83  O   UNL     1       0.322 -12.008  -6.327  1.00  0.00    -0.237 OA
ATOM     84  O   UNL     1       1.863 -10.087  -6.116  1.00  0.00    -0.237 OA
ATOM     85  O   UNL     1       0.441 -10.738  -4.214  1.00  0.00    -0.744 OA
ENDBRANCH  81  82
ENDBRANCH  53  76
BRANCH  65  86
ATOM     86  C   UNL     1      -7.647  -8.667 -12.056  1.00  0.00    -0.014 A 
ATOM     87  C   UNL     1      -8.247  -9.839 -11.565  1.00  0.00     0.010 A 
ATOM     88  C   UNL     1      -7.455  -8.528 -13.444  1.00  0.00     0.010 A 
ATOM     89  C   UNL     1      -8.616 -10.865 -12.440  1.00  0.00     0.020 A 
ATOM     90  C   UNL     1      -7.853  -9.536 -14.325  1.00  0.00     0.020 A 
ATOM     91  C   UNL     1      -8.418 -10.706 -13.816  1.00  0.00     0.054 A 
BRANCH  91  92
ATOM     92  S   UNL     1      -8.946 -12.033 -14.933  1.00  0.00     0.124 S 
ATOM     93  O   UNL     1      -7.956 -13.072 -14.661  1.00  0.00    -0.237 OA
ATOM     94  O   UNL     1     -10.302 -12.320 -14.470  1.00  0.00    -0.237 OA
ATOM     95  O   UNL     1      -8.862 -11.425 -16.259  1.00  0.00    -0.744 OA
ENDBRANCH  91  92
ENDBRANCH  65  86
ENDBRANCH  39  40
ENDBRANCH  32  34
ENDBRANCH  31  32
ENDBRANCH  30  31
ENDBRANCH  29  30
ENDBRANCH  28  29
ENDBRANCH  27  28
ENDBRANCH  26  27
ENDBRANCH   1  26
TORSDOF 26
