REMARK SMILES CC1=C(C)C[C@@H](C(=O)OCCOCCOCCOCCOC(=O)c2ccc(-c3c4nc(c(-c5ccc(S(=O)(=O)[O-])cc5)c5ccc([nH]5)c(-c5ccc(S(=O)(=O)[O-])cc5)c5nc(c(-c6ccc(S(=O)(=O)[O-])cc6)c6ccc3[nH]6)C=C5)C=C4)cc2)[C@@H](C(=O)NCC[NH+]2CCOCC2)C1
REMARK SMILES IDX 14 1 13 2 12 3 11 4 10 5 9 6 7 7 8 8 6 9 1 10 2 11 3 12
REMARK SMILES IDX 96 13 4 14 5 15 84 16 85 17 86 18 87 19 88 21 89 22 90 23
REMARK SMILES IDX 91 24 95 25 92 27 94 28 93 29 15 30 16 31 17 32 18 33 19 34
REMARK SMILES IDX 20 35 21 36 22 37 23 38 24 39 25 40 83 41 26 42 82 43 27 44
REMARK SMILES IDX 28 45 29 46 76 47 30 48 81 49 75 50 77 51 31 52 80 53 74 54
REMARK SMILES IDX 73 55 32 57 62 58 43 59 61 60 44 61 47 62 60 63 78 64 45 65
REMARK SMILES IDX 46 66 59 68 79 69 48 70 33 71 34 72 42 73 35 74 41 75 36 76
REMARK SMILES IDX 37 77 38 78 39 79 40 80 63 81 64 82 72 83 65 84 71 85 66 86
REMARK SMILES IDX 67 87 68 88 69 89 70 90 49 91 50 92 58 93 51 94 57 95 52 96
REMARK SMILES IDX 53 97 54 98 55 99 56 100
REMARK H PARENT 87 20 90 26 77 56 47 67
REMARK Flexibility Score: inf
ROOT
ATOM      1  C   UNL     1       2.438   5.145   3.758  1.00  0.00     0.188 C 
ENDROOT
BRANCH   1   2
ATOM      2  C   UNL     1       1.482   5.358   4.943  1.00  0.00     0.188 C 
BRANCH   2   3
ATOM      3  O   UNL     1       1.951   4.936   6.206  1.00  0.00    -0.376 OA
BRANCH   3   4
ATOM      4  C   UNL     1       2.829   3.818   6.182  1.00  0.00     0.202 C 
BRANCH   4   5
ATOM      5  C   UNL     1       2.401   2.514   5.426  1.00  0.00     0.261 C 
BRANCH   5   6
ATOM      6  O   UNL     1       1.839   2.546   4.058  1.00  0.00    -0.463 OA
BRANCH   6   7
ATOM      7  C   UNL     1       0.493   2.555   3.932  1.00  0.00     0.310 C 
ATOM      8  O   UNL     1      -0.224   2.401   4.928  1.00  0.00    -0.252 OA
BRANCH   7   9
ATOM      9  C   UNL     1      -0.217   2.894   2.560  1.00  0.00     0.116 C 
ATOM     10  C   UNL     1       0.862  -0.368  -0.087  1.00  0.00     0.039 C 
ATOM     11  C   UNL     1       0.145   0.720   0.675  1.00  0.00    -0.074 C 
ATOM     12  C   UNL     1      -0.620   0.533   1.767  1.00  0.00    -0.073 C 
ATOM     13  C   UNL     1       0.331   2.115   0.109  1.00  0.00     0.045 C 
ATOM     14  C   UNL     1      -0.909  -0.782   2.439  1.00  0.00     0.039 C 
ATOM     15  C   UNL     1      -1.249   1.741   2.416  1.00  0.00     0.046 C 
ATOM     16  C   UNL     1       0.192   3.342   1.095  1.00  0.00     0.097 C 
BRANCH  16  17
ATOM     17  C   UNL     1       1.394   4.239   0.787  1.00  0.00     0.224 C 
ATOM     18  O   UNL     1       2.524   3.730   0.860  1.00  0.00    -0.275 OA
ATOM     19  N   UNL     1       1.429   5.504   0.275  1.00  0.00    -0.350 N 
ATOM     20  H   UNL     1       2.378   5.670   0.072  1.00  0.00     0.163 HD
BRANCH  19  21
ATOM     21  C   UNL     1       0.703   6.792  -0.139  1.00  0.00     0.177 C 
BRANCH  21  22
ATOM     22  C   UNL     1       1.126   8.456   0.369  1.00  0.00     0.283 C 
BRANCH  22  23
ATOM     23  N   UNL     1       2.370   9.391   0.951  1.00  0.00    -0.330 N 
ATOM     24  C   UNL     1       4.163   9.199   0.774  1.00  0.00     0.291 C 
ATOM     25  C   UNL     1       2.102   9.402   2.486  1.00  0.00     0.291 C 
ATOM     26  H   UNL     1       2.287  10.180   0.310  1.00  0.00     0.348 HD
ATOM     27  C   UNL     1       5.140   7.667   1.626  1.00  0.00     0.221 C 
ATOM     28  C   UNL     1       2.339   7.925   3.322  1.00  0.00     0.221 C 
ATOM     29  O   UNL     1       3.758   6.838   2.779  1.00  0.00    -0.370 OA
ENDBRANCH  22  23
ENDBRANCH  21  22
ENDBRANCH  19  21
ENDBRANCH  16  17
ENDBRANCH   7   9
ENDBRANCH   6   7
ENDBRANCH   5   6
ENDBRANCH   4   5
ENDBRANCH   3   4
ENDBRANCH   2   3
ENDBRANCH   1   2
BRANCH   1  30
ATOM     30  O   UNL     1       3.814   4.920   4.070  1.00  0.00    -0.377 OA
BRANCH  30  31
ATOM     31  C   UNL     1       4.967   5.824   4.027  1.00  0.00     0.188 C 
BRANCH  31  32
ATOM     32  C   UNL     1       4.907   7.651   4.036  1.00  0.00     0.188 C 
BRANCH  32  33
ATOM     33  O   UNL     1       4.014   8.510   2.620  1.00  0.00    -0.376 OA
BRANCH  33  34
ATOM     34  C   UNL     1       3.303   7.345   1.123  1.00  0.00     0.202 C 
BRANCH  34  35
ATOM     35  C   UNL     1       3.987   7.052  -0.523  1.00  0.00     0.261 C 
BRANCH  35  36
ATOM     36  O   UNL     1       4.886   5.850  -0.565  1.00  0.00    -0.460 OA
BRANCH  36  37
ATOM     37  C   UNL     1       6.243   6.089  -0.604  1.00  0.00     0.338 C 
ATOM     38  O   UNL     1       6.755   7.181  -0.815  1.00  0.00    -0.246 OA
BRANCH  37  39
ATOM     39  C   UNL     1       7.061   4.971  -0.052  1.00  0.00     0.060 A 
ATOM     40  C   UNL     1       7.527   4.981   1.282  1.00  0.00     0.016 A 
ATOM     41  C   UNL     1       7.573   4.037  -0.941  1.00  0.00     0.016 A 
ATOM     42  C   UNL     1       8.467   4.044   1.734  1.00  0.00     0.010 A 
ATOM     43  C   UNL     1       8.538   3.125  -0.502  1.00  0.00     0.010 A 
ATOM     44  C   UNL     1       9.004   3.134   0.826  1.00  0.00    -0.014 A 
BRANCH  44  45
ATOM     45  C   UNL     1      10.153   2.262   1.166  1.00  0.00     0.031 A 
ATOM     46  C   UNL     1      11.507   2.628   0.625  1.00  0.00     0.074 A 
ATOM     47  C   UNL     1       9.952   1.104   1.819  1.00  0.00     0.049 A 
ATOM     48  N   UNL     1      12.591   1.905   0.544  1.00  0.00    -0.248 NA
ATOM     49  C   UNL     1      11.646   3.987   0.072  1.00  0.00     0.031 C 
ATOM     50  C   UNL     1       8.683   0.683   2.412  1.00  0.00     0.029 A 
ATOM     51  N   UNL     1      10.798   0.048   2.047  1.00  0.00    -0.354 N 
ATOM     52  C   UNL     1      13.525   2.699  -0.112  1.00  0.00     0.074 A 
ATOM     53  C   UNL     1      12.881   3.958  -0.411  1.00  0.00     0.031 C 
ATOM     54  C   UNL     1       8.821  -0.562   2.898  1.00  0.00     0.029 A 
ATOM     55  C   UNL     1      10.167  -1.042   2.601  1.00  0.00     0.049 A 
ATOM     56  H   UNL     1      11.760   0.068   1.835  1.00  0.00     0.167 HD
ATOM     57  C   UNL     1      14.799   2.387  -0.447  1.00  0.00     0.031 A 
ATOM     58  C   UNL     1      10.612  -2.300   2.792  1.00  0.00     0.031 A 
ATOM     59  C   UNL     1      15.402   1.114  -0.151  1.00  0.00     0.049 A 
ATOM     60  C   UNL     1      12.019  -2.635   2.369  1.00  0.00     0.074 A 
ATOM     61  C   UNL     1      16.698   0.698  -0.397  1.00  0.00     0.029 A 
ATOM     62  N   UNL     1      14.743   0.046   0.443  1.00  0.00    -0.354 N 
ATOM     63  N   UNL     1      12.911  -1.864   1.790  1.00  0.00    -0.248 NA
ATOM     64  C   UNL     1      12.485  -4.003   2.631  1.00  0.00     0.031 C 
ATOM     65  C   UNL     1      16.797  -0.647  -0.032  1.00  0.00     0.029 A 
ATOM     66  C   UNL     1      15.594  -1.041   0.535  1.00  0.00     0.049 A 
ATOM     67  H   UNL     1      13.809   0.061   0.753  1.00  0.00     0.167 HD
ATOM     68  C   UNL     1      14.056  -2.642   1.657  1.00  0.00     0.074 A 
ATOM     69  C   UNL     1      13.746  -3.937   2.229  1.00  0.00     0.031 C 
ATOM     70  C   UNL     1      15.257  -2.318   1.114  1.00  0.00     0.031 A 
BRANCH  57  71
ATOM     71  C   UNL     1      15.608   3.405  -1.211  1.00  0.00    -0.014 A 
ATOM     72  C   UNL     1      16.022   4.614  -0.623  1.00  0.00     0.010 A 
ATOM     73  C   UNL     1      16.024   3.110  -2.524  1.00  0.00     0.010 A 
ATOM     74  C   UNL     1      16.820   5.513  -1.338  1.00  0.00     0.020 A 
ATOM     75  C   UNL     1      16.848   3.991  -3.230  1.00  0.00     0.020 A 
ATOM     76  C   UNL     1      17.235   5.191  -2.634  1.00  0.00     0.054 A 
BRANCH  76  77
ATOM     77  S   UNL     1      18.328   6.346  -3.508  1.00  0.00     0.124 S 
ATOM     78  O   UNL     1      17.447   7.491  -3.727  1.00  0.00    -0.237 OA
ATOM     79  O   UNL     1      19.403   6.557  -2.542  1.00  0.00    -0.237 OA
ATOM     80  O   UNL     1      18.711   5.618  -4.715  1.00  0.00    -0.744 OA
ENDBRANCH  76  77
ENDBRANCH  57  71
BRANCH  58  81
ATOM     81  C   UNL     1       9.712  -3.338   3.373  1.00  0.00    -0.014 A 
ATOM     82  C   UNL     1       9.990  -3.911   4.626  1.00  0.00     0.010 A 
ATOM     83  C   UNL     1       8.568  -3.764   2.671  1.00  0.00     0.010 A 
ATOM     84  C   UNL     1       9.162  -4.909   5.151  1.00  0.00     0.020 A 
ATOM     85  C   UNL     1       7.716  -4.732   3.209  1.00  0.00     0.020 A 
ATOM     86  C   UNL     1       8.028  -5.311   4.440  1.00  0.00     0.054 A 
BRANCH  86  87
ATOM     87  S   UNL     1       6.956  -6.587   5.156  1.00  0.00     0.124 S 
ATOM     88  O   UNL     1       7.804  -7.772   5.085  1.00  0.00    -0.237 OA
ATOM     89  O   UNL     1       6.705  -6.067   6.498  1.00  0.00    -0.237 OA
ATOM     90  O   UNL     1       5.794  -6.596   4.270  1.00  0.00    -0.744 OA
ENDBRANCH  86  87
ENDBRANCH  58  81
BRANCH  70  91
ATOM     91  C   UNL     1      16.344  -3.360   1.168  1.00  0.00    -0.014 A 
ATOM     92  C   UNL     1      16.277  -4.539   0.406  1.00  0.00     0.010 A 
ATOM     93  C   UNL     1      17.483  -3.116   1.959  1.00  0.00     0.010 A 
ATOM     94  C   UNL     1      17.313  -5.474   0.465  1.00  0.00     0.020 A 
ATOM     95  C   UNL     1      18.539  -4.027   1.986  1.00  0.00     0.020 A 
ATOM     96  C   UNL     1      18.440  -5.208   1.250  1.00  0.00     0.054 A 
BRANCH  96  97
ATOM     97  S   UNL     1      19.791  -6.416   1.267  1.00  0.00     0.124 S 
ATOM     98  O   UNL     1      19.187  -7.538   1.980  1.00  0.00    -0.237 OA
ATOM     99  O   UNL     1      20.039  -6.634  -0.156  1.00  0.00    -0.237 OA
ATOM    100  O   UNL     1      20.863  -5.729   1.984  1.00  0.00    -0.744 OA
ENDBRANCH  96  97
ENDBRANCH  70  91
ENDBRANCH  44  45
ENDBRANCH  37  39
ENDBRANCH  36  37
ENDBRANCH  35  36
ENDBRANCH  34  35
ENDBRANCH  33  34
ENDBRANCH  32  33
ENDBRANCH  31  32
ENDBRANCH  30  31
ENDBRANCH   1  30
TORSDOF 27
