REMARK SMILES COc1cc(/C=N/NC(=O)c2cc(Cl)ccc2O)ccc1OCC(=O)OCCOCCOCCOCCOC(=O)c1ccc(-c2c3nc(c(-c4ccc(S(=O)(=O)[O-])cc4)c4ccc([nH]4)c(-c4ccc(S(=O)(=O)[O-])cc4)c4nc(c(-c5ccc(S(=O)(=O)[O-])cc5)c5ccc2[nH]5)C=C4)C=C3)cc1
REMARK SMILES IDX 30 1 29 2 28 3 27 4 26 5 24 6 25 7 23 8 22 9 21 10 3 11 4 12
REMARK SMILES IDX 5 13 20 14 19 15 2 16 1 17 6 18 7 19 8 20 9 21 10 23 11 24
REMARK SMILES IDX 12 25 17 26 13 27 16 28 14 29 15 30 18 31 31 33 32 34 33 35
REMARK SMILES IDX 34 36 35 37 36 38 37 39 38 40 39 41 40 42 41 43 42 44 100 45
REMARK SMILES IDX 43 46 99 47 44 48 45 49 46 50 93 51 47 52 98 53 92 54 94 55
REMARK SMILES IDX 48 56 97 57 91 58 90 59 49 61 79 62 60 63 78 64 61 65 64 66
REMARK SMILES IDX 77 67 95 68 62 69 63 70 76 72 96 73 65 74 50 75 51 76 59 77
REMARK SMILES IDX 52 78 58 79 53 80 54 81 55 82 56 83 57 84 80 85 81 86 89 87
REMARK SMILES IDX 82 88 88 89 83 90 84 91 85 92 86 93 87 94 66 95 67 96 75 97
REMARK SMILES IDX 68 98 74 99 69 100 70 101 71 102 72 103 73 104
REMARK H PARENT 8 22 18 32 94 60 64 71
REMARK Flexibility Score: inf
ROOT
ATOM      1  C   UNL     1      -0.212   1.446   0.311  1.00  0.00     0.188 C 
ENDROOT
BRANCH   1   2
ATOM      2  O   UNL     1      -0.780   1.630   1.588  1.00  0.00    -0.376 OA
BRANCH   2   3
ATOM      3  C   UNL     1      -0.186   0.985   2.697  1.00  0.00     0.202 C 
BRANCH   3   4
ATOM      4  C   UNL     1       1.346   0.968   2.862  1.00  0.00     0.261 C 
BRANCH   4   5
ATOM      5  O   UNL     1       2.139   0.764   1.669  1.00  0.00    -0.461 OA
BRANCH   5   6
ATOM      6  C   UNL     1       2.379  -0.501   1.247  1.00  0.00     0.344 C 
ATOM      7  O   UNL     1       1.980  -1.499   1.838  1.00  0.00    -0.248 OA
BRANCH   6   8
ATOM      8  C   UNL     1       3.252  -0.571  -0.042  1.00  0.00     0.352 C 
BRANCH   8   9
ATOM      9  O   UNL     1       3.393   0.439  -1.019  1.00  0.00    -0.478 OA
BRANCH   9  10
ATOM     10  C   UNL     1       2.559   0.689  -2.070  1.00  0.00     0.162 A 
ATOM     11  C   UNL     1       1.450  -0.014  -2.562  1.00  0.00     0.161 A 
ATOM     12  C   UNL     1       0.579   0.594  -3.513  1.00  0.00     0.060 A 
ATOM     13  C   UNL     1       0.858   1.881  -4.001  1.00  0.00    -0.002 A 
ATOM     14  C   UNL     1       2.885   1.909  -2.686  1.00  0.00     0.051 A 
ATOM     15  C   UNL     1       2.054   2.501  -3.638  1.00  0.00     0.014 A 
BRANCH  11  16
ATOM     16  O   UNL     1       1.332  -1.360  -2.332  1.00  0.00    -0.493 OA
ATOM     17  C   UNL     1       0.340  -1.724  -1.382  1.00  0.00     0.278 C 
ENDBRANCH  11  16
BRANCH  13  18
ATOM     18  C   UNL     1      -0.076   2.729  -4.792  1.00  0.00     0.141 C 
ATOM     19  N   UNL     1      -1.131   2.325  -5.426  1.00  0.00    -0.180 NA
BRANCH  19  20
ATOM     20  N   UNL     1      -1.930   3.253  -6.075  1.00  0.00    -0.243 N 
ATOM     21  C   UNL     1      -1.690   4.482  -6.684  1.00  0.00     0.275 C 
ATOM     22  H   UNL     1      -2.877   2.984  -6.115  1.00  0.00     0.194 HD
ATOM     23  O   UNL     1      -2.641   5.160  -7.073  1.00  0.00    -0.267 OA
BRANCH  21  24
ATOM     24  C   UNL     1      -0.324   5.002  -6.910  1.00  0.00     0.084 A 
ATOM     25  C   UNL     1      -0.108   6.374  -6.698  1.00  0.00     0.038 A 
ATOM     26  C   UNL     1       0.746   4.189  -7.297  1.00  0.00     0.128 A 
ATOM     27  C   UNL     1       1.188   6.885  -6.754  1.00  0.00     0.042 A 
ATOM     28  C   UNL     1       2.042   4.701  -7.323  1.00  0.00     0.048 A 
ATOM     29  Cl  UNL     1       1.467   8.555  -6.453  1.00  0.00    -0.084 Cl
ATOM     30  C   UNL     1       2.267   6.046  -7.028  1.00  0.00     0.024 A 
BRANCH  26  31
ATOM     31  O   UNL     1       0.612   2.868  -7.620  1.00  0.00    -0.507 OA
ATOM     32  H   UNL     1      -0.236   2.469  -7.620  1.00  0.00     0.293 HD
ENDBRANCH  26  31
ENDBRANCH  21  24
ENDBRANCH  19  20
ENDBRANCH  13  18
ENDBRANCH   9  10
ENDBRANCH   8   9
ENDBRANCH   6   8
ENDBRANCH   5   6
ENDBRANCH   4   5
ENDBRANCH   3   4
ENDBRANCH   2   3
ENDBRANCH   1   2
BRANCH   1  33
ATOM     33  C   UNL     1       0.754   2.563  -0.142  1.00  0.00     0.188 C 
BRANCH  33  34
ATOM     34  O   UNL     1       0.637   3.930   0.222  1.00  0.00    -0.377 OA
BRANCH  34  35
ATOM     35  C   UNL     1      -0.337   4.283   1.180  1.00  0.00     0.188 C 
BRANCH  35  36
ATOM     36  C   UNL     1      -1.779   4.263   0.644  1.00  0.00     0.188 C 
BRANCH  36  37
ATOM     37  O   UNL     1      -1.971   3.371  -0.447  1.00  0.00    -0.376 OA
BRANCH  37  38
ATOM     38  C   UNL     1      -2.168   3.923  -1.739  1.00  0.00     0.202 C 
BRANCH  38  39
ATOM     39  C   UNL     1      -1.030   4.722  -2.385  1.00  0.00     0.261 C 
BRANCH  39  40
ATOM     40  O   UNL     1      -0.414   5.746  -1.619  1.00  0.00    -0.460 OA
BRANCH  40  41
ATOM     41  C   UNL     1      -1.157   6.818  -1.314  1.00  0.00     0.338 C 
ATOM     42  O   UNL     1      -2.307   7.049  -1.655  1.00  0.00    -0.246 OA
BRANCH  41  43
ATOM     43  C   UNL     1      -0.391   7.532  -0.286  1.00  0.00     0.060 A 
ATOM     44  C   UNL     1      -1.005   7.747   0.951  1.00  0.00     0.016 A 
ATOM     45  C   UNL     1       0.938   7.914  -0.517  1.00  0.00     0.016 A 
ATOM     46  C   UNL     1      -0.305   8.395   1.953  1.00  0.00     0.010 A 
ATOM     47  C   UNL     1       1.628   8.602   0.475  1.00  0.00     0.010 A 
ATOM     48  C   UNL     1       0.977   8.894   1.683  1.00  0.00    -0.014 A 
BRANCH  48  49
ATOM     49  C   UNL     1       1.432  10.011   2.529  1.00  0.00     0.031 A 
ATOM     50  C   UNL     1       1.061  11.395   2.067  1.00  0.00     0.074 A 
ATOM     51  C   UNL     1       1.989   9.781   3.728  1.00  0.00     0.049 A 
ATOM     52  N   UNL     1       1.213  12.539   2.675  1.00  0.00    -0.248 NA
ATOM     53  C   UNL     1       0.408  11.500   0.746  1.00  0.00     0.031 C 
ATOM     54  C   UNL     1       2.309   8.464   4.278  1.00  0.00     0.029 A 
ATOM     55  N   UNL     1       2.351  10.658   4.713  1.00  0.00    -0.354 N 
ATOM     56  C   UNL     1       0.660  13.488   1.822  1.00  0.00     0.074 A 
ATOM     57  C   UNL     1       0.216  12.804   0.634  1.00  0.00     0.031 C 
ATOM     58  C   UNL     1       2.811   8.622   5.516  1.00  0.00     0.029 A 
ATOM     59  C   UNL     1       2.867  10.047   5.829  1.00  0.00     0.049 A 
ATOM     60  H   UNL     1       2.250  11.634   4.630  1.00  0.00     0.167 HD
ATOM     61  C   UNL     1       0.512  14.815   2.027  1.00  0.00     0.031 A 
ATOM     62  C   UNL     1       3.333  10.595   6.967  1.00  0.00     0.031 A 
ATOM     63  C   UNL     1       0.975  15.481   3.211  1.00  0.00     0.049 A 
ATOM     64  C   UNL     1       3.257  12.095   7.118  1.00  0.00     0.074 A 
ATOM     65  C   UNL     1       0.923  16.827   3.518  1.00  0.00     0.029 A 
ATOM     66  N   UNL     1       1.573  14.841   4.286  1.00  0.00    -0.354 N 
ATOM     67  N   UNL     1       2.739  12.985   6.302  1.00  0.00    -0.248 NA
ATOM     68  C   UNL     1       3.812  12.661   8.353  1.00  0.00     0.031 C 
ATOM     69  C   UNL     1       1.541  17.007   4.760  1.00  0.00     0.029 A 
ATOM     70  C   UNL     1       1.912  15.766   5.255  1.00  0.00     0.049 A 
ATOM     71  H   UNL     1       1.733  13.871   4.349  1.00  0.00     0.167 HD
ATOM     72  C   UNL     1       2.874  14.211   6.943  1.00  0.00     0.074 A 
ATOM     73  C   UNL     1       3.494  13.940   8.225  1.00  0.00     0.031 C 
ATOM     74  C   UNL     1       2.525  15.453   6.520  1.00  0.00     0.031 A 
BRANCH  61  75
ATOM     75  C   UNL     1      -0.153  15.620   0.945  1.00  0.00    -0.014 A 
ATOM     76  C   UNL     1      -1.533  15.501   0.695  1.00  0.00     0.010 A 
ATOM     77  C   UNL     1       0.601  16.540   0.196  1.00  0.00     0.010 A 
ATOM     78  C   UNL     1      -2.144  16.281  -0.290  1.00  0.00     0.020 A 
ATOM     79  C   UNL     1      -0.011  17.342  -0.771  1.00  0.00     0.020 A 
ATOM     80  C   UNL     1      -1.380  17.205  -1.010  1.00  0.00     0.054 A 
BRANCH  80  81
ATOM     81  S   UNL     1      -2.214  18.259  -2.227  1.00  0.00     0.124 S 
ATOM     82  O   UNL     1      -2.568  17.299  -3.269  1.00  0.00    -0.237 OA
ATOM     83  O   UNL     1      -3.336  18.798  -1.462  1.00  0.00    -0.237 OA
ATOM     84  O   UNL     1      -1.193  19.235  -2.600  1.00  0.00    -0.744 OA
ENDBRANCH  80  81
ENDBRANCH  61  75
BRANCH  62  85
ATOM     85  C   UNL     1       3.940   9.746   8.030  1.00  0.00    -0.014 A 
ATOM     86  C   UNL     1       3.380   9.678   9.318  1.00  0.00     0.010 A 
ATOM     87  C   UNL     1       5.131   9.043   7.769  1.00  0.00     0.010 A 
ATOM     88  C   UNL     1       4.029   8.972  10.337  1.00  0.00     0.020 A 
ATOM     89  C   UNL     1       5.762   8.306   8.774  1.00  0.00     0.020 A 
ATOM     90  C   UNL     1       5.221   8.297  10.059  1.00  0.00     0.054 A 
BRANCH  90  91
ATOM     91  S   UNL     1       6.056   7.404  11.398  1.00  0.00     0.124 S 
ATOM     92  O   UNL     1       6.579   8.497  12.211  1.00  0.00    -0.237 OA
ATOM     93  O   UNL     1       4.966   6.636  11.993  1.00  0.00    -0.237 OA
ATOM     94  O   UNL     1       7.062   6.606  10.700  1.00  0.00    -0.744 OA
ENDBRANCH  90  91
ENDBRANCH  62  85
BRANCH  74  95
ATOM     95  C   UNL     1       2.763  16.591   7.476  1.00  0.00    -0.014 A 
ATOM     96  C   UNL     1       4.063  17.009   7.808  1.00  0.00     0.010 A 
ATOM     97  C   UNL     1       1.660  17.261   8.036  1.00  0.00     0.010 A 
ATOM     98  C   UNL     1       4.256  18.033   8.737  1.00  0.00     0.020 A 
ATOM     99  C   UNL     1       1.849  18.313   8.933  1.00  0.00     0.020 A 
ATOM    100  C   UNL     1       3.147  18.674   9.298  1.00  0.00     0.054 A 
BRANCH 100 101
ATOM    101  S   UNL     1       3.425  19.998  10.503  1.00  0.00     0.124 S 
ATOM    102  O   UNL     1       3.873  19.251  11.675  1.00  0.00    -0.237 OA
ATOM    103  O   UNL     1       4.444  20.816   9.850  1.00  0.00    -0.237 OA
ATOM    104  O   UNL     1       2.114  20.631  10.631  1.00  0.00    -0.744 OA
ENDBRANCH 100 101
ENDBRANCH  74  95
ENDBRANCH  48  49
ENDBRANCH  41  43
ENDBRANCH  40  41
ENDBRANCH  39  40
ENDBRANCH  38  39
ENDBRANCH  37  38
ENDBRANCH  36  37
ENDBRANCH  35  36
ENDBRANCH  34  35
ENDBRANCH  33  34
ENDBRANCH   1  33
TORSDOF 30
