REMARK SMILES CN1C(=O)/C(=C\c2ccc(OCC(=O)OCCOCCOCCOCCOC(=O)c3ccc(-c4c5nc(c(-c6ccc(S(=O)(=O)[O-])cc6)c6ccc([nH]6)c(-c6ccc(S(=O)(=O)[O-])cc6)c6nc(c(-c7ccc(S(=O)(=O)[O-])cc7)c7ccc4[nH]7)C=C6)C=C5)cc3)cc2)C(O)=NC1=S
REMARK SMILES IDX 20 1 19 2 18 3 17 4 16 5 15 6 13 7 14 8 12 9 11 10 10 11
REMARK SMILES IDX 7 12 8 13 91 14 9 15 90 16 6 17 1 18 2 19 3 20 95 21 4 22
REMARK SMILES IDX 5 23 94 24 96 25 92 26 93 27 21 29 22 30 23 31 24 32 25 33
REMARK SMILES IDX 26 34 27 35 28 36 29 37 30 38 31 39 89 40 32 41 88 42 33 43
REMARK SMILES IDX 34 44 35 45 82 46 36 47 87 48 81 49 83 50 37 51 86 52 80 53
REMARK SMILES IDX 79 54 38 56 68 57 49 58 67 59 50 60 53 61 66 62 84 63 51 64
REMARK SMILES IDX 52 65 65 67 85 68 54 69 39 70 40 71 48 72 41 73 47 74 42 75
REMARK SMILES IDX 43 76 44 77 45 78 46 79 69 80 70 81 78 82 71 83 77 84 72 85
REMARK SMILES IDX 73 86 74 87 75 88 76 89 55 90 56 91 64 92 57 93 63 94 58 95
REMARK SMILES IDX 59 96 60 97 61 98 62 99
REMARK H PARENT 93 28 83 55 53 66
REMARK Flexibility Score: inf
ROOT
ATOM      1  C   UNL     1       2.705  -3.534   3.096  1.00  0.00     0.188 C 
ENDROOT
BRANCH   1   2
ATOM      2  C   UNL     1       1.192  -3.539   3.412  1.00  0.00     0.188 C 
BRANCH   2   3
ATOM      3  O   UNL     1       0.742  -3.475   4.764  1.00  0.00    -0.376 OA
BRANCH   3   4
ATOM      4  C   UNL     1       1.743  -3.567   5.758  1.00  0.00     0.202 C 
BRANCH   4   5
ATOM      5  C   UNL     1       2.235  -5.003   6.010  1.00  0.00     0.261 C 
BRANCH   5   6
ATOM      6  O   UNL     1       2.298  -5.842   4.824  1.00  0.00    -0.461 OA
BRANCH   6   7
ATOM      7  C   UNL     1       1.175  -6.536   4.484  1.00  0.00     0.344 C 
ATOM      8  O   UNL     1       0.172  -6.617   5.185  1.00  0.00    -0.248 OA
BRANCH   7   9
ATOM      9  C   UNL     1       1.318  -7.290   3.136  1.00  0.00     0.351 C 
BRANCH   9  10
ATOM     10  O   UNL     1       1.910  -6.687   1.988  1.00  0.00    -0.482 OA
BRANCH  10  11
ATOM     11  C   UNL     1       1.163  -6.364   0.880  1.00  0.00     0.120 A 
ATOM     12  C   UNL     1       0.018  -5.149  -1.470  1.00  0.00    -0.024 A 
ATOM     13  C   UNL     1       1.288  -5.742  -1.499  1.00  0.00     0.012 A 
ATOM     14  C   UNL     1      -0.718  -5.313  -0.282  1.00  0.00     0.012 A 
ATOM     15  C   UNL     1       1.862  -6.309  -0.333  1.00  0.00     0.047 A 
ATOM     16  C   UNL     1      -0.159  -5.925   0.877  1.00  0.00     0.047 A 
BRANCH  12  17
ATOM     17  C   UNL     1      -0.550  -4.453  -2.666  1.00  0.00     0.027 C 
ATOM     18  C   UNL     1      -0.743   0.114  -1.367  1.00  0.00     0.156 C 
ATOM     19  N   UNL     1      -1.010  -0.881  -2.412  1.00  0.00    -0.286 N 
ATOM     20  C   UNL     1      -0.089  -1.904  -2.494  1.00  0.00     0.265 C 
ATOM     21  C   UNL     1      -1.892  -0.692  -3.476  1.00  0.00     0.205 C 
ATOM     22  O   UNL     1       1.107  -1.719  -2.337  1.00  0.00    -0.268 OA
ATOM     23  C   UNL     1      -0.605  -3.158  -3.083  1.00  0.00     0.103 C 
ATOM     24  N   UNL     1      -1.937  -1.653  -4.470  1.00  0.00    -0.184 NA
ATOM     25  S   UNL     1      -2.853   0.692  -3.648  1.00  0.00    -0.038 S 
ATOM     26  C   UNL     1      -1.343  -2.779  -4.294  1.00  0.00     0.226 C 
BRANCH  26  27
ATOM     27  O   UNL     1      -1.293  -3.655  -5.312  1.00  0.00    -0.493 OA
ATOM     28  H   UNL     1      -0.864  -4.480  -5.199  1.00  0.00     0.295 HD
ENDBRANCH  26  27
ENDBRANCH  12  17
ENDBRANCH  10  11
ENDBRANCH   9  10
ENDBRANCH   7   9
ENDBRANCH   6   7
ENDBRANCH   5   6
ENDBRANCH   4   5
ENDBRANCH   3   4
ENDBRANCH   2   3
ENDBRANCH   1   2
BRANCH   1  29
ATOM     29  O   UNL     1       3.284  -2.257   3.333  1.00  0.00    -0.377 OA
BRANCH  29  30
ATOM     30  C   UNL     1       3.602  -1.546   2.143  1.00  0.00     0.188 C 
BRANCH  30  31
ATOM     31  C   UNL     1       2.393  -0.816   1.565  1.00  0.00     0.188 C 
BRANCH  31  32
ATOM     32  O   UNL     1       1.305  -1.555   1.036  1.00  0.00    -0.376 OA
BRANCH  32  33
ATOM     33  C   UNL     1       1.466  -2.727   0.261  1.00  0.00     0.202 C 
BRANCH  33  34
ATOM     34  C   UNL     1       2.688  -2.998  -0.607  1.00  0.00     0.261 C 
BRANCH  34  35
ATOM     35  O   UNL     1       3.345  -1.797  -0.929  1.00  0.00    -0.460 OA
BRANCH  35  36
ATOM     36  C   UNL     1       4.036  -1.794  -2.082  1.00  0.00     0.338 C 
ATOM     37  O   UNL     1       4.003  -2.596  -3.009  1.00  0.00    -0.246 OA
BRANCH  36  38
ATOM     38  C   UNL     1       5.130  -0.889  -1.750  1.00  0.00     0.060 A 
ATOM     39  C   UNL     1       4.881   0.276  -1.002  1.00  0.00     0.016 A 
ATOM     40  C   UNL     1       6.415  -1.390  -1.937  1.00  0.00     0.016 A 
ATOM     41  C   UNL     1       5.928   0.911  -0.365  1.00  0.00     0.010 A 
ATOM     42  C   UNL     1       7.466  -0.740  -1.326  1.00  0.00     0.010 A 
ATOM     43  C   UNL     1       7.216   0.405  -0.549  1.00  0.00    -0.014 A 
BRANCH  43  44
ATOM     44  C   UNL     1       8.372   1.213  -0.166  1.00  0.00     0.031 A 
ATOM     45  C   UNL     1       8.909   2.115  -1.228  1.00  0.00     0.074 A 
ATOM     46  C   UNL     1       8.949   1.032   1.030  1.00  0.00     0.049 A 
ATOM     47  N   UNL     1      10.030   2.773  -1.259  1.00  0.00    -0.248 NA
ATOM     48  C   UNL     1       8.079   2.265  -2.442  1.00  0.00     0.031 C 
ATOM     49  C   UNL     1       8.440   0.174   2.102  1.00  0.00     0.029 A 
ATOM     50  N   UNL     1      10.117   1.536   1.523  1.00  0.00    -0.354 N 
ATOM     51  C   UNL     1      10.055   3.389  -2.503  1.00  0.00     0.074 A 
ATOM     52  C   UNL     1       8.851   3.018  -3.205  1.00  0.00     0.031 C 
ATOM     53  C   UNL     1       9.315   0.191   3.124  1.00  0.00     0.029 A 
ATOM     54  C   UNL     1      10.453   1.027   2.753  1.00  0.00     0.049 A 
ATOM     55  H   UNL     1      10.665   2.199   1.044  1.00  0.00     0.167 HD
ATOM     56  C   UNL     1      11.018   4.186  -3.011  1.00  0.00     0.031 A 
ATOM     57  C   UNL     1      11.579   1.205   3.466  1.00  0.00     0.031 A 
ATOM     58  C   UNL     1      12.218   4.493  -2.288  1.00  0.00     0.049 A 
ATOM     59  C   UNL     1      12.650   2.081   2.870  1.00  0.00     0.074 A 
ATOM     60  C   UNL     1      13.277   5.292  -2.667  1.00  0.00     0.029 A 
ATOM     61  N   UNL     1      12.511   3.995  -1.024  1.00  0.00    -0.354 N 
ATOM     62  N   UNL     1      12.662   2.686   1.703  1.00  0.00    -0.248 NA
ATOM     63  C   UNL     1      13.850   2.304   3.682  1.00  0.00     0.031 C 
ATOM     64  C   UNL     1      14.230   5.247  -1.643  1.00  0.00     0.029 A 
ATOM     65  C   UNL     1      13.741   4.460  -0.608  1.00  0.00     0.049 A 
ATOM     66  H   UNL     1      11.927   3.399  -0.502  1.00  0.00     0.167 HD
ATOM     67  C   UNL     1      13.860   3.385   1.649  1.00  0.00     0.074 A 
ATOM     68  C   UNL     1      14.540   3.131   2.907  1.00  0.00     0.031 C 
ATOM     69  C   UNL     1      14.361   4.169   0.661  1.00  0.00     0.031 A 
BRANCH  56  70
ATOM     70  C   UNL     1      10.810   4.709  -4.403  1.00  0.00    -0.014 A 
ATOM     71  C   UNL     1       9.811   5.661  -4.679  1.00  0.00     0.010 A 
ATOM     72  C   UNL     1      11.592   4.211  -5.459  1.00  0.00     0.010 A 
ATOM     73  C   UNL     1       9.572   6.076  -5.992  1.00  0.00     0.020 A 
ATOM     74  C   UNL     1      11.375   4.644  -6.770  1.00  0.00     0.020 A 
ATOM     75  C   UNL     1      10.353   5.561  -7.030  1.00  0.00     0.054 A 
BRANCH  75  76
ATOM     76  S   UNL     1      10.035   6.128  -8.723  1.00  0.00     0.124 S 
ATOM     77  O   UNL     1       8.806   5.412  -9.054  1.00  0.00    -0.237 OA
ATOM     78  O   UNL     1       9.895   7.572  -8.557  1.00  0.00    -0.237 OA
ATOM     79  O   UNL     1      11.222   5.701  -9.460  1.00  0.00    -0.744 OA
ENDBRANCH  75  76
ENDBRANCH  56  70
BRANCH  57  80
ATOM     80  C   UNL     1      11.735   0.556   4.794  1.00  0.00    -0.014 A 
ATOM     81  C   UNL     1      11.666   1.324   5.969  1.00  0.00     0.010 A 
ATOM     82  C   UNL     1      11.909  -0.837   4.900  1.00  0.00     0.010 A 
ATOM     83  C   UNL     1      11.774   0.716   7.224  1.00  0.00     0.020 A 
ATOM     84  C   UNL     1      11.996  -1.452   6.154  1.00  0.00     0.020 A 
ATOM     85  C   UNL     1      11.936  -0.670   7.309  1.00  0.00     0.054 A 
BRANCH  85  86
ATOM     86  S   UNL     1      12.005  -1.444   8.949  1.00  0.00     0.124 S 
ATOM     87  O   UNL     1      13.341  -1.074   9.404  1.00  0.00    -0.237 OA
ATOM     88  O   UNL     1      10.897  -0.799   9.650  1.00  0.00    -0.237 OA
ATOM     89  O   UNL     1      11.809  -2.864   8.666  1.00  0.00    -0.744 OA
ENDBRANCH  85  86
ENDBRANCH  57  80
BRANCH  69  90
ATOM     90  C   UNL     1      15.682   4.828   0.928  1.00  0.00    -0.014 A 
ATOM     91  C   UNL     1      16.881   4.099   0.860  1.00  0.00     0.010 A 
ATOM     92  C   UNL     1      15.720   6.211   1.178  1.00  0.00     0.010 A 
ATOM     93  C   UNL     1      18.101   4.743   1.067  1.00  0.00     0.020 A 
ATOM     94  C   UNL     1      16.939   6.862   1.359  1.00  0.00     0.020 A 
ATOM     95  C   UNL     1      18.122   6.120   1.315  1.00  0.00     0.054 A 
BRANCH  95  96
ATOM     96  S   UNL     1      19.721   6.943   1.531  1.00  0.00     0.124 S 
ATOM     97  O   UNL     1      20.080   6.553   2.891  1.00  0.00    -0.237 OA
ATOM     98  O   UNL     1      20.534   6.351   0.471  1.00  0.00    -0.237 OA
ATOM     99  O   UNL     1      19.407   8.359   1.350  1.00  0.00    -0.744 OA
ENDBRANCH  95  96
ENDBRANCH  69  90
ENDBRANCH  43  44
ENDBRANCH  36  38
ENDBRANCH  35  36
ENDBRANCH  34  35
ENDBRANCH  33  34
ENDBRANCH  32  33
ENDBRANCH  31  32
ENDBRANCH  30  31
ENDBRANCH  29  30
ENDBRANCH   1  29
TORSDOF 27
