REMARK SMILES Cc1nsc(NC(=O)c2ccc(N)cc2)c1C(=O)OCCOCCOCCOCCOC(=O)c1ccc(-c2c3nc(c(-c4ccc(S(=O)(=O)[O-])cc4)c4ccc([nH]4)c(-c4ccc(S(=O)(=O)[O-])cc4)c4nc(c(-c5ccc(S(=O)(=O)[O-])cc5)c5ccc2[nH]5)C=C4)C=C3)cc1
REMARK SMILES IDX 25 1 24 2 23 3 22 4 21 5 20 6 19 7 17 8 18 9 16 10 1 11 2 12
REMARK SMILES IDX 3 13 4 14 5 15 6 16 7 17 8 19 9 20 10 21 15 22 11 23 14 24
REMARK SMILES IDX 12 25 13 26 26 29 27 30 28 31 29 32 30 33 31 34 32 35 33 36
REMARK SMILES IDX 34 37 35 38 93 39 36 40 92 41 37 42 38 43 39 44 86 45 40 46
REMARK SMILES IDX 91 47 85 48 87 49 41 50 90 51 84 52 83 53 42 55 72 56 53 57
REMARK SMILES IDX 71 58 54 59 57 60 70 61 88 62 55 63 56 64 69 66 89 67 58 68
REMARK SMILES IDX 43 69 44 70 52 71 45 72 51 73 46 74 47 75 48 76 49 77 50 78
REMARK SMILES IDX 73 79 74 80 82 81 75 82 81 83 76 84 77 85 78 86 79 87 80 88
REMARK SMILES IDX 59 89 60 90 68 91 61 92 67 93 62 94 63 95 64 96 65 97 66 98
REMARK H PARENT 6 18 13 27 13 28 87 54 57 65
REMARK Flexibility Score: inf
ROOT
ATOM      1  O   UNL     1      -2.043   2.036   1.053  1.00  0.00    -0.377 OA
ENDROOT
BRANCH   1   2
ATOM      2  C   UNL     1      -2.301   0.903   1.860  1.00  0.00     0.188 C 
BRANCH   2   3
ATOM      3  C   UNL     1      -2.093   1.149   3.372  1.00  0.00     0.188 C 
BRANCH   3   4
ATOM      4  O   UNL     1      -1.885   2.443   3.924  1.00  0.00    -0.376 OA
BRANCH   4   5
ATOM      5  C   UNL     1      -1.093   3.423   3.275  1.00  0.00     0.202 C 
BRANCH   5   6
ATOM      6  C   UNL     1       0.332   3.122   2.782  1.00  0.00     0.261 C 
BRANCH   6   7
ATOM      7  O   UNL     1       0.547   1.826   2.217  1.00  0.00    -0.460 OA
BRANCH   7   8
ATOM      8  C   UNL     1       1.043   0.873   3.045  1.00  0.00     0.343 C 
ATOM      9  O   UNL     1       1.437   1.080   4.193  1.00  0.00    -0.246 OA
BRANCH   8  10
ATOM     10  C   UNL     1       0.841  -0.466   2.513  1.00  0.00     0.117 A 
ATOM     11  C   UNL     1       1.361  -0.055  -0.035  1.00  0.00     0.069 C 
ATOM     12  C   UNL     1       0.939  -0.884   1.131  1.00  0.00     0.068 A 
ATOM     13  N   UNL     1       0.584  -2.144   0.884  1.00  0.00    -0.195 NA
ATOM     14  S   UNL     1      -0.011  -2.816   2.262  1.00  0.00    -0.017 S 
ATOM     15  C   UNL     1       0.341  -1.508   3.291  1.00  0.00     0.131 A 
BRANCH  15  16
ATOM     16  N   UNL     1      -0.030  -1.463   4.632  1.00  0.00    -0.312 N 
ATOM     17  C   UNL     1      -0.586  -2.420   5.452  1.00  0.00     0.256 C 
ATOM     18  H   UNL     1       0.133  -0.597   5.070  1.00  0.00     0.171 HD
ATOM     19  O   UNL     1      -1.254  -2.082   6.428  1.00  0.00    -0.269 OA
BRANCH  17  20
ATOM     20  C   UNL     1      -0.324  -3.857   5.246  1.00  0.00     0.040 A 
ATOM     21  C   UNL     1       0.964  -4.294   4.929  1.00  0.00     0.016 A 
ATOM     22  C   UNL     1      -1.360  -4.779   5.405  1.00  0.00     0.016 A 
ATOM     23  C   UNL     1       1.180  -5.636   4.625  1.00  0.00     0.026 A 
ATOM     24  C   UNL     1      -1.123  -6.129   5.129  1.00  0.00     0.026 A 
ATOM     25  C   UNL     1       0.128  -6.553   4.668  1.00  0.00     0.031 A 
BRANCH  25  26
ATOM     26  N   UNL     1       0.362  -7.892   4.392  1.00  0.00    -0.399 N 
ATOM     27  H   UNL     1       1.246  -8.180   4.068  1.00  0.00     0.156 HD
ATOM     28  H   UNL     1      -0.354  -8.554   4.521  1.00  0.00     0.156 HD
ENDBRANCH  25  26
ENDBRANCH  17  20
ENDBRANCH  15  16
ENDBRANCH   8  10
ENDBRANCH   7   8
ENDBRANCH   6   7
ENDBRANCH   5   6
ENDBRANCH   4   5
ENDBRANCH   3   4
ENDBRANCH   2   3
ENDBRANCH   1   2
BRANCH   1  29
ATOM     29  C   UNL     1      -3.196   2.796   0.687  1.00  0.00     0.188 C 
BRANCH  29  30
ATOM     30  C   UNL     1      -4.263   3.100   1.776  1.00  0.00     0.188 C 
BRANCH  30  31
ATOM     31  O   UNL     1      -4.507   2.039   2.687  1.00  0.00    -0.376 OA
BRANCH  31  32
ATOM     32  C   UNL     1      -5.669   1.231   2.663  1.00  0.00     0.202 C 
BRANCH  32  33
ATOM     33  C   UNL     1      -5.968   0.391   1.428  1.00  0.00     0.261 C 
BRANCH  33  34
ATOM     34  O   UNL     1      -5.556   0.988   0.220  1.00  0.00    -0.460 OA
BRANCH  34  35
ATOM     35  C   UNL     1      -6.339   1.992  -0.202  1.00  0.00     0.338 C 
ATOM     36  O   UNL     1      -7.174   2.605   0.455  1.00  0.00    -0.246 OA
BRANCH  35  37
ATOM     37  C   UNL     1      -6.132   2.138  -1.639  1.00  0.00     0.060 A 
ATOM     38  C   UNL     1      -6.812   3.184  -2.257  1.00  0.00     0.016 A 
ATOM     39  C   UNL     1      -5.627   1.034  -2.347  1.00  0.00     0.016 A 
ATOM     40  C   UNL     1      -7.252   2.974  -3.538  1.00  0.00     0.010 A 
ATOM     41  C   UNL     1      -6.087   0.817  -3.616  1.00  0.00     0.010 A 
ATOM     42  C   UNL     1      -6.981   1.739  -4.141  1.00  0.00    -0.014 A 
BRANCH  42  43
ATOM     43  C   UNL     1      -7.604   1.452  -5.406  1.00  0.00     0.031 A 
ATOM     44  C   UNL     1      -6.951   2.178  -6.507  1.00  0.00     0.074 A 
ATOM     45  C   UNL     1      -8.606   0.568  -5.548  1.00  0.00     0.049 A 
ATOM     46  N   UNL     1      -7.375   3.257  -7.070  1.00  0.00    -0.248 NA
ATOM     47  C   UNL     1      -5.566   1.814  -6.845  1.00  0.00     0.031 C 
ATOM     48  C   UNL     1      -9.142  -0.395  -4.585  1.00  0.00     0.029 A 
ATOM     49  N   UNL     1      -9.306   0.290  -6.673  1.00  0.00    -0.354 N 
ATOM     50  C   UNL     1      -6.414   3.569  -8.016  1.00  0.00     0.074 A 
ATOM     51  C   UNL     1      -5.239   2.809  -7.668  1.00  0.00     0.031 C 
ATOM     52  C   UNL     1      -9.900  -1.305  -5.245  1.00  0.00     0.029 A 
ATOM     53  C   UNL     1     -10.014  -0.902  -6.639  1.00  0.00     0.049 A 
ATOM     54  H   UNL     1      -9.312   0.888  -7.456  1.00  0.00     0.167 HD
ATOM     55  C   UNL     1      -6.751   4.192  -9.176  1.00  0.00     0.031 A 
ATOM     56  C   UNL     1     -10.578  -1.519  -7.710  1.00  0.00     0.031 A 
ATOM     57  C   UNL     1      -8.080   4.747  -9.117  1.00  0.00     0.049 A 
ATOM     58  C   UNL     1     -10.736  -0.484  -8.770  1.00  0.00     0.074 A 
ATOM     59  C   UNL     1      -8.701   5.681  -8.311  1.00  0.00     0.029 A 
ATOM     60  N   UNL     1      -9.089   4.011  -9.698  1.00  0.00    -0.354 N 
ATOM     61  N   UNL     1     -11.551   0.528  -8.658  1.00  0.00    -0.248 NA
ATOM     62  C   UNL     1      -9.641  -0.296  -9.712  1.00  0.00     0.031 C 
ATOM     63  C   UNL     1     -10.008   5.161  -8.084  1.00  0.00     0.029 A 
ATOM     64  C   UNL     1     -10.145   3.983  -8.822  1.00  0.00     0.049 A 
ATOM     65  H   UNL     1      -9.059   3.582 -10.584  1.00  0.00     0.167 HD
ATOM     66  C   UNL     1     -10.846   1.614  -9.160  1.00  0.00     0.074 A 
ATOM     67  C   UNL     1      -9.710   1.030  -9.873  1.00  0.00     0.031 C 
ATOM     68  C   UNL     1     -11.082   2.883  -8.710  1.00  0.00     0.031 A 
BRANCH  55  69
ATOM     69  C   UNL     1      -6.048   3.915 -10.475  1.00  0.00    -0.014 A 
ATOM     70  C   UNL     1      -6.385   4.682 -11.604  1.00  0.00     0.010 A 
ATOM     71  C   UNL     1      -5.262   2.762 -10.689  1.00  0.00     0.010 A 
ATOM     72  C   UNL     1      -5.994   4.285 -12.887  1.00  0.00     0.020 A 
ATOM     73  C   UNL     1      -4.828   2.383 -11.956  1.00  0.00     0.020 A 
ATOM     74  C   UNL     1      -5.223   3.133 -13.053  1.00  0.00     0.054 A 
BRANCH  74  75
ATOM     75  S   UNL     1      -4.790   2.587 -14.720  1.00  0.00     0.124 S 
ATOM     76  O   UNL     1      -6.097   2.243 -15.270  1.00  0.00    -0.237 OA
ATOM     77  O   UNL     1      -4.158   3.779 -15.277  1.00  0.00    -0.237 OA
ATOM     78  O   UNL     1      -3.890   1.460 -14.487  1.00  0.00    -0.744 OA
ENDBRANCH  74  75
ENDBRANCH  55  69
BRANCH  56  79
ATOM     79  C   UNL     1     -10.642  -2.976  -8.003  1.00  0.00    -0.014 A 
ATOM     80  C   UNL     1     -11.421  -3.468  -9.069  1.00  0.00     0.010 A 
ATOM     81  C   UNL     1      -9.705  -3.855  -7.422  1.00  0.00     0.010 A 
ATOM     82  C   UNL     1     -11.218  -4.763  -9.581  1.00  0.00     0.020 A 
ATOM     83  C   UNL     1      -9.502  -5.148  -7.923  1.00  0.00     0.020 A 
ATOM     84  C   UNL     1     -10.241  -5.588  -9.018  1.00  0.00     0.054 A 
BRANCH  84  85
ATOM     85  S   UNL     1      -9.848  -7.181  -9.803  1.00  0.00     0.124 S 
ATOM     86  O   UNL     1     -11.035  -7.977  -9.504  1.00  0.00    -0.237 OA
ATOM     87  O   UNL     1      -9.672  -6.811 -11.204  1.00  0.00    -0.237 OA
ATOM     88  O   UNL     1      -8.627  -7.609  -9.121  1.00  0.00    -0.744 OA
ENDBRANCH  84  85
ENDBRANCH  56  79
BRANCH  68  89
ATOM     89  C   UNL     1     -12.304   3.128  -7.850  1.00  0.00    -0.014 A 
ATOM     90  C   UNL     1     -12.530   2.515  -6.600  1.00  0.00     0.010 A 
ATOM     91  C   UNL     1     -13.187   4.140  -8.264  1.00  0.00     0.010 A 
ATOM     92  C   UNL     1     -13.628   2.886  -5.806  1.00  0.00     0.020 A 
ATOM     93  C   UNL     1     -14.269   4.527  -7.471  1.00  0.00     0.020 A 
ATOM     94  C   UNL     1     -14.493   3.891  -6.251  1.00  0.00     0.054 A 
BRANCH  94  95
ATOM     95  S   UNL     1     -15.897   4.392  -5.214  1.00  0.00     0.124 S 
ATOM     96  O   UNL     1     -16.759   3.214  -5.255  1.00  0.00    -0.237 OA
ATOM     97  O   UNL     1     -15.268   4.667  -3.925  1.00  0.00    -0.237 OA
ATOM     98  O   UNL     1     -16.430   5.571  -5.896  1.00  0.00    -0.744 OA
ENDBRANCH  94  95
ENDBRANCH  68  89
ENDBRANCH  42  43
ENDBRANCH  35  37
ENDBRANCH  34  35
ENDBRANCH  33  34
ENDBRANCH  32  33
ENDBRANCH  31  32
ENDBRANCH  30  31
ENDBRANCH  29  30
ENDBRANCH   1  29
TORSDOF 26
