REMARK SMILES O=C(OCCOCCOCCOCCOC(=O)[C@H]1CC2(CC[NH+](C(=O)c3cccc(O)c3)CC2)CN1C(=O)C1CC1)c1ccc(-c2c3nc(c(-c4ccc(S(=O)(=O)[O-])cc4)c4ccc([nH]4)c(-c4ccc(S(=O)(=O)[O-])cc4)c4nc(c(-c5ccc(S(=O)(=O)[O-])cc5)c5ccc2[nH]5)C=C4)C=C3)cc1
REMARK SMILES IDX 9 1 8 2 7 3 6 4 5 5 4 6 3 7 2 8 1 9 42 10 43 11 101 12 44 13
REMARK SMILES IDX 100 14 45 15 46 16 47 17 94 18 48 19 99 20 93 21 95 22 49 23
REMARK SMILES IDX 98 24 92 25 91 26 50 28 80 29 61 30 79 31 62 32 65 33 78 34
REMARK SMILES IDX 96 35 63 36 64 37 77 39 97 40 66 41 51 42 52 43 60 44 53 45
REMARK SMILES IDX 59 46 54 47 55 48 56 49 57 50 58 51 81 52 82 53 90 54 83 55
REMARK SMILES IDX 89 56 84 57 85 58 86 59 87 60 88 61 67 62 68 63 76 64 69 65
REMARK SMILES IDX 75 66 70 67 71 68 72 69 73 70 74 71 10 72 11 73 12 74 13 75
REMARK SMILES IDX 14 76 15 77 16 78 17 79 18 80 19 81 36 82 20 83 35 84 21 85
REMARK SMILES IDX 34 86 22 87 33 88 23 89 37 91 38 92 39 93 40 94 41 95 24 96
REMARK SMILES IDX 25 97 26 98 27 99 32 100 28 101 30 102 29 103 31 104
REMARK H PARENT 95 27 65 38 23 90 31 105
REMARK Flexibility Score: inf
ROOT
ATOM      1  O   UNL     1       6.766  -5.818   3.779  1.00  0.00    -0.377 OA
ENDROOT
BRANCH   1   2
ATOM      2  C   UNL     1       7.930  -6.627   3.920  1.00  0.00     0.188 C 
BRANCH   2   3
ATOM      3  C   UNL     1       8.067  -7.693   2.849  1.00  0.00     0.188 C 
BRANCH   3   4
ATOM      4  O   UNL     1       8.027  -7.066   1.582  1.00  0.00    -0.376 OA
BRANCH   4   5
ATOM      5  C   UNL     1       7.208  -7.639   0.576  1.00  0.00     0.202 C 
BRANCH   5   6
ATOM      6  C   UNL     1       7.793  -8.889  -0.050  1.00  0.00     0.261 C 
BRANCH   6   7
ATOM      7  O   UNL     1       8.927  -9.435   0.644  1.00  0.00    -0.460 OA
BRANCH   7   8
ATOM      8  C   UNL     1      10.182  -8.966   0.824  1.00  0.00     0.338 C 
ATOM      9  O   UNL     1      10.913  -9.577   1.605  1.00  0.00    -0.246 OA
BRANCH   8  10
ATOM     10  C   UNL     1      10.783  -7.797   0.117  1.00  0.00     0.060 A 
ATOM     11  C   UNL     1      10.148  -6.592  -0.180  1.00  0.00     0.016 A 
ATOM     12  C   UNL     1      12.158  -7.888  -0.154  1.00  0.00     0.016 A 
ATOM     13  C   UNL     1      10.813  -5.527  -0.757  1.00  0.00     0.010 A 
ATOM     14  C   UNL     1      12.848  -6.822  -0.734  1.00  0.00     0.010 A 
ATOM     15  C   UNL     1      12.159  -5.650  -1.059  1.00  0.00    -0.014 A 
BRANCH  15  16
ATOM     16  C   UNL     1      12.729  -4.623  -1.935  1.00  0.00     0.031 A 
ATOM     17  C   UNL     1      12.886  -4.987  -3.377  1.00  0.00     0.074 A 
ATOM     18  C   UNL     1      12.920  -3.375  -1.476  1.00  0.00     0.049 A 
ATOM     19  N   UNL     1      13.459  -4.324  -4.338  1.00  0.00    -0.248 NA
ATOM     20  C   UNL     1      12.302  -6.278  -3.797  1.00  0.00     0.031 C 
ATOM     21  C   UNL     1      12.584  -2.907  -0.126  1.00  0.00     0.029 A 
ATOM     22  N   UNL     1      13.412  -2.265  -2.101  1.00  0.00    -0.354 N 
ATOM     23  C   UNL     1      13.361  -5.140  -5.457  1.00  0.00     0.074 A 
ATOM     24  C   UNL     1      12.659  -6.339  -5.069  1.00  0.00     0.031 C 
ATOM     25  C   UNL     1      12.884  -1.601  -0.029  1.00  0.00     0.029 A 
ATOM     26  C   UNL     1      13.512  -1.174  -1.272  1.00  0.00     0.049 A 
ATOM     27  H   UNL     1      13.670  -2.249  -3.051  1.00  0.00     0.167 HD
ATOM     28  C   UNL     1      13.848  -4.901  -6.693  1.00  0.00     0.031 A 
ATOM     29  C   UNL     1      14.113   0.010  -1.492  1.00  0.00     0.031 A 
ATOM     30  C   UNL     1      14.546  -3.690  -7.016  1.00  0.00     0.049 A 
ATOM     31  C   UNL     1      14.766   0.204  -2.835  1.00  0.00     0.074 A 
ATOM     32  C   UNL     1      15.163  -3.333  -8.197  1.00  0.00     0.029 A 
ATOM     33  N   UNL     1      14.715  -2.633  -6.129  1.00  0.00    -0.354 N 
ATOM     34  N   UNL     1      14.766  -0.605  -3.872  1.00  0.00    -0.248 NA
ATOM     35  C   UNL     1      15.515   1.447  -3.036  1.00  0.00     0.031 C 
ATOM     36  C   UNL     1      15.760  -2.083  -8.001  1.00  0.00     0.029 A 
ATOM     37  C   UNL     1      15.453  -1.631  -6.724  1.00  0.00     0.049 A 
ATOM     38  H   UNL     1      14.361  -2.604  -5.211  1.00  0.00     0.167 HD
ATOM     39  C   UNL     1      15.501   0.038  -4.857  1.00  0.00     0.074 A 
ATOM     40  C   UNL     1      15.911   1.313  -4.295  1.00  0.00     0.031 C 
ATOM     41  C   UNL     1      15.819  -0.378  -6.109  1.00  0.00     0.031 A 
BRANCH  28  42
ATOM     42  C   UNL     1      13.738  -6.009  -7.703  1.00  0.00    -0.014 A 
ATOM     43  C   UNL     1      12.507  -6.385  -8.269  1.00  0.00     0.010 A 
ATOM     44  C   UNL     1      14.899  -6.719  -8.059  1.00  0.00     0.010 A 
ATOM     45  C   UNL     1      12.435  -7.473  -9.145  1.00  0.00     0.020 A 
ATOM     46  C   UNL     1      14.836  -7.789  -8.955  1.00  0.00     0.020 A 
ATOM     47  C   UNL     1      13.601  -8.169  -9.481  1.00  0.00     0.054 A 
BRANCH  47  48
ATOM     48  S   UNL     1      13.482  -9.564 -10.634  1.00  0.00     0.124 S 
ATOM     49  O   UNL     1      12.807 -10.572  -9.820  1.00  0.00    -0.237 OA
ATOM     50  O   UNL     1      12.690  -9.006 -11.727  1.00  0.00    -0.237 OA
ATOM     51  O   UNL     1      14.874  -9.861 -10.964  1.00  0.00    -0.744 OA
ENDBRANCH  47  48
ENDBRANCH  28  42
BRANCH  29  52
ATOM     52  C   UNL     1      14.210   1.026  -0.406  1.00  0.00    -0.014 A 
ATOM     53  C   UNL     1      13.606   2.288  -0.532  1.00  0.00     0.010 A 
ATOM     54  C   UNL     1      14.919   0.731   0.776  1.00  0.00     0.010 A 
ATOM     55  C   UNL     1      13.727   3.239   0.489  1.00  0.00     0.020 A 
ATOM     56  C   UNL     1      15.016   1.664   1.811  1.00  0.00     0.020 A 
ATOM     57  C   UNL     1      14.431   2.920   1.655  1.00  0.00     0.054 A 
BRANCH  57  58
ATOM     58  S   UNL     1      14.553   4.159   2.975  1.00  0.00     0.124 S 
ATOM     59  O   UNL     1      15.458   5.141   2.388  1.00  0.00    -0.237 OA
ATOM     60  O   UNL     1      13.165   4.589   3.131  1.00  0.00    -0.237 OA
ATOM     61  O   UNL     1      15.093   3.405   4.104  1.00  0.00    -0.744 OA
ENDBRANCH  57  58
ENDBRANCH  29  52
BRANCH  41  62
ATOM     62  C   UNL     1      16.609   0.574  -6.957  1.00  0.00    -0.014 A 
ATOM     63  C   UNL     1      17.976   0.793  -6.722  1.00  0.00     0.010 A 
ATOM     64  C   UNL     1      15.986   1.180  -8.063  1.00  0.00     0.010 A 
ATOM     65  C   UNL     1      18.707   1.621  -7.573  1.00  0.00     0.020 A 
ATOM     66  C   UNL     1      16.721   1.980  -8.935  1.00  0.00     0.020 A 
ATOM     67  C   UNL     1      18.076   2.203  -8.678  1.00  0.00     0.054 A 
BRANCH  67  68
ATOM     68  S   UNL     1      19.065   3.210  -9.811  1.00  0.00     0.124 S 
ATOM     69  O   UNL     1      19.293   4.418  -9.022  1.00  0.00    -0.237 OA
ATOM     70  O   UNL     1      20.241   2.374 -10.037  1.00  0.00    -0.237 OA
ATOM     71  O   UNL     1      18.196   3.380 -10.973  1.00  0.00    -0.744 OA
ENDBRANCH  67  68
ENDBRANCH  41  62
ENDBRANCH  15  16
ENDBRANCH   8  10
ENDBRANCH   7   8
ENDBRANCH   6   7
ENDBRANCH   5   6
ENDBRANCH   4   5
ENDBRANCH   3   4
ENDBRANCH   2   3
ENDBRANCH   1   2
BRANCH   1  72
ATOM     72  C   UNL     1       6.525  -5.129   2.555  1.00  0.00     0.188 C 
BRANCH  72  73
ATOM     73  C   UNL     1       7.605  -4.179   2.026  1.00  0.00     0.188 C 
BRANCH  73  74
ATOM     74  O   UNL     1       8.781  -4.183   2.818  1.00  0.00    -0.376 OA
BRANCH  74  75
ATOM     75  C   UNL     1       9.022  -3.014   3.580  1.00  0.00     0.202 C 
BRANCH  75  76
ATOM     76  C   UNL     1       8.330  -2.852   4.958  1.00  0.00     0.261 C 
BRANCH  76  77
ATOM     77  O   UNL     1       7.038  -3.439   5.216  1.00  0.00    -0.462 OA
BRANCH  77  78
ATOM     78  C   UNL     1       6.000  -2.941   4.512  1.00  0.00     0.328 C 
ATOM     79  O   UNL     1       6.167  -2.121   3.606  1.00  0.00    -0.250 OA
BRANCH  78  80
ATOM     80  C   UNL     1       4.605  -3.523   4.851  1.00  0.00     0.195 C 
ATOM     81  C   UNL     1       4.691  -4.873   5.586  1.00  0.00     0.046 C 
ATOM     82  N   UNL     1       3.520  -2.849   5.578  1.00  0.00    -0.328 N 
ATOM     83  C   UNL     1       3.269  -5.249   6.016  1.00  0.00     0.001 C 
ATOM     84  C   UNL     1       2.564  -3.881   6.023  1.00  0.00     0.128 C 
ATOM     85  C   UNL     1       3.293  -5.902   7.412  1.00  0.00     0.071 C 
ATOM     86  C   UNL     1       2.599  -6.255   5.025  1.00  0.00     0.071 C 
ATOM     87  C   UNL     1       3.985  -7.265   7.372  1.00  0.00     0.271 C 
ATOM     88  C   UNL     1       3.147  -7.696   5.103  1.00  0.00     0.271 C 
ATOM     89  N   UNL     1       3.251  -8.162   6.483  1.00  0.00    -0.267 N 
ATOM     90  H   UNL     1       3.204  -8.687   7.315  1.00  0.00     0.357 HD
BRANCH  82  91
ATOM     91  C   UNL     1       2.943  -1.591   5.360  1.00  0.00     0.226 C 
ATOM     92  O   UNL     1       1.722  -1.463   5.484  1.00  0.00    -0.275 OA
BRANCH  91  93
ATOM     93  C   UNL     1       3.665  -0.309   5.109  1.00  0.00     0.079 C 
ATOM     94  C   UNL     1       5.109   0.053   5.007  1.00  0.00     0.014 C 
ATOM     95  C   UNL     1       4.267  -0.032   3.756  1.00  0.00     0.014 C 
ENDBRANCH  91  93
ENDBRANCH  82  91
BRANCH  89  96
ATOM     96  C   UNL     1       2.837  -9.456   6.814  1.00  0.00     0.344 C 
ATOM     97  O   UNL     1       2.440 -10.278   5.993  1.00  0.00    -0.226 OA
BRANCH  96  98
ATOM     98  C   UNL     1       2.859  -9.865   8.240  1.00  0.00     0.083 A 
ATOM     99  C   UNL     1       2.173  -9.108   9.201  1.00  0.00     0.018 A 
ATOM    100  C   UNL     1       3.561 -11.011   8.620  1.00  0.00     0.064 A 
ATOM    101  C   UNL     1       2.265  -9.447  10.551  1.00  0.00     0.005 A 
ATOM    102  C   UNL     1       3.632 -11.347   9.969  1.00  0.00     0.116 A 
ATOM    103  C   UNL     1       3.005 -10.565  10.938  1.00  0.00     0.046 A 
BRANCH 102 104
ATOM    104  O   UNL     1       4.344 -12.458  10.314  1.00  0.00    -0.508 OA
ATOM    105  H   UNL     1       4.410 -12.710  11.214  1.00  0.00     0.293 HD
ENDBRANCH 102 104
ENDBRANCH  96  98
ENDBRANCH  89  96
ENDBRANCH  78  80
ENDBRANCH  77  78
ENDBRANCH  76  77
ENDBRANCH  75  76
ENDBRANCH  74  75
ENDBRANCH  73  74
ENDBRANCH  72  73
ENDBRANCH   1  72
TORSDOF 28
