REMARK SMILES CC[C@H]([NH2+]C1c2ccccc2-c2ccccc21)C(=O)OCCOCCOCCOCCOC(=O)c1ccc(-c2c3nc(c(-c4ccc(S(=O)(=O)[O-])cc4)c4ccc([nH]4)c(-c4ccc(S(=O)(=O)[O-])cc4)c4nc(c(-c5ccc(S(=O)(=O)[O-])cc5)c5ccc2[nH]5)C=C4)C=C3)cc1
REMARK SMILES IDX 27 1 26 2 25 3 24 4 23 5 22 6 21 7 20 8 18 9 19 10 3 11 2 12
REMARK SMILES IDX 1 13 4 14 5 17 6 18 17 19 7 20 11 21 12 22 16 23 8 24 10 25
REMARK SMILES IDX 13 26 15 27 9 28 14 29 28 30 29 31 30 32 31 33 32 34 33 35
REMARK SMILES IDX 34 36 35 37 36 38 94 39 37 40 93 41 38 42 39 43 40 44 87 45
REMARK SMILES IDX 41 46 92 47 86 48 88 49 42 50 91 51 85 52 84 53 43 55 73 56
REMARK SMILES IDX 54 57 72 58 55 59 58 60 71 61 89 62 56 63 57 64 70 66 90 67
REMARK SMILES IDX 59 68 44 69 45 70 53 71 46 72 52 73 47 74 48 75 49 76 50 77
REMARK SMILES IDX 51 78 74 79 75 80 83 81 76 82 82 83 77 84 78 85 79 86 80 87
REMARK SMILES IDX 81 88 60 89 61 90 69 91 62 92 68 93 63 94 64 95 65 96 66 97
REMARK SMILES IDX 67 98
REMARK H PARENT 4 15 4 16 88 54 58 65
REMARK Flexibility Score: inf
ROOT
ATOM      1  C   UNL     1      -1.366   3.207  -4.820  1.00  0.00     0.188 C 
ENDROOT
BRANCH   1   2
ATOM      2  O   UNL     1       0.293   3.364  -4.280  1.00  0.00    -0.377 OA
BRANCH   2   3
ATOM      3  C   UNL     1       1.895   2.437  -4.280  1.00  0.00     0.188 C 
BRANCH   3   4
ATOM      4  C   UNL     1       2.231   1.048  -5.283  1.00  0.00     0.188 C 
BRANCH   4   5
ATOM      5  O   UNL     1       1.493   0.358  -6.372  1.00  0.00    -0.376 OA
BRANCH   5   6
ATOM      6  C   UNL     1       0.070   0.169  -6.679  1.00  0.00     0.202 C 
BRANCH   6   7
ATOM      7  C   UNL     1      -1.039  -0.651  -5.814  1.00  0.00     0.261 C 
BRANCH   7   8
ATOM      8  O   UNL     1      -1.041  -0.644  -4.344  1.00  0.00    -0.459 OA
BRANCH   8   9
ATOM      9  C   UNL     1       0.067  -1.193  -3.796  1.00  0.00     0.364 C 
ATOM     10  O   UNL     1       0.800  -1.935  -4.455  1.00  0.00    -0.245 OA
BRANCH   9  11
ATOM     11  C   UNL     1       0.413  -0.872  -2.326  1.00  0.00     0.293 C 
BRANCH  11  12
ATOM     12  C   UNL     1       0.099  -2.143  -1.523  1.00  0.00     0.074 C 
ATOM     13  C   UNL     1      -1.114  -2.021  -0.629  1.00  0.00     0.011 C 
ENDBRANCH  11  12
BRANCH  11  14
ATOM     14  N   UNL     1       0.272   0.413  -1.567  1.00  0.00    -0.325 N 
ATOM     15  H   UNL     1       1.173   0.877  -1.677  1.00  0.00     0.347 HD
ATOM     16  H   UNL     1      -0.084   0.033  -0.689  1.00  0.00     0.347 HD
BRANCH  14  17
ATOM     17  C   UNL     1      -0.718   1.477  -1.759  1.00  0.00     0.246 C 
ATOM     18  C   UNL     1      -0.785   2.497  -0.566  1.00  0.00     0.022 A 
ATOM     19  C   UNL     1      -0.401   2.394  -2.892  1.00  0.00     0.022 A 
ATOM     20  C   UNL     1      -1.028   2.028   0.743  1.00  0.00     0.011 A 
ATOM     21  C   UNL     1      -0.655   3.928  -0.834  1.00  0.00    -0.008 A 
ATOM     22  C   UNL     1      -0.371   4.224  -2.316  1.00  0.00    -0.008 A 
ATOM     23  C   UNL     1      -0.039   1.755  -4.669  1.00  0.00     0.011 A 
ATOM     24  C   UNL     1      -1.122   2.918   1.811  1.00  0.00     0.001 A 
ATOM     25  C   UNL     1      -0.754   4.762   0.290  1.00  0.00     0.009 A 
ATOM     26  C   UNL     1       0.190   5.671  -3.629  1.00  0.00     0.009 A 
ATOM     27  C   UNL     1       0.583   3.112  -5.957  1.00  0.00     0.001 A 
ATOM     28  C   UNL     1      -0.977   4.276   1.585  1.00  0.00     0.001 A 
ATOM     29  C   UNL     1       0.778   4.931  -5.340  1.00  0.00     0.001 A 
ENDBRANCH  14  17
ENDBRANCH  11  14
ENDBRANCH   9  11
ENDBRANCH   8   9
ENDBRANCH   7   8
ENDBRANCH   6   7
ENDBRANCH   5   6
ENDBRANCH   4   5
ENDBRANCH   3   4
ENDBRANCH   2   3
ENDBRANCH   1   2
BRANCH   1  30
ATOM     30  C   UNL     1      -0.798   4.307  -4.142  1.00  0.00     0.188 C 
BRANCH  30  31
ATOM     31  O   UNL     1       1.159   4.313  -3.275  1.00  0.00    -0.376 OA
BRANCH  31  32
ATOM     32  C   UNL     1       1.688   5.334  -2.023  1.00  0.00     0.202 C 
BRANCH  32  33
ATOM     33  C   UNL     1       0.812   6.731  -1.491  1.00  0.00     0.261 C 
BRANCH  33  34
ATOM     34  O   UNL     1      -0.760   6.736  -1.524  1.00  0.00    -0.460 OA
BRANCH  34  35
ATOM     35  C   UNL     1      -1.640   7.286  -2.431  1.00  0.00     0.338 C 
ATOM     36  O   UNL     1      -1.328   8.148  -3.244  1.00  0.00    -0.246 OA
BRANCH  35  37
ATOM     37  C   UNL     1      -3.019   6.596  -2.529  1.00  0.00     0.060 A 
ATOM     38  C   UNL     1      -3.563   6.260  -3.798  1.00  0.00     0.016 A 
ATOM     39  C   UNL     1      -3.835   6.342  -1.427  1.00  0.00     0.016 A 
ATOM     40  C   UNL     1      -4.880   5.748  -3.966  1.00  0.00     0.010 A 
ATOM     41  C   UNL     1      -5.176   5.883  -1.598  1.00  0.00     0.010 A 
ATOM     42  C   UNL     1      -5.739   5.628  -2.870  1.00  0.00    -0.014 A 
BRANCH  42  43
ATOM     43  C   UNL     1      -7.240   5.499  -3.050  1.00  0.00     0.031 A 
ATOM     44  C   UNL     1      -8.090   6.750  -2.884  1.00  0.00     0.074 A 
ATOM     45  C   UNL     1      -7.883   4.351  -3.365  1.00  0.00     0.049 A 
ATOM     46  N   UNL     1      -9.394   6.895  -2.893  1.00  0.00    -0.248 NA
ATOM     47  C   UNL     1      -7.356   8.008  -2.676  1.00  0.00     0.031 C 
ATOM     48  C   UNL     1      -7.243   3.068  -3.644  1.00  0.00     0.029 A 
ATOM     49  N   UNL     1      -9.235   4.074  -3.492  1.00  0.00    -0.354 N 
ATOM     50  C   UNL     1      -9.634   8.249  -2.661  1.00  0.00     0.074 A 
ATOM     51  C   UNL     1      -8.341   8.875  -2.493  1.00  0.00     0.031 C 
ATOM     52  C   UNL     1      -8.192   2.144  -3.890  1.00  0.00     0.029 A 
ATOM     53  C   UNL     1      -9.519   2.748  -3.746  1.00  0.00     0.049 A 
ATOM     54  H   UNL     1      -9.932   4.764  -3.408  1.00  0.00     0.167 HD
ATOM     55  C   UNL     1     -10.812   8.920  -2.590  1.00  0.00     0.031 A 
ATOM     56  C   UNL     1     -10.696   2.081  -3.827  1.00  0.00     0.031 A 
ATOM     57  C   UNL     1     -12.111   8.309  -2.741  1.00  0.00     0.049 A 
ATOM     58  C   UNL     1     -12.002   2.824  -3.641  1.00  0.00     0.074 A 
ATOM     59  C   UNL     1     -13.355   8.918  -2.701  1.00  0.00     0.029 A 
ATOM     60  N   UNL     1     -12.338   6.958  -2.944  1.00  0.00    -0.354 N 
ATOM     61  N   UNL     1     -12.202   4.104  -3.438  1.00  0.00    -0.248 NA
ATOM     62  C   UNL     1     -13.243   2.032  -3.703  1.00  0.00     0.031 C 
ATOM     63  C   UNL     1     -14.334   7.924  -2.785  1.00  0.00     0.029 A 
ATOM     64  C   UNL     1     -13.702   6.708  -2.985  1.00  0.00     0.049 A 
ATOM     65  H   UNL     1     -11.636   6.275  -3.044  1.00  0.00     0.167 HD
ATOM     66  C   UNL     1     -13.585   4.274  -3.391  1.00  0.00     0.074 A 
ATOM     67  C   UNL     1     -14.175   2.970  -3.601  1.00  0.00     0.031 C 
ATOM     68  C   UNL     1     -14.297   5.411  -3.196  1.00  0.00     0.031 A 
BRANCH  55  69
ATOM     69  C   UNL     1     -10.766  10.401  -2.281  1.00  0.00    -0.014 A 
ATOM     70  C   UNL     1     -10.227  11.332  -3.188  1.00  0.00     0.010 A 
ATOM     71  C   UNL     1     -11.325  10.874  -1.078  1.00  0.00     0.010 A 
ATOM     72  C   UNL     1     -10.207  12.696  -2.879  1.00  0.00     0.020 A 
ATOM     73  C   UNL     1     -11.345  12.241  -0.782  1.00  0.00     0.020 A 
ATOM     74  C   UNL     1     -10.770  13.142  -1.679  1.00  0.00     0.054 A 
BRANCH  74  75
ATOM     75  S   UNL     1     -10.756  14.920  -1.321  1.00  0.00     0.124 S 
ATOM     76  O   UNL     1      -9.329  15.184  -1.148  1.00  0.00    -0.237 OA
ATOM     77  O   UNL     1     -11.358  15.490  -2.523  1.00  0.00    -0.237 OA
ATOM     78  O   UNL     1     -11.560  15.039  -0.107  1.00  0.00    -0.744 OA
ENDBRANCH  74  75
ENDBRANCH  55  69
BRANCH  56  79
ATOM     79  C   UNL     1     -10.719   0.601  -4.065  1.00  0.00    -0.014 A 
ATOM     80  C   UNL     1     -11.299   0.058  -5.227  1.00  0.00     0.010 A 
ATOM     81  C   UNL     1     -10.188  -0.281  -3.104  1.00  0.00     0.010 A 
ATOM     82  C   UNL     1     -11.354  -1.328  -5.420  1.00  0.00     0.020 A 
ATOM     83  C   UNL     1     -10.204  -1.665  -3.311  1.00  0.00     0.020 A 
ATOM     84  C   UNL     1     -10.793  -2.181  -4.466  1.00  0.00     0.054 A 
BRANCH  84  85
ATOM     85  S   UNL     1     -10.806  -3.970  -4.775  1.00  0.00     0.124 S 
ATOM     86  O   UNL     1     -12.229  -4.286  -4.699  1.00  0.00    -0.237 OA
ATOM     87  O   UNL     1     -10.207  -4.059  -6.104  1.00  0.00    -0.237 OA
ATOM     88  O   UNL     1      -9.987  -4.511  -3.693  1.00  0.00    -0.744 OA
ENDBRANCH  84  85
ENDBRANCH  56  79
BRANCH  68  89
ATOM     89  C   UNL     1     -15.806   5.327  -3.255  1.00  0.00    -0.014 A 
ATOM     90  C   UNL     1     -16.552   4.636  -2.283  1.00  0.00     0.010 A 
ATOM     91  C   UNL     1     -16.494   6.007  -4.279  1.00  0.00     0.010 A 
ATOM     92  C   UNL     1     -17.949   4.597  -2.356  1.00  0.00     0.020 A 
ATOM     93  C   UNL     1     -17.890   6.006  -4.332  1.00  0.00     0.020 A 
ATOM     94  C   UNL     1     -18.610   5.288  -3.377  1.00  0.00     0.054 A 
BRANCH  94  95
ATOM     95  S   UNL     1     -20.423   5.260  -3.417  1.00  0.00     0.124 S 
ATOM     96  O   UNL     1     -20.701   3.862  -3.735  1.00  0.00    -0.237 OA
ATOM     97  O   UNL     1     -20.776   5.679  -2.063  1.00  0.00    -0.237 OA
ATOM     98  O   UNL     1     -20.763   6.216  -4.469  1.00  0.00    -0.744 OA
ENDBRANCH  94  95
ENDBRANCH  68  89
ENDBRANCH  42  43
ENDBRANCH  35  37
ENDBRANCH  34  35
ENDBRANCH  33  34
ENDBRANCH  32  33
ENDBRANCH  31  32
ENDBRANCH  30  31
ENDBRANCH   1  30
TORSDOF 26
