REMARK SMILES CCCCCCC(=O)Nc1ccc(Cl)c(C(=O)OCCOCCOCCOCCOC(=O)c2ccc(-c3c4nc(c(-c5ccc(S(=O)(=O)[O-])cc5)c5ccc([nH]5)c(-c5ccc(S(=O)(=O)[O-])cc5)c5nc(c(-c6ccc(S(=O)(=O)[O-])cc6)c6ccc3[nH]6)C=C5)C=C4)cc2)c1
REMARK SMILES IDX 22 1 21 2 20 3 19 4 18 5 16 6 17 7 15 8 10 9 11 10 93 11
REMARK SMILES IDX 12 12 13 13 14 14 9 15 7 16 8 17 6 19 5 20 4 21 3 22 2 23
REMARK SMILES IDX 1 24 23 25 24 26 25 27 26 28 27 29 28 30 29 31 30 32 31 33
REMARK SMILES IDX 32 34 33 35 34 36 92 37 35 38 91 39 36 40 37 41 38 42 85 43
REMARK SMILES IDX 39 44 90 45 84 46 86 47 40 48 89 49 83 50 82 51 41 53 71 54
REMARK SMILES IDX 52 55 70 56 53 57 56 58 69 59 87 60 54 61 55 62 68 64 88 65
REMARK SMILES IDX 57 66 42 67 43 68 51 69 44 70 50 71 45 72 46 73 47 74 48 75
REMARK SMILES IDX 49 76 72 77 73 78 81 79 74 80 80 81 75 82 76 83 77 84 78 85
REMARK SMILES IDX 79 86 58 87 59 88 67 89 60 90 66 91 61 92 62 93 63 94 64 95
REMARK SMILES IDX 65 96
REMARK H PARENT 9 18 86 52 56 63
REMARK Flexibility Score: inf
ROOT
ATOM      1  C   UNL     1       5.658   5.750  -0.761  1.00  0.00     0.188 C 
ENDROOT
BRANCH   1   2
ATOM      2  O   UNL     1       6.484   6.249   0.283  1.00  0.00    -0.376 OA
BRANCH   2   3
ATOM      3  C   UNL     1       6.692   5.482   1.470  1.00  0.00     0.202 C 
BRANCH   3   4
ATOM      4  C   UNL     1       5.520   4.781   2.179  1.00  0.00     0.261 C 
BRANCH   4   5
ATOM      5  O   UNL     1       4.760   3.946   1.299  1.00  0.00    -0.460 OA
BRANCH   5   6
ATOM      6  C   UNL     1       3.419   4.101   1.267  1.00  0.00     0.339 C 
ATOM      7  O   UNL     1       2.743   4.819   1.986  1.00  0.00    -0.246 OA
BRANCH   6   8
ATOM      8  C   UNL     1       2.914   3.505   0.007  1.00  0.00     0.080 A 
ATOM      9  C   UNL     1       1.687   3.909  -2.049  1.00  0.00     0.042 A 
ATOM     10  C   UNL     1       2.260   2.771  -2.612  1.00  0.00     0.028 A 
ATOM     11  C   UNL     1       2.030   4.301  -0.754  1.00  0.00     0.043 A 
ATOM     12  C   UNL     1       3.057   1.933  -1.830  1.00  0.00     0.023 A 
ATOM     13  C   UNL     1       3.370   2.281  -0.510  1.00  0.00     0.055 A 
ATOM     14  Cl  UNL     1       4.301   1.150   0.402  1.00  0.00    -0.083 Cl
BRANCH   9  15
ATOM     15  N   UNL     1       0.834   4.675  -2.846  1.00  0.00    -0.326 N 
ATOM     16  C   UNL     1      -0.534   4.635  -2.846  1.00  0.00     0.224 C 
ATOM     17  O   UNL     1      -1.131   5.118  -3.812  1.00  0.00    -0.275 OA
ATOM     18  H   UNL     1       1.260   5.306  -3.470  1.00  0.00     0.169 HD
BRANCH  16  19
ATOM     19  C   UNL     1      -1.300   3.997  -1.703  1.00  0.00     0.100 C 
BRANCH  19  20
ATOM     20  C   UNL     1      -1.692   2.531  -1.935  1.00  0.00     0.010 C 
BRANCH  20  21
ATOM     21  C   UNL     1      -0.763   1.442  -1.377  1.00  0.00     0.001 C 
BRANCH  21  22
ATOM     22  C   UNL     1      -0.316   1.677   0.068  1.00  0.00    -0.000 C 
BRANCH  22  23
ATOM     23  C   UNL     1      -0.301   0.445   0.966  1.00  0.00    -0.003 C 
ATOM     24  C   UNL     1       0.605  -0.675   0.486  1.00  0.00     0.004 C 
ENDBRANCH  22  23
ENDBRANCH  21  22
ENDBRANCH  20  21
ENDBRANCH  19  20
ENDBRANCH  16  19
ENDBRANCH   9  15
ENDBRANCH   6   8
ENDBRANCH   5   6
ENDBRANCH   4   5
ENDBRANCH   3   4
ENDBRANCH   2   3
ENDBRANCH   1   2
BRANCH   1  25
ATOM     25  C   UNL     1       5.951   4.388  -1.412  1.00  0.00     0.188 C 
BRANCH  25  26
ATOM     26  O   UNL     1       6.670   3.489  -0.597  1.00  0.00    -0.377 OA
BRANCH  26  27
ATOM     27  C   UNL     1       8.074   3.383  -0.814  1.00  0.00     0.188 C 
BRANCH  27  28
ATOM     28  C   UNL     1       8.845   4.620  -1.318  1.00  0.00     0.188 C 
BRANCH  28  29
ATOM     29  O   UNL     1       8.286   5.247  -2.468  1.00  0.00    -0.376 OA
BRANCH  29  30
ATOM     30  C   UNL     1       8.806   4.897  -3.745  1.00  0.00     0.202 C 
BRANCH  30  31
ATOM     31  C   UNL     1       8.535   3.463  -4.231  1.00  0.00     0.261 C 
BRANCH  31  32
ATOM     32  O   UNL     1       9.168   2.422  -3.470  1.00  0.00    -0.460 OA
BRANCH  32  33
ATOM     33  C   UNL     1      10.512   2.477  -3.353  1.00  0.00     0.338 C 
ATOM     34  O   UNL     1      11.265   3.261  -3.900  1.00  0.00    -0.246 OA
BRANCH  33  35
ATOM     35  C   UNL     1      10.915   1.545  -2.282  1.00  0.00     0.060 A 
ATOM     36  C   UNL     1      11.611   2.059  -1.182  1.00  0.00     0.016 A 
ATOM     37  C   UNL     1      10.632   0.180  -2.371  1.00  0.00     0.016 A 
ATOM     38  C   UNL     1      12.069   1.198  -0.187  1.00  0.00     0.010 A 
ATOM     39  C   UNL     1      11.107  -0.684  -1.381  1.00  0.00     0.010 A 
ATOM     40  C   UNL     1      11.861  -0.183  -0.305  1.00  0.00    -0.014 A 
BRANCH  40  41
ATOM     41  C   UNL     1      12.588  -1.098   0.607  1.00  0.00     0.031 A 
ATOM     42  C   UNL     1      13.877  -1.715   0.133  1.00  0.00     0.074 A 
ATOM     43  C   UNL     1      12.147  -1.324   1.857  1.00  0.00     0.049 A 
ATOM     44  N   UNL     1      14.709  -2.491   0.776  1.00  0.00    -0.248 NA
ATOM     45  C   UNL     1      14.282  -1.412  -1.250  1.00  0.00     0.031 C 
ATOM     46  C   UNL     1      10.934  -0.755   2.443  1.00  0.00     0.029 A 
ATOM     47  N   UNL     1      12.682  -2.088   2.863  1.00  0.00    -0.354 N 
ATOM     48  C   UNL     1      15.737  -2.767  -0.118  1.00  0.00     0.074 A 
ATOM     49  C   UNL     1      15.405  -2.106  -1.361  1.00  0.00     0.031 C 
ATOM     50  C   UNL     1      10.820  -1.188   3.712  1.00  0.00     0.029 A 
ATOM     51  C   UNL     1      11.937  -2.081   4.017  1.00  0.00     0.049 A 
ATOM     52  H   UNL     1      13.522  -2.594   2.768  1.00  0.00     0.167 HD
ATOM     53  C   UNL     1      16.861  -3.497   0.079  1.00  0.00     0.031 A 
ATOM     54  C   UNL     1      12.129  -2.728   5.184  1.00  0.00     0.031 A 
ATOM     55  C   UNL     1      17.178  -4.172   1.309  1.00  0.00     0.049 A 
ATOM     56  C   UNL     1      13.352  -3.592   5.355  1.00  0.00     0.074 A 
ATOM     57  C   UNL     1      18.298  -4.928   1.611  1.00  0.00     0.029 A 
ATOM     58  N   UNL     1      16.372  -4.185   2.437  1.00  0.00    -0.354 N 
ATOM     59  N   UNL     1      14.332  -3.815   4.510  1.00  0.00    -0.248 NA
ATOM     60  C   UNL     1      13.500  -4.281   6.644  1.00  0.00     0.031 C 
ATOM     61  C   UNL     1      18.139  -5.449   2.900  1.00  0.00     0.029 A 
ATOM     62  C   UNL     1      16.953  -4.962   3.426  1.00  0.00     0.049 A 
ATOM     63  H   UNL     1      15.512  -3.712   2.522  1.00  0.00     0.167 HD
ATOM     64  C   UNL     1      15.224  -4.651   5.176  1.00  0.00     0.074 A 
ATOM     65  C   UNL     1      14.678  -4.872   6.500  1.00  0.00     0.031 C 
ATOM     66  C   UNL     1      16.389  -5.188   4.733  1.00  0.00     0.031 A 
BRANCH  53  67
ATOM     67  C   UNL     1      17.813  -3.630  -1.081  1.00  0.00    -0.014 A 
ATOM     68  C   UNL     1      18.585  -2.540  -1.522  1.00  0.00     0.010 A 
ATOM     69  C   UNL     1      17.964  -4.876  -1.716  1.00  0.00     0.010 A 
ATOM     70  C   UNL     1      19.462  -2.684  -2.601  1.00  0.00     0.020 A 
ATOM     71  C   UNL     1      18.861  -5.032  -2.777  1.00  0.00     0.020 A 
ATOM     72  C   UNL     1      19.594  -3.930  -3.222  1.00  0.00     0.054 A 
BRANCH  72  73
ATOM     73  S   UNL     1      20.758  -4.096  -4.603  1.00  0.00     0.124 S 
ATOM     74  O   UNL     1      20.074  -3.360  -5.664  1.00  0.00    -0.237 OA
ATOM     75  O   UNL     1      21.966  -3.463  -4.079  1.00  0.00    -0.237 OA
ATOM     76  O   UNL     1      20.852  -5.539  -4.807  1.00  0.00    -0.744 OA
ENDBRANCH  72  73
ENDBRANCH  53  67
BRANCH  54  77
ATOM     77  C   UNL     1      11.132  -2.597   6.283  1.00  0.00    -0.014 A 
ATOM     78  C   UNL     1      11.457  -1.931   7.478  1.00  0.00     0.010 A 
ATOM     79  C   UNL     1       9.846  -3.151   6.139  1.00  0.00     0.010 A 
ATOM     80  C   UNL     1      10.522  -1.839   8.514  1.00  0.00     0.020 A 
ATOM     81  C   UNL     1       8.900  -3.035   7.160  1.00  0.00     0.020 A 
ATOM     82  C   UNL     1       9.248  -2.389   8.347  1.00  0.00     0.054 A 
BRANCH  82  83
ATOM     83  S   UNL     1       8.036  -2.214   9.686  1.00  0.00     0.124 S 
ATOM     84  O   UNL     1       8.548  -3.146  10.684  1.00  0.00    -0.237 OA
ATOM     85  O   UNL     1       8.146  -0.797  10.025  1.00  0.00    -0.237 OA
ATOM     86  O   UNL     1       6.774  -2.599   9.057  1.00  0.00    -0.744 OA
ENDBRANCH  82  83
ENDBRANCH  54  77
BRANCH  66  87
ATOM     87  C   UNL     1      17.162  -6.049   5.700  1.00  0.00    -0.014 A 
ATOM     88  C   UNL     1      16.686  -7.313   6.096  1.00  0.00     0.010 A 
ATOM     89  C   UNL     1      18.393  -5.594   6.207  1.00  0.00     0.010 A 
ATOM     90  C   UNL     1      17.398  -8.078   7.025  1.00  0.00     0.020 A 
ATOM     91  C   UNL     1      19.124  -6.370   7.110  1.00  0.00     0.020 A 
ATOM     92  C   UNL     1      18.610  -7.598   7.531  1.00  0.00     0.054 A 
BRANCH  92  93
ATOM     93  S   UNL     1      19.516  -8.609   8.734  1.00  0.00     0.124 S 
ATOM     94  O   UNL     1      18.712  -8.436   9.941  1.00  0.00    -0.237 OA
ATOM     95  O   UNL     1      19.471  -9.940   8.134  1.00  0.00    -0.237 OA
ATOM     96  O   UNL     1      20.841  -7.995   8.774  1.00  0.00    -0.744 OA
ENDBRANCH  92  93
ENDBRANCH  66  87
ENDBRANCH  40  41
ENDBRANCH  33  35
ENDBRANCH  32  33
ENDBRANCH  31  32
ENDBRANCH  30  31
ENDBRANCH  29  30
ENDBRANCH  28  29
ENDBRANCH  27  28
ENDBRANCH  26  27
ENDBRANCH  25  26
ENDBRANCH   1  25
TORSDOF 29
