REMARK SMILES C[C@@H](C(=O)OCCOCCOCCOCCOC(=O)c1ccc(-c2c3nc(c(-c4ccc(S(=O)(=O)[O-])cc4)c4ccc([nH]4)c(-c4ccc(S(=O)(=O)[O-])cc4)c4nc(c(-c5ccc(S(=O)(=O)[O-])cc5)c5ccc2[nH]5)C=C4)C=C3)cc1)c1ccccc1-c1ccn(C(F)F)c(=O)c1
REMARK SMILES IDX 11 1 10 2 9 3 8 4 7 5 6 6 5 7 3 8 4 9 2 10 1 11 80 12 81 13
REMARK SMILES IDX 85 14 82 15 84 16 83 17 86 18 87 19 95 20 88 21 93 22 89 23
REMARK SMILES IDX 94 24 90 25 91 26 92 27 12 28 13 29 14 30 15 31 16 32 17 33
REMARK SMILES IDX 18 34 19 35 20 36 21 37 79 38 22 39 78 40 23 41 24 42 25 43
REMARK SMILES IDX 72 44 26 45 77 46 71 47 73 48 27 49 76 50 70 51 69 52 28 54
REMARK SMILES IDX 58 55 39 56 57 57 40 58 43 59 56 60 74 61 41 62 42 63 55 65
REMARK SMILES IDX 75 66 44 67 29 68 30 69 38 70 31 71 37 72 32 73 33 74 34 75
REMARK SMILES IDX 35 76 36 77 59 78 60 79 68 80 61 81 67 82 62 83 63 84 64 85
REMARK SMILES IDX 65 86 66 87 45 88 46 89 54 90 47 91 53 92 48 93 49 94 50 95
REMARK SMILES IDX 51 96 52 97
REMARK H PARENT 73 53 43 64
REMARK Flexibility Score: inf
ROOT
ATOM      1  O   UNL     1       2.175   1.529  -2.410  1.00  0.00    -0.377 OA
ENDROOT
BRANCH   1   2
ATOM      2  C   UNL     1       0.763   1.493  -2.407  1.00  0.00     0.188 C 
BRANCH   2   3
ATOM      3  C   UNL     1       0.069   2.865  -2.346  1.00  0.00     0.188 C 
BRANCH   3   4
ATOM      4  O   UNL     1       0.732   4.015  -2.840  1.00  0.00    -0.376 OA
BRANCH   4   5
ATOM      5  C   UNL     1       1.920   4.507  -2.231  1.00  0.00     0.202 C 
BRANCH   5   6
ATOM      6  C   UNL     1       2.347   4.210  -0.781  1.00  0.00     0.261 C 
BRANCH   6   7
ATOM      7  O   UNL     1       1.888   2.963  -0.256  1.00  0.00    -0.463 OA
BRANCH   7   8
ATOM      8  C   UNL     1       1.207   2.965   0.914  1.00  0.00     0.313 C 
ATOM      9  O   UNL     1       0.989   3.970   1.582  1.00  0.00    -0.252 OA
BRANCH   8  10
ATOM     10  C   UNL     1       0.666   1.565   1.277  1.00  0.00     0.127 C 
ATOM     11  C   UNL     1       1.716   0.505   0.889  1.00  0.00     0.025 C 
BRANCH  10  12
ATOM     12  C   UNL     1      -0.842   1.350   0.956  1.00  0.00    -0.026 A 
ATOM     13  C   UNL     1      -1.676   2.502   0.976  1.00  0.00     0.005 A 
ATOM     14  C   UNL     1      -1.504   0.110   0.744  1.00  0.00    -0.014 A 
ATOM     15  C   UNL     1      -3.063   2.449   0.805  1.00  0.00     0.000 A 
ATOM     16  C   UNL     1      -2.920   0.073   0.632  1.00  0.00     0.009 A 
ATOM     17  C   UNL     1      -3.692   1.229   0.657  1.00  0.00     0.001 A 
BRANCH  14  18
ATOM     18  C   UNL     1      -0.848  -1.203   0.549  1.00  0.00    -0.011 A 
ATOM     19  C   UNL     1      -0.116  -1.913   1.576  1.00  0.00     0.027 A 
ATOM     20  C   UNL     1      -0.942  -1.754  -0.677  1.00  0.00     0.080 A 
ATOM     21  C   UNL     1       0.632  -2.977   1.254  1.00  0.00     0.095 A 
ATOM     22  C   UNL     1      -0.220  -3.008  -1.015  1.00  0.00     0.255 A 
ATOM     23  N   UNL     1       0.632  -3.484  -0.033  1.00  0.00    -0.258 N 
ATOM     24  O   UNL     1      -0.394  -3.504  -2.124  1.00  0.00    -0.269 OA
BRANCH  23  25
ATOM     25  C   UNL     1       1.504  -4.570  -0.397  1.00  0.00     0.451 C 
ATOM     26  F   UNL     1       0.799  -5.708  -0.605  1.00  0.00    -0.185 F 
ATOM     27  F   UNL     1       2.188  -4.288  -1.533  1.00  0.00    -0.185 F 
ENDBRANCH  23  25
ENDBRANCH  14  18
ENDBRANCH  10  12
ENDBRANCH   8  10
ENDBRANCH   7   8
ENDBRANCH   6   7
ENDBRANCH   5   6
ENDBRANCH   4   5
ENDBRANCH   3   4
ENDBRANCH   2   3
ENDBRANCH   1   2
BRANCH   1  28
ATOM     28  C   UNL     1       2.848   1.645  -3.658  1.00  0.00     0.188 C 
BRANCH  28  29
ATOM     29  C   UNL     1       2.101   2.164  -4.906  1.00  0.00     0.188 C 
BRANCH  29  30
ATOM     30  O   UNL     1       0.781   1.666  -5.068  1.00  0.00    -0.376 OA
BRANCH  30  31
ATOM     31  C   UNL     1       0.575   0.549  -5.921  1.00  0.00     0.202 C 
BRANCH  31  32
ATOM     32  C   UNL     1       1.240  -0.781  -5.532  1.00  0.00     0.261 C 
BRANCH  32  33
ATOM     33  O   UNL     1       2.674  -0.775  -5.449  1.00  0.00    -0.460 OA
BRANCH  33  34
ATOM     34  C   UNL     1       3.371  -0.401  -6.541  1.00  0.00     0.338 C 
ATOM     35  O   UNL     1       2.922  -0.108  -7.638  1.00  0.00    -0.246 OA
BRANCH  34  36
ATOM     36  C   UNL     1       4.776  -0.202  -6.131  1.00  0.00     0.060 A 
ATOM     37  C   UNL     1       5.356   1.064  -6.288  1.00  0.00     0.016 A 
ATOM     38  C   UNL     1       5.516  -1.259  -5.597  1.00  0.00     0.016 A 
ATOM     39  C   UNL     1       6.695   1.265  -5.951  1.00  0.00     0.010 A 
ATOM     40  C   UNL     1       6.863  -1.061  -5.281  1.00  0.00     0.010 A 
ATOM     41  C   UNL     1       7.468   0.191  -5.493  1.00  0.00    -0.014 A 
BRANCH  41  42
ATOM     42  C   UNL     1       8.945   0.321  -5.432  1.00  0.00     0.031 A 
ATOM     43  C   UNL     1       9.755  -0.228  -6.577  1.00  0.00     0.074 A 
ATOM     44  C   UNL     1       9.557   0.931  -4.402  1.00  0.00     0.049 A 
ATOM     45  N   UNL     1      11.053  -0.280  -6.726  1.00  0.00    -0.248 NA
ATOM     46  C   UNL     1       8.996  -0.797  -7.704  1.00  0.00     0.031 C 
ATOM     47  C   UNL     1       8.884   1.549  -3.261  1.00  0.00     0.029 A 
ATOM     48  N   UNL     1      10.894   1.122  -4.149  1.00  0.00    -0.354 N 
ATOM     49  C   UNL     1      11.267  -0.894  -7.955  1.00  0.00     0.074 A 
ATOM     50  C   UNL     1       9.967  -1.226  -8.496  1.00  0.00     0.031 C 
ATOM     51  C   UNL     1       9.814   2.041  -2.422  1.00  0.00     0.029 A 
ATOM     52  C   UNL     1      11.145   1.738  -2.946  1.00  0.00     0.049 A 
ATOM     53  H   UNL     1      11.605   0.845  -4.771  1.00  0.00     0.167 HD
ATOM     54  C   UNL     1      12.439  -1.153  -8.582  1.00  0.00     0.031 A 
ATOM     55  C   UNL     1      12.314   2.002  -2.327  1.00  0.00     0.031 A 
ATOM     56  C   UNL     1      13.730  -0.839  -8.031  1.00  0.00     0.049 A 
ATOM     57  C   UNL     1      13.609   1.625  -3.003  1.00  0.00     0.074 A 
ATOM     58  C   UNL     1      14.978  -1.058  -8.589  1.00  0.00     0.029 A 
ATOM     59  N   UNL     1      13.942  -0.249  -6.794  1.00  0.00    -0.354 N 
ATOM     60  N   UNL     1      13.796   1.061  -4.173  1.00  0.00    -0.248 NA
ATOM     61  C   UNL     1      14.851   1.929  -2.278  1.00  0.00     0.031 C 
ATOM     62  C   UNL     1      15.945  -0.660  -7.661  1.00  0.00     0.029 A 
ATOM     63  C   UNL     1      15.301  -0.122  -6.558  1.00  0.00     0.049 A 
ATOM     64  H   UNL     1      13.232   0.037  -6.176  1.00  0.00     0.167 HD
ATOM     65  C   UNL     1      15.176   0.973  -4.337  1.00  0.00     0.074 A 
ATOM     66  C   UNL     1      15.774   1.554  -3.153  1.00  0.00     0.031 C 
ATOM     67  C   UNL     1      15.884   0.460  -5.375  1.00  0.00     0.031 A 
BRANCH  54  68
ATOM     68  C   UNL     1      12.376  -1.844  -9.919  1.00  0.00    -0.014 A 
ATOM     69  C   UNL     1      11.876  -1.189 -11.059  1.00  0.00     0.010 A 
ATOM     70  C   UNL     1      12.859  -3.160 -10.044  1.00  0.00     0.010 A 
ATOM     71  C   UNL     1      11.826  -1.849 -12.290  1.00  0.00     0.020 A 
ATOM     72  C   UNL     1      12.840  -3.812 -11.280  1.00  0.00     0.020 A 
ATOM     73  C   UNL     1      12.309  -3.157 -12.393  1.00  0.00     0.054 A 
BRANCH  73  74
ATOM     74  S   UNL     1      12.259  -3.978 -14.009  1.00  0.00     0.124 S 
ATOM     75  O   UNL     1      10.826  -4.197 -14.191  1.00  0.00    -0.237 OA
ATOM     76  O   UNL     1      12.857  -2.979 -14.892  1.00  0.00    -0.237 OA
ATOM     77  O   UNL     1      13.053  -5.187 -13.811  1.00  0.00    -0.744 OA
ENDBRANCH  73  74
ENDBRANCH  54  68
BRANCH  55  78
ATOM     78  C   UNL     1      12.316   2.631  -0.975  1.00  0.00    -0.014 A 
ATOM     79  C   UNL     1      12.819   3.929  -0.781  1.00  0.00     0.010 A 
ATOM     80  C   UNL     1      11.819   1.920   0.134  1.00  0.00     0.010 A 
ATOM     81  C   UNL     1      12.839   4.499   0.496  1.00  0.00     0.020 A 
ATOM     82  C   UNL     1      11.807   2.498   1.406  1.00  0.00     0.020 A 
ATOM     83  C   UNL     1      12.327   3.781   1.581  1.00  0.00     0.054 A 
BRANCH  83  84
ATOM     84  S   UNL     1      12.313   4.561   3.220  1.00  0.00     0.124 S 
ATOM     85  O   UNL     1      13.731   4.569   3.566  1.00  0.00    -0.237 OA
ATOM     86  O   UNL     1      11.722   5.867   2.939  1.00  0.00    -0.237 OA
ATOM     87  O   UNL     1      11.479   3.666   4.018  1.00  0.00    -0.744 OA
ENDBRANCH  83  84
ENDBRANCH  55  78
BRANCH  67  88
ATOM     88  C   UNL     1      17.389   0.541  -5.305  1.00  0.00    -0.014 A 
ATOM     89  C   UNL     1      18.128  -0.245  -4.404  1.00  0.00     0.010 A 
ATOM     90  C   UNL     1      18.077   1.376  -6.206  1.00  0.00     0.010 A 
ATOM     91  C   UNL     1      19.524  -0.172  -4.381  1.00  0.00     0.020 A 
ATOM     92  C   UNL     1      19.473   1.428  -6.209  1.00  0.00     0.020 A 
ATOM     93  C   UNL     1      20.188   0.663  -5.286  1.00  0.00     0.054 A 
BRANCH  93  94
ATOM     94  S   UNL     1      22.001   0.707  -5.264  1.00  0.00     0.124 S 
ATOM     95  O   UNL     1      22.274   1.417  -4.018  1.00  0.00    -0.237 OA
ATOM     96  O   UNL     1      22.354  -0.711  -5.270  1.00  0.00    -0.237 OA
ATOM     97  O   UNL     1      22.346   1.435  -6.483  1.00  0.00    -0.744 OA
ENDBRANCH  93  94
ENDBRANCH  67  88
ENDBRANCH  41  42
ENDBRANCH  34  36
ENDBRANCH  33  34
ENDBRANCH  32  33
ENDBRANCH  31  32
ENDBRANCH  30  31
ENDBRANCH  29  30
ENDBRANCH  28  29
ENDBRANCH   1  28
TORSDOF 26
