REMARK SMILES Cc1cc2c(c(C)c1Br)C=C(C(=O)OCCOCCOCCOCCOC(=O)c1ccc(-c3c4nc(c(-c5ccc(S(=O)(=O)[O-])cc5)c5ccc([nH]5)c(-c5ccc(S(=O)(=O)[O-])cc5)c5nc(c(-c6ccc(S(=O)(=O)[O-])cc6)c6ccc3[nH]6)C=C5)C=C4)cc1)[C@@H](C(F)(F)F)O2
REMARK SMILES IDX 21 1 20 2 19 3 18 4 17 5 16 6 15 7 14 8 12 9 13 10 11 11
REMARK SMILES IDX 1 12 2 13 3 14 8 15 4 16 6 17 9 18 5 19 94 20 7 21 10 22
REMARK SMILES IDX 89 23 90 24 91 25 92 26 93 27 22 28 23 29 24 30 25 31 26 32
REMARK SMILES IDX 27 33 28 34 29 35 30 36 88 37 31 38 87 39 32 40 33 41 34 42
REMARK SMILES IDX 81 43 35 44 86 45 80 46 82 47 36 48 85 49 79 50 78 51 37 53
REMARK SMILES IDX 67 54 48 55 66 56 49 57 52 58 65 59 83 60 50 61 51 62 64 64
REMARK SMILES IDX 84 65 53 66 38 67 39 68 47 69 40 70 46 71 41 72 42 73 43 74
REMARK SMILES IDX 44 75 45 76 68 77 69 78 77 79 70 80 76 81 71 82 72 83 73 84
REMARK SMILES IDX 74 85 75 86 54 87 55 88 63 89 56 90 62 91 57 92 58 93 59 94
REMARK SMILES IDX 60 95 61 96
REMARK H PARENT 82 52 52 63
REMARK Flexibility Score: inf
ROOT
ATOM      1  C   UNL     1       0.628  -2.892   9.985  1.00  0.00     0.188 C 
ENDROOT
BRANCH   1   2
ATOM      2  O   UNL     1       0.165  -2.641   8.656  1.00  0.00    -0.377 OA
BRANCH   2   3
ATOM      3  C   UNL     1       0.282  -1.327   8.139  1.00  0.00     0.188 C 
BRANCH   3   4
ATOM      4  C   UNL     1      -0.776  -0.350   8.685  1.00  0.00     0.188 C 
BRANCH   4   5
ATOM      5  O   UNL     1      -1.420  -0.828   9.857  1.00  0.00    -0.376 OA
BRANCH   5   6
ATOM      6  C   UNL     1      -2.699  -1.434   9.752  1.00  0.00     0.202 C 
BRANCH   6   7
ATOM      7  C   UNL     1      -2.940  -2.618   8.799  1.00  0.00     0.261 C 
BRANCH   7   8
ATOM      8  O   UNL     1      -2.366  -2.510   7.492  1.00  0.00    -0.460 OA
BRANCH   8   9
ATOM      9  C   UNL     1      -2.921  -1.643   6.627  1.00  0.00     0.338 C 
ATOM     10  O   UNL     1      -3.894  -0.937   6.819  1.00  0.00    -0.246 OA
BRANCH   9  11
ATOM     11  C   UNL     1      -2.022  -1.547   5.453  1.00  0.00     0.087 C 
ATOM     12  C   UNL     1       1.123  -0.031   0.019  1.00  0.00     0.046 C 
ATOM     13  C   UNL     1       0.504  -0.022   1.392  1.00  0.00    -0.033 A 
ATOM     14  C   UNL     1       0.252  -1.256   2.002  1.00  0.00     0.051 A 
ATOM     15  C   UNL     1       0.190   1.159   2.094  1.00  0.00     0.024 A 
ATOM     16  C   UNL     1      -0.418  -1.329   3.220  1.00  0.00     0.128 A 
ATOM     17  C   UNL     1      -0.475   1.105   3.345  1.00  0.00    -0.026 A 
ATOM     18  Br  UNL     1       0.665   2.840   1.308  1.00  0.00    -0.050 Br
ATOM     19  C   UNL     1      -0.842  -0.164   3.865  1.00  0.00     0.021 A 
ATOM     20  O   UNL     1      -0.622  -2.595   3.686  1.00  0.00    -0.475 OA
ATOM     21  C   UNL     1      -0.790   2.345   4.151  1.00  0.00     0.046 C 
ATOM     22  C   UNL     1      -1.718  -0.315   5.026  1.00  0.00     0.027 C 
ATOM     23  C   UNL     1      -1.440  -2.804   4.867  1.00  0.00     0.316 C 
BRANCH  23  24
ATOM     24  C   UNL     1      -2.515  -3.840   4.510  1.00  0.00     0.430 C 
ATOM     25  F   UNL     1      -1.967  -4.931   3.923  1.00  0.00    -0.167 F 
ATOM     26  F   UNL     1      -3.189  -4.272   5.598  1.00  0.00    -0.167 F 
ATOM     27  F   UNL     1      -3.424  -3.329   3.646  1.00  0.00    -0.167 F 
ENDBRANCH  23  24
ENDBRANCH   9  11
ENDBRANCH   8   9
ENDBRANCH   7   8
ENDBRANCH   6   7
ENDBRANCH   5   6
ENDBRANCH   4   5
ENDBRANCH   3   4
ENDBRANCH   2   3
ENDBRANCH   1   2
BRANCH   1  28
ATOM     28  C   UNL     1       0.966  -1.753  10.979  1.00  0.00     0.188 C 
BRANCH  28  29
ATOM     29  O   UNL     1       1.592  -0.619  10.390  1.00  0.00    -0.376 OA
BRANCH  29  30
ATOM     30  C   UNL     1       2.973  -0.429  10.654  1.00  0.00     0.202 C 
BRANCH  30  31
ATOM     31  C   UNL     1       3.909  -1.407   9.934  1.00  0.00     0.261 C 
BRANCH  31  32
ATOM     32  O   UNL     1       3.716  -2.794  10.249  1.00  0.00    -0.460 OA
BRANCH  32  33
ATOM     33  C   UNL     1       3.890  -3.168  11.536  1.00  0.00     0.338 C 
ATOM     34  O   UNL     1       4.240  -2.463  12.466  1.00  0.00    -0.246 OA
BRANCH  33  35
ATOM     35  C   UNL     1       3.382  -4.549  11.666  1.00  0.00     0.060 A 
ATOM     36  C   UNL     1       2.337  -4.808  12.562  1.00  0.00     0.016 A 
ATOM     37  C   UNL     1       3.920  -5.575  10.886  1.00  0.00     0.016 A 
ATOM     38  C   UNL     1       1.848  -6.106  12.702  1.00  0.00     0.010 A 
ATOM     39  C   UNL     1       3.446  -6.879  11.045  1.00  0.00     0.010 A 
ATOM     40  C   UNL     1       2.431  -7.155  11.977  1.00  0.00    -0.014 A 
BRANCH  40  41
ATOM     41  C   UNL     1       2.141  -8.556  12.366  1.00  0.00     0.031 A 
ATOM     42  C   UNL     1       3.070  -9.219  13.347  1.00  0.00     0.074 A 
ATOM     43  C   UNL     1       1.062  -9.211  11.902  1.00  0.00     0.049 A 
ATOM     44  N   UNL     1       3.016 -10.421  13.855  1.00  0.00    -0.248 NA
ATOM     45  C   UNL     1       4.208  -8.413  13.823  1.00  0.00     0.031 C 
ATOM     46  C   UNL     1       0.061  -8.660  10.989  1.00  0.00     0.029 A 
ATOM     47  N   UNL     1       0.625 -10.489  12.149  1.00  0.00    -0.354 N 
ATOM     48  C   UNL     1       4.104 -10.512  14.716  1.00  0.00     0.074 A 
ATOM     49  C   UNL     1       4.824  -9.262  14.631  1.00  0.00     0.031 C 
ATOM     50  C   UNL     1      -0.879  -9.595  10.760  1.00  0.00     0.029 A 
ATOM     51  C   UNL     1      -0.533 -10.818  11.485  1.00  0.00     0.049 A 
ATOM     52  H   UNL     1       1.097 -11.113  12.748  1.00  0.00     0.167 HD
ATOM     53  C   UNL     1       4.463 -11.539  15.520  1.00  0.00     0.031 A 
ATOM     54  C   UNL     1      -1.226 -11.975  11.459  1.00  0.00     0.031 A 
ATOM     55  C   UNL     1       3.761 -12.790  15.588  1.00  0.00     0.049 A 
ATOM     56  C   UNL     1      -0.741 -13.146  12.277  1.00  0.00     0.074 A 
ATOM     57  C   UNL     1       4.049 -13.893  16.372  1.00  0.00     0.029 A 
ATOM     58  N   UNL     1       2.639 -13.108  14.840  1.00  0.00    -0.354 N 
ATOM     59  N   UNL     1       0.273 -13.208  13.108  1.00  0.00    -0.248 NA
ATOM     60  C   UNL     1      -1.494 -14.404  12.154  1.00  0.00     0.031 C 
ATOM     61  C   UNL     1       3.137 -14.902  16.051  1.00  0.00     0.029 A 
ATOM     62  C   UNL     1       2.243 -14.405  15.115  1.00  0.00     0.049 A 
ATOM     63  H   UNL     1       2.191 -12.502  14.206  1.00  0.00     0.167 HD
ATOM     64  C   UNL     1       0.268 -14.502  13.620  1.00  0.00     0.074 A 
ATOM     65  C   UNL     1      -0.858 -15.186  13.018  1.00  0.00     0.031 C 
ATOM     66  C   UNL     1       1.120 -15.073  14.507  1.00  0.00     0.031 A 
BRANCH  53  67
ATOM     67  C   UNL     1       5.686 -11.354  16.376  1.00  0.00    -0.014 A 
ATOM     68  C   UNL     1       5.665 -10.492  17.487  1.00  0.00     0.010 A 
ATOM     69  C   UNL     1       6.854 -12.084  16.094  1.00  0.00     0.010 A 
ATOM     70  C   UNL     1       6.802 -10.341  18.285  1.00  0.00     0.020 A 
ATOM     71  C   UNL     1       7.985 -11.956  16.905  1.00  0.00     0.020 A 
ATOM     72  C   UNL     1       7.954 -11.076  17.989  1.00  0.00     0.054 A 
BRANCH  72  73
ATOM     73  S   UNL     1       9.403 -10.881  19.062  1.00  0.00     0.124 S 
ATOM     74  O   UNL     1       9.826  -9.518  18.753  1.00  0.00    -0.237 OA
ATOM     75  O   UNL     1       8.839 -11.076  20.395  1.00  0.00    -0.237 OA
ATOM     76  O   UNL     1      10.313 -11.932  18.613  1.00  0.00    -0.744 OA
ENDBRANCH  72  73
ENDBRANCH  53  67
BRANCH  54  77
ATOM     77  C   UNL     1      -2.455 -12.089  10.625  1.00  0.00    -0.014 A 
ATOM     78  C   UNL     1      -3.720 -12.211  11.227  1.00  0.00     0.010 A 
ATOM     79  C   UNL     1      -2.368 -12.075   9.220  1.00  0.00     0.010 A 
ATOM     80  C   UNL     1      -4.872 -12.321  10.442  1.00  0.00     0.020 A 
ATOM     81  C   UNL     1      -3.520 -12.158   8.431  1.00  0.00     0.020 A 
ATOM     82  C   UNL     1      -4.766 -12.287   9.048  1.00  0.00     0.054 A 
BRANCH  82  83
ATOM     83  S   UNL     1      -6.282 -12.372   8.055  1.00  0.00     0.124 S 
ATOM     84  O   UNL     1      -6.721 -13.745   8.285  1.00  0.00    -0.237 OA
ATOM     85  O   UNL     1      -7.111 -11.334   8.662  1.00  0.00    -0.237 OA
ATOM     86  O   UNL     1      -5.822 -12.081   6.700  1.00  0.00    -0.744 OA
ENDBRANCH  82  83
ENDBRANCH  54  77
BRANCH  66  87
ATOM     87  C   UNL     1       0.882 -16.508  14.897  1.00  0.00    -0.014 A 
ATOM     88  C   UNL     1       1.187 -17.556  14.011  1.00  0.00     0.010 A 
ATOM     89  C   UNL     1       0.467 -16.816  16.206  1.00  0.00     0.010 A 
ATOM     90  C   UNL     1       1.078 -18.886  14.426  1.00  0.00     0.020 A 
ATOM     91  C   UNL     1       0.382 -18.144  16.633  1.00  0.00     0.020 A 
ATOM     92  C   UNL     1       0.686 -19.171  15.738  1.00  0.00     0.054 A 
BRANCH  92  93
ATOM     93  S   UNL     1       0.639 -20.904  16.273  1.00  0.00     0.124 S 
ATOM     94  O   UNL     1      -0.494 -21.427  15.515  1.00  0.00    -0.237 OA
ATOM     95  O   UNL     1       1.951 -21.399  15.862  1.00  0.00    -0.237 OA
ATOM     96  O   UNL     1       0.435 -20.818  17.717  1.00  0.00    -0.744 OA
ENDBRANCH  92  93
ENDBRANCH  66  87
ENDBRANCH  40  41
ENDBRANCH  33  35
ENDBRANCH  32  33
ENDBRANCH  31  32
ENDBRANCH  30  31
ENDBRANCH  29  30
ENDBRANCH  28  29
ENDBRANCH   1  28
TORSDOF 24
