REMARK SMILES CCc1cc(C)c2c(c1)C=C(C(=O)OCCOCCOCCOCCOC(=O)c1ccc(-c3c4nc(c(-c5ccc(S(=O)(=O)[O-])cc5)c5ccc([nH]5)c(-c5ccc(S(=O)(=O)[O-])cc5)c5nc(c(-c6ccc(S(=O)(=O)[O-])cc6)c6ccc3[nH]6)C=C5)C=C4)cc1)[C@@H](C(F)(F)F)O2
REMARK SMILES IDX 21 1 20 2 19 3 18 4 17 5 16 6 15 7 14 8 12 9 13 10 11 11
REMARK SMILES IDX 3 12 4 13 9 14 5 15 8 16 6 17 7 18 10 19 94 20 89 21 2 22
REMARK SMILES IDX 1 23 90 24 91 25 92 26 93 27 22 28 23 29 24 30 25 31 26 32
REMARK SMILES IDX 27 33 28 34 29 35 30 36 88 37 31 38 87 39 32 40 33 41 34 42
REMARK SMILES IDX 81 43 35 44 86 45 80 46 82 47 36 48 85 49 79 50 78 51 37 53
REMARK SMILES IDX 67 54 48 55 66 56 49 57 52 58 65 59 83 60 50 61 51 62 64 64
REMARK SMILES IDX 84 65 53 66 38 67 39 68 47 69 40 70 46 71 41 72 42 73 43 74
REMARK SMILES IDX 44 75 45 76 68 77 69 78 77 79 70 80 76 81 71 82 72 83 73 84
REMARK SMILES IDX 74 85 75 86 54 87 55 88 63 89 56 90 62 91 57 92 58 93 59 94
REMARK SMILES IDX 60 95 61 96
REMARK H PARENT 82 52 52 63
REMARK Flexibility Score: inf
ROOT
ATOM      1  C   UNL     1       4.627  -6.201  -6.879  1.00  0.00     0.188 C 
ENDROOT
BRANCH   1   2
ATOM      2  O   UNL     1       3.734  -5.107  -6.663  1.00  0.00    -0.377 OA
BRANCH   2   3
ATOM      3  C   UNL     1       3.400  -4.777  -5.326  1.00  0.00     0.188 C 
BRANCH   3   4
ATOM      4  C   UNL     1       2.259  -5.643  -4.758  1.00  0.00     0.188 C 
BRANCH   4   5
ATOM      5  O   UNL     1       2.061  -6.866  -5.440  1.00  0.00    -0.376 OA
BRANCH   5   6
ATOM      6  C   UNL     1       1.223  -6.969  -6.581  1.00  0.00     0.202 C 
BRANCH   6   7
ATOM      7  C   UNL     1       0.955  -5.851  -7.609  1.00  0.00     0.261 C 
BRANCH   7   8
ATOM      8  O   UNL     1       1.156  -4.503  -7.192  1.00  0.00    -0.460 OA
BRANCH   8   9
ATOM      9  C   UNL     1       0.175  -3.919  -6.485  1.00  0.00     0.338 C 
ATOM     10  O   UNL     1      -0.893  -4.411  -6.167  1.00  0.00    -0.246 OA
BRANCH   9  11
ATOM     11  C   UNL     1       0.696  -2.629  -5.983  1.00  0.00     0.087 C 
ATOM     12  C   UNL     1       1.005   0.514  -2.348  1.00  0.00    -0.047 A 
ATOM     13  C   UNL     1       1.597   1.439  -3.221  1.00  0.00     0.011 A 
ATOM     14  C   UNL     1       0.693  -0.760  -2.836  1.00  0.00     0.015 A 
ATOM     15  C   UNL     1       1.898   1.097  -4.550  1.00  0.00    -0.008 A 
ATOM     16  C   UNL     1       0.960  -1.103  -4.166  1.00  0.00     0.018 A 
ATOM     17  C   UNL     1       2.491   2.122  -5.477  1.00  0.00     0.048 C 
ATOM     18  C   UNL     1       1.594  -0.192  -5.011  1.00  0.00     0.130 A 
ATOM     19  C   UNL     1       0.486  -2.370  -4.688  1.00  0.00     0.027 C 
ATOM     20  O   UNL     1       1.923  -0.479  -6.306  1.00  0.00    -0.475 OA
ATOM     21  C   UNL     1       1.479  -1.729  -6.903  1.00  0.00     0.316 C 
BRANCH  12  22
ATOM     22  C   UNL     1       0.604   0.927  -0.953  1.00  0.00     0.032 C 
ATOM     23  C   UNL     1       1.114   0.004   0.146  1.00  0.00     0.009 C 
ENDBRANCH  12  22
BRANCH  21  24
ATOM     24  C   UNL     1       0.698  -1.395  -8.180  1.00  0.00     0.430 C 
ATOM     25  F   UNL     1       1.375  -0.518  -8.958  1.00  0.00    -0.167 F 
ATOM     26  F   UNL     1       0.465  -2.494  -8.932  1.00  0.00    -0.167 F 
ATOM     27  F   UNL     1      -0.504  -0.840  -7.894  1.00  0.00    -0.167 F 
ENDBRANCH  21  24
ENDBRANCH   9  11
ENDBRANCH   8   9
ENDBRANCH   7   8
ENDBRANCH   6   7
ENDBRANCH   5   6
ENDBRANCH   4   5
ENDBRANCH   3   4
ENDBRANCH   2   3
ENDBRANCH   1   2
BRANCH   1  28
ATOM     28  C   UNL     1       4.817  -7.317  -5.822  1.00  0.00     0.188 C 
BRANCH  28  29
ATOM     29  O   UNL     1       4.872  -6.850  -4.481  1.00  0.00    -0.376 OA
BRANCH  29  30
ATOM     30  C   UNL     1       6.130  -6.829  -3.830  1.00  0.00     0.202 C 
BRANCH  30  31
ATOM     31  C   UNL     1       7.154  -5.814  -4.354  1.00  0.00     0.261 C 
BRANCH  31  32
ATOM     32  O   UNL     1       7.467  -5.896  -5.750  1.00  0.00    -0.460 OA
BRANCH  32  33
ATOM     33  C   UNL     1       8.057  -7.026  -6.194  1.00  0.00     0.338 C 
ATOM     34  O   UNL     1       8.377  -7.999  -5.533  1.00  0.00    -0.246 OA
BRANCH  33  35
ATOM     35  C   UNL     1       8.088  -6.949  -7.668  1.00  0.00     0.060 A 
ATOM     36  C   UNL     1       7.320  -7.845  -8.423  1.00  0.00     0.016 A 
ATOM     37  C   UNL     1       8.867  -5.975  -8.296  1.00  0.00     0.016 A 
ATOM     38  C   UNL     1       7.346  -7.782  -9.816  1.00  0.00     0.010 A 
ATOM     39  C   UNL     1       8.923  -5.938  -9.690  1.00  0.00     0.010 A 
ATOM     40  C   UNL     1       8.188  -6.861 -10.453  1.00  0.00    -0.014 A 
BRANCH  40  41
ATOM     41  C   UNL     1       8.492  -7.020 -11.893  1.00  0.00     0.031 A 
ATOM     42  C   UNL     1       9.665  -7.884 -12.266  1.00  0.00     0.074 A 
ATOM     43  C   UNL     1       7.754  -6.423 -12.844  1.00  0.00     0.049 A 
ATOM     44  N   UNL     1      10.171  -8.125 -13.446  1.00  0.00    -0.248 NA
ATOM     45  C   UNL     1      10.360  -8.569 -11.160  1.00  0.00     0.031 C 
ATOM     46  C   UNL     1       6.562  -5.610 -12.610  1.00  0.00     0.029 A 
ATOM     47  N   UNL     1       7.912  -6.407 -14.208  1.00  0.00    -0.354 N 
ATOM     48  C   UNL     1      11.241  -8.982 -13.225  1.00  0.00     0.074 A 
ATOM     49  C   UNL     1      11.325  -9.210 -11.801  1.00  0.00     0.031 C 
ATOM     50  C   UNL     1       6.102  -5.163 -13.793  1.00  0.00     0.029 A 
ATOM     51  C   UNL     1       6.986  -5.629 -14.861  1.00  0.00     0.049 A 
ATOM     52  H   UNL     1       8.621  -6.905 -14.674  1.00  0.00     0.167 HD
ATOM     53  C   UNL     1      12.081  -9.530 -14.130  1.00  0.00     0.031 A 
ATOM     54  C   UNL     1       6.880  -5.311 -16.168  1.00  0.00     0.031 A 
ATOM     55  C   UNL     1      12.007  -9.290 -15.544  1.00  0.00     0.049 A 
ATOM     56  C   UNL     1       7.879  -5.866 -17.150  1.00  0.00     0.074 A 
ATOM     57  C   UNL     1      12.812  -9.809 -16.541  1.00  0.00     0.029 A 
ATOM     58  N   UNL     1      11.085  -8.459 -16.158  1.00  0.00    -0.354 N 
ATOM     59  N   UNL     1       8.887  -6.676 -16.928  1.00  0.00    -0.248 NA
ATOM     60  C   UNL     1       7.730  -5.465 -18.557  1.00  0.00     0.031 C 
ATOM     61  C   UNL     1      12.412  -9.246 -17.755  1.00  0.00     0.029 A 
ATOM     62  C   UNL     1      11.318  -8.428 -17.520  1.00  0.00     0.049 A 
ATOM     63  H   UNL     1      10.371  -7.964 -15.694  1.00  0.00     0.167 HD
ATOM     64  C   UNL     1       9.477  -6.899 -18.168  1.00  0.00     0.074 A 
ATOM     65  C   UNL     1       8.713  -6.143 -19.138  1.00  0.00     0.031 C 
ATOM     66  C   UNL     1      10.551  -7.668 -18.473  1.00  0.00     0.031 A 
BRANCH  53  67
ATOM     67  C   UNL     1      13.175 -10.425 -13.624  1.00  0.00    -0.014 A 
ATOM     68  C   UNL     1      12.899 -11.739 -13.209  1.00  0.00     0.010 A 
ATOM     69  C   UNL     1      14.507  -9.974 -13.651  1.00  0.00     0.010 A 
ATOM     70  C   UNL     1      13.940 -12.588 -12.828  1.00  0.00     0.020 A 
ATOM     71  C   UNL     1      15.552 -10.827 -13.291  1.00  0.00     0.020 A 
ATOM     72  C   UNL     1      15.261 -12.130 -12.883  1.00  0.00     0.054 A 
BRANCH  72  73
ATOM     73  S   UNL     1      16.592 -13.277 -12.436  1.00  0.00     0.124 S 
ATOM     74  O   UNL     1      16.247 -13.625 -11.059  1.00  0.00    -0.237 OA
ATOM     75  O   UNL     1      16.425 -14.347 -13.415  1.00  0.00    -0.237 OA
ATOM     76  O   UNL     1      17.806 -12.478 -12.585  1.00  0.00    -0.744 OA
ENDBRANCH  72  73
ENDBRANCH  53  67
BRANCH  54  77
ATOM     77  C   UNL     1       5.789  -4.404 -16.615  1.00  0.00    -0.014 A 
ATOM     78  C   UNL     1       4.691  -4.905 -17.334  1.00  0.00     0.010 A 
ATOM     79  C   UNL     1       5.825  -3.035 -16.287  1.00  0.00     0.010 A 
ATOM     80  C   UNL     1       3.644  -4.056 -17.710  1.00  0.00     0.020 A 
ATOM     81  C   UNL     1       4.771  -2.189 -16.642  1.00  0.00     0.020 A 
ATOM     82  C   UNL     1       3.685  -2.706 -17.348  1.00  0.00     0.054 A 
BRANCH  82  83
ATOM     83  S   UNL     1       2.282  -1.645 -17.793  1.00  0.00     0.124 S 
ATOM     84  O   UNL     1       2.257  -1.758 -19.248  1.00  0.00    -0.237 OA
ATOM     85  O   UNL     1       1.176  -2.289 -17.089  1.00  0.00    -0.237 OA
ATOM     86  O   UNL     1       2.665  -0.333 -17.276  1.00  0.00    -0.744 OA
ENDBRANCH  82  83
ENDBRANCH  54  77
BRANCH  66  87
ATOM     87  C   UNL     1      10.970  -7.768 -19.915  1.00  0.00    -0.014 A 
ATOM     88  C   UNL     1      11.672  -6.723 -20.539  1.00  0.00     0.010 A 
ATOM     89  C   UNL     1      10.775  -8.978 -20.608  1.00  0.00     0.010 A 
ATOM     90  C   UNL     1      12.166  -6.885 -21.836  1.00  0.00     0.020 A 
ATOM     91  C   UNL     1      11.288  -9.151 -21.895  1.00  0.00     0.020 A 
ATOM     92  C   UNL     1      11.981  -8.102 -22.502  1.00  0.00     0.054 A 
BRANCH  92  93
ATOM     93  S   UNL     1      12.684  -8.299 -24.162  1.00  0.00     0.124 S 
ATOM     94  O   UNL     1      12.011  -7.239 -24.909  1.00  0.00    -0.237 OA
ATOM     95  O   UNL     1      14.110  -8.093 -23.925  1.00  0.00    -0.237 OA
ATOM     96  O   UNL     1      12.307  -9.659 -24.542  1.00  0.00    -0.744 OA
ENDBRANCH  92  93
ENDBRANCH  66  87
ENDBRANCH  40  41
ENDBRANCH  33  35
ENDBRANCH  32  33
ENDBRANCH  31  32
ENDBRANCH  30  31
ENDBRANCH  29  30
ENDBRANCH  28  29
ENDBRANCH   1  28
TORSDOF 25
