REMARK SMILES CN1C(=O)C[C@@H](C(=O)OCCOCCOCCOCCOC(=O)c2ccc(-c3c4nc(c(-c5ccc(S(=O)(=O)[O-])cc5)c5ccc([nH]5)c(-c5ccc(S(=O)(=O)[O-])cc5)c5nc(c(-c6ccc(S(=O)(=O)[O-])cc6)c6ccc3[nH]6)C=C5)C=C4)cc2)C12CCN(C(=O)c1ccccc1-n1cccn1)CC2
REMARK SMILES IDX 16 1 15 2 14 3 13 4 12 5 11 6 10 7 9 8 7 9 8 10 6 11 1 12
REMARK SMILES IDX 2 13 3 14 84 15 4 16 5 17 85 18 102 19 86 20 101 21 87 22
REMARK SMILES IDX 88 23 89 24 90 25 91 26 95 27 92 28 94 29 93 30 96 31 97 32
REMARK SMILES IDX 100 33 98 34 99 35 17 36 18 37 19 38 20 39 21 40 22 41 23 42
REMARK SMILES IDX 24 43 25 44 83 45 26 46 82 47 27 48 28 49 29 50 76 51 30 52
REMARK SMILES IDX 81 53 75 54 77 55 31 56 80 57 74 58 73 59 32 61 62 62 43 63
REMARK SMILES IDX 61 64 44 65 47 66 60 67 78 68 45 69 46 70 59 72 79 73 48 74
REMARK SMILES IDX 33 75 34 76 42 77 35 78 41 79 36 80 37 81 38 82 39 83 40 84
REMARK SMILES IDX 63 85 64 86 72 87 65 88 71 89 66 90 67 91 68 92 69 93 70 94
REMARK SMILES IDX 49 95 50 96 58 97 51 98 57 99 52 100 53 101 54 102 55 103
REMARK SMILES IDX 56 104
REMARK H PARENT 77 60 47 71
REMARK Flexibility Score: inf
ROOT
ATOM      1  C   UNL     1       4.247  -0.807  -5.218  1.00  0.00     0.188 C 
ENDROOT
BRANCH   1   2
ATOM      2  O   UNL     1       2.960  -1.407  -5.088  1.00  0.00    -0.377 OA
BRANCH   2   3
ATOM      3  C   UNL     1       2.614  -2.561  -5.827  1.00  0.00     0.188 C 
BRANCH   3   4
ATOM      4  C   UNL     1       1.782  -2.328  -7.084  1.00  0.00     0.188 C 
BRANCH   4   5
ATOM      5  O   UNL     1       1.889  -1.078  -7.730  1.00  0.00    -0.376 OA
BRANCH   5   6
ATOM      6  C   UNL     1       1.524   0.108  -7.023  1.00  0.00     0.202 C 
BRANCH   6   7
ATOM      7  C   UNL     1       0.311   0.141  -6.070  1.00  0.00     0.261 C 
BRANCH   7   8
ATOM      8  O   UNL     1       0.502  -0.430  -4.740  1.00  0.00    -0.463 OA
BRANCH   8   9
ATOM      9  C   UNL     1      -0.212  -1.543  -4.473  1.00  0.00     0.311 C 
ATOM     10  O   UNL     1      -0.888  -2.132  -5.319  1.00  0.00    -0.252 OA
BRANCH   9  11
ATOM     11  C   UNL     1      -0.302  -2.022  -3.031  1.00  0.00     0.134 C 
ATOM     12  C   UNL     1       0.660   0.250  -0.191  1.00  0.00     0.147 C 
ATOM     13  N   UNL     1       0.046  -0.546  -1.241  1.00  0.00    -0.339 N 
ATOM     14  C   UNL     1      -1.286  -0.383  -1.585  1.00  0.00     0.223 C 
ATOM     15  C   UNL     1       0.652  -1.756  -1.831  1.00  0.00     0.060 C 
ATOM     16  O   UNL     1      -2.061   0.447  -1.141  1.00  0.00    -0.275 OA
ATOM     17  C   UNL     1      -1.661  -1.475  -2.543  1.00  0.00     0.118 C 
ATOM     18  C   UNL     1       2.157  -1.575  -2.095  1.00  0.00     0.051 C 
ATOM     19  C   UNL     1       0.492  -2.923  -0.795  1.00  0.00     0.051 C 
ATOM     20  C   UNL     1       2.967  -2.854  -2.325  1.00  0.00     0.122 C 
ATOM     21  C   UNL     1       1.283  -4.181  -1.141  1.00  0.00     0.122 C 
ATOM     22  N   UNL     1       2.696  -3.891  -1.337  1.00  0.00    -0.338 N 
ATOM     23  C   UNL     1       3.629  -4.789  -0.805  1.00  0.00     0.256 C 
ATOM     24  O   UNL     1       3.298  -5.774  -0.143  1.00  0.00    -0.269 OA
BRANCH  23  25
ATOM     25  C   UNL     1       5.088  -4.636  -1.030  1.00  0.00     0.065 A 
ATOM     26  C   UNL     1       5.710  -5.704  -1.707  1.00  0.00     0.016 A 
ATOM     27  C   UNL     1       5.877  -3.567  -0.583  1.00  0.00     0.077 A 
ATOM     28  C   UNL     1       7.091  -5.714  -1.924  1.00  0.00     0.001 A 
ATOM     29  C   UNL     1       7.266  -3.576  -0.822  1.00  0.00     0.029 A 
ATOM     30  C   UNL     1       7.871  -4.659  -1.463  1.00  0.00     0.002 A 
BRANCH  27  31
ATOM     31  N   UNL     1       5.344  -2.447   0.093  1.00  0.00    -0.240 N 
ATOM     32  C   UNL     1       4.304  -2.391   0.992  1.00  0.00     0.115 A 
ATOM     33  N   UNL     1       5.848  -1.210  -0.157  1.00  0.00    -0.177 NA
ATOM     34  C   UNL     1       4.068  -1.061   1.248  1.00  0.00     0.042 A 
ATOM     35  C   UNL     1       5.029  -0.379   0.488  1.00  0.00     0.135 A 
ENDBRANCH  27  31
ENDBRANCH  23  25
ENDBRANCH   9  11
ENDBRANCH   8   9
ENDBRANCH   7   8
ENDBRANCH   6   7
ENDBRANCH   5   6
ENDBRANCH   4   5
ENDBRANCH   3   4
ENDBRANCH   2   3
ENDBRANCH   1   2
BRANCH   1  36
ATOM     36  C   UNL     1       5.202  -1.315  -6.301  1.00  0.00     0.188 C 
BRANCH  36  37
ATOM     37  O   UNL     1       5.598  -2.687  -6.201  1.00  0.00    -0.376 OA
BRANCH  37  38
ATOM     38  C   UNL     1       5.940  -3.170  -4.901  1.00  0.00     0.202 C 
BRANCH  38  39
ATOM     39  C   UNL     1       7.253  -2.612  -4.379  1.00  0.00     0.261 C 
BRANCH  39  40
ATOM     40  O   UNL     1       7.065  -1.270  -3.915  1.00  0.00    -0.460 OA
BRANCH  40  41
ATOM     41  C   UNL     1       8.070  -0.435  -4.229  1.00  0.00     0.338 C 
ATOM     42  O   UNL     1       9.132  -0.720  -4.773  1.00  0.00    -0.246 OA
BRANCH  41  43
ATOM     43  C   UNL     1       7.643   0.944  -3.993  1.00  0.00     0.060 A 
ATOM     44  C   UNL     1       7.518   1.771  -5.112  1.00  0.00     0.016 A 
ATOM     45  C   UNL     1       7.503   1.448  -2.697  1.00  0.00     0.016 A 
ATOM     46  C   UNL     1       7.343   3.136  -4.937  1.00  0.00     0.010 A 
ATOM     47  C   UNL     1       7.333   2.824  -2.523  1.00  0.00     0.010 A 
ATOM     48  C   UNL     1       7.314   3.674  -3.643  1.00  0.00    -0.014 A 
BRANCH  48  49
ATOM     49  C   UNL     1       7.489   5.137  -3.499  1.00  0.00     0.031 A 
ATOM     50  C   UNL     1       8.875   5.671  -3.252  1.00  0.00     0.074 A 
ATOM     51  C   UNL     1       6.453   5.969  -3.702  1.00  0.00     0.049 A 
ATOM     52  N   UNL     1       9.286   6.911  -3.199  1.00  0.00    -0.248 NA
ATOM     53  C   UNL     1       9.941   4.675  -3.049  1.00  0.00     0.031 C 
ATOM     54  C   UNL     1       5.084   5.554  -4.003  1.00  0.00     0.029 A 
ATOM     55  N   UNL     1       6.401   7.338  -3.707  1.00  0.00    -0.354 N 
ATOM     56  C   UNL     1      10.655   6.844  -2.963  1.00  0.00     0.074 A 
ATOM     57  C   UNL     1      11.000   5.445  -2.846  1.00  0.00     0.031 C 
ATOM     58  C   UNL     1       4.325   6.650  -4.175  1.00  0.00     0.029 A 
ATOM     59  C   UNL     1       5.149   7.839  -3.972  1.00  0.00     0.049 A 
ATOM     60  H   UNL     1       7.185   7.909  -3.537  1.00  0.00     0.167 HD
ATOM     61  C   UNL     1      11.546   7.858  -2.862  1.00  0.00     0.031 A 
ATOM     62  C   UNL     1       4.721   9.115  -4.036  1.00  0.00     0.031 A 
ATOM     63  C   UNL     1      11.188   9.246  -2.962  1.00  0.00     0.049 A 
ATOM     64  C   UNL     1       5.717  10.227  -3.842  1.00  0.00     0.074 A 
ATOM     65  C   UNL     1      12.008  10.357  -2.875  1.00  0.00     0.029 A 
ATOM     66  N   UNL     1       9.897   9.714  -3.162  1.00  0.00    -0.354 N 
ATOM     67  N   UNL     1       7.012  10.147  -3.644  1.00  0.00    -0.248 NA
ATOM     68  C   UNL     1       5.197  11.600  -3.889  1.00  0.00     0.031 C 
ATOM     69  C   UNL     1      11.204  11.498  -2.964  1.00  0.00     0.029 A 
ATOM     70  C   UNL     1       9.892  11.098  -3.169  1.00  0.00     0.049 A 
ATOM     71  H   UNL     1       9.102   9.146  -3.281  1.00  0.00     0.167 HD
ATOM     72  C   UNL     1       7.465  11.460  -3.563  1.00  0.00     0.074 A 
ATOM     73  C   UNL     1       6.308  12.312  -3.752  1.00  0.00     0.031 C 
ATOM     74  C   UNL     1       8.723  11.921  -3.351  1.00  0.00     0.031 A 
BRANCH  61  75
ATOM     75  C   UNL     1      12.983   7.497  -2.591  1.00  0.00    -0.014 A 
ATOM     76  C   UNL     1      13.785   6.895  -3.577  1.00  0.00     0.010 A 
ATOM     77  C   UNL     1      13.546   7.785  -1.334  1.00  0.00     0.010 A 
ATOM     78  C   UNL     1      15.112   6.553  -3.299  1.00  0.00     0.020 A 
ATOM     79  C   UNL     1      14.879   7.468  -1.060  1.00  0.00     0.020 A 
ATOM     80  C   UNL     1      15.650   6.838  -2.040  1.00  0.00     0.054 A 
BRANCH  80  81
ATOM     81  S   UNL     1      17.378   6.398  -1.709  1.00  0.00     0.124 S 
ATOM     82  O   UNL     1      17.303   4.943  -1.601  1.00  0.00    -0.237 OA
ATOM     83  O   UNL     1      18.070   6.904  -2.892  1.00  0.00    -0.237 OA
ATOM     84  O   UNL     1      17.684   7.099  -0.465  1.00  0.00    -0.744 OA
ENDBRANCH  80  81
ENDBRANCH  61  75
BRANCH  62  85
ATOM     85  C   UNL     1       3.280   9.402  -4.279  1.00  0.00    -0.014 A 
ATOM     86  C   UNL     1       2.850   9.989  -5.481  1.00  0.00     0.010 A 
ATOM     87  C   UNL     1       2.324   9.074  -3.299  1.00  0.00     0.010 A 
ATOM     88  C   UNL     1       1.493  10.255  -5.693  1.00  0.00     0.020 A 
ATOM     89  C   UNL     1       0.965   9.313  -3.518  1.00  0.00     0.020 A 
ATOM     90  C   UNL     1       0.559   9.913  -4.710  1.00  0.00     0.054 A 
BRANCH  90  91
ATOM     91  S   UNL     1      -1.201  10.219  -5.028  1.00  0.00     0.124 S 
ATOM     92  O   UNL     1      -1.283  11.671  -4.902  1.00  0.00    -0.237 OA
ATOM     93  O   UNL     1      -1.373   9.690  -6.379  1.00  0.00    -0.237 OA
ATOM     94  O   UNL     1      -1.875   9.459  -3.978  1.00  0.00    -0.744 OA
ENDBRANCH  90  91
ENDBRANCH  62  85
BRANCH  74  95
ATOM     95  C   UNL     1       8.917  13.414  -3.331  1.00  0.00    -0.014 A 
ATOM     96  C   UNL     1       8.473  14.188  -2.245  1.00  0.00     0.010 A 
ATOM     97  C   UNL     1       9.609  14.039  -4.384  1.00  0.00     0.010 A 
ATOM     98  C   UNL     1       8.693  15.567  -2.226  1.00  0.00     0.020 A 
ATOM     99  C   UNL     1       9.856  15.413  -4.356  1.00  0.00     0.020 A 
ATOM    100  C   UNL     1       9.384  16.171  -3.282  1.00  0.00     0.054 A 
BRANCH 100 101
ATOM    101  S   UNL     1       9.699  17.955  -3.211  1.00  0.00     0.124 S 
ATOM    102  O   UNL     1       8.379  18.508  -3.502  1.00  0.00    -0.237 OA
ATOM    103  O   UNL     1      10.172  18.144  -1.842  1.00  0.00    -0.237 OA
ATOM    104  O   UNL     1      10.707  18.171  -4.247  1.00  0.00    -0.744 OA
ENDBRANCH 100 101
ENDBRANCH  74  95
ENDBRANCH  48  49
ENDBRANCH  41  43
ENDBRANCH  40  41
ENDBRANCH  39  40
ENDBRANCH  38  39
ENDBRANCH  37  38
ENDBRANCH  36  37
ENDBRANCH   1  36
TORSDOF 25
