REMARK SMILES COC(=O)C[C@H](c1ccc(C(=O)OCCOCCOCCOCCOC(=O)c2ccc(-c3c4nc(c(-c5ccc(S(=O)(=O)[O-])cc5)c5ccc([nH]5)c(-c5ccc(S(=O)(=O)[O-])cc5)c5nc(c(-c6ccc(S(=O)(=O)[O-])cc6)c6ccc3[nH]6)C=C5)C=C4)cc2)cc1)c1c(O)n[nH]c1C
REMARK SMILES IDX 18 1 17 2 16 3 15 4 14 5 13 6 11 7 12 8 10 9 7 10 8 11 89 12
REMARK SMILES IDX 9 13 88 14 6 15 5 16 3 17 4 18 2 19 1 20 90 21 91 22 95 23
REMARK SMILES IDX 93 24 94 25 96 26 92 28 19 30 20 31 21 32 22 33 23 34 24 35
REMARK SMILES IDX 25 36 26 37 27 38 28 39 29 40 87 41 30 42 86 43 31 44 32 45
REMARK SMILES IDX 33 46 80 47 34 48 85 49 79 50 81 51 35 52 84 53 78 54 77 55
REMARK SMILES IDX 36 57 66 58 47 59 65 60 48 61 51 62 64 63 82 64 49 65 50 66
REMARK SMILES IDX 63 68 83 69 52 70 37 71 38 72 46 73 39 74 45 75 40 76 41 77
REMARK SMILES IDX 42 78 43 79 44 80 67 81 68 82 76 83 69 84 75 85 70 86 71 87
REMARK SMILES IDX 72 88 73 89 74 90 53 91 54 92 62 93 55 94 61 95 56 96 57 97
REMARK SMILES IDX 58 98 59 99 60 100
REMARK H PARENT 94 27 92 29 81 56 51 67
REMARK Flexibility Score: inf
ROOT
ATOM      1  C   UNL     1      -1.029   2.773   6.016  1.00  0.00     0.188 C 
ENDROOT
BRANCH   1   2
ATOM      2  C   UNL     1      -2.267   1.859   5.902  1.00  0.00     0.188 C 
BRANCH   2   3
ATOM      3  O   UNL     1      -2.344   0.860   6.905  1.00  0.00    -0.376 OA
BRANCH   3   4
ATOM      4  C   UNL     1      -2.102  -0.492   6.558  1.00  0.00     0.202 C 
BRANCH   4   5
ATOM      5  C   UNL     1      -0.746  -0.885   5.948  1.00  0.00     0.261 C 
BRANCH   5   6
ATOM      6  O   UNL     1      -0.235   0.007   4.953  1.00  0.00    -0.460 OA
BRANCH   6   7
ATOM      7  C   UNL     1      -0.826  -0.051   3.743  1.00  0.00     0.338 C 
ATOM      8  O   UNL     1      -1.702  -0.825   3.398  1.00  0.00    -0.246 OA
BRANCH   7   9
ATOM      9  C   UNL     1      -0.410   1.135   2.957  1.00  0.00     0.060 A 
ATOM     10  C   UNL     1       0.268   3.307   1.305  1.00  0.00    -0.040 A 
ATOM     11  C   UNL     1      -1.060   2.858   1.394  1.00  0.00     0.005 A 
ATOM     12  C   UNL     1       1.229   2.724   2.156  1.00  0.00     0.005 A 
ATOM     13  C   UNL     1      -1.394   1.775   2.201  1.00  0.00     0.016 A 
ATOM     14  C   UNL     1       0.894   1.639   2.976  1.00  0.00     0.016 A 
BRANCH  10  15
ATOM     15  C   UNL     1       0.734   4.151   0.120  1.00  0.00     0.068 C 
BRANCH  15  16
ATOM     16  C   UNL     1       0.251   3.606  -1.237  1.00  0.00     0.136 C 
BRANCH  16  17
ATOM     17  C   UNL     1       0.232   2.095  -1.311  1.00  0.00     0.306 C 
ATOM     18  O   UNL     1      -0.743   1.455  -1.690  1.00  0.00    -0.252 OA
BRANCH  17  19
ATOM     19  O   UNL     1       1.412   1.551  -0.909  1.00  0.00    -0.469 OA
ATOM     20  C   UNL     1       1.348   0.138  -0.693  1.00  0.00     0.282 C 
ENDBRANCH  17  19
ENDBRANCH  16  17
ENDBRANCH  15  16
BRANCH  15  21
ATOM     21  C   UNL     1       0.352   5.594   0.333  1.00  0.00     0.044 A 
ATOM     22  C   UNL     1      -0.899   6.196   0.571  1.00  0.00     0.234 A 
ATOM     23  C   UNL     1       1.181   6.706   0.197  1.00  0.00     0.040 A 
ATOM     24  N   UNL     1      -0.893   7.518   0.630  1.00  0.00    -0.137 NA
ATOM     25  N   UNL     1       0.398   7.811   0.420  1.00  0.00    -0.279 N 
ATOM     26  C   UNL     1       2.615   6.837  -0.151  1.00  0.00     0.066 C 
ATOM     27  H   UNL     1       0.751   8.730   0.426  1.00  0.00     0.190 HD
BRANCH  22  28
ATOM     28  O   UNL     1      -2.111   5.665   0.689  1.00  0.00    -0.492 OA
ATOM     29  H   UNL     1      -2.220   4.735   0.660  1.00  0.00     0.295 HD
ENDBRANCH  22  28
ENDBRANCH  15  21
ENDBRANCH  10  15
ENDBRANCH   7   9
ENDBRANCH   6   7
ENDBRANCH   5   6
ENDBRANCH   4   5
ENDBRANCH   3   4
ENDBRANCH   2   3
ENDBRANCH   1   2
BRANCH   1  30
ATOM     30  O   UNL     1       0.047   2.358   6.842  1.00  0.00    -0.377 OA
BRANCH  30  31
ATOM     31  C   UNL     1      -0.199   1.973   8.193  1.00  0.00     0.188 C 
BRANCH  31  32
ATOM     32  C   UNL     1      -1.468   2.421   8.960  1.00  0.00     0.188 C 
BRANCH  32  33
ATOM     33  O   UNL     1      -2.237   3.421   8.313  1.00  0.00    -0.376 OA
BRANCH  33  34
ATOM     34  C   UNL     1      -2.193   4.731   8.846  1.00  0.00     0.202 C 
BRANCH  34  35
ATOM     35  C   UNL     1      -0.836   5.448   8.824  1.00  0.00     0.261 C 
BRANCH  35  36
ATOM     36  O   UNL     1       0.262   4.750   9.428  1.00  0.00    -0.460 OA
BRANCH  36  37
ATOM     37  C   UNL     1       0.197   4.526  10.762  1.00  0.00     0.338 C 
ATOM     38  O   UNL     1      -0.693   4.853  11.518  1.00  0.00    -0.246 OA
BRANCH  37  39
ATOM     39  C   UNL     1       1.329   3.638  11.112  1.00  0.00     0.060 A 
ATOM     40  C   UNL     1       1.067   2.374  11.656  1.00  0.00     0.016 A 
ATOM     41  C   UNL     1       2.642   4.054  10.882  1.00  0.00     0.016 A 
ATOM     42  C   UNL     1       2.126   1.533  12.005  1.00  0.00     0.010 A 
ATOM     43  C   UNL     1       3.699   3.220  11.251  1.00  0.00     0.010 A 
ATOM     44  C   UNL     1       3.447   1.970  11.845  1.00  0.00    -0.014 A 
BRANCH  44  45
ATOM     45  C   UNL     1       4.560   1.221  12.476  1.00  0.00     0.031 A 
ATOM     46  C   UNL     1       5.084   1.710  13.800  1.00  0.00     0.074 A 
ATOM     47  C   UNL     1       5.096   0.132  11.895  1.00  0.00     0.049 A 
ATOM     48  N   UNL     1       6.085   1.265  14.512  1.00  0.00    -0.248 NA
ATOM     49  C   UNL     1       4.383   2.860  14.396  1.00  0.00     0.031 C 
ATOM     50  C   UNL     1       4.647  -0.467  10.639  1.00  0.00     0.029 A 
ATOM     51  N   UNL     1       6.147  -0.659  12.290  1.00  0.00    -0.354 N 
ATOM     52  C   UNL     1       6.144   2.087  15.632  1.00  0.00     0.074 A 
ATOM     53  C   UNL     1       5.098   3.075  15.490  1.00  0.00     0.031 C 
ATOM     54  C   UNL     1       5.426  -1.528  10.361  1.00  0.00     0.029 A 
ATOM     55  C   UNL     1       6.451  -1.658  11.396  1.00  0.00     0.049 A 
ATOM     56  H   UNL     1       6.636  -0.523  13.133  1.00  0.00     0.167 HD
ATOM     57  C   UNL     1       6.991   2.023  16.686  1.00  0.00     0.031 A 
ATOM     58  C   UNL     1       7.457  -2.557  11.401  1.00  0.00     0.031 A 
ATOM     59  C   UNL     1       8.041   1.049  16.814  1.00  0.00     0.049 A 
ATOM     60  C   UNL     1       8.439  -2.559  12.546  1.00  0.00     0.074 A 
ATOM     61  C   UNL     1       8.945   0.890  17.849  1.00  0.00     0.029 A 
ATOM     62  N   UNL     1       8.337   0.074  15.872  1.00  0.00    -0.354 N 
ATOM     63  N   UNL     1       8.469  -1.792  13.611  1.00  0.00    -0.248 NA
ATOM     64  C   UNL     1       9.520  -3.555  12.494  1.00  0.00     0.031 C 
ATOM     65  C   UNL     1       9.829  -0.135  17.503  1.00  0.00     0.029 A 
ATOM     66  C   UNL     1       9.428  -0.669  16.288  1.00  0.00     0.049 A 
ATOM     67  H   UNL     1       7.844  -0.068  15.032  1.00  0.00     0.167 HD
ATOM     68  C   UNL     1       9.547  -2.237  14.371  1.00  0.00     0.074 A 
ATOM     69  C   UNL     1      10.137  -3.345  13.649  1.00  0.00     0.031 C 
ATOM     70  C   UNL     1      10.004  -1.774  15.561  1.00  0.00     0.031 A 
BRANCH  57  71
ATOM     71  C   UNL     1       6.841   3.063  17.765  1.00  0.00    -0.014 A 
ATOM     72  C   UNL     1       5.726   3.076  18.623  1.00  0.00     0.010 A 
ATOM     73  C   UNL     1       7.852   4.025  17.945  1.00  0.00     0.010 A 
ATOM     74  C   UNL     1       5.607   4.053  19.615  1.00  0.00     0.020 A 
ATOM     75  C   UNL     1       7.753   4.984  18.957  1.00  0.00     0.020 A 
ATOM     76  C   UNL     1       6.622   5.001  19.776  1.00  0.00     0.054 A 
BRANCH  76  77
ATOM     77  S   UNL     1       6.454   6.240  21.089  1.00  0.00     0.124 S 
ATOM     78  O   UNL     1       5.376   7.081  20.574  1.00  0.00    -0.237 OA
ATOM     79  O   UNL     1       6.114   5.427  22.253  1.00  0.00    -0.237 OA
ATOM     80  O   UNL     1       7.769   6.876  21.138  1.00  0.00    -0.744 OA
ENDBRANCH  76  77
ENDBRANCH  57  71
BRANCH  58  81
ATOM     81  C   UNL     1       7.601  -3.521  10.274  1.00  0.00    -0.014 A 
ATOM     82  C   UNL     1       7.399  -4.899  10.472  1.00  0.00     0.010 A 
ATOM     83  C   UNL     1       7.950  -3.063   8.989  1.00  0.00     0.010 A 
ATOM     84  C   UNL     1       7.558  -5.799   9.414  1.00  0.00     0.020 A 
ATOM     85  C   UNL     1       8.079  -3.956   7.922  1.00  0.00     0.020 A 
ATOM     86  C   UNL     1       7.893  -5.321   8.144  1.00  0.00     0.054 A 
BRANCH  86  87
ATOM     87  S   UNL     1       8.040  -6.503   6.775  1.00  0.00     0.124 S 
ATOM     88  O   UNL     1       9.271  -7.209   7.113  1.00  0.00    -0.237 OA
ATOM     89  O   UNL     1       6.809  -7.280   6.898  1.00  0.00    -0.237 OA
ATOM     90  O   UNL     1       8.113  -5.648   5.591  1.00  0.00    -0.744 OA
ENDBRANCH  86  87
ENDBRANCH  58  81
BRANCH  70  91
ATOM     91  C   UNL     1      11.169  -2.491  16.194  1.00  0.00    -0.014 A 
ATOM     92  C   UNL     1      12.468  -2.400  15.664  1.00  0.00     0.010 A 
ATOM     93  C   UNL     1      10.967  -3.215  17.385  1.00  0.00     0.010 A 
ATOM     94  C   UNL     1      13.536  -3.045  16.295  1.00  0.00     0.020 A 
ATOM     95  C   UNL     1      12.037  -3.833  18.037  1.00  0.00     0.020 A 
ATOM     96  C   UNL     1      13.314  -3.755  17.480  1.00  0.00     0.054 A 
BRANCH  96  97
ATOM     97  S   UNL     1      14.726  -4.540  18.305  1.00  0.00     0.124 S 
ATOM     98  O   UNL     1      15.027  -5.649  17.402  1.00  0.00    -0.237 OA
ATOM     99  O   UNL     1      15.716  -3.467  18.335  1.00  0.00    -0.237 OA
ATOM    100  O   UNL     1      14.195  -4.927  19.610  1.00  0.00    -0.744 OA
ENDBRANCH  96  97
ENDBRANCH  70  91
ENDBRANCH  44  45
ENDBRANCH  37  39
ENDBRANCH  36  37
ENDBRANCH  35  36
ENDBRANCH  34  35
ENDBRANCH  33  34
ENDBRANCH  32  33
ENDBRANCH  31  32
ENDBRANCH  30  31
ENDBRANCH   1  30
TORSDOF 29
