REMARK SMILES O=C(OCCOCCOCCOCCOC(=O)c1ccc(-c2c3nc(c(-c4ccc(S(=O)(=O)[O-])cc4)c4ccc([nH]4)c(-c4ccc(S(=O)(=O)[O-])cc4)c4nc(c(-c5ccc(S(=O)(=O)[O-])cc5)c5ccc2[nH]5)C=C4)C=C3)cc1)c1ccc(NC(=O)c2ccccc2NC(=O)C2CC2)cc1
REMARK SMILES IDX 8 1 7 2 6 3 5 4 4 5 3 6 2 7 1 8 78 9 79 10 98 11 80 12 97 13
REMARK SMILES IDX 81 14 82 15 83 16 84 18 85 19 86 20 90 21 87 22 89 23 88 24
REMARK SMILES IDX 91 25 92 26 93 28 94 29 95 30 96 31 9 32 10 33 11 34 12 35
REMARK SMILES IDX 13 36 14 37 15 38 16 39 17 40 18 41 19 42 77 43 20 44 76 45
REMARK SMILES IDX 21 46 22 47 23 48 70 49 24 50 75 51 69 52 71 53 25 54 74 55
REMARK SMILES IDX 68 56 67 57 26 59 56 60 37 61 55 62 38 63 41 64 54 65 72 66
REMARK SMILES IDX 39 67 40 68 53 70 73 71 42 72 27 73 28 74 36 75 29 76 35 77
REMARK SMILES IDX 30 78 31 79 32 80 33 81 34 82 57 83 58 84 66 85 59 86 65 87
REMARK SMILES IDX 60 88 61 89 62 90 63 91 64 92 43 93 44 94 52 95 45 96 51 97
REMARK SMILES IDX 46 98 47 99 48 100 49 101 50 102
REMARK H PARENT 82 17 91 27 71 58 41 69
REMARK Flexibility Score: inf
ROOT
ATOM      1  C   UNL     1       1.335   2.413  -0.035  1.00  0.00     0.188 C 
ENDROOT
BRANCH   1   2
ATOM      2  C   UNL     1       2.037   1.100   0.315  1.00  0.00     0.188 C 
BRANCH   2   3
ATOM      3  O   UNL     1       3.448   1.057   0.083  1.00  0.00    -0.376 OA
BRANCH   3   4
ATOM      4  C   UNL     1       3.919   1.285  -1.240  1.00  0.00     0.202 C 
BRANCH   4   5
ATOM      5  C   UNL     1       3.980   0.036  -2.124  1.00  0.00     0.261 C 
BRANCH   5   6
ATOM      6  O   UNL     1       2.775  -0.740  -2.050  1.00  0.00    -0.460 OA
BRANCH   6   7
ATOM      7  C   UNL     1       2.492  -1.804  -1.260  1.00  0.00     0.338 C 
ATOM      8  O   UNL     1       1.394  -2.345  -1.396  1.00  0.00    -0.246 OA
BRANCH   7   9
ATOM      9  C   UNL     1       3.415  -2.376  -0.223  1.00  0.00     0.060 A 
ATOM     10  C   UNL     1       4.540  -1.758   0.320  1.00  0.00     0.018 A 
ATOM     11  C   UNL     1       3.077  -3.637   0.293  1.00  0.00     0.018 A 
ATOM     12  C   UNL     1       5.331  -2.377   1.295  1.00  0.00     0.027 A 
ATOM     13  C   UNL     1       3.853  -4.250   1.287  1.00  0.00     0.027 A 
ATOM     14  C   UNL     1       4.996  -3.624   1.793  1.00  0.00     0.041 A 
BRANCH  14  15
ATOM     15  N   UNL     1       5.731  -4.319   2.762  1.00  0.00    -0.322 N 
ATOM     16  C   UNL     1       6.878  -4.042   3.462  1.00  0.00     0.257 C 
ATOM     17  H   UNL     1       5.342  -5.195   2.988  1.00  0.00     0.170 HD
ATOM     18  O   UNL     1       7.372  -4.924   4.167  1.00  0.00    -0.269 OA
BRANCH  16  19
ATOM     19  C   UNL     1       7.576  -2.746   3.422  1.00  0.00     0.063 A 
ATOM     20  C   UNL     1       8.790  -2.728   2.709  1.00  0.00     0.016 A 
ATOM     21  C   UNL     1       7.155  -1.629   4.173  1.00  0.00     0.054 A 
ATOM     22  C   UNL     1       9.614  -1.608   2.756  1.00  0.00     0.001 A 
ATOM     23  C   UNL     1       8.068  -0.576   4.293  1.00  0.00     0.027 A 
ATOM     24  C   UNL     1       9.269  -0.548   3.579  1.00  0.00     0.002 A 
BRANCH  21  25
ATOM     25  N   UNL     1       5.843  -1.590   4.708  1.00  0.00    -0.325 N 
ATOM     26  C   UNL     1       5.104  -0.590   5.304  1.00  0.00     0.227 C 
ATOM     27  H   UNL     1       5.365  -2.448   4.642  1.00  0.00     0.169 HD
ATOM     28  O   UNL     1       3.937  -0.809   5.623  1.00  0.00    -0.274 OA
BRANCH  26  29
ATOM     29  C   UNL     1       5.705   0.741   5.572  1.00  0.00     0.079 C 
ATOM     30  C   UNL     1       5.870   1.707   4.412  1.00  0.00     0.014 C 
ATOM     31  C   UNL     1       4.906   2.016   5.510  1.00  0.00     0.014 C 
ENDBRANCH  26  29
ENDBRANCH  21  25
ENDBRANCH  16  19
ENDBRANCH  14  15
ENDBRANCH   7   9
ENDBRANCH   6   7
ENDBRANCH   5   6
ENDBRANCH   4   5
ENDBRANCH   3   4
ENDBRANCH   2   3
ENDBRANCH   1   2
BRANCH   1  32
ATOM     32  O   UNL     1       1.625   3.523   0.799  1.00  0.00    -0.377 OA
BRANCH  32  33
ATOM     33  C   UNL     1       2.988   3.897   0.915  1.00  0.00     0.188 C 
BRANCH  33  34
ATOM     34  C   UNL     1       3.748   3.200   2.055  1.00  0.00     0.188 C 
BRANCH  34  35
ATOM     35  O   UNL     1       2.999   2.515   3.051  1.00  0.00    -0.376 OA
BRANCH  35  36
ATOM     36  C   UNL     1       1.913   3.177   3.692  1.00  0.00     0.202 C 
BRANCH  36  37
ATOM     37  C   UNL     1       2.239   4.421   4.523  1.00  0.00     0.261 C 
BRANCH  37  38
ATOM     38  O   UNL     1       2.733   5.488   3.705  1.00  0.00    -0.460 OA
BRANCH  38  39
ATOM     39  C   UNL     1       4.011   5.879   3.928  1.00  0.00     0.338 C 
ATOM     40  O   UNL     1       4.760   5.514   4.820  1.00  0.00    -0.246 OA
BRANCH  39  41
ATOM     41  C   UNL     1       4.448   6.643   2.742  1.00  0.00     0.060 A 
ATOM     42  C   UNL     1       5.669   6.306   2.135  1.00  0.00     0.016 A 
ATOM     43  C   UNL     1       3.616   7.613   2.179  1.00  0.00     0.016 A 
ATOM     44  C   UNL     1       6.070   6.950   0.964  1.00  0.00     0.010 A 
ATOM     45  C   UNL     1       4.024   8.267   1.022  1.00  0.00     0.010 A 
ATOM     46  C   UNL     1       5.262   7.959   0.429  1.00  0.00    -0.014 A 
BRANCH  46  47
ATOM     47  C   UNL     1       5.775   8.906  -0.582  1.00  0.00     0.031 A 
ATOM     48  C   UNL     1       6.342  10.196  -0.068  1.00  0.00     0.074 A 
ATOM     49  C   UNL     1       5.598   8.699  -1.897  1.00  0.00     0.049 A 
ATOM     50  N   UNL     1       6.574  11.312  -0.701  1.00  0.00    -0.248 NA
ATOM     51  C   UNL     1       6.647  10.237   1.373  1.00  0.00     0.031 C 
ATOM     52  C   UNL     1       5.087   7.471  -2.502  1.00  0.00     0.029 A 
ATOM     53  N   UNL     1       5.782   9.552  -2.955  1.00  0.00    -0.354 N 
ATOM     54  C   UNL     1       7.006  12.204   0.273  1.00  0.00     0.074 A 
ATOM     55  C   UNL     1       6.999  11.501   1.535  1.00  0.00     0.031 C 
ATOM     56  C   UNL     1       4.955   7.666  -3.827  1.00  0.00     0.029 A 
ATOM     57  C   UNL     1       5.319   9.046  -4.146  1.00  0.00     0.049 A 
ATOM     58  H   UNL     1       6.203  10.438  -2.869  1.00  0.00     0.167 HD
ATOM     59  C   UNL     1       7.356  13.503   0.128  1.00  0.00     0.031 A 
ATOM     60  C   UNL     1       5.158   9.650  -5.341  1.00  0.00     0.031 A 
ATOM     61  C   UNL     1       7.322  14.195  -1.129  1.00  0.00     0.049 A 
ATOM     62  C   UNL     1       5.520  11.105  -5.483  1.00  0.00     0.074 A 
ATOM     63  C   UNL     1       7.674  15.503  -1.403  1.00  0.00     0.029 A 
ATOM     64  N   UNL     1       6.896  13.631  -2.323  1.00  0.00    -0.354 N 
ATOM     65  N   UNL     1       5.952  11.940  -4.565  1.00  0.00    -0.248 NA
ATOM     66  C   UNL     1       5.375  11.702  -6.818  1.00  0.00     0.031 C 
ATOM     67  C   UNL     1       7.413  15.745  -2.756  1.00  0.00     0.029 A 
ATOM     68  C   UNL     1       6.959  14.569  -3.337  1.00  0.00     0.049 A 
ATOM     69  H   UNL     1       6.594  12.700  -2.433  1.00  0.00     0.167 HD
ATOM     70  C   UNL     1       6.159  13.151  -5.218  1.00  0.00     0.074 A 
ATOM     71  C   UNL     1       5.805  12.940  -6.607  1.00  0.00     0.031 C 
ATOM     72  C   UNL     1       6.610  14.328  -4.715  1.00  0.00     0.031 A 
BRANCH  59  73
ATOM     73  C   UNL     1       7.730  14.250   1.379  1.00  0.00    -0.014 A 
ATOM     74  C   UNL     1       8.907  13.946   2.090  1.00  0.00     0.010 A 
ATOM     75  C   UNL     1       6.867  15.242   1.877  1.00  0.00     0.010 A 
ATOM     76  C   UNL     1       9.176  14.571   3.310  1.00  0.00     0.020 A 
ATOM     77  C   UNL     1       7.150  15.893   3.081  1.00  0.00     0.020 A 
ATOM     78  C   UNL     1       8.289  15.532   3.803  1.00  0.00     0.054 A 
BRANCH  78  79
ATOM     79  S   UNL     1       8.647  16.309   5.402  1.00  0.00     0.124 S 
ATOM     80  O   UNL     1       8.297  15.242   6.337  1.00  0.00    -0.237 OA
ATOM     81  O   UNL     1      10.072  16.611   5.300  1.00  0.00    -0.237 OA
ATOM     82  O   UNL     1       7.766  17.473   5.426  1.00  0.00    -0.744 OA
ENDBRANCH  78  79
ENDBRANCH  59  73
BRANCH  60  83
ATOM     83  C   UNL     1       4.608   8.872  -6.484  1.00  0.00    -0.014 A 
ATOM     84  C   UNL     1       5.448   8.457  -7.531  1.00  0.00     0.010 A 
ATOM     85  C   UNL     1       3.254   8.487  -6.501  1.00  0.00     0.010 A 
ATOM     86  C   UNL     1       4.950   7.659  -8.565  1.00  0.00     0.020 A 
ATOM     87  C   UNL     1       2.757   7.669  -7.521  1.00  0.00     0.020 A 
ATOM     88  C   UNL     1       3.611   7.258  -8.546  1.00  0.00     0.054 A 
BRANCH  88  89
ATOM     89  S   UNL     1       3.021   6.126  -9.837  1.00  0.00     0.124 S 
ATOM     90  O   UNL     1       2.968   6.996 -11.007  1.00  0.00    -0.237 OA
ATOM     91  O   UNL     1       4.064   5.103  -9.854  1.00  0.00    -0.237 OA
ATOM     92  O   UNL     1       1.727   5.675  -9.330  1.00  0.00    -0.744 OA
ENDBRANCH  88  89
ENDBRANCH  60  83
BRANCH  72  93
ATOM     93  C   UNL     1       6.805  15.472  -5.674  1.00  0.00    -0.014 A 
ATOM     94  C   UNL     1       5.716  16.204  -6.176  1.00  0.00     0.010 A 
ATOM     95  C   UNL     1       8.115  15.884  -5.986  1.00  0.00     0.010 A 
ATOM     96  C   UNL     1       5.935  17.324  -6.983  1.00  0.00     0.020 A 
ATOM     97  C   UNL     1       8.337  17.016  -6.772  1.00  0.00     0.020 A 
ATOM     98  C   UNL     1       7.244  17.726  -7.271  1.00  0.00     0.054 A 
BRANCH  98  99
ATOM     99  S   UNL     1       7.503  19.228  -8.255  1.00  0.00     0.124 S 
ATOM    100  O   UNL     1       7.143  18.777  -9.597  1.00  0.00    -0.237 OA
ATOM    101  O   UNL     1       6.577  20.177  -7.641  1.00  0.00    -0.237 OA
ATOM    102  O   UNL     1       8.918  19.532  -8.058  1.00  0.00    -0.744 OA
ENDBRANCH  98  99
ENDBRANCH  72  93
ENDBRANCH  46  47
ENDBRANCH  39  41
ENDBRANCH  38  39
ENDBRANCH  37  38
ENDBRANCH  36  37
ENDBRANCH  35  36
ENDBRANCH  34  35
ENDBRANCH  33  34
ENDBRANCH  32  33
ENDBRANCH   1  32
TORSDOF 27
