REMARK SMILES CC[NH+](CC)[C@@H](C(=O)OCCOCCOCCOCCOC(=O)c1ccc(-c2c3nc(c(-c4ccc(S(=O)(=O)[O-])cc4)c4ccc([nH]4)c(-c4ccc(S(=O)(=O)[O-])cc4)c4nc(c(-c5ccc(S(=O)(=O)[O-])cc5)c5ccc2[nH]5)C=C4)C=C3)cc1)c1ccc(C2CC2)cc1
REMARK SMILES IDX 16 1 15 2 14 3 13 4 12 5 11 6 10 7 9 8 7 9 8 10 6 11 3 12
REMARK SMILES IDX 2 14 1 15 4 16 5 17 84 18 85 19 92 20 86 21 91 22 87 23
REMARK SMILES IDX 88 24 89 25 90 26 17 27 18 28 19 29 20 30 21 31 22 32 23 33
REMARK SMILES IDX 24 34 25 35 83 36 26 37 82 38 27 39 28 40 29 41 76 42 30 43
REMARK SMILES IDX 81 44 75 45 77 46 31 47 80 48 74 49 73 50 32 52 62 53 43 54
REMARK SMILES IDX 61 55 44 56 47 57 60 58 78 59 45 60 46 61 59 63 79 64 48 65
REMARK SMILES IDX 33 66 34 67 42 68 35 69 41 70 36 71 37 72 38 73 39 74 40 75
REMARK SMILES IDX 63 76 64 77 72 78 65 79 71 80 66 81 67 82 68 83 69 84 70 85
REMARK SMILES IDX 49 86 50 87 58 88 51 89 57 90 52 91 53 92 54 93 55 94 56 95
REMARK H PARENT 3 13 77 51 47 62
REMARK Flexibility Score: inf
ROOT
ATOM      1  C   UNL     1       0.803   2.374   4.106  1.00  0.00     0.188 C 
ENDROOT
BRANCH   1   2
ATOM      2  O   UNL     1       1.767   2.064   3.109  1.00  0.00    -0.377 OA
BRANCH   2   3
ATOM      3  C   UNL     1       2.535   0.873   3.163  1.00  0.00     0.188 C 
BRANCH   3   4
ATOM      4  C   UNL     1       4.010   1.133   2.841  1.00  0.00     0.188 C 
BRANCH   4   5
ATOM      5  O   UNL     1       4.660   2.100   3.664  1.00  0.00    -0.376 OA
BRANCH   5   6
ATOM      6  C   UNL     1       4.137   3.432   3.629  1.00  0.00     0.202 C 
BRANCH   6   7
ATOM      7  C   UNL     1       4.006   4.096   2.244  1.00  0.00     0.261 C 
BRANCH   7   8
ATOM      8  O   UNL     1       3.078   3.426   1.347  1.00  0.00    -0.459 OA
BRANCH   8   9
ATOM      9  C   UNL     1       3.480   3.266   0.060  1.00  0.00     0.369 C 
ATOM     10  O   UNL     1       4.566   3.688  -0.345  1.00  0.00    -0.245 OA
BRANCH   9  11
ATOM     11  C   UNL     1       2.535   2.451  -0.876  1.00  0.00     0.326 C 
BRANCH  11  12
ATOM     12  N   UNL     1       1.048   2.576  -0.688  1.00  0.00    -0.320 N 
ATOM     13  H   UNL     1       0.848   2.007  -1.510  1.00  0.00     0.349 HD
BRANCH  12  14
ATOM     14  C   UNL     1       0.250   1.787   0.255  1.00  0.00     0.259 C 
ATOM     15  C   UNL     1       0.193   0.262   0.201  1.00  0.00     0.071 C 
ENDBRANCH  12  14
BRANCH  12  16
ATOM     16  C   UNL     1       0.556   3.967  -0.771  1.00  0.00     0.259 C 
ATOM     17  C   UNL     1       0.396   4.755   0.532  1.00  0.00     0.071 C 
ENDBRANCH  12  16
ENDBRANCH  11  12
BRANCH  11  18
ATOM     18  C   UNL     1       3.071   1.060  -1.278  1.00  0.00     0.021 A 
ATOM     19  C   UNL     1       2.251   0.151  -1.955  1.00  0.00     0.011 A 
ATOM     20  C   UNL     1       4.411   0.672  -1.126  1.00  0.00     0.011 A 
ATOM     21  C   UNL     1       2.662  -1.160  -2.224  1.00  0.00     0.004 A 
ATOM     22  C   UNL     1       4.849  -0.621  -1.475  1.00  0.00     0.004 A 
ATOM     23  C   UNL     1       3.968  -1.594  -1.966  1.00  0.00    -0.045 A 
BRANCH  23  24
ATOM     24  C   UNL     1       4.339  -3.038  -2.243  1.00  0.00     0.019 C 
ATOM     25  C   UNL     1       5.558  -3.372  -3.064  1.00  0.00     0.009 C 
ATOM     26  C   UNL     1       5.525  -3.714  -1.601  1.00  0.00     0.009 C 
ENDBRANCH  23  24
ENDBRANCH  11  18
ENDBRANCH   9  11
ENDBRANCH   8   9
ENDBRANCH   7   8
ENDBRANCH   6   7
ENDBRANCH   5   6
ENDBRANCH   4   5
ENDBRANCH   3   4
ENDBRANCH   2   3
ENDBRANCH   1   2
BRANCH   1  27
ATOM     27  C   UNL     1       0.662   1.409   5.280  1.00  0.00     0.188 C 
BRANCH  27  28
ATOM     28  O   UNL     1       0.194   0.088   4.991  1.00  0.00    -0.376 OA
BRANCH  28  29
ATOM     29  C   UNL     1      -0.648  -0.099   3.857  1.00  0.00     0.202 C 
BRANCH  29  30
ATOM     30  C   UNL     1      -2.134   0.204   4.056  1.00  0.00     0.261 C 
BRANCH  30  31
ATOM     31  O   UNL     1      -2.385   1.601   4.270  1.00  0.00    -0.460 OA
BRANCH  31  32
ATOM     32  C   UNL     1      -2.510   1.959   5.565  1.00  0.00     0.338 C 
ATOM     33  O   UNL     1      -2.446   1.226   6.546  1.00  0.00    -0.246 OA
BRANCH  32  34
ATOM     34  C   UNL     1      -2.582   3.422   5.671  1.00  0.00     0.060 A 
ATOM     35  C   UNL     1      -1.703   4.065   6.551  1.00  0.00     0.016 A 
ATOM     36  C   UNL     1      -3.566   4.143   4.989  1.00  0.00     0.016 A 
ATOM     37  C   UNL     1      -1.836   5.426   6.792  1.00  0.00     0.010 A 
ATOM     38  C   UNL     1      -3.708   5.508   5.244  1.00  0.00     0.010 A 
ATOM     39  C   UNL     1      -2.870   6.142   6.178  1.00  0.00    -0.014 A 
BRANCH  39  40
ATOM     40  C   UNL     1      -3.163   7.512   6.648  1.00  0.00     0.031 A 
ATOM     41  C   UNL     1      -4.288   7.719   7.622  1.00  0.00     0.074 A 
ATOM     42  C   UNL     1      -2.395   8.540   6.251  1.00  0.00     0.049 A 
ATOM     43  N   UNL     1      -4.709   8.825   8.176  1.00  0.00    -0.248 NA
ATOM     44  C   UNL     1      -5.039   6.518   8.027  1.00  0.00     0.031 C 
ATOM     45  C   UNL     1      -1.250   8.437   5.346  1.00  0.00     0.029 A 
ATOM     46  N   UNL     1      -2.462   9.872   6.564  1.00  0.00    -0.354 N 
ATOM     47  C   UNL     1      -5.780   8.458   8.984  1.00  0.00     0.074 A 
ATOM     48  C   UNL     1      -5.963   7.032   8.825  1.00  0.00     0.031 C 
ATOM     49  C   UNL     1      -0.721   9.660   5.175  1.00  0.00     0.029 A 
ATOM     50  C   UNL     1      -1.511  10.632   5.928  1.00  0.00     0.049 A 
ATOM     51  H   UNL     1      -3.127  10.248   7.184  1.00  0.00     0.167 HD
ATOM     52  C   UNL     1      -6.540   9.242   9.785  1.00  0.00     0.031 A 
ATOM     53  C   UNL     1      -1.316  11.964   5.938  1.00  0.00     0.031 A 
ATOM     54  C   UNL     1      -6.356  10.664   9.917  1.00  0.00     0.049 A 
ATOM     55  C   UNL     1      -2.211  12.823   6.789  1.00  0.00     0.074 A 
ATOM     56  C   UNL     1      -7.057  11.553  10.711  1.00  0.00     0.029 A 
ATOM     57  N   UNL     1      -5.409  11.407   9.226  1.00  0.00    -0.354 N 
ATOM     58  N   UNL     1      -3.206  12.461   7.566  1.00  0.00    -0.248 NA
ATOM     59  C   UNL     1      -1.947  14.267   6.776  1.00  0.00     0.031 C 
ATOM     60  C   UNL     1      -6.580  12.842  10.448  1.00  0.00     0.029 A 
ATOM     61  C   UNL     1      -5.529  12.748   9.549  1.00  0.00     0.049 A 
ATOM     62  H   UNL     1      -4.748  11.034   8.598  1.00  0.00     0.167 HD
ATOM     63  C   UNL     1      -3.672  13.632   8.155  1.00  0.00     0.074 A 
ATOM     64  C   UNL     1      -2.833  14.706   7.659  1.00  0.00     0.031 C 
ATOM     65  C   UNL     1      -4.697  13.805   9.028  1.00  0.00     0.031 A 
BRANCH  52  66
ATOM     66  C   UNL     1      -7.670   8.584  10.536  1.00  0.00    -0.014 A 
ATOM     67  C   UNL     1      -7.432   7.679  11.586  1.00  0.00     0.010 A 
ATOM     68  C   UNL     1      -8.999   8.895  10.194  1.00  0.00     0.010 A 
ATOM     69  C   UNL     1      -8.499   7.066  12.251  1.00  0.00     0.020 A 
ATOM     70  C   UNL     1     -10.069   8.309  10.876  1.00  0.00     0.020 A 
ATOM     71  C   UNL     1      -9.812   7.384  11.889  1.00  0.00     0.054 A 
BRANCH  71  72
ATOM     72  S   UNL     1     -11.178   6.586  12.777  1.00  0.00     0.124 S 
ATOM     73  O   UNL     1     -11.094   5.212  12.287  1.00  0.00    -0.237 OA
ATOM     74  O   UNL     1     -10.804   6.778  14.176  1.00  0.00    -0.237 OA
ATOM     75  O   UNL     1     -12.357   7.331  12.342  1.00  0.00    -0.744 OA
ENDBRANCH  71  72
ENDBRANCH  52  66
BRANCH  53  76
ATOM     76  C   UNL     1      -0.236  12.556   5.102  1.00  0.00    -0.014 A 
ATOM     77  C   UNL     1       0.900  13.134   5.692  1.00  0.00     0.010 A 
ATOM     78  C   UNL     1      -0.333  12.517   3.698  1.00  0.00     0.010 A 
ATOM     79  C   UNL     1       1.917  13.669   4.894  1.00  0.00     0.020 A 
ATOM     80  C   UNL     1       0.694  13.022   2.897  1.00  0.00     0.020 A 
ATOM     81  C   UNL     1       1.810  13.602   3.502  1.00  0.00     0.054 A 
BRANCH  81  82
ATOM     82  S   UNL     1       3.174  14.238   2.488  1.00  0.00     0.124 S 
ATOM     83  O   UNL     1       3.046  15.680   2.676  1.00  0.00    -0.237 OA
ATOM     84  O   UNL     1       4.341  13.618   3.111  1.00  0.00    -0.237 OA
ATOM     85  O   UNL     1       2.859  13.750   1.147  1.00  0.00    -0.744 OA
ENDBRANCH  81  82
ENDBRANCH  53  76
BRANCH  65  86
ATOM     86  C   UNL     1      -4.946  15.207   9.523  1.00  0.00    -0.014 A 
ATOM     87  C   UNL     1      -5.441  16.210   8.670  1.00  0.00     0.010 A 
ATOM     88  C   UNL     1      -4.697  15.519  10.872  1.00  0.00     0.010 A 
ATOM     89  C   UNL     1      -5.626  17.512   9.143  1.00  0.00     0.020 A 
ATOM     90  C   UNL     1      -4.916  16.809  11.358  1.00  0.00     0.020 A 
ATOM     91  C   UNL     1      -5.357  17.804  10.484  1.00  0.00     0.054 A 
BRANCH  91  92
ATOM     92  S   UNL     1      -5.609  19.500  11.075  1.00  0.00     0.124 S 
ATOM     93  O   UNL     1      -4.488  20.204  10.459  1.00  0.00    -0.237 OA
ATOM     94  O   UNL     1      -6.929  19.831  10.545  1.00  0.00    -0.237 OA
ATOM     95  O   UNL     1      -5.541  19.374  12.529  1.00  0.00    -0.744 OA
ENDBRANCH  91  92
ENDBRANCH  65  86
ENDBRANCH  39  40
ENDBRANCH  32  34
ENDBRANCH  31  32
ENDBRANCH  30  31
ENDBRANCH  29  30
ENDBRANCH  28  29
ENDBRANCH  27  28
ENDBRANCH   1  27
TORSDOF 28
