REMARK SMILES Cc1ccc(C2=NN(C(=O)CCC(=O)OCCOCCOCCOCCOC(=O)c3ccc(-c4c5nc(c(-c6ccc(S(=O)(=O)[O-])cc6)c6ccc([nH]6)c(-c6ccc(S(=O)(=O)[O-])cc6)c6nc(c(-c7ccc(S(=O)(=O)[O-])cc7)c7ccc4[nH]7)C=C6)C=C5)cc3)[C@H](C[C@H]3C=c4cccc(C)c4=NC3=O)C2)cc1
REMARK SMILES IDX 20 1 19 2 18 3 17 4 16 5 15 6 13 7 14 8 12 9 11 10 9 11
REMARK SMILES IDX 10 12 8 13 6 14 7 15 104 16 90 17 5 18 1 19 2 20 3 21 106 22
REMARK SMILES IDX 4 23 105 24 91 25 92 26 93 27 102 28 94 29 101 30 103 31
REMARK SMILES IDX 95 32 100 33 96 34 98 35 97 36 99 37 21 38 22 39 23 40 24 41
REMARK SMILES IDX 25 42 26 43 27 44 28 45 29 46 30 47 31 48 89 49 32 50 88 51
REMARK SMILES IDX 33 52 34 53 35 54 82 55 36 56 87 57 81 58 83 59 37 60 86 61
REMARK SMILES IDX 80 62 79 63 38 65 68 66 49 67 67 68 50 69 53 70 66 71 84 72
REMARK SMILES IDX 51 73 52 74 65 76 85 77 54 78 39 79 40 80 48 81 41 82 47 83
REMARK SMILES IDX 42 84 43 85 44 86 45 87 46 88 69 89 70 90 78 91 71 92 77 93
REMARK SMILES IDX 72 94 73 95 74 96 75 97 76 98 55 99 56 100 64 101 57 102
REMARK SMILES IDX 63 103 58 104 59 105 60 106 61 107 62 108
REMARK H PARENT 83 64 53 75
REMARK Flexibility Score: inf
ROOT
ATOM      1  C   UNL     1      -7.772  -0.518  -0.466  1.00  0.00     0.188 C 
ENDROOT
BRANCH   1   2
ATOM      2  C   UNL     1      -9.073   0.056  -1.336  1.00  0.00     0.188 C 
BRANCH   2   3
ATOM      3  O   UNL     1      -8.982   0.847  -2.528  1.00  0.00    -0.376 OA
BRANCH   3   4
ATOM      4  C   UNL     1      -8.308   2.087  -2.410  1.00  0.00     0.202 C 
BRANCH   4   5
ATOM      5  C   UNL     1      -8.632   2.934  -1.213  1.00  0.00     0.261 C 
BRANCH   5   6
ATOM      6  O   UNL     1      -8.187   2.162  -0.074  1.00  0.00    -0.463 OA
BRANCH   6   7
ATOM      7  C   UNL     1      -8.849   2.054   1.069  1.00  0.00     0.306 C 
ATOM      8  O   UNL     1      -9.880   2.678   1.299  1.00  0.00    -0.252 OA
BRANCH   7   9
ATOM      9  C   UNL     1      -8.302   0.952   2.034  1.00  0.00     0.132 C 
BRANCH   9  10
ATOM     10  C   UNL     1      -7.104  -0.160   2.183  1.00  0.00     0.114 C 
BRANCH  10  11
ATOM     11  C   UNL     1      -5.818  -1.249   1.682  1.00  0.00     0.243 C 
ATOM     12  O   UNL     1      -5.906  -2.290   2.383  1.00  0.00    -0.273 OA
BRANCH  11  13
ATOM     13  N   UNL     1      -4.699  -1.099   0.600  1.00  0.00    -0.230 N 
ATOM     14  C   UNL     1      -1.813  -0.655  -0.335  1.00  0.00     0.070 C 
ATOM     15  N   UNL     1      -2.650  -1.187   0.892  1.00  0.00    -0.174 NA
ATOM     16  C   UNL     1      -3.004  -0.097  -1.837  1.00  0.00     0.086 C 
ATOM     17  C   UNL     1      -4.928  -0.549  -1.302  1.00  0.00     0.118 C 
BRANCH  14  18
ATOM     18  C   UNL     1      -0.413  -0.395  -0.260  1.00  0.00    -0.002 A 
ATOM     19  C   UNL     1       3.741   0.225   0.033  1.00  0.00     0.044 C 
ATOM     20  C   UNL     1       2.261   0.035   0.036  1.00  0.00    -0.051 A 
ATOM     21  C   UNL     1       1.756  -1.275   0.074  1.00  0.00     0.004 A 
ATOM     22  C   UNL     1       1.394   1.136  -0.061  1.00  0.00     0.004 A 
ATOM     23  C   UNL     1       0.401  -1.495  -0.056  1.00  0.00     0.010 A 
ATOM     24  C   UNL     1       0.035   0.922  -0.213  1.00  0.00     0.010 A 
ENDBRANCH  14  18
BRANCH  17  25
ATOM     25  C   UNL     1      -6.553  -0.984  -2.335  1.00  0.00     0.045 C 
BRANCH  25  26
ATOM     26  C   UNL     1      -8.040  -2.310  -1.991  1.00  0.00     0.106 C 
ATOM     27  C   UNL     1      -8.404  -2.880  -0.416  1.00  0.00    -0.003 C 
ATOM     28  C   UNL     1      -9.500  -2.583  -2.587  1.00  0.00     0.253 C 
ATOM     29  C   UNL     1      -9.451  -3.490   0.111  1.00  0.00    -0.003 A 
ATOM     30  N   UNL     1     -10.018  -3.868  -2.253  1.00  0.00    -0.212 NA
ATOM     31  O   UNL     1     -10.072  -1.857  -3.390  1.00  0.00    -0.272 OA
ATOM     32  C   UNL     1      -9.283  -3.961   1.480  1.00  0.00     0.010 A 
ATOM     33  C   UNL     1      -9.894  -4.298  -1.024  1.00  0.00     0.077 A 
ATOM     34  C   UNL     1      -9.265  -5.276   1.708  1.00  0.00     0.001 A 
ATOM     35  C   UNL     1      -9.909  -5.765  -0.627  1.00  0.00    -0.025 A 
ATOM     36  C   UNL     1      -9.577  -6.176   0.622  1.00  0.00     0.005 A 
ATOM     37  C   UNL     1     -10.051  -6.714  -1.755  1.00  0.00     0.047 C 
ENDBRANCH  25  26
ENDBRANCH  17  25
ENDBRANCH  11  13
ENDBRANCH  10  11
ENDBRANCH   9  10
ENDBRANCH   7   9
ENDBRANCH   6   7
ENDBRANCH   5   6
ENDBRANCH   4   5
ENDBRANCH   3   4
ENDBRANCH   2   3
ENDBRANCH   1   2
BRANCH   1  38
ATOM     38  O   UNL     1      -6.551  -1.720  -0.491  1.00  0.00    -0.377 OA
BRANCH  38  39
ATOM     39  C   UNL     1      -5.950  -3.027  -1.457  1.00  0.00     0.188 C 
BRANCH  39  40
ATOM     40  C   UNL     1      -5.741  -3.224  -3.151  1.00  0.00     0.188 C 
BRANCH  40  41
ATOM     41  O   UNL     1      -6.667  -2.543  -4.036  1.00  0.00    -0.376 OA
BRANCH  41  42
ATOM     42  C   UNL     1      -7.528  -3.041  -5.007  1.00  0.00     0.202 C 
BRANCH  42  43
ATOM     43  C   UNL     1      -6.751  -4.021  -5.768  1.00  0.00     0.261 C 
BRANCH  43  44
ATOM     44  O   UNL     1      -5.576  -3.379  -6.406  1.00  0.00    -0.460 OA
BRANCH  44  45
ATOM     45  C   UNL     1      -4.692  -2.332  -6.261  1.00  0.00     0.338 C 
ATOM     46  O   UNL     1      -3.610  -2.504  -6.836  1.00  0.00    -0.246 OA
BRANCH  45  47
ATOM     47  C   UNL     1      -4.788  -0.958  -5.529  1.00  0.00     0.060 A 
ATOM     48  C   UNL     1      -3.643  -0.331  -4.996  1.00  0.00     0.016 A 
ATOM     49  C   UNL     1      -5.888  -0.123  -5.420  1.00  0.00     0.016 A 
ATOM     50  C   UNL     1      -3.683   0.877  -4.147  1.00  0.00     0.010 A 
ATOM     51  C   UNL     1      -5.923   0.976  -4.452  1.00  0.00     0.010 A 
ATOM     52  C   UNL     1      -4.871   1.361  -3.566  1.00  0.00    -0.014 A 
BRANCH  52  53
ATOM     53  C   UNL     1      -5.131   2.497  -2.272  1.00  0.00     0.031 A 
ATOM     54  C   UNL     1      -5.438   3.771  -3.034  1.00  0.00     0.074 A 
ATOM     55  C   UNL     1      -5.416   2.482  -0.789  1.00  0.00     0.049 A 
ATOM     56  N   UNL     1      -5.931   4.811  -2.492  1.00  0.00    -0.248 NA
ATOM     57  C   UNL     1      -5.495   3.893  -4.503  1.00  0.00     0.031 C 
ATOM     58  C   UNL     1      -6.042   3.444   0.181  1.00  0.00     0.029 A 
ATOM     59  N   UNL     1      -5.398   1.565   0.299  1.00  0.00    -0.354 N 
ATOM     60  C   UNL     1      -6.809   5.380  -3.397  1.00  0.00     0.074 A 
ATOM     61  C   UNL     1      -6.444   4.823  -4.670  1.00  0.00     0.031 C 
ATOM     62  C   UNL     1      -5.971   3.170   1.525  1.00  0.00     0.029 A 
ATOM     63  C   UNL     1      -5.189   1.999   1.616  1.00  0.00     0.049 A 
ATOM     64  H   UNL     1      -5.535   0.606   0.124  1.00  0.00     0.167 HD
ATOM     65  C   UNL     1      -7.831   6.119  -2.875  1.00  0.00     0.031 A 
ATOM     66  C   UNL     1      -3.976   1.814   2.230  1.00  0.00     0.031 A 
ATOM     67  C   UNL     1      -7.634   6.304  -1.400  1.00  0.00     0.049 A 
ATOM     68  C   UNL     1      -3.325   3.223   1.875  1.00  0.00     0.074 A 
ATOM     69  C   UNL     1      -8.399   6.128  -0.259  1.00  0.00     0.029 A 
ATOM     70  N   UNL     1      -6.322   6.470  -0.918  1.00  0.00    -0.354 N 
ATOM     71  N   UNL     1      -3.701   3.977   0.847  1.00  0.00    -0.248 NA
ATOM     72  C   UNL     1      -2.513   4.031   2.783  1.00  0.00     0.031 C 
ATOM     73  C   UNL     1      -7.500   6.081   0.876  1.00  0.00     0.029 A 
ATOM     74  C   UNL     1      -6.168   6.158   0.429  1.00  0.00     0.049 A 
ATOM     75  H   UNL     1      -5.579   6.780  -1.485  1.00  0.00     0.167 HD
ATOM     76  C   UNL     1      -3.801   5.292   1.277  1.00  0.00     0.074 A 
ATOM     77  C   UNL     1      -2.716   5.267   2.271  1.00  0.00     0.031 C 
ATOM     78  C   UNL     1      -4.809   6.258   1.062  1.00  0.00     0.031 A 
BRANCH  65  79
ATOM     79  C   UNL     1      -9.093   6.564  -3.618  1.00  0.00    -0.014 A 
ATOM     80  C   UNL     1     -10.010   7.359  -2.900  1.00  0.00     0.010 A 
ATOM     81  C   UNL     1      -9.475   6.265  -4.951  1.00  0.00     0.010 A 
ATOM     82  C   UNL     1     -11.191   7.869  -3.455  1.00  0.00     0.020 A 
ATOM     83  C   UNL     1     -10.657   6.798  -5.537  1.00  0.00     0.020 A 
ATOM     84  C   UNL     1     -11.498   7.615  -4.784  1.00  0.00     0.054 A 
BRANCH  84  85
ATOM     85  S   UNL     1     -12.954   8.449  -5.485  1.00  0.00     0.124 S 
ATOM     86  O   UNL     1     -14.049   7.893  -4.695  1.00  0.00    -0.237 OA
ATOM     87  O   UNL     1     -12.655   9.857  -5.236  1.00  0.00    -0.237 OA
ATOM     88  O   UNL     1     -12.940   8.055  -6.892  1.00  0.00    -0.744 OA
ENDBRANCH  84  85
ENDBRANCH  65  79
BRANCH  66  89
ATOM     89  C   UNL     1      -3.527   0.382   1.869  1.00  0.00    -0.014 A 
ATOM     90  C   UNL     1      -3.527  -1.155   2.740  1.00  0.00     0.010 A 
ATOM     91  C   UNL     1      -3.495   0.207   0.137  1.00  0.00     0.010 A 
ATOM     92  C   UNL     1      -3.444  -2.780   1.972  1.00  0.00     0.020 A 
ATOM     93  C   UNL     1      -3.444  -1.685  -0.654  1.00  0.00     0.020 A 
ATOM     94  C   UNL     1      -3.404  -3.040   0.317  1.00  0.00     0.054 A 
BRANCH  94  95
ATOM     95  S   UNL     1      -2.830  -4.499  -0.661  1.00  0.00     0.124 S 
ATOM     96  O   UNL     1      -1.726  -5.035   0.121  1.00  0.00    -0.237 OA
ATOM     97  O   UNL     1      -4.024  -5.330  -0.785  1.00  0.00    -0.237 OA
ATOM     98  O   UNL     1      -2.416  -3.916  -1.946  1.00  0.00    -0.744 OA
ENDBRANCH  94  95
ENDBRANCH  66  89
BRANCH  78  99
ATOM     99  C   UNL     1      -4.558   7.688   1.396  1.00  0.00    -0.014 A 
ATOM    100  C   UNL     1      -3.792   8.095   2.467  1.00  0.00     0.010 A 
ATOM    101  C   UNL     1      -5.111   8.683   0.548  1.00  0.00     0.010 A 
ATOM    102  C   UNL     1      -3.321   9.394   2.489  1.00  0.00     0.020 A 
ATOM    103  C   UNL     1      -4.730   9.996   0.610  1.00  0.00     0.020 A 
ATOM    104  C   UNL     1      -3.771  10.320   1.542  1.00  0.00     0.054 A 
BRANCH 104 105
ATOM    105  S   UNL     1      -3.129  11.981   1.591  1.00  0.00     0.124 S 
ATOM    106  O   UNL     1      -3.259  12.304   3.009  1.00  0.00    -0.237 OA
ATOM    107  O   UNL     1      -1.767  11.781   1.104  1.00  0.00    -0.237 OA
ATOM    108  O   UNL     1      -4.014  12.722   0.697  1.00  0.00    -0.744 OA
ENDBRANCH 104 105
ENDBRANCH  78  99
ENDBRANCH  52  53
ENDBRANCH  45  47
ENDBRANCH  44  45
ENDBRANCH  43  44
ENDBRANCH  42  43
ENDBRANCH  41  42
ENDBRANCH  40  41
ENDBRANCH  39  40
ENDBRANCH  38  39
ENDBRANCH   1  38
TORSDOF 29
