REMARK SMILES COc1ccc(-c2[nH]nc3nc(-c4ccc(C(F)(F)F)cc4)cc(C(=O)OCCOCCOCCOCCOC(=O)c4ccc(-c5c6nc(c(-c7ccc(S(=O)(=O)[O-])cc7)c7ccc([nH]7)c(-c7ccc(S(=O)(=O)[O-])cc7)c7nc(c(-c8ccc(S(=O)(=O)[O-])cc8)c8ccc5[nH]8)C=C7)C=C6)cc4)c23)cc1
REMARK SMILES IDX 34 1 33 2 32 3 31 4 30 5 29 6 28 7 27 8 25 9 26 10 24 11
REMARK SMILES IDX 7 12 8 13 102 14 9 15 10 17 11 18 23 19 12 20 6 21 3 22 4 23
REMARK SMILES IDX 104 24 5 25 103 26 2 27 1 28 13 29 14 30 22 31 15 32 21 33
REMARK SMILES IDX 16 34 17 35 18 36 19 37 20 38 35 39 36 40 37 41 38 42 39 43
REMARK SMILES IDX 40 44 41 45 42 46 43 47 101 48 44 49 100 50 45 51 46 52
REMARK SMILES IDX 47 53 94 54 48 55 99 56 93 57 95 58 49 59 98 60 92 61 91 62
REMARK SMILES IDX 50 64 80 65 61 66 79 67 62 68 65 69 78 70 96 71 63 72 64 73
REMARK SMILES IDX 77 75 97 76 66 77 51 78 52 79 60 80 53 81 59 82 54 83 55 84
REMARK SMILES IDX 56 85 57 86 58 87 81 88 82 89 90 90 83 91 89 92 84 93 85 94
REMARK SMILES IDX 86 95 87 96 88 97 67 98 68 99 76 100 69 101 75 102 70 103
REMARK SMILES IDX 71 104 72 105 73 106 74 107
REMARK H PARENT 8 16 95 63 65 74
REMARK Flexibility Score: inf
ROOT
ATOM      1  C   UNL     1       7.667  -1.211  -3.472  1.00  0.00     0.188 C 
ENDROOT
BRANCH   1   2
ATOM      2  O   UNL     1       7.693  -0.398  -4.641  1.00  0.00    -0.377 OA
BRANCH   2   3
ATOM      3  C   UNL     1       6.444   0.116  -5.087  1.00  0.00     0.188 C 
BRANCH   3   4
ATOM      4  C   UNL     1       5.279  -0.863  -5.049  1.00  0.00     0.188 C 
BRANCH   4   5
ATOM      5  O   UNL     1       4.951  -1.376  -3.775  1.00  0.00    -0.376 OA
BRANCH   5   6
ATOM      6  C   UNL     1       4.280  -2.620  -3.633  1.00  0.00     0.202 C 
BRANCH   6   7
ATOM      7  C   UNL     1       4.211  -3.607  -4.810  1.00  0.00     0.261 C 
BRANCH   7   8
ATOM      8  O   UNL     1       3.924  -3.021  -6.093  1.00  0.00    -0.460 OA
BRANCH   8   9
ATOM      9  C   UNL     1       2.796  -2.289  -6.221  1.00  0.00     0.339 C 
ATOM     10  O   UNL     1       1.790  -2.430  -5.544  1.00  0.00    -0.246 OA
BRANCH   9  11
ATOM     11  C   UNL     1       3.048  -1.239  -7.238  1.00  0.00     0.075 A 
ATOM     12  C   UNL     1       1.721   0.717  -6.336  1.00  0.00     0.075 A 
ATOM     13  N   UNL     1       1.465   1.941  -6.911  1.00  0.00    -0.275 N 
ATOM     14  C   UNL     1       2.492   0.048  -7.275  1.00  0.00     0.061 A 
ATOM     15  N   UNL     1       2.121   2.173  -8.057  1.00  0.00    -0.154 NA
ATOM     16  H   UNL     1       0.848   2.596  -6.512  1.00  0.00     0.190 HD
ATOM     17  C   UNL     1       2.802   1.047  -8.262  1.00  0.00     0.182 A 
ATOM     18  N   UNL     1       3.714   0.852  -9.244  1.00  0.00    -0.226 NA
ATOM     19  C   UNL     1       4.029  -1.381  -8.250  1.00  0.00     0.045 A 
ATOM     20  C   UNL     1       4.326  -0.363  -9.200  1.00  0.00     0.074 A 
BRANCH  12  21
ATOM     21  C   UNL     1       1.314   0.460  -4.961  1.00  0.00     0.001 A 
ATOM     22  C   UNL     1       0.602  -0.079  -2.289  1.00  0.00     0.118 A 
ATOM     23  C   UNL     1      -0.240  -0.447  -3.344  1.00  0.00     0.047 A 
ATOM     24  C   UNL     1       1.791   0.588  -2.573  1.00  0.00     0.047 A 
ATOM     25  C   UNL     1       0.104  -0.170  -4.671  1.00  0.00     0.014 A 
ATOM     26  C   UNL     1       2.140   0.862  -3.902  1.00  0.00     0.014 A 
BRANCH  22  27
ATOM     27  O   UNL     1       0.159  -0.448  -1.048  1.00  0.00    -0.497 OA
ATOM     28  C   UNL     1       0.896   0.037   0.068  1.00  0.00     0.278 C 
ENDBRANCH  22  27
ENDBRANCH  12  21
BRANCH  20  29
ATOM     29  C   UNL     1       5.332  -0.588 -10.272  1.00  0.00     0.000 A 
ATOM     30  C   UNL     1       6.160   0.446 -10.751  1.00  0.00     0.011 A 
ATOM     31  C   UNL     1       5.464  -1.846 -10.887  1.00  0.00     0.011 A 
ATOM     32  C   UNL     1       7.066   0.234 -11.804  1.00  0.00     0.014 A 
ATOM     33  C   UNL     1       6.363  -2.062 -11.937  1.00  0.00     0.014 A 
ATOM     34  C   UNL     1       7.169  -1.024 -12.415  1.00  0.00     0.056 A 
BRANCH  34  35
ATOM     35  C   UNL     1       8.109  -1.248 -13.576  1.00  0.00     0.416 C 
ATOM     36  F   UNL     1       7.811  -0.462 -14.649  1.00  0.00    -0.166 F 
ATOM     37  F   UNL     1       9.407  -0.990 -13.266  1.00  0.00    -0.166 F 
ATOM     38  F   UNL     1       8.086  -2.529 -14.045  1.00  0.00    -0.166 F 
ENDBRANCH  34  35
ENDBRANCH  20  29
ENDBRANCH   9  11
ENDBRANCH   8   9
ENDBRANCH   7   8
ENDBRANCH   6   7
ENDBRANCH   5   6
ENDBRANCH   4   5
ENDBRANCH   3   4
ENDBRANCH   2   3
ENDBRANCH   1   2
BRANCH   1  39
ATOM     39  C   UNL     1       7.153  -0.604  -2.138  1.00  0.00     0.188 C 
BRANCH  39  40
ATOM     40  O   UNL     1       6.070   0.306  -2.225  1.00  0.00    -0.376 OA
BRANCH  40  41
ATOM     41  C   UNL     1       6.188   1.718  -2.176  1.00  0.00     0.202 C 
BRANCH  41  42
ATOM     42  C   UNL     1       7.345   2.529  -2.766  1.00  0.00     0.261 C 
BRANCH  42  43
ATOM     43  O   UNL     1       8.443   1.779  -3.216  1.00  0.00    -0.460 OA
BRANCH  43  44
ATOM     44  C   UNL     1       9.316   1.453  -2.249  1.00  0.00     0.338 C 
ATOM     45  O   UNL     1       9.177   1.624  -1.049  1.00  0.00    -0.246 OA
BRANCH  44  46
ATOM     46  C   UNL     1      10.531   0.938  -2.881  1.00  0.00     0.060 A 
ATOM     47  C   UNL     1      11.525   0.517  -2.001  1.00  0.00     0.016 A 
ATOM     48  C   UNL     1      10.794   1.297  -4.211  1.00  0.00     0.016 A 
ATOM     49  C   UNL     1      12.821   0.793  -2.348  1.00  0.00     0.010 A 
ATOM     50  C   UNL     1      12.088   1.591  -4.547  1.00  0.00     0.010 A 
ATOM     51  C   UNL     1      13.060   1.445  -3.565  1.00  0.00    -0.014 A 
BRANCH  51  52
ATOM     52  C   UNL     1      14.409   1.866  -3.846  1.00  0.00     0.031 A 
ATOM     53  C   UNL     1      15.251   0.708  -4.191  1.00  0.00     0.074 A 
ATOM     54  C   UNL     1      14.792   3.156  -3.851  1.00  0.00     0.049 A 
ATOM     55  N   UNL     1      16.088   0.106  -3.414  1.00  0.00    -0.248 NA
ATOM     56  C   UNL     1      14.924  -0.034  -5.422  1.00  0.00     0.031 C 
ATOM     57  C   UNL     1      13.964   4.362  -3.765  1.00  0.00     0.029 A 
ATOM     58  N   UNL     1      16.036   3.665  -4.035  1.00  0.00    -0.354 N 
ATOM     59  C   UNL     1      16.601  -0.927  -4.183  1.00  0.00     0.074 A 
ATOM     60  C   UNL     1      15.669  -1.127  -5.262  1.00  0.00     0.031 C 
ATOM     61  C   UNL     1      14.698   5.434  -4.156  1.00  0.00     0.029 A 
ATOM     62  C   UNL     1      16.071   5.010  -4.384  1.00  0.00     0.049 A 
ATOM     63  H   UNL     1      16.851   3.123  -3.931  1.00  0.00     0.167 HD
ATOM     64  C   UNL     1      17.911  -1.276  -4.079  1.00  0.00     0.031 A 
ATOM     65  C   UNL     1      17.142   5.680  -4.889  1.00  0.00     0.031 A 
ATOM     66  C   UNL     1      18.500  -0.757  -2.868  1.00  0.00     0.049 A 
ATOM     67  C   UNL     1      18.349   4.878  -4.556  1.00  0.00     0.074 A 
ATOM     68  C   UNL     1      18.220  -0.884  -1.521  1.00  0.00     0.029 A 
ATOM     69  N   UNL     1      19.278   0.372  -2.993  1.00  0.00    -0.354 N 
ATOM     70  N   UNL     1      18.775   4.707  -3.335  1.00  0.00    -0.248 NA
ATOM     71  C   UNL     1      18.776   3.864  -5.510  1.00  0.00     0.031 C 
ATOM     72  C   UNL     1      18.452   0.410  -0.970  1.00  0.00     0.029 A 
ATOM     73  C   UNL     1      18.943   1.236  -1.983  1.00  0.00     0.049 A 
ATOM     74  H   UNL     1      19.957   0.531  -3.687  1.00  0.00     0.167 HD
ATOM     75  C   UNL     1      19.126   3.366  -3.266  1.00  0.00     0.074 A 
ATOM     76  C   UNL     1      19.182   2.917  -4.658  1.00  0.00     0.031 C 
ATOM     77  C   UNL     1      19.046   2.677  -2.088  1.00  0.00     0.031 A 
BRANCH  64  78
ATOM     78  C   UNL     1      18.740  -1.645  -5.285  1.00  0.00    -0.014 A 
ATOM     79  C   UNL     1      20.088  -1.995  -5.088  1.00  0.00     0.010 A 
ATOM     80  C   UNL     1      18.332  -1.391  -6.613  1.00  0.00     0.010 A 
ATOM     81  C   UNL     1      20.991  -2.020  -6.157  1.00  0.00     0.020 A 
ATOM     82  C   UNL     1      19.212  -1.458  -7.691  1.00  0.00     0.020 A 
ATOM     83  C   UNL     1      20.546  -1.742  -7.450  1.00  0.00     0.054 A 
BRANCH  83  84
ATOM     84  S   UNL     1      21.733  -1.705  -8.810  1.00  0.00     0.124 S 
ATOM     85  O   UNL     1      22.566  -0.563  -8.449  1.00  0.00    -0.237 OA
ATOM     86  O   UNL     1      22.366  -3.016  -8.696  1.00  0.00    -0.237 OA
ATOM     87  O   UNL     1      20.893  -1.524  -9.992  1.00  0.00    -0.744 OA
ENDBRANCH  83  84
ENDBRANCH  64  78
BRANCH  65  88
ATOM     88  C   UNL     1      17.166   6.739  -5.937  1.00  0.00    -0.014 A 
ATOM     89  C   UNL     1      18.357   7.429  -6.246  1.00  0.00     0.010 A 
ATOM     90  C   UNL     1      16.095   6.859  -6.846  1.00  0.00     0.010 A 
ATOM     91  C   UNL     1      18.495   8.146  -7.450  1.00  0.00     0.020 A 
ATOM     92  C   UNL     1      16.223   7.575  -8.044  1.00  0.00     0.020 A 
ATOM     93  C   UNL     1      17.432   8.192  -8.355  1.00  0.00     0.054 A 
BRANCH  93  94
ATOM     94  S   UNL     1      17.676   8.943  -9.995  1.00  0.00     0.124 S 
ATOM     95  O   UNL     1      17.772  10.365  -9.677  1.00  0.00    -0.237 OA
ATOM     96  O   UNL     1      18.910   8.313 -10.455  1.00  0.00    -0.237 OA
ATOM     97  O   UNL     1      16.475   8.555 -10.733  1.00  0.00    -0.744 OA
ENDBRANCH  93  94
ENDBRANCH  65  88
BRANCH  77  98
ATOM     98  C   UNL     1      18.868   3.461  -0.806  1.00  0.00    -0.014 A 
ATOM     99  C   UNL     1      17.774   4.306  -0.528  1.00  0.00     0.010 A 
ATOM    100  C   UNL     1      19.806   3.227   0.214  1.00  0.00     0.010 A 
ATOM    101  C   UNL     1      17.651   4.929   0.726  1.00  0.00     0.020 A 
ATOM    102  C   UNL     1      19.679   3.826   1.467  1.00  0.00     0.020 A 
ATOM    103  C   UNL     1      18.612   4.688   1.714  1.00  0.00     0.054 A 
BRANCH 103 104
ATOM    104  S   UNL     1      18.460   5.492   3.334  1.00  0.00     0.124 S 
ATOM    105  O   UNL     1      18.681   6.899   3.014  1.00  0.00    -0.237 OA
ATOM    106  O   UNL     1      17.101   5.145   3.744  1.00  0.00    -0.237 OA
ATOM    107  O   UNL     1      19.515   4.868   4.133  1.00  0.00    -0.744 OA
ENDBRANCH 103 104
ENDBRANCH  77  98
ENDBRANCH  51  52
ENDBRANCH  44  46
ENDBRANCH  43  44
ENDBRANCH  42  43
ENDBRANCH  41  42
ENDBRANCH  40  41
ENDBRANCH  39  40
ENDBRANCH   1  39
TORSDOF 27
