REMARK SMILES C[C@@H]1CC[C@H](C)[N@H+]1Cc1cc2c(cc1Cl)C=C(C(=O)OCCOCCOCCOCCOC(=O)c1ccc(-c3c4nc(c(-c5ccc(S(=O)(=O)[O-])cc5)c5ccc([nH]5)c(-c5ccc(S(=O)(=O)[O-])cc5)c5nc(c(-c6ccc(S(=O)(=O)[O-])cc6)c6ccc3[nH]6)C=C5)C=C4)cc1)[C@@H](C(F)(F)F)O2
REMARK SMILES IDX 27 1 26 2 25 3 24 4 23 5 22 6 21 7 20 8 18 9 19 10 17 11
REMARK SMILES IDX 9 12 10 13 14 14 11 15 13 16 15 17 12 18 100 19 16 20 95 21
REMARK SMILES IDX 8 22 7 23 6 24 5 25 4 26 3 27 2 28 1 30 96 31 97 32 98 33
REMARK SMILES IDX 99 34 28 35 29 36 30 37 31 38 32 39 33 40 34 41 35 42 36 43
REMARK SMILES IDX 94 44 37 45 93 46 38 47 39 48 40 49 87 50 41 51 92 52 86 53
REMARK SMILES IDX 88 54 42 55 91 56 85 57 84 58 43 60 73 61 54 62 72 63 55 64
REMARK SMILES IDX 58 65 71 66 89 67 56 68 57 69 70 71 90 72 59 73 44 74 45 75
REMARK SMILES IDX 53 76 46 77 52 78 47 79 48 80 49 81 50 82 51 83 74 84 75 85
REMARK SMILES IDX 83 86 76 87 82 88 77 89 78 90 79 91 80 92 81 93 60 94 61 95
REMARK SMILES IDX 69 96 62 97 68 98 63 99 64 100 65 101 66 102 67 103
REMARK H PARENT 7 29 88 59 58 70
REMARK Flexibility Score: inf
ROOT
ATOM      1  C   UNL     1       1.462  -3.796 -10.472  1.00  0.00     0.188 C 
ENDROOT
BRANCH   1   2
ATOM      2  O   UNL     1       0.705  -3.372  -9.338  1.00  0.00    -0.377 OA
BRANCH   2   3
ATOM      3  C   UNL     1       0.441  -4.299  -8.303  1.00  0.00     0.188 C 
BRANCH   3   4
ATOM      4  C   UNL     1      -0.452  -5.494  -8.682  1.00  0.00     0.188 C 
BRANCH   4   5
ATOM      5  O   UNL     1      -0.628  -5.658 -10.085  1.00  0.00    -0.376 OA
BRANCH   5   6
ATOM      6  C   UNL     1      -1.907  -5.339 -10.619  1.00  0.00     0.202 C 
BRANCH   6   7
ATOM      7  C   UNL     1      -2.270  -3.846 -10.679  1.00  0.00     0.261 C 
BRANCH   7   8
ATOM      8  O   UNL     1      -2.169  -3.154  -9.425  1.00  0.00    -0.460 OA
BRANCH   8   9
ATOM      9  C   UNL     1      -3.060  -3.507  -8.481  1.00  0.00     0.338 C 
ATOM     10  O   UNL     1      -3.981  -4.297  -8.611  1.00  0.00    -0.246 OA
BRANCH   9  11
ATOM     11  C   UNL     1      -2.628  -2.950  -7.183  1.00  0.00     0.087 C 
ATOM     12  C   UNL     1      -2.094  -2.151  -2.245  1.00  0.00     0.029 A 
ATOM     13  C   UNL     1      -1.690  -1.442  -3.404  1.00  0.00     0.058 A 
ATOM     14  C   UNL     1      -2.696  -3.408  -2.435  1.00  0.00     0.050 A 
ATOM     15  C   UNL     1      -1.902  -1.963  -4.689  1.00  0.00     0.128 A 
ATOM     16  C   UNL     1      -2.783  -3.978  -3.706  1.00  0.00     0.033 A 
ATOM     17  Cl  UNL     1      -3.546  -4.268  -1.197  1.00  0.00    -0.084 Cl
ATOM     18  C   UNL     1      -2.425  -3.243  -4.832  1.00  0.00     0.019 A 
ATOM     19  O   UNL     1      -1.597  -1.165  -5.759  1.00  0.00    -0.475 OA
ATOM     20  C   UNL     1      -2.719  -3.782  -6.142  1.00  0.00     0.027 C 
ATOM     21  C   UNL     1      -2.121  -1.535  -7.078  1.00  0.00     0.316 C 
BRANCH  12  22
ATOM     22  C   UNL     1      -1.959  -1.484  -0.882  1.00  0.00     0.301 C 
BRANCH  22  23
ATOM     23  N   UNL     1      -0.797  -1.814  -0.045  1.00  0.00    -0.327 N 
ATOM     24  C   UNL     1       0.954  -0.076  -0.079  1.00  0.00     0.075 C 
ATOM     25  C   UNL     1       0.524  -1.453  -0.571  1.00  0.00     0.181 C 
ATOM     26  C   UNL     1       1.467  -2.540  -0.052  1.00  0.00     0.071 C 
ATOM     27  C   UNL     1       0.567  -3.751   0.050  1.00  0.00     0.071 C 
ATOM     28  C   UNL     1      -0.752  -3.162   0.525  1.00  0.00     0.181 C 
ATOM     29  H   UNL     1      -0.998  -1.174   0.723  1.00  0.00     0.348 HD
ATOM     30  C   UNL     1      -0.843  -3.077   2.049  1.00  0.00     0.075 C 
ENDBRANCH  22  23
ENDBRANCH  12  22
BRANCH  21  31
ATOM     31  C   UNL     1      -3.199  -0.532  -7.517  1.00  0.00     0.430 C 
ATOM     32  F   UNL     1      -2.769   0.744  -7.389  1.00  0.00    -0.167 F 
ATOM     33  F   UNL     1      -3.542  -0.711  -8.813  1.00  0.00    -0.167 F 
ATOM     34  F   UNL     1      -4.326  -0.659  -6.778  1.00  0.00    -0.167 F 
ENDBRANCH  21  31
ENDBRANCH   9  11
ENDBRANCH   8   9
ENDBRANCH   7   8
ENDBRANCH   6   7
ENDBRANCH   5   6
ENDBRANCH   4   5
ENDBRANCH   3   4
ENDBRANCH   2   3
ENDBRANCH   1   2
BRANCH   1  35
ATOM     35  C   UNL     1       2.109  -5.198 -10.573  1.00  0.00     0.188 C 
BRANCH  35  36
ATOM     36  O   UNL     1       2.462  -5.786  -9.327  1.00  0.00    -0.376 OA
BRANCH  36  37
ATOM     37  C   UNL     1       3.849  -5.884  -9.042  1.00  0.00     0.202 C 
BRANCH  37  38
ATOM     38  C   UNL     1       4.508  -4.556  -8.653  1.00  0.00     0.261 C 
BRANCH  38  39
ATOM     39  O   UNL     1       4.472  -3.534  -9.659  1.00  0.00    -0.460 OA
BRANCH  39  40
ATOM     40  C   UNL     1       5.077  -3.787 -10.843  1.00  0.00     0.338 C 
ATOM     41  O   UNL     1       5.690  -4.793 -11.156  1.00  0.00    -0.246 OA
BRANCH  40  42
ATOM     42  C   UNL     1       4.676  -2.706 -11.767  1.00  0.00     0.060 A 
ATOM     43  C   UNL     1       4.872  -1.370 -11.407  1.00  0.00     0.016 A 
ATOM     44  C   UNL     1       4.031  -3.032 -12.967  1.00  0.00     0.016 A 
ATOM     45  C   UNL     1       4.438  -0.356 -12.262  1.00  0.00     0.010 A 
ATOM     46  C   UNL     1       3.584  -2.014 -13.813  1.00  0.00     0.010 A 
ATOM     47  C   UNL     1       3.804  -0.670 -13.475  1.00  0.00    -0.014 A 
BRANCH  47  48
ATOM     48  C   UNL     1       3.556   0.396 -14.475  1.00  0.00     0.031 A 
ATOM     49  C   UNL     1       2.210   1.028 -14.656  1.00  0.00     0.074 A 
ATOM     50  C   UNL     1       4.597   0.781 -15.237  1.00  0.00     0.049 A 
ATOM     51  N   UNL     1       1.874   2.006 -15.456  1.00  0.00    -0.248 NA
ATOM     52  C   UNL     1       1.102   0.504 -13.844  1.00  0.00     0.031 C 
ATOM     53  C   UNL     1       5.950   0.228 -15.137  1.00  0.00     0.029 A 
ATOM     54  N   UNL     1       4.692   1.720 -16.232  1.00  0.00    -0.354 N 
ATOM     55  C   UNL     1       0.523   2.237 -15.233  1.00  0.00     0.074 A 
ATOM     56  C   UNL     1       0.090   1.265 -14.250  1.00  0.00     0.031 C 
ATOM     57  C   UNL     1       6.743   0.851 -16.020  1.00  0.00     0.029 A 
ATOM     58  C   UNL     1       5.952   1.822 -16.772  1.00  0.00     0.049 A 
ATOM     59  H   UNL     1       3.931   2.269 -16.530  1.00  0.00     0.167 HD
ATOM     60  C   UNL     1      -0.269   3.185 -15.790  1.00  0.00     0.031 A 
ATOM     61  C   UNL     1       6.427   2.605 -17.760  1.00  0.00     0.031 A 
ATOM     62  C   UNL     1       0.179   4.130 -16.785  1.00  0.00     0.049 A 
ATOM     63  C   UNL     1       5.511   3.602 -18.408  1.00  0.00     0.074 A 
ATOM     64  C   UNL     1      -0.546   5.151 -17.377  1.00  0.00     0.029 A 
ATOM     65  N   UNL     1       1.448   4.169 -17.343  1.00  0.00    -0.354 N 
ATOM     66  N   UNL     1       4.254   3.855 -18.133  1.00  0.00    -0.248 NA
ATOM     67  C   UNL     1       6.072   4.429 -19.485  1.00  0.00     0.031 C 
ATOM     68  C   UNL     1       0.257   5.752 -18.348  1.00  0.00     0.029 A 
ATOM     69  C   UNL     1       1.513   5.168 -18.302  1.00  0.00     0.049 A 
ATOM     70  H   UNL     1       2.193   3.575 -17.094  1.00  0.00     0.167 HD
ATOM     71  C   UNL     1       3.879   4.886 -18.986  1.00  0.00     0.074 A 
ATOM     72  C   UNL     1       5.044   5.217 -19.780  1.00  0.00     0.031 C 
ATOM     73  C   UNL     1       2.676   5.499 -19.092  1.00  0.00     0.031 A 
BRANCH  60  74
ATOM     74  C   UNL     1      -1.707   3.285 -15.343  1.00  0.00    -0.014 A 
ATOM     75  C   UNL     1      -2.746   3.039 -16.261  1.00  0.00     0.010 A 
ATOM     76  C   UNL     1      -2.029   3.784 -14.069  1.00  0.00     0.010 A 
ATOM     77  C   UNL     1      -4.074   3.327 -15.929  1.00  0.00     0.020 A 
ATOM     78  C   UNL     1      -3.359   4.048 -13.723  1.00  0.00     0.020 A 
ATOM     79  C   UNL     1      -4.370   3.842 -14.665  1.00  0.00     0.054 A 
BRANCH  79  80
ATOM     80  S   UNL     1      -6.093   4.253 -14.269  1.00  0.00     0.124 S 
ATOM     81  O   UNL     1      -6.309   5.465 -15.052  1.00  0.00    -0.237 OA
ATOM     82  O   UNL     1      -6.815   3.068 -14.726  1.00  0.00    -0.237 OA
ATOM     83  O   UNL     1      -6.075   4.440 -12.820  1.00  0.00    -0.744 OA
ENDBRANCH  79  80
ENDBRANCH  60  74
BRANCH  61  84
ATOM     84  C   UNL     1       7.862   2.487 -18.137  1.00  0.00    -0.014 A 
ATOM     85  C   UNL     1       8.347   1.306 -18.732  1.00  0.00     0.010 A 
ATOM     86  C   UNL     1       8.771   3.503 -17.794  1.00  0.00     0.010 A 
ATOM     87  C   UNL     1       9.718   1.115 -18.914  1.00  0.00     0.020 A 
ATOM     88  C   UNL     1      10.142   3.328 -18.005  1.00  0.00     0.020 A 
ATOM     89  C   UNL     1      10.608   2.121 -18.533  1.00  0.00     0.054 A 
BRANCH  89  90
ATOM     90  S   UNL     1      12.388   1.819 -18.708  1.00  0.00     0.124 S 
ATOM     91  O   UNL     1      12.643   0.891 -17.610  1.00  0.00    -0.237 OA
ATOM     92  O   UNL     1      12.483   1.248 -20.049  1.00  0.00    -0.237 OA
ATOM     93  O   UNL     1      12.977   3.146 -18.555  1.00  0.00    -0.744 OA
ENDBRANCH  89  90
ENDBRANCH  61  84
BRANCH  73  94
ATOM     94  C   UNL     1       2.516   6.606 -20.102  1.00  0.00    -0.014 A 
ATOM     95  C   UNL     1       2.271   7.921 -19.660  1.00  0.00     0.010 A 
ATOM     96  C   UNL     1       2.429   6.319 -21.476  1.00  0.00     0.010 A 
ATOM     97  C   UNL     1       1.878   8.912 -20.563  1.00  0.00     0.020 A 
ATOM     98  C   UNL     1       2.066   7.316 -22.386  1.00  0.00     0.020 A 
ATOM     99  C   UNL     1       1.758   8.597 -21.919  1.00  0.00     0.054 A 
BRANCH  99 100
ATOM    100  S   UNL     1       1.156   9.872 -23.061  1.00  0.00     0.124 S 
ATOM    101  O   UNL     1      -0.262   9.944 -22.721  1.00  0.00    -0.237 OA
ATOM    102  O   UNL     1       1.953  11.038 -22.687  1.00  0.00    -0.237 OA
ATOM    103  O   UNL     1       1.455   9.320 -24.381  1.00  0.00    -0.744 OA
ENDBRANCH  99 100
ENDBRANCH  73  94
ENDBRANCH  47  48
ENDBRANCH  40  42
ENDBRANCH  39  40
ENDBRANCH  38  39
ENDBRANCH  37  38
ENDBRANCH  36  37
ENDBRANCH  35  36
ENDBRANCH   1  35
TORSDOF 26
