REMARK SMILES CC(C)Cc1ccc(-c2cc(Cl)cc3c2O[C@@H](C(F)(F)F)C(C(=O)OCCOCCOCCOCCOC(=O)c2ccc(-c4c5nc(c(-c6ccc(S(=O)(=O)[O-])cc6)c6ccc([nH]6)c(-c6ccc(S(=O)(=O)[O-])cc6)c6nc(c(-c7ccc(S(=O)(=O)[O-])cc7)c7ccc4[nH]7)C=C6)C=C5)cc2)=C3)cc1
REMARK SMILES IDX 31 1 30 2 29 3 28 4 27 5 26 6 25 7 23 8 24 9 22 10 9 11
REMARK SMILES IDX 10 12 15 13 11 14 14 15 16 16 12 17 13 18 100 19 17 20 8 21
REMARK SMILES IDX 5 22 6 23 102 24 7 25 101 26 4 27 2 28 1 29 3 30 18 31 19 32
REMARK SMILES IDX 20 33 21 34 32 35 33 36 34 37 35 38 36 39 37 40 38 41 39 42
REMARK SMILES IDX 40 43 41 44 99 45 42 46 98 47 43 48 44 49 45 50 92 51 46 52
REMARK SMILES IDX 97 53 91 54 93 55 47 56 96 57 90 58 89 59 48 61 78 62 59 63
REMARK SMILES IDX 77 64 60 65 63 66 76 67 94 68 61 69 62 70 75 72 95 73 64 74
REMARK SMILES IDX 49 75 50 76 58 77 51 78 57 79 52 80 53 81 54 82 55 83 56 84
REMARK SMILES IDX 79 85 80 86 88 87 81 88 87 89 82 90 83 91 84 92 85 93 86 94
REMARK SMILES IDX 65 95 66 96 74 97 67 98 73 99 68 100 69 101 70 102 71 103
REMARK SMILES IDX 72 104
REMARK H PARENT 93 60 63 71
REMARK Flexibility Score: inf
ROOT
ATOM      1  O   UNL     1      -1.090   6.325  10.069  1.00  0.00    -0.377 OA
ENDROOT
BRANCH   1   2
ATOM      2  C   UNL     1      -0.897   5.689   8.822  1.00  0.00     0.188 C 
BRANCH   2   3
ATOM      3  C   UNL     1      -2.197   5.544   8.021  1.00  0.00     0.188 C 
BRANCH   3   4
ATOM      4  O   UNL     1      -3.301   6.263   8.562  1.00  0.00    -0.376 OA
BRANCH   4   5
ATOM      5  C   UNL     1      -4.189   5.561   9.431  1.00  0.00     0.202 C 
BRANCH   5   6
ATOM      6  C   UNL     1      -3.573   4.735  10.569  1.00  0.00     0.261 C 
BRANCH   6   7
ATOM      7  O   UNL     1      -2.854   3.597  10.039  1.00  0.00    -0.460 OA
BRANCH   7   8
ATOM      8  C   UNL     1      -3.589   2.496   9.816  1.00  0.00     0.338 C 
ATOM      9  O   UNL     1      -4.757   2.355  10.155  1.00  0.00    -0.246 OA
BRANCH   8  10
ATOM     10  C   UNL     1      -2.901   1.519   8.934  1.00  0.00     0.087 C 
ATOM     11  C   UNL     1      -2.102   2.979   5.138  1.00  0.00     0.026 A 
ATOM     12  C   UNL     1      -3.108   3.925   4.831  1.00  0.00     0.033 A 
ATOM     13  C   UNL     1      -2.259   2.281   6.353  1.00  0.00     0.135 A 
ATOM     14  C   UNL     1      -4.322   3.935   5.514  1.00  0.00     0.042 A 
ATOM     15  C   UNL     1      -3.554   2.128   6.875  1.00  0.00     0.019 A 
ATOM     16  O   UNL     1      -1.162   1.951   7.142  1.00  0.00    -0.475 OA
ATOM     17  Cl  UNL     1      -5.526   5.086   5.098  1.00  0.00    -0.084 Cl
ATOM     18  C   UNL     1      -4.588   2.965   6.469  1.00  0.00     0.032 A 
ATOM     19  C   UNL     1      -3.752   1.145   7.961  1.00  0.00     0.027 C 
ATOM     20  C   UNL     1      -1.437   1.464   8.532  1.00  0.00     0.316 C 
BRANCH  11  21
ATOM     21  C   UNL     1      -1.387   2.430   3.938  1.00  0.00    -0.015 A 
ATOM     22  C   UNL     1      -0.958   1.470   1.274  1.00  0.00    -0.048 A 
ATOM     23  C   UNL     1      -0.683   2.800   1.611  1.00  0.00     0.004 A 
ATOM     24  C   UNL     1      -1.363   0.603   2.292  1.00  0.00     0.004 A 
ATOM     25  C   UNL     1      -0.882   3.268   2.924  1.00  0.00     0.009 A 
ATOM     26  C   UNL     1      -1.564   1.073   3.600  1.00  0.00     0.009 A 
BRANCH  22  27
ATOM     27  C   UNL     1      -0.851   0.987  -0.159  1.00  0.00     0.038 C 
BRANCH  27  28
ATOM     28  C   UNL     1       0.598   0.856  -0.666  1.00  0.00    -0.013 C 
ATOM     29  C   UNL     1       1.373  -0.205   0.118  1.00  0.00     0.008 C 
ATOM     30  C   UNL     1       0.620   0.508  -2.158  1.00  0.00     0.008 C 
ENDBRANCH  27  28
ENDBRANCH  22  27
ENDBRANCH  11  21
BRANCH  20  31
ATOM     31  C   UNL     1      -0.371   1.828   9.596  1.00  0.00     0.430 C 
ATOM     32  F   UNL     1      -0.324   0.849  10.540  1.00  0.00    -0.167 F 
ATOM     33  F   UNL     1       0.868   1.885   9.047  1.00  0.00    -0.167 F 
ATOM     34  F   UNL     1      -0.561   2.978  10.255  1.00  0.00    -0.167 F 
ENDBRANCH  20  31
ENDBRANCH   8  10
ENDBRANCH   7   8
ENDBRANCH   6   7
ENDBRANCH   5   6
ENDBRANCH   4   5
ENDBRANCH   3   4
ENDBRANCH   2   3
ENDBRANCH   1   2
BRANCH   1  35
ATOM     35  C   UNL     1      -1.129   7.748  10.084  1.00  0.00     0.188 C 
BRANCH  35  36
ATOM     36  C   UNL     1      -1.506   8.558   8.823  1.00  0.00     0.188 C 
BRANCH  36  37
ATOM     37  O   UNL     1      -0.858   8.130   7.625  1.00  0.00    -0.376 OA
BRANCH  37  38
ATOM     38  C   UNL     1       0.192   8.951   7.132  1.00  0.00     0.202 C 
BRANCH  38  39
ATOM     39  C   UNL     1       1.530   8.759   7.859  1.00  0.00     0.261 C 
BRANCH  39  40
ATOM     40  O   UNL     1       1.524   9.136   9.243  1.00  0.00    -0.460 OA
BRANCH  40  41
ATOM     41  C   UNL     1       1.203  10.416   9.530  1.00  0.00     0.338 C 
ATOM     42  O   UNL     1       0.992  11.317   8.735  1.00  0.00    -0.246 OA
BRANCH  41  43
ATOM     43  C   UNL     1       0.946  10.505  10.980  1.00  0.00     0.060 A 
ATOM     44  C   UNL     1      -0.276  11.034  11.415  1.00  0.00     0.016 A 
ATOM     45  C   UNL     1       1.893  10.049  11.901  1.00  0.00     0.016 A 
ATOM     46  C   UNL     1      -0.535  11.151  12.780  1.00  0.00     0.010 A 
ATOM     47  C   UNL     1       1.640  10.184  13.266  1.00  0.00     0.010 A 
ATOM     48  C   UNL     1       0.442  10.770  13.709  1.00  0.00    -0.014 A 
BRANCH  48  49
ATOM     49  C   UNL     1       0.309  11.186  15.124  1.00  0.00     0.031 A 
ATOM     50  C   UNL     1       0.959  12.477  15.542  1.00  0.00     0.074 A 
ATOM     51  C   UNL     1      -0.369  10.443  16.017  1.00  0.00     0.049 A 
ATOM     52  N   UNL     1       1.002  13.040  16.720  1.00  0.00    -0.248 NA
ATOM     53  C   UNL     1       1.657  13.232  14.486  1.00  0.00     0.031 C 
ATOM     54  C   UNL     1      -1.062   9.189  15.727  1.00  0.00     0.029 A 
ATOM     55  N   UNL     1      -0.574  10.641  17.360  1.00  0.00    -0.354 N 
ATOM     56  C   UNL     1       1.734  14.209  16.550  1.00  0.00     0.074 A 
ATOM     57  C   UNL     1       2.137  14.264  15.163  1.00  0.00     0.031 C 
ATOM     58  C   UNL     1      -1.606   8.721  16.865  1.00  0.00     0.029 A 
ATOM     59  C   UNL     1      -1.278   9.627  17.965  1.00  0.00     0.049 A 
ATOM     60  H   UNL     1      -0.248  11.434  17.843  1.00  0.00     0.167 HD
ATOM     61  C   UNL     1       2.042  15.155  17.467  1.00  0.00     0.031 A 
ATOM     62  C   UNL     1      -1.602   9.446  19.261  1.00  0.00     0.031 A 
ATOM     63  C   UNL     1       1.659  15.090  18.850  1.00  0.00     0.049 A 
ATOM     64  C   UNL     1      -1.196  10.485  20.276  1.00  0.00     0.074 A 
ATOM     65  C   UNL     1       1.903  16.009  19.854  1.00  0.00     0.029 A 
ATOM     66  N   UNL     1       0.962  14.040  19.428  1.00  0.00    -0.354 N 
ATOM     67  N   UNL     1      -0.546  11.610  20.092  1.00  0.00    -0.248 NA
ATOM     68  C   UNL     1      -1.576  10.233  21.674  1.00  0.00     0.031 C 
ATOM     69  C   UNL     1       1.403  15.489  21.052  1.00  0.00     0.029 A 
ATOM     70  C   UNL     1       0.793  14.274  20.781  1.00  0.00     0.049 A 
ATOM     71  H   UNL     1       0.636  13.245  18.946  1.00  0.00     0.167 HD
ATOM     72  C   UNL     1      -0.465  12.213  21.345  1.00  0.00     0.074 A 
ATOM     73  C   UNL     1      -1.142  11.334  22.275  1.00  0.00     0.031 C 
ATOM     74  C   UNL     1       0.113  13.389  21.693  1.00  0.00     0.031 A 
BRANCH  61  75
ATOM     75  C   UNL     1       2.867  16.324  17.005  1.00  0.00    -0.014 A 
ATOM     76  C   UNL     1       2.319  17.322  16.179  1.00  0.00     0.010 A 
ATOM     77  C   UNL     1       4.204  16.440  17.428  1.00  0.00     0.010 A 
ATOM     78  C   UNL     1       3.104  18.399  15.757  1.00  0.00     0.020 A 
ATOM     79  C   UNL     1       4.984  17.528  17.029  1.00  0.00     0.020 A 
ATOM     80  C   UNL     1       4.432  18.493  16.183  1.00  0.00     0.054 A 
BRANCH  80  81
ATOM     81  S   UNL     1       5.421  19.915  15.643  1.00  0.00     0.124 S 
ATOM     82  O   UNL     1       5.670  19.592  14.240  1.00  0.00    -0.237 OA
ATOM     83  O   UNL     1       4.519  21.040  15.878  1.00  0.00    -0.237 OA
ATOM     84  O   UNL     1       6.596  19.870  16.510  1.00  0.00    -0.744 OA
ENDBRANCH  80  81
ENDBRANCH  61  75
BRANCH  62  85
ATOM     85  C   UNL     1      -2.333   8.219  19.683  1.00  0.00    -0.014 A 
ATOM     86  C   UNL     1      -3.664   8.291  20.130  1.00  0.00     0.010 A 
ATOM     87  C   UNL     1      -1.691   6.968  19.652  1.00  0.00     0.010 A 
ATOM     88  C   UNL     1      -4.332   7.139  20.557  1.00  0.00     0.020 A 
ATOM     89  C   UNL     1      -2.363   5.810  20.052  1.00  0.00     0.020 A 
ATOM     90  C   UNL     1      -3.676   5.904  20.515  1.00  0.00     0.054 A 
BRANCH  90  91
ATOM     91  S   UNL     1      -4.575   4.415  21.033  1.00  0.00     0.124 S 
ATOM     92  O   UNL     1      -4.598   4.564  22.485  1.00  0.00    -0.237 OA
ATOM     93  O   UNL     1      -5.862   4.573  20.360  1.00  0.00    -0.237 OA
ATOM     94  O   UNL     1      -3.747   3.323  20.528  1.00  0.00    -0.744 OA
ENDBRANCH  90  91
ENDBRANCH  62  85
BRANCH  74  95
ATOM     95  C   UNL     1       0.010  13.821  23.132  1.00  0.00    -0.014 A 
ATOM     96  C   UNL     1       0.763  13.194  24.139  1.00  0.00     0.010 A 
ATOM     97  C   UNL     1      -0.803  14.920  23.467  1.00  0.00     0.010 A 
ATOM     98  C   UNL     1       0.684  13.641  25.462  1.00  0.00     0.020 A 
ATOM     99  C   UNL     1      -0.864  15.387  24.782  1.00  0.00     0.020 A 
ATOM    100  C   UNL     1      -0.130  14.735  25.774  1.00  0.00     0.054 A 
BRANCH 100 101
ATOM    101  S   UNL     1      -0.179  15.327  27.488  1.00  0.00     0.124 S 
ATOM    102  O   UNL     1      -0.995  14.306  28.139  1.00  0.00    -0.237 OA
ATOM    103  O   UNL     1       1.232  15.338  27.866  1.00  0.00    -0.237 OA
ATOM    104  O   UNL     1      -0.799  16.645  27.382  1.00  0.00    -0.744 OA
ENDBRANCH 100 101
ENDBRANCH  74  95
ENDBRANCH  48  49
ENDBRANCH  41  43
ENDBRANCH  40  41
ENDBRANCH  39  40
ENDBRANCH  38  39
ENDBRANCH  37  38
ENDBRANCH  36  37
ENDBRANCH  35  36
ENDBRANCH   1  35
TORSDOF 27
