REMARK SMILES O=C(C[NH+]1CC(c2nc(-c3cccs3)no2)C1)OCCOCCOCCOCCOC(=O)c1ccc(-c2c3nc(c(-c4ccc(S(=O)(=O)[O-])cc4)c4ccc([nH]4)c(-c4ccc(S(=O)(=O)[O-])cc4)c4nc(c(-c5ccc(S(=O)(=O)[O-])cc5)c5ccc2[nH]5)C=C4)C=C3)cc1
REMARK SMILES IDX 24 1 23 2 22 3 21 4 20 5 19 6 18 7 2 8 1 9 3 10 4 11 5 12
REMARK SMILES IDX 17 13 6 15 7 16 8 17 16 18 9 19 15 20 10 21 11 22 14 23
REMARK SMILES IDX 12 24 13 25 25 26 26 27 27 28 28 29 29 30 30 31 31 32 32 33
REMARK SMILES IDX 33 34 34 35 92 36 35 37 91 38 36 39 37 40 38 41 85 42 39 43
REMARK SMILES IDX 90 44 84 45 86 46 40 47 89 48 83 49 82 50 41 52 71 53 52 54
REMARK SMILES IDX 70 55 53 56 56 57 69 58 87 59 54 60 55 61 68 63 88 64 57 65
REMARK SMILES IDX 42 66 43 67 51 68 44 69 50 70 45 71 46 72 47 73 48 74 49 75
REMARK SMILES IDX 72 76 73 77 81 78 74 79 80 80 75 81 76 82 77 83 78 84 79 85
REMARK SMILES IDX 58 86 59 87 67 88 60 89 66 90 61 91 62 92 63 93 64 94 65 95
REMARK H PARENT 4 14 86 51 56 62
REMARK Flexibility Score: inf
ROOT
ATOM      1  O   UNL     1       2.861   3.608  -1.007  1.00  0.00    -0.377 OA
ENDROOT
BRANCH   1   2
ATOM      2  C   UNL     1       2.116   2.482  -0.583  1.00  0.00     0.188 C 
BRANCH   2   3
ATOM      3  C   UNL     1       2.635   1.690   0.620  1.00  0.00     0.188 C 
BRANCH   3   4
ATOM      4  O   UNL     1       3.997   1.331   0.737  1.00  0.00    -0.376 OA
BRANCH   4   5
ATOM      5  C   UNL     1       4.708   0.376  -0.025  1.00  0.00     0.202 C 
BRANCH   5   6
ATOM      6  C   UNL     1       4.060  -0.562  -1.040  1.00  0.00     0.261 C 
BRANCH   6   7
ATOM      7  O   UNL     1       2.651  -0.810  -0.938  1.00  0.00    -0.459 OA
BRANCH   7   8
ATOM      8  C   UNL     1       2.016  -1.484   0.046  1.00  0.00     0.361 C 
ATOM      9  O   UNL     1       0.848  -1.836  -0.124  1.00  0.00    -0.245 OA
BRANCH   8  10
ATOM     10  C   UNL     1       2.661  -1.616   1.418  1.00  0.00     0.386 C 
BRANCH  10  11
ATOM     11  N   UNL     1       4.013  -2.165   1.350  1.00  0.00    -0.324 N 
ATOM     12  C   UNL     1       4.670  -2.081   2.674  1.00  0.00     0.282 C 
ATOM     13  C   UNL     1       3.989  -3.630   1.456  1.00  0.00     0.282 C 
ATOM     14  H   UNL     1       4.415  -1.708   0.532  1.00  0.00     0.348 HD
ATOM     15  C   UNL     1       5.187  -3.511   2.440  1.00  0.00     0.188 C 
BRANCH  15  16
ATOM     16  C   UNL     1       5.006  -4.473   3.577  1.00  0.00     0.241 A 
ATOM     17  N   UNL     1       5.442  -5.708   3.521  1.00  0.00    -0.190 NA
ATOM     18  O   UNL     1       4.195  -4.237   4.650  1.00  0.00    -0.338 OA
ATOM     19  C   UNL     1       4.744  -6.303   4.542  1.00  0.00     0.212 A 
ATOM     20  N   UNL     1       4.038  -5.455   5.302  1.00  0.00    -0.056 NA
BRANCH  19  21
ATOM     21  C   UNL     1       4.683  -7.783   4.668  1.00  0.00     0.075 A 
ATOM     22  C   UNL     1       5.373  -8.636   3.833  1.00  0.00     0.024 A 
ATOM     23  S   UNL     1       3.701  -8.621   5.780  1.00  0.00    -0.140 S 
ATOM     24  C   UNL     1       5.067 -10.001   4.097  1.00  0.00     0.012 A 
ATOM     25  C   UNL     1       4.156 -10.133   5.122  1.00  0.00     0.065 A 
ENDBRANCH  19  21
ENDBRANCH  15  16
ENDBRANCH  10  11
ENDBRANCH   8  10
ENDBRANCH   7   8
ENDBRANCH   6   7
ENDBRANCH   5   6
ENDBRANCH   4   5
ENDBRANCH   3   4
ENDBRANCH   2   3
ENDBRANCH   1   2
BRANCH   1  26
ATOM     26  C   UNL     1       4.218   3.344  -1.297  1.00  0.00     0.188 C 
BRANCH  26  27
ATOM     27  C   UNL     1       5.181   3.843  -0.202  1.00  0.00     0.188 C 
BRANCH  27  28
ATOM     28  O   UNL     1       4.707   4.111   1.104  1.00  0.00    -0.376 OA
BRANCH  28  29
ATOM     29  C   UNL     1       3.623   4.993   1.348  1.00  0.00     0.202 C 
BRANCH  29  30
ATOM     30  C   UNL     1       3.205   6.193   0.470  1.00  0.00     0.261 C 
BRANCH  30  31
ATOM     31  O   UNL     1       3.580   6.195  -0.905  1.00  0.00    -0.460 OA
BRANCH  31  32
ATOM     32  C   UNL     1       4.733   6.828  -1.206  1.00  0.00     0.338 C 
ATOM     33  O   UNL     1       5.476   7.415  -0.434  1.00  0.00    -0.246 OA
BRANCH  32  34
ATOM     34  C   UNL     1       5.077   6.489  -2.602  1.00  0.00     0.060 A 
ATOM     35  C   UNL     1       6.310   5.867  -2.850  1.00  0.00     0.016 A 
ATOM     36  C   UNL     1       4.183   6.734  -3.646  1.00  0.00     0.016 A 
ATOM     37  C   UNL     1       6.662   5.505  -4.146  1.00  0.00     0.010 A 
ATOM     38  C   UNL     1       4.556   6.414  -4.953  1.00  0.00     0.010 A 
ATOM     39  C   UNL     1       5.810   5.829  -5.208  1.00  0.00    -0.014 A 
BRANCH  39  40
ATOM     40  C   UNL     1       6.342   5.795  -6.588  1.00  0.00     0.031 A 
ATOM     41  C   UNL     1       6.908   7.073  -7.145  1.00  0.00     0.074 A 
ATOM     42  C   UNL     1       6.353   4.665  -7.315  1.00  0.00     0.049 A 
ATOM     43  N   UNL     1       7.388   7.318  -8.334  1.00  0.00    -0.248 NA
ATOM     44  C   UNL     1       6.932   8.231  -6.233  1.00  0.00     0.031 C 
ATOM     45  C   UNL     1       5.889   3.357  -6.857  1.00  0.00     0.029 A 
ATOM     46  N   UNL     1       6.769   4.446  -8.604  1.00  0.00    -0.354 N 
ATOM     47  C   UNL     1       7.757   8.658  -8.319  1.00  0.00     0.074 A 
ATOM     48  C   UNL     1       7.423   9.180  -7.013  1.00  0.00     0.031 C 
ATOM     49  C   UNL     1       6.032   2.471  -7.860  1.00  0.00     0.029 A 
ATOM     50  C   UNL     1       6.560   3.159  -9.038  1.00  0.00     0.049 A 
ATOM     51  H   UNL     1       7.178   5.144  -9.164  1.00  0.00     0.167 HD
ATOM     52  C   UNL     1       8.324   9.389  -9.306  1.00  0.00     0.031 A 
ATOM     53  C   UNL     1       6.748   2.612 -10.255  1.00  0.00     0.031 A 
ATOM     54  C   UNL     1       8.632   8.867 -10.609  1.00  0.00     0.049 A 
ATOM     55  C   UNL     1       7.300   3.468 -11.368  1.00  0.00     0.074 A 
ATOM     56  C   UNL     1       9.215   9.520 -11.680  1.00  0.00     0.029 A 
ATOM     57  N   UNL     1       8.369   7.570 -11.023  1.00  0.00    -0.354 N 
ATOM     58  N   UNL     1       7.667   4.729 -11.336  1.00  0.00    -0.248 NA
ATOM     59  C   UNL     1       7.470   2.827 -12.679  1.00  0.00     0.031 C 
ATOM     60  C   UNL     1       9.242   8.637 -12.763  1.00  0.00     0.029 A 
ATOM     61  C   UNL     1       8.749   7.411 -12.345  1.00  0.00     0.049 A 
ATOM     62  H   UNL     1       7.972   6.866 -10.461  1.00  0.00     0.167 HD
ATOM     63  C   UNL     1       8.140   5.020 -12.613  1.00  0.00     0.074 A 
ATOM     64  C   UNL     1       8.026   3.801 -13.387  1.00  0.00     0.031 C 
ATOM     65  C   UNL     1       8.630   6.188 -13.100  1.00  0.00     0.031 A 
BRANCH  52  66
ATOM     66  C   UNL     1       8.597  10.843  -9.025  1.00  0.00    -0.014 A 
ATOM     67  C   UNL     1       9.594  11.240  -8.115  1.00  0.00     0.010 A 
ATOM     68  C   UNL     1       7.858  11.829  -9.703  1.00  0.00     0.010 A 
ATOM     69  C   UNL     1       9.821  12.596  -7.863  1.00  0.00     0.020 A 
ATOM     70  C   UNL     1       8.104  13.185  -9.478  1.00  0.00     0.020 A 
ATOM     71  C   UNL     1       9.074  13.560  -8.547  1.00  0.00     0.054 A 
BRANCH  71  72
ATOM     72  S   UNL     1       9.409  15.312  -8.220  1.00  0.00     0.124 S 
ATOM     73  O   UNL     1       8.885  15.472  -6.866  1.00  0.00    -0.237 OA
ATOM     74  O   UNL     1      10.863  15.386  -8.343  1.00  0.00    -0.237 OA
ATOM     75  O   UNL     1       8.662  16.010  -9.263  1.00  0.00    -0.744 OA
ENDBRANCH  71  72
ENDBRANCH  52  66
BRANCH  53  76
ATOM     76  C   UNL     1       6.388   1.186 -10.497  1.00  0.00    -0.014 A 
ATOM     77  C   UNL     1       7.379   0.228 -10.770  1.00  0.00     0.010 A 
ATOM     78  C   UNL     1       5.040   0.780 -10.460  1.00  0.00     0.010 A 
ATOM     79  C   UNL     1       7.030  -1.104 -11.015  1.00  0.00     0.020 A 
ATOM     80  C   UNL     1       4.689  -0.556 -10.673  1.00  0.00     0.020 A 
ATOM     81  C   UNL     1       5.687  -1.488 -10.960  1.00  0.00     0.054 A 
BRANCH  81  82
ATOM     82  S   UNL     1       5.266  -3.233 -11.226  1.00  0.00     0.124 S 
ATOM     83  O   UNL     1       5.526  -3.395 -12.653  1.00  0.00    -0.237 OA
ATOM     84  O   UNL     1       6.194  -3.918 -10.330  1.00  0.00    -0.237 OA
ATOM     85  O   UNL     1       3.861  -3.310 -10.832  1.00  0.00    -0.744 OA
ENDBRANCH  81  82
ENDBRANCH  53  76
BRANCH  65  86
ATOM     86  C   UNL     1       9.124   6.201 -14.524  1.00  0.00    -0.014 A 
ATOM     87  C   UNL     1       8.237   6.119 -15.611  1.00  0.00     0.010 A 
ATOM     88  C   UNL     1      10.499   6.369 -14.774  1.00  0.00     0.010 A 
ATOM     89  C   UNL     1       8.720   6.172 -16.922  1.00  0.00     0.020 A 
ATOM     90  C   UNL     1      10.981   6.457 -16.082  1.00  0.00     0.020 A 
ATOM     91  C   UNL     1      10.089   6.344 -17.149  1.00  0.00     0.054 A 
BRANCH  91  92
ATOM     92  S   UNL     1      10.683   6.459 -18.859  1.00  0.00     0.124 S 
ATOM     93  O   UNL     1      10.521   5.086 -19.330  1.00  0.00    -0.237 OA
ATOM     94  O   UNL     1       9.772   7.437 -19.448  1.00  0.00    -0.237 OA
ATOM     95  O   UNL     1      12.066   6.909 -18.717  1.00  0.00    -0.744 OA
ENDBRANCH  91  92
ENDBRANCH  65  86
ENDBRANCH  39  40
ENDBRANCH  32  34
ENDBRANCH  31  32
ENDBRANCH  30  31
ENDBRANCH  29  30
ENDBRANCH  28  29
ENDBRANCH  27  28
ENDBRANCH  26  27
ENDBRANCH   1  26
TORSDOF 26
