REMARK SMILES Cc1ncc(CO)c([C@H]2[NH2+][C@@H](C(=O)OCCOCCOCCOCCOC(=O)c3ccc(-c4c5nc(c(-c6ccc(S(=O)(=O)[O-])cc6)c6ccc([nH]6)c(-c6ccc(S(=O)(=O)[O-])cc6)c6nc(c(-c7ccc(S(=O)(=O)[O-])cc7)c7ccc4[nH]7)C=C6)C=C5)cc3)Cc3[nH]cnc32)c1O
REMARK SMILES IDX 20 1 19 2 18 3 17 4 16 5 15 6 14 7 12 8 13 9 11 10 9 11
REMARK SMILES IDX 10 12 94 13 90 16 93 17 89 18 91 19 92 20 8 22 1 23 2 24
REMARK SMILES IDX 3 25 95 26 4 27 5 28 96 29 6 31 7 32 21 34 22 35 23 36 24 37
REMARK SMILES IDX 25 38 26 39 27 40 28 41 29 42 30 43 88 44 31 45 87 46 32 47
REMARK SMILES IDX 33 48 34 49 81 50 35 51 86 52 80 53 82 54 36 55 85 56 79 57
REMARK SMILES IDX 78 58 37 60 67 61 48 62 66 63 49 64 52 65 65 66 83 67 50 68
REMARK SMILES IDX 51 69 64 71 84 72 53 73 38 74 39 75 47 76 40 77 46 78 41 79
REMARK SMILES IDX 42 80 43 81 44 82 45 83 68 84 69 85 77 86 70 87 76 88 71 89
REMARK SMILES IDX 72 90 73 91 74 92 75 93 54 94 55 95 63 96 56 97 62 98 57 99
REMARK SMILES IDX 58 100 59 101 60 102 61 103
REMARK H PARENT 10 14 10 15 91 21 96 30 7 33 82 59 52 70
REMARK Flexibility Score: inf
ROOT
ATOM      1  O   UNL     1      -4.647   1.366   2.504  1.00  0.00    -0.377 OA
ENDROOT
BRANCH   1   2
ATOM      2  C   UNL     1      -3.230   1.368   2.424  1.00  0.00     0.188 C 
BRANCH   2   3
ATOM      3  C   UNL     1      -2.489   1.926   3.675  1.00  0.00     0.188 C 
BRANCH   3   4
ATOM      4  O   UNL     1      -3.198   2.455   4.790  1.00  0.00    -0.376 OA
BRANCH   4   5
ATOM      5  C   UNL     1      -4.440   3.102   4.587  1.00  0.00     0.202 C 
BRANCH   5   6
ATOM      6  C   UNL     1      -4.527   4.276   3.600  1.00  0.00     0.261 C 
BRANCH   6   7
ATOM      7  O   UNL     1      -3.703   4.189   2.428  1.00  0.00    -0.459 OA
BRANCH   7   8
ATOM      8  C   UNL     1      -2.497   4.832   2.464  1.00  0.00     0.365 C 
ATOM      9  O   UNL     1      -2.086   5.492   3.409  1.00  0.00    -0.245 OA
BRANCH   8  10
ATOM     10  C   UNL     1      -1.747   4.602   1.141  1.00  0.00     0.300 C 
ATOM     11  C   UNL     1      -0.272   3.183  -0.168  1.00  0.00     0.270 C 
ATOM     12  N   UNL     1      -0.736   3.482   1.211  1.00  0.00    -0.323 N 
ATOM     13  C   UNL     1       0.444   4.399  -0.665  1.00  0.00     0.124 A 
ATOM     14  H   UNL     1       0.056   3.768   1.786  1.00  0.00     0.347 HD
ATOM     15  H   UNL     1      -1.160   2.652   1.626  1.00  0.00     0.347 HD
ATOM     16  C   UNL     1      -0.006   5.656  -0.288  1.00  0.00     0.051 A 
ATOM     17  N   UNL     1       1.411   4.518  -1.625  1.00  0.00    -0.235 NA
ATOM     18  C   UNL     1      -1.087   5.938   0.701  1.00  0.00     0.133 C 
ATOM     19  N   UNL     1       0.728   6.552  -0.997  1.00  0.00    -0.348 N 
ATOM     20  C   UNL     1       1.574   5.818  -1.786  1.00  0.00     0.197 A 
ATOM     21  H   UNL     1       0.665   7.534  -0.953  1.00  0.00     0.167 HD
BRANCH  11  22
ATOM     22  C   UNL     1       0.363   1.808  -0.288  1.00  0.00     0.066 A 
ATOM     23  C   UNL     1      -1.034  -1.752  -0.826  1.00  0.00     0.071 C 
ATOM     24  C   UNL     1      -0.104  -0.611  -0.527  1.00  0.00     0.079 A 
ATOM     25  N   UNL     1       1.187  -0.935  -0.338  1.00  0.00    -0.257 NA
ATOM     26  C   UNL     1      -0.537   0.720  -0.509  1.00  0.00     0.146 A 
ATOM     27  C   UNL     1       2.044   0.086  -0.117  1.00  0.00     0.118 A 
ATOM     28  C   UNL     1       1.706   1.451  -0.059  1.00  0.00     0.009 A 
BRANCH  26  29
ATOM     29  O   UNL     1      -1.891   0.932  -0.627  1.00  0.00    -0.505 OA
ATOM     30  H   UNL     1      -2.468   0.208  -0.771  1.00  0.00     0.293 HD
ENDBRANCH  26  29
BRANCH  28  31
ATOM     31  C   UNL     1       2.841   2.397   0.216  1.00  0.00     0.194 C 
BRANCH  31  32
ATOM     32  O   UNL     1       3.600   1.948   1.342  1.00  0.00    -0.392 OA
ATOM     33  H   UNL     1       3.027   1.912   2.124  1.00  0.00     0.211 HD
ENDBRANCH  31  32
ENDBRANCH  28  31
ENDBRANCH  11  22
ENDBRANCH   8  10
ENDBRANCH   7   8
ENDBRANCH   6   7
ENDBRANCH   5   6
ENDBRANCH   4   5
ENDBRANCH   3   4
ENDBRANCH   2   3
ENDBRANCH   1   2
BRANCH   1  34
ATOM     34  C   UNL     1      -5.222   0.110   2.855  1.00  0.00     0.188 C 
BRANCH  34  35
ATOM     35  C   UNL     1      -4.702  -0.537   4.158  1.00  0.00     0.188 C 
BRANCH  35  36
ATOM     36  O   UNL     1      -3.285  -0.532   4.280  1.00  0.00    -0.376 OA
BRANCH  36  37
ATOM     37  C   UNL     1      -2.522  -1.722   4.176  1.00  0.00     0.202 C 
BRANCH  37  38
ATOM     38  C   UNL     1      -2.306  -2.256   2.763  1.00  0.00     0.261 C 
BRANCH  38  39
ATOM     39  O   UNL     1      -3.481  -2.264   1.975  1.00  0.00    -0.460 OA
BRANCH  39  40
ATOM     40  C   UNL     1      -4.448  -3.083   2.416  1.00  0.00     0.338 C 
ATOM     41  O   UNL     1      -4.481  -3.685   3.486  1.00  0.00    -0.246 OA
BRANCH  40  42
ATOM     42  C   UNL     1      -5.439  -3.242   1.360  1.00  0.00     0.060 A 
ATOM     43  C   UNL     1      -6.553  -4.013   1.684  1.00  0.00     0.016 A 
ATOM     44  C   UNL     1      -5.057  -2.973   0.036  1.00  0.00     0.016 A 
ATOM     45  C   UNL     1      -7.098  -4.776   0.686  1.00  0.00     0.010 A 
ATOM     46  C   UNL     1      -5.586  -3.752  -0.955  1.00  0.00     0.010 A 
ATOM     47  C   UNL     1      -6.517  -4.715  -0.585  1.00  0.00    -0.014 A 
BRANCH  47  48
ATOM     48  C   UNL     1      -6.952  -5.684  -1.555  1.00  0.00     0.031 A 
ATOM     49  C   UNL     1      -8.276  -5.355  -2.105  1.00  0.00     0.074 A 
ATOM     50  C   UNL     1      -6.181  -6.720  -1.927  1.00  0.00     0.049 A 
ATOM     51  N   UNL     1      -9.398  -5.928  -1.833  1.00  0.00    -0.248 NA
ATOM     52  C   UNL     1      -8.398  -4.095  -2.855  1.00  0.00     0.031 C 
ATOM     53  C   UNL     1      -4.763  -6.950  -1.637  1.00  0.00     0.029 A 
ATOM     54  N   UNL     1      -6.494  -7.742  -2.759  1.00  0.00    -0.354 N 
ATOM     55  C   UNL     1     -10.341  -5.240  -2.582  1.00  0.00     0.074 A 
ATOM     56  C   UNL     1      -9.720  -4.003  -2.979  1.00  0.00     0.031 C 
ATOM     57  C   UNL     1      -4.290  -7.894  -2.485  1.00  0.00     0.029 A 
ATOM     58  C   UNL     1      -5.396  -8.417  -3.271  1.00  0.00     0.049 A 
ATOM     59  H   UNL     1      -7.422  -7.985  -2.982  1.00  0.00     0.167 HD
ATOM     60  C   UNL     1     -11.438  -5.871  -3.078  1.00  0.00     0.031 A 
ATOM     61  C   UNL     1      -5.405  -9.265  -4.332  1.00  0.00     0.031 A 
ATOM     62  C   UNL     1     -11.661  -7.138  -2.430  1.00  0.00     0.049 A 
ATOM     63  C   UNL     1      -6.814  -9.699  -4.534  1.00  0.00     0.074 A 
ATOM     64  C   UNL     1     -11.906  -7.530  -1.130  1.00  0.00     0.029 A 
ATOM     65  N   UNL     1     -11.232  -8.262  -3.100  1.00  0.00    -0.354 N 
ATOM     66  N   UNL     1      -7.467 -10.436  -3.678  1.00  0.00    -0.248 NA
ATOM     67  C   UNL     1      -7.648  -8.924  -5.442  1.00  0.00     0.031 C 
ATOM     68  C   UNL     1     -11.198  -8.756  -0.971  1.00  0.00     0.029 A 
ATOM     69  C   UNL     1     -10.612  -9.086  -2.196  1.00  0.00     0.049 A 
ATOM     70  H   UNL     1     -11.349  -8.442  -4.061  1.00  0.00     0.167 HD
ATOM     71  C   UNL     1      -8.749  -9.902  -3.646  1.00  0.00     0.074 A 
ATOM     72  C   UNL     1      -8.828  -9.039  -4.823  1.00  0.00     0.031 C 
ATOM     73  C   UNL     1      -9.523  -9.987  -2.522  1.00  0.00     0.031 A 
BRANCH  60  74
ATOM     74  C   UNL     1     -12.012  -5.543  -4.432  1.00  0.00    -0.014 A 
ATOM     75  C   UNL     1     -13.171  -6.220  -4.855  1.00  0.00     0.010 A 
ATOM     76  C   UNL     1     -11.308  -4.806  -5.408  1.00  0.00     0.010 A 
ATOM     77  C   UNL     1     -13.559  -6.214  -6.200  1.00  0.00     0.020 A 
ATOM     78  C   UNL     1     -11.712  -4.753  -6.739  1.00  0.00     0.020 A 
ATOM     79  C   UNL     1     -12.818  -5.489  -7.134  1.00  0.00     0.054 A 
BRANCH  79  80
ATOM     80  S   UNL     1     -13.263  -5.570  -8.882  1.00  0.00     0.124 S 
ATOM     81  O   UNL     1     -12.975  -6.965  -9.199  1.00  0.00    -0.237 OA
ATOM     82  O   UNL     1     -14.675  -5.199  -8.857  1.00  0.00    -0.237 OA
ATOM     83  O   UNL     1     -12.377  -4.589  -9.506  1.00  0.00    -0.744 OA
ENDBRANCH  79  80
ENDBRANCH  60  74
BRANCH  61  84
ATOM     84  C   UNL     1      -4.353  -9.410  -5.371  1.00  0.00    -0.014 A 
ATOM     85  C   UNL     1      -4.360 -10.486  -6.277  1.00  0.00     0.010 A 
ATOM     86  C   UNL     1      -3.478  -8.336  -5.641  1.00  0.00     0.010 A 
ATOM     87  C   UNL     1      -3.557 -10.465  -7.432  1.00  0.00     0.020 A 
ATOM     88  C   UNL     1      -2.670  -8.312  -6.783  1.00  0.00     0.020 A 
ATOM     89  C   UNL     1      -2.728  -9.369  -7.686  1.00  0.00     0.054 A 
BRANCH  89  90
ATOM     90  S   UNL     1      -1.813  -9.274  -9.255  1.00  0.00     0.124 S 
ATOM     91  O   UNL     1      -0.805 -10.316  -9.091  1.00  0.00    -0.237 OA
ATOM     92  O   UNL     1      -2.851  -9.547 -10.245  1.00  0.00    -0.237 OA
ATOM     93  O   UNL     1      -1.294  -7.907  -9.269  1.00  0.00    -0.744 OA
ENDBRANCH  89  90
ENDBRANCH  61  84
BRANCH  73  94
ATOM     94  C   UNL     1      -9.098 -10.936  -1.425  1.00  0.00    -0.014 A 
ATOM     95  C   UNL     1      -7.896 -10.818  -0.700  1.00  0.00     0.010 A 
ATOM     96  C   UNL     1     -10.042 -11.891  -1.006  1.00  0.00     0.010 A 
ATOM     97  C   UNL     1      -7.641 -11.650   0.402  1.00  0.00     0.020 A 
ATOM     98  C   UNL     1      -9.803 -12.708   0.100  1.00  0.00     0.020 A 
ATOM     99  C   UNL     1      -8.599 -12.590   0.795  1.00  0.00     0.054 A 
BRANCH  99 100
ATOM    100  S   UNL     1      -8.293 -13.630   2.251  1.00  0.00     0.124 S 
ATOM    101  O   UNL     1      -7.218 -14.507   1.795  1.00  0.00    -0.237 OA
ATOM    102  O   UNL     1      -7.921 -12.656   3.275  1.00  0.00    -0.237 OA
ATOM    103  O   UNL     1      -9.576 -14.294   2.481  1.00  0.00    -0.744 OA
ENDBRANCH  99 100
ENDBRANCH  73  94
ENDBRANCH  47  48
ENDBRANCH  40  42
ENDBRANCH  39  40
ENDBRANCH  38  39
ENDBRANCH  37  38
ENDBRANCH  36  37
ENDBRANCH  35  36
ENDBRANCH  34  35
ENDBRANCH   1  34
TORSDOF 27
