REMARK SMILES O=C(CCc1nc(-c2ccccc2)c(-c2ccccc2)o1)OCCOCCOCCOCCOC(=O)c1ccc(-c2c3nc(c(-c4ccc(S(=O)(=O)[O-])cc4)c4ccc([nH]4)c(-c4ccc(S(=O)(=O)[O-])cc4)c4nc(c(-c5ccc(S(=O)(=O)[O-])cc5)c5ccc2[nH]5)C=C4)C=C3)cc1
REMARK SMILES IDX 28 1 27 2 26 3 25 4 24 5 23 6 22 7 2 8 1 9 3 10 4 11 5 12
REMARK SMILES IDX 6 13 21 14 7 15 14 16 8 17 9 18 13 19 10 20 12 21 11 22
REMARK SMILES IDX 15 23 16 24 20 25 17 26 19 27 18 28 29 29 30 30 31 31 32 32
REMARK SMILES IDX 33 33 34 34 35 35 36 36 37 37 38 38 96 39 39 40 95 41 40 42
REMARK SMILES IDX 41 43 42 44 89 45 43 46 94 47 88 48 90 49 44 50 93 51 87 52
REMARK SMILES IDX 86 53 45 55 75 56 56 57 74 58 57 59 60 60 73 61 91 62 58 63
REMARK SMILES IDX 59 64 72 66 92 67 61 68 46 69 47 70 55 71 48 72 54 73 49 74
REMARK SMILES IDX 50 75 51 76 52 77 53 78 76 79 77 80 85 81 78 82 84 83 79 84
REMARK SMILES IDX 80 85 81 86 82 87 83 88 62 89 63 90 71 91 64 92 70 93 65 94
REMARK SMILES IDX 66 95 67 96 68 97 69 98
REMARK H PARENT 90 54 60 65
REMARK Flexibility Score: inf
ROOT
ATOM      1  O   UNL     1       2.961  -0.964  -2.563  1.00  0.00    -0.377 OA
ENDROOT
BRANCH   1   2
ATOM      2  C   UNL     1       2.033   0.095  -2.622  1.00  0.00     0.188 C 
BRANCH   2   3
ATOM      3  C   UNL     1       2.454   1.316  -1.791  1.00  0.00     0.188 C 
BRANCH   3   4
ATOM      4  O   UNL     1       3.842   1.484  -1.540  1.00  0.00    -0.376 OA
BRANCH   4   5
ATOM      5  C   UNL     1       4.535   0.575  -0.695  1.00  0.00     0.202 C 
BRANCH   5   6
ATOM      6  C   UNL     1       3.834  -0.609  -0.037  1.00  0.00     0.261 C 
BRANCH   6   7
ATOM      7  O   UNL     1       2.539  -0.413   0.548  1.00  0.00    -0.463 OA
BRANCH   7   8
ATOM      8  C   UNL     1       2.284   0.259   1.688  1.00  0.00     0.306 C 
ATOM      9  O   UNL     1       1.236   0.068   2.301  1.00  0.00    -0.252 OA
BRANCH   8  10
ATOM     10  C   UNL     1       3.207   1.377   2.087  1.00  0.00     0.132 C 
BRANCH  10  11
ATOM     11  C   UNL     1       4.235   1.046   3.160  1.00  0.00     0.109 C 
BRANCH  11  12
ATOM     12  C   UNL     1       5.107  -0.126   2.876  1.00  0.00     0.196 A 
ATOM     13  N   UNL     1       4.789  -1.404   2.924  1.00  0.00    -0.213 NA
ATOM     14  O   UNL     1       6.373   0.125   2.405  1.00  0.00    -0.440 OA
ATOM     15  C   UNL     1       5.896  -2.047   2.409  1.00  0.00     0.117 A 
ATOM     16  C   UNL     1       6.876  -1.121   2.102  1.00  0.00     0.162 A 
BRANCH  15  17
ATOM     17  C   UNL     1       5.949  -3.456   2.078  1.00  0.00     0.004 A 
ATOM     18  C   UNL     1       6.855  -4.302   2.722  1.00  0.00     0.010 A 
ATOM     19  C   UNL     1       5.142  -3.970   1.051  1.00  0.00     0.010 A 
ATOM     20  C   UNL     1       6.957  -5.641   2.339  1.00  0.00     0.001 A 
ATOM     21  C   UNL     1       5.261  -5.303   0.656  1.00  0.00     0.001 A 
ATOM     22  C   UNL     1       6.168  -6.139   1.303  1.00  0.00     0.000 A 
ENDBRANCH  15  17
BRANCH  16  23
ATOM     23  C   UNL     1       8.201  -1.177   1.508  1.00  0.00     0.020 A 
ATOM     24  C   UNL     1       9.287  -0.591   2.167  1.00  0.00     0.012 A 
ATOM     25  C   UNL     1       8.435  -1.897   0.326  1.00  0.00     0.012 A 
ATOM     26  C   UNL     1      10.587  -0.759   1.682  1.00  0.00     0.001 A 
ATOM     27  C   UNL     1       9.734  -2.057  -0.164  1.00  0.00     0.001 A 
ATOM     28  C   UNL     1      10.810  -1.498   0.522  1.00  0.00     0.000 A 
ENDBRANCH  16  23
ENDBRANCH  11  12
ENDBRANCH  10  11
ENDBRANCH   8  10
ENDBRANCH   7   8
ENDBRANCH   6   7
ENDBRANCH   5   6
ENDBRANCH   4   5
ENDBRANCH   3   4
ENDBRANCH   2   3
ENDBRANCH   1   2
BRANCH   1  29
ATOM     29  C   UNL     1       3.868  -1.119  -3.638  1.00  0.00     0.188 C 
BRANCH  29  30
ATOM     30  C   UNL     1       4.760   0.063  -4.065  1.00  0.00     0.188 C 
BRANCH  30  31
ATOM     31  O   UNL     1       4.166   1.303  -4.364  1.00  0.00    -0.376 OA
BRANCH  31  32
ATOM     32  C   UNL     1       3.288   1.539  -5.440  1.00  0.00     0.202 C 
BRANCH  32  33
ATOM     33  C   UNL     1       2.933   0.564  -6.577  1.00  0.00     0.261 C 
BRANCH  33  34
ATOM     34  O   UNL     1       3.345  -0.795  -6.475  1.00  0.00    -0.460 OA
BRANCH  34  35
ATOM     35  C   UNL     1       4.565  -1.095  -6.990  1.00  0.00     0.338 C 
ATOM     36  O   UNL     1       5.328  -0.330  -7.534  1.00  0.00    -0.246 OA
BRANCH  35  37
ATOM     37  C   UNL     1       4.911  -2.478  -6.569  1.00  0.00     0.060 A 
ATOM     38  C   UNL     1       6.131  -2.692  -5.911  1.00  0.00     0.016 A 
ATOM     39  C   UNL     1       4.043  -3.547  -6.806  1.00  0.00     0.016 A 
ATOM     40  C   UNL     1       6.509  -3.980  -5.533  1.00  0.00     0.010 A 
ATOM     41  C   UNL     1       4.436  -4.842  -6.453  1.00  0.00     0.010 A 
ATOM     42  C   UNL     1       5.689  -5.068  -5.855  1.00  0.00    -0.014 A 
BRANCH  42  43
ATOM     43  C   UNL     1       6.243  -6.444  -5.808  1.00  0.00     0.031 A 
ATOM     44  C   UNL     1       6.809  -7.013  -7.082  1.00  0.00     0.074 A 
ATOM     45  C   UNL     1       6.259  -7.170  -4.677  1.00  0.00     0.049 A 
ATOM     46  N   UNL     1       7.286  -8.207  -7.318  1.00  0.00    -0.248 NA
ATOM     47  C   UNL     1       6.835  -6.113  -8.248  1.00  0.00     0.031 C 
ATOM     48  C   UNL     1       5.792  -6.715  -3.370  1.00  0.00     0.029 A 
ATOM     49  N   UNL     1       6.681  -8.459  -4.456  1.00  0.00    -0.354 N 
ATOM     50  C   UNL     1       7.653  -8.206  -8.659  1.00  0.00     0.074 A 
ATOM     51  C   UNL     1       7.322  -6.904  -9.191  1.00  0.00     0.031 C 
ATOM     52  C   UNL     1       5.938  -7.719  -2.486  1.00  0.00     0.029 A 
ATOM     53  C   UNL     1       6.477  -8.894  -3.168  1.00  0.00     0.049 A 
ATOM     54  H   UNL     1       7.090  -9.019  -5.155  1.00  0.00     0.167 HD
ATOM     55  C   UNL     1       8.216  -9.200  -9.384  1.00  0.00     0.031 A 
ATOM     56  C   UNL     1       6.677 -10.105  -2.611  1.00  0.00     0.031 A 
ATOM     57  C   UNL     1       8.529 -10.501  -8.857  1.00  0.00     0.049 A 
ATOM     58  C   UNL     1       7.233 -11.224  -3.458  1.00  0.00     0.074 A 
ATOM     59  C   UNL     1       9.110 -11.574  -9.509  1.00  0.00     0.029 A 
ATOM     60  N   UNL     1       8.279 -10.909  -7.556  1.00  0.00    -0.354 N 
ATOM     61  N   UNL     1       7.595 -11.202  -4.719  1.00  0.00    -0.248 NA
ATOM     62  C   UNL     1       7.414 -12.528  -2.804  1.00  0.00     0.031 C 
ATOM     63  C   UNL     1       9.153 -12.651  -8.619  1.00  0.00     0.029 A 
ATOM     64  C   UNL     1       8.669 -12.226  -7.392  1.00  0.00     0.049 A 
ATOM     65  H   UNL     1       7.884 -10.344  -6.853  1.00  0.00     0.167 HD
ATOM     66  C   UNL     1       8.077 -12.478  -4.998  1.00  0.00     0.074 A 
ATOM     67  C   UNL     1       7.973 -13.242  -3.772  1.00  0.00     0.031 C 
ATOM     68  C   UNL     1       8.565 -12.973  -6.163  1.00  0.00     0.031 A 
BRANCH  55  69
ATOM     69  C   UNL     1       8.491  -8.931 -10.839  1.00  0.00    -0.014 A 
ATOM     70  C   UNL     1       9.510  -8.047 -11.239  1.00  0.00     0.010 A 
ATOM     71  C   UNL     1       7.743  -9.604 -11.822  1.00  0.00     0.010 A 
ATOM     72  C   UNL     1       9.754  -7.819 -12.596  1.00  0.00     0.020 A 
ATOM     73  C   UNL     1       8.004  -9.402 -13.179  1.00  0.00     0.020 A 
ATOM     74  C   UNL     1       9.000  -8.500 -13.557  1.00  0.00     0.054 A 
BRANCH  74  75
ATOM     75  S   UNL     1       9.366  -8.214 -15.310  1.00  0.00     0.124 S 
ATOM     76  O   UNL     1       8.870  -6.853 -15.503  1.00  0.00    -0.237 OA
ATOM     77  O   UNL     1      10.817  -8.367 -15.362  1.00  0.00    -0.237 OA
ATOM     78  O   UNL     1       8.607  -9.256 -15.998  1.00  0.00    -0.744 OA
ENDBRANCH  74  75
ENDBRANCH  55  69
BRANCH  56  79
ATOM     79  C   UNL     1       6.332 -10.339  -1.179  1.00  0.00    -0.014 A 
ATOM     80  C   UNL     1       7.337 -10.605  -0.232  1.00  0.00     0.010 A 
ATOM     81  C   UNL     1       4.989 -10.318  -0.759  1.00  0.00     0.010 A 
ATOM     82  C   UNL     1       7.004 -10.867   1.101  1.00  0.00     0.020 A 
ATOM     83  C   UNL     1       4.655 -10.546   0.579  1.00  0.00     0.020 A 
ATOM     84  C   UNL     1       5.665 -10.834   1.498  1.00  0.00     0.054 A 
BRANCH  84  85
ATOM     85  S   UNL     1       5.265 -11.141   3.241  1.00  0.00     0.124 S 
ATOM     86  O   UNL     1       5.534 -12.569   3.367  1.00  0.00    -0.237 OA
ATOM     87  O   UNL     1       6.200 -10.256   3.933  1.00  0.00    -0.237 OA
ATOM     88  O   UNL     1       3.859 -10.756   3.341  1.00  0.00    -0.744 OA
ENDBRANCH  84  85
ENDBRANCH  56  79
BRANCH  68  89
ATOM     89  C   UNL     1       9.073 -14.391  -6.165  1.00  0.00    -0.014 A 
ATOM     90  C   UNL     1       8.197 -15.487  -6.076  1.00  0.00     0.010 A 
ATOM     91  C   UNL     1      10.451 -14.629  -6.328  1.00  0.00     0.010 A 
ATOM     92  C   UNL     1       8.694 -16.793  -6.116  1.00  0.00     0.020 A 
ATOM     93  C   UNL     1      10.948 -15.932  -6.400  1.00  0.00     0.020 A 
ATOM     94  C   UNL     1      10.066 -17.007  -6.279  1.00  0.00     0.054 A 
BRANCH  94  95
ATOM     95  S   UNL     1      10.680 -18.712  -6.374  1.00  0.00     0.124 S 
ATOM     96  O   UNL     1      10.535 -19.164  -4.993  1.00  0.00    -0.237 OA
ATOM     97  O   UNL     1       9.768 -19.327  -7.335  1.00  0.00    -0.237 OA
ATOM     98  O   UNL     1      12.057 -18.560  -6.839  1.00  0.00    -0.744 OA
ENDBRANCH  94  95
ENDBRANCH  68  89
ENDBRANCH  42  43
ENDBRANCH  35  37
ENDBRANCH  34  35
ENDBRANCH  33  34
ENDBRANCH  32  33
ENDBRANCH  31  32
ENDBRANCH  30  31
ENDBRANCH  29  30
ENDBRANCH   1  29
TORSDOF 27
