REMARK SMILES CCC(CC)(Nc1cc2ccccc2c(=O)[nH]1)C(=O)OCCOCCOCCOCCOC(=O)c1ccc(-c2c3nc(c(-c4ccc(S(=O)(=O)[O-])cc4)c4ccc([nH]4)c(-c4ccc(S(=O)(=O)[O-])cc4)c4nc(c(-c5ccc(S(=O)(=O)[O-])cc5)c5ccc2[nH]5)C=C4)C=C3)cc1
REMARK SMILES IDX 27 1 26 2 25 3 24 4 23 5 22 6 21 7 20 8 18 9 19 10 3 11 2 12
REMARK SMILES IDX 1 13 4 14 5 15 6 16 7 18 8 19 17 20 9 21 15 22 10 24 14 25
REMARK SMILES IDX 16 26 11 27 13 28 12 29 28 30 29 31 30 32 31 33 32 34 33 35
REMARK SMILES IDX 34 36 35 37 36 38 94 39 37 40 93 41 38 42 39 43 40 44 87 45
REMARK SMILES IDX 41 46 92 47 86 48 88 49 42 50 91 51 85 52 84 53 43 55 73 56
REMARK SMILES IDX 54 57 72 58 55 59 58 60 71 61 89 62 56 63 57 64 70 66 90 67
REMARK SMILES IDX 59 68 44 69 45 70 53 71 46 72 52 73 47 74 48 75 49 76 50 77
REMARK SMILES IDX 51 78 74 79 75 80 83 81 76 82 82 83 77 84 78 85 79 86 80 87
REMARK SMILES IDX 81 88 60 89 61 90 69 91 62 92 68 93 63 94 64 95 65 96 66 97
REMARK SMILES IDX 67 98
REMARK H PARENT 6 17 17 23 88 54 58 65
REMARK Flexibility Score: inf
ROOT
ATOM      1  C   UNL     1       5.281   4.691   1.907  1.00  0.00     0.188 C 
ENDROOT
BRANCH   1   2
ATOM      2  O   UNL     1       4.054   4.082   1.508  1.00  0.00    -0.377 OA
BRANCH   2   3
ATOM      3  C   UNL     1       3.922   2.699   1.768  1.00  0.00     0.188 C 
BRANCH   3   4
ATOM      4  C   UNL     1       4.519   1.743   0.732  1.00  0.00     0.188 C 
BRANCH   4   5
ATOM      5  O   UNL     1       5.630   2.198  -0.028  1.00  0.00    -0.376 OA
BRANCH   5   6
ATOM      6  C   UNL     1       5.364   3.133  -1.085  1.00  0.00     0.202 C 
BRANCH   6   7
ATOM      7  C   UNL     1       4.324   2.706  -2.117  1.00  0.00     0.261 C 
BRANCH   7   8
ATOM      8  O   UNL     1       2.995   2.970  -1.610  1.00  0.00    -0.461 OA
BRANCH   8   9
ATOM      9  C   UNL     1       2.092   1.977  -1.746  1.00  0.00     0.331 C 
ATOM     10  O   UNL     1       2.366   0.910  -2.297  1.00  0.00    -0.249 OA
BRANCH   9  11
ATOM     11  C   UNL     1       0.679   2.247  -1.172  1.00  0.00     0.136 C 
BRANCH  11  12
ATOM     12  C   UNL     1       0.390   1.204  -0.040  1.00  0.00     0.037 C 
ATOM     13  C   UNL     1       0.614  -0.270  -0.338  1.00  0.00     0.007 C 
ENDBRANCH  11  12
BRANCH  11  14
ATOM     14  C   UNL     1      -0.255   2.103  -2.409  1.00  0.00     0.037 C 
ATOM     15  C   UNL     1      -1.754   2.171  -2.149  1.00  0.00     0.007 C 
ENDBRANCH  11  14
BRANCH  11  16
ATOM     16  N   UNL     1       0.337   3.534  -0.527  1.00  0.00    -0.356 N 
ATOM     17  H   UNL     1      -0.626   3.585  -0.331  1.00  0.00     0.163 HD
BRANCH  16  18
ATOM     18  C   UNL     1       0.984   4.676  -0.124  1.00  0.00     0.107 A 
ATOM     19  C   UNL     1       0.542   5.304   0.985  1.00  0.00     0.053 A 
ATOM     20  N   UNL     1       1.988   5.262  -0.837  1.00  0.00    -0.308 N 
ATOM     21  C   UNL     1       1.089   6.589   1.411  1.00  0.00    -0.009 A 
ATOM     22  C   UNL     1       2.588   6.471  -0.554  1.00  0.00     0.257 A 
ATOM     23  H   UNL     1       2.316   4.776  -1.627  1.00  0.00     0.171 HD
ATOM     24  C   UNL     1       0.623   7.232   2.565  1.00  0.00     0.009 A 
ATOM     25  C   UNL     1       2.049   7.211   0.612  1.00  0.00     0.047 A 
ATOM     26  O   UNL     1       3.514   6.914  -1.225  1.00  0.00    -0.269 OA
ATOM     27  C   UNL     1       1.080   8.511   2.884  1.00  0.00     0.001 A 
ATOM     28  C   UNL     1       2.475   8.505   0.907  1.00  0.00     0.014 A 
ATOM     29  C   UNL     1       1.980   9.158   2.039  1.00  0.00     0.001 A 
ENDBRANCH  16  18
ENDBRANCH  11  16
ENDBRANCH   9  11
ENDBRANCH   8   9
ENDBRANCH   7   8
ENDBRANCH   6   7
ENDBRANCH   5   6
ENDBRANCH   4   5
ENDBRANCH   3   4
ENDBRANCH   2   3
ENDBRANCH   1   2
BRANCH   1  30
ATOM     30  C   UNL     1       5.759   4.407   3.335  1.00  0.00     0.188 C 
BRANCH  30  31
ATOM     31  O   UNL     1       4.759   4.294   4.346  1.00  0.00    -0.376 OA
BRANCH  31  32
ATOM     32  C   UNL     1       3.743   5.293   4.381  1.00  0.00     0.202 C 
BRANCH  32  33
ATOM     33  C   UNL     1       4.227   6.670   4.825  1.00  0.00     0.261 C 
BRANCH  33  34
ATOM     34  O   UNL     1       4.590   7.469   3.689  1.00  0.00    -0.460 OA
BRANCH  34  35
ATOM     35  C   UNL     1       5.887   7.825   3.558  1.00  0.00     0.338 C 
ATOM     36  O   UNL     1       6.828   7.507   4.261  1.00  0.00    -0.246 OA
BRANCH  35  37
ATOM     37  C   UNL     1       5.992   8.645   2.342  1.00  0.00     0.060 A 
ATOM     38  C   UNL     1       6.806   8.242   1.278  1.00  0.00     0.016 A 
ATOM     39  C   UNL     1       5.272   9.835   2.277  1.00  0.00     0.016 A 
ATOM     40  C   UNL     1       6.913   9.053   0.141  1.00  0.00     0.010 A 
ATOM     41  C   UNL     1       5.342  10.614   1.127  1.00  0.00     0.010 A 
ATOM     42  C   UNL     1       6.198  10.256   0.068  1.00  0.00    -0.014 A 
BRANCH  42  43
ATOM     43  C   UNL     1       6.460  11.282  -0.977  1.00  0.00     0.031 A 
ATOM     44  C   UNL     1       7.022  12.604  -0.518  1.00  0.00     0.074 A 
ATOM     45  C   UNL     1       6.124  11.110  -2.268  1.00  0.00     0.049 A 
ATOM     46  N   UNL     1       7.053  13.757  -1.130  1.00  0.00    -0.248 NA
ATOM     47  C   UNL     1       7.549  12.636   0.857  1.00  0.00     0.031 C 
ATOM     48  C   UNL     1       5.570   9.892  -2.857  1.00  0.00     0.029 A 
ATOM     49  N   UNL     1       6.178  11.998  -3.317  1.00  0.00    -0.354 N 
ATOM     50  C   UNL     1       7.502  14.667  -0.178  1.00  0.00     0.074 A 
ATOM     51  C   UNL     1       7.696  13.935   1.053  1.00  0.00     0.031 C 
ATOM     52  C   UNL     1       5.338  10.109  -4.164  1.00  0.00     0.029 A 
ATOM     53  C   UNL     1       5.676  11.493  -4.493  1.00  0.00     0.049 A 
ATOM     54  H   UNL     1       6.542  12.909  -3.233  1.00  0.00     0.167 HD
ATOM     55  C   UNL     1       7.738  15.993  -0.316  1.00  0.00     0.031 A 
ATOM     56  C   UNL     1       5.487  12.090  -5.688  1.00  0.00     0.031 A 
ATOM     57  C   UNL     1       7.633  16.692  -1.567  1.00  0.00     0.049 A 
ATOM     58  C   UNL     1       5.849  13.544  -5.857  1.00  0.00     0.074 A 
ATOM     59  C   UNL     1       7.938  18.011  -1.845  1.00  0.00     0.029 A 
ATOM     60  N   UNL     1       7.216  16.113  -2.756  1.00  0.00    -0.354 N 
ATOM     61  N   UNL     1       6.282  14.397  -4.958  1.00  0.00    -0.248 NA
ATOM     62  C   UNL     1       5.704  14.117  -7.205  1.00  0.00     0.031 C 
ATOM     63  C   UNL     1       7.683  18.237  -3.202  1.00  0.00     0.029 A 
ATOM     64  C   UNL     1       7.263  17.046  -3.776  1.00  0.00     0.049 A 
ATOM     65  H   UNL     1       6.929  15.177  -2.860  1.00  0.00     0.167 HD
ATOM     66  C   UNL     1       6.491  15.595  -5.636  1.00  0.00     0.074 A 
ATOM     67  C   UNL     1       6.139  15.358  -7.021  1.00  0.00     0.031 C 
ATOM     68  C   UNL     1       6.936  16.783  -5.155  1.00  0.00     0.031 A 
BRANCH  55  69
ATOM     69  C   UNL     1       8.110  16.759   0.927  1.00  0.00    -0.014 A 
ATOM     70  C   UNL     1       9.317  16.521   1.609  1.00  0.00     0.010 A 
ATOM     71  C   UNL     1       7.208  17.706   1.448  1.00  0.00     0.010 A 
ATOM     72  C   UNL     1       9.573  17.141   2.834  1.00  0.00     0.020 A 
ATOM     73  C   UNL     1       7.479  18.360   2.653  1.00  0.00     0.020 A 
ATOM     74  C   UNL     1       8.644  18.045   3.356  1.00  0.00     0.054 A 
BRANCH  74  75
ATOM     75  S   UNL     1       8.976  18.808   4.967  1.00  0.00     0.124 S 
ATOM     76  O   UNL     1       8.617  17.731   5.887  1.00  0.00    -0.237 OA
ATOM     77  O   UNL     1      10.402  19.117   4.891  1.00  0.00    -0.237 OA
ATOM     78  O   UNL     1       8.090  19.969   4.989  1.00  0.00    -0.744 OA
ENDBRANCH  74  75
ENDBRANCH  55  69
BRANCH  56  79
ATOM     79  C   UNL     1       4.941  11.299  -6.825  1.00  0.00    -0.014 A 
ATOM     80  C   UNL     1       5.786  10.884  -7.870  1.00  0.00     0.010 A 
ATOM     81  C   UNL     1       3.587  10.915  -6.849  1.00  0.00     0.010 A 
ATOM     82  C   UNL     1       5.290  10.098  -8.915  1.00  0.00     0.020 A 
ATOM     83  C   UNL     1       3.093  10.110  -7.881  1.00  0.00     0.020 A 
ATOM     84  C   UNL     1       3.948   9.708  -8.909  1.00  0.00     0.054 A 
BRANCH  84  85
ATOM     85  S   UNL     1       3.354   8.610 -10.227  1.00  0.00     0.124 S 
ATOM     86  O   UNL     1       3.306   9.508 -11.376  1.00  0.00    -0.237 OA
ATOM     87  O   UNL     1       4.391   7.581 -10.273  1.00  0.00    -0.237 OA
ATOM     88  O   UNL     1       2.057   8.152  -9.734  1.00  0.00    -0.744 OA
ENDBRANCH  84  85
ENDBRANCH  56  79
BRANCH  68  89
ATOM     89  C   UNL     1       7.136  17.913  -6.129  1.00  0.00    -0.014 A 
ATOM     90  C   UNL     1       6.050  18.648  -6.632  1.00  0.00     0.010 A 
ATOM     91  C   UNL     1       8.447  18.320  -6.445  1.00  0.00     0.010 A 
ATOM     92  C   UNL     1       6.271  19.767  -7.441  1.00  0.00     0.020 A 
ATOM     93  C   UNL     1       8.671  19.450  -7.234  1.00  0.00     0.020 A 
ATOM     94  C   UNL     1       7.580  20.165  -7.731  1.00  0.00     0.054 A 
BRANCH  94  95
ATOM     95  S   UNL     1       7.842  21.672  -8.708  1.00  0.00     0.124 S 
ATOM     96  O   UNL     1       7.487  21.229 -10.053  1.00  0.00    -0.237 OA
ATOM     97  O   UNL     1       6.915  22.619  -8.092  1.00  0.00    -0.237 OA
ATOM     98  O   UNL     1       9.258  21.975  -8.505  1.00  0.00    -0.744 OA
ENDBRANCH  94  95
ENDBRANCH  68  89
ENDBRANCH  42  43
ENDBRANCH  35  37
ENDBRANCH  34  35
ENDBRANCH  33  34
ENDBRANCH  32  33
ENDBRANCH  31  32
ENDBRANCH  30  31
ENDBRANCH   1  30
TORSDOF 27
