REMARK SMILES C#CC[N@H+](CC(=O)OCCOCCOCCOCCOC(=O)c1ccc(-c2c3nc(c(-c4ccc(S(=O)(=O)[O-])cc4)c4ccc([nH]4)c(-c4ccc(S(=O)(=O)[O-])cc4)c4nc(c(-c5ccc(S(=O)(=O)[O-])cc5)c5ccc2[nH]5)C=C4)C=C3)cc1)[C@H](C)c1nc2ccccc2s1
REMARK SMILES IDX 14 1 13 2 12 3 11 4 10 5 9 6 8 7 6 8 7 9 5 10 4 11 3 13 2 14
REMARK SMILES IDX 1 15 83 16 84 17 85 18 86 19 93 20 87 21 92 22 88 23 91 24
REMARK SMILES IDX 89 25 90 26 15 27 16 28 17 29 18 30 19 31 20 32 21 33 22 34
REMARK SMILES IDX 23 35 24 36 82 37 25 38 81 39 26 40 27 41 28 42 75 43 29 44
REMARK SMILES IDX 80 45 74 46 76 47 30 48 79 49 73 50 72 51 31 53 61 54 42 55
REMARK SMILES IDX 60 56 43 57 46 58 59 59 77 60 44 61 45 62 58 64 78 65 47 66
REMARK SMILES IDX 32 67 33 68 41 69 34 70 40 71 35 72 36 73 37 74 38 75 39 76
REMARK SMILES IDX 62 77 63 78 71 79 64 80 70 81 65 82 66 83 67 84 68 85 69 86
REMARK SMILES IDX 48 87 49 88 57 89 50 90 56 91 51 92 52 93 53 94 54 95 55 96
REMARK H PARENT 4 12 76 52 46 63
REMARK Flexibility Score: inf
ROOT
ATOM      1  O   UNL     1      -2.290  -4.683  -2.081  1.00  0.00    -0.377 OA
ENDROOT
BRANCH   1   2
ATOM      2  C   UNL     1      -2.720  -5.186  -0.839  1.00  0.00     0.188 C 
BRANCH   2   3
ATOM      3  C   UNL     1      -4.194  -5.615  -0.751  1.00  0.00     0.188 C 
BRANCH   3   4
ATOM      4  O   UNL     1      -4.860  -6.098  -1.901  1.00  0.00    -0.376 OA
BRANCH   4   5
ATOM      5  C   UNL     1      -5.198  -5.264  -2.998  1.00  0.00     0.202 C 
BRANCH   5   6
ATOM      6  C   UNL     1      -5.200  -3.725  -2.995  1.00  0.00     0.261 C 
BRANCH   6   7
ATOM      7  O   UNL     1      -4.311  -3.080  -2.082  1.00  0.00    -0.459 OA
BRANCH   7   8
ATOM      8  C   UNL     1      -4.877  -2.499  -1.008  1.00  0.00     0.361 C 
ATOM      9  O   UNL     1      -6.092  -2.482  -0.804  1.00  0.00    -0.245 OA
BRANCH   8  10
ATOM     10  C   UNL     1      -3.928  -1.887   0.014  1.00  0.00     0.387 C 
BRANCH  10  11
ATOM     11  N   UNL     1      -2.446  -1.958  -0.139  1.00  0.00    -0.308 N 
ATOM     12  H   UNL     1      -2.193  -2.938  -0.262  1.00  0.00     0.350 HD
BRANCH  11  13
ATOM     13  C   UNL     1      -1.943  -1.326  -1.370  1.00  0.00     0.355 C 
BRANCH  13  14
ATOM     14  C   UNL     1      -0.659  -1.908  -1.814  1.00  0.00    -0.047 C 
ATOM     15  C   UNL     1       0.409  -2.361  -2.147  1.00  0.00     0.010 C 
ENDBRANCH  13  14
ENDBRANCH  11  13
BRANCH  11  16
ATOM     16  C   UNL     1      -1.778  -1.463   1.121  1.00  0.00     0.242 C 
ATOM     17  C   UNL     1      -2.239  -0.066   1.613  1.00  0.00     0.083 C 
BRANCH  16  18
ATOM     18  C   UNL     1      -0.248  -1.472   1.098  1.00  0.00     0.151 A 
ATOM     19  N   UNL     1       0.461  -0.435   0.698  1.00  0.00    -0.235 NA
ATOM     20  S   UNL     1       0.683  -2.835   1.591  1.00  0.00    -0.113 S 
ATOM     21  C   UNL     1       1.783  -0.785   0.554  1.00  0.00     0.082 A 
ATOM     22  C   UNL     1       2.116  -2.065   0.998  1.00  0.00     0.055 A 
ATOM     23  C   UNL     1       2.772   0.024  -0.037  1.00  0.00     0.030 A 
ATOM     24  C   UNL     1       3.431  -2.553   0.894  1.00  0.00     0.021 A 
ATOM     25  C   UNL     1       4.067  -0.471  -0.192  1.00  0.00     0.002 A 
ATOM     26  C   UNL     1       4.393  -1.740   0.276  1.00  0.00     0.002 A 
ENDBRANCH  16  18
ENDBRANCH  11  16
ENDBRANCH  10  11
ENDBRANCH   8  10
ENDBRANCH   7   8
ENDBRANCH   6   7
ENDBRANCH   5   6
ENDBRANCH   4   5
ENDBRANCH   3   4
ENDBRANCH   2   3
ENDBRANCH   1   2
BRANCH   1  27
ATOM     27  C   UNL     1      -1.971  -5.563  -3.143  1.00  0.00     0.188 C 
BRANCH  27  28
ATOM     28  C   UNL     1      -2.217  -7.085  -3.045  1.00  0.00     0.188 C 
BRANCH  28  29
ATOM     29  O   UNL     1      -2.231  -7.618  -1.735  1.00  0.00    -0.376 OA
BRANCH  29  30
ATOM     30  C   UNL     1      -1.057  -8.217  -1.214  1.00  0.00     0.202 C 
BRANCH  30  31
ATOM     31  C   UNL     1       0.263  -7.427  -1.180  1.00  0.00     0.261 C 
BRANCH  31  32
ATOM     32  O   UNL     1       0.654  -6.745  -2.377  1.00  0.00    -0.460 OA
BRANCH  32  33
ATOM     33  C   UNL     1       0.961  -7.495  -3.458  1.00  0.00     0.338 C 
ATOM     34  O   UNL     1       0.940  -8.708  -3.538  1.00  0.00    -0.246 OA
BRANCH  33  35
ATOM     35  C   UNL     1       1.165  -6.566  -4.592  1.00  0.00     0.060 A 
ATOM     36  C   UNL     1       0.274  -6.584  -5.676  1.00  0.00     0.016 A 
ATOM     37  C   UNL     1       2.228  -5.662  -4.566  1.00  0.00     0.016 A 
ATOM     38  C   UNL     1       0.462  -5.714  -6.753  1.00  0.00     0.010 A 
ATOM     39  C   UNL     1       2.431  -4.815  -5.657  1.00  0.00     0.010 A 
ATOM     40  C   UNL     1       1.569  -4.859  -6.768  1.00  0.00    -0.014 A 
BRANCH  40  41
ATOM     41  C   UNL     1       1.976  -4.159  -8.011  1.00  0.00     0.031 A 
ATOM     42  C   UNL     1       3.089  -4.764  -8.822  1.00  0.00     0.074 A 
ATOM     43  C   UNL     1       1.417  -2.996  -8.389  1.00  0.00     0.049 A 
ATOM     44  N   UNL     1       3.751  -4.263  -9.830  1.00  0.00    -0.248 NA
ATOM     45  C   UNL     1       3.523  -6.116  -8.426  1.00  0.00     0.031 C 
ATOM     46  C   UNL     1       0.289  -2.342  -7.728  1.00  0.00     0.029 A 
ATOM     47  N   UNL     1       1.749  -2.144  -9.414  1.00  0.00    -0.354 N 
ATOM     48  C   UNL     1       4.697  -5.222 -10.171  1.00  0.00     0.074 A 
ATOM     49  C   UNL     1       4.538  -6.325  -9.250  1.00  0.00     0.031 C 
ATOM     50  C   UNL     1       0.038  -1.176  -8.351  1.00  0.00     0.029 A 
ATOM     51  C   UNL     1       1.021  -0.977  -9.416  1.00  0.00     0.049 A 
ATOM     52  H   UNL     1       2.441  -2.349 -10.083  1.00  0.00     0.167 HD
ATOM     53  C   UNL     1       5.619  -5.183 -11.161  1.00  0.00     0.031 A 
ATOM     54  C   UNL     1       1.162   0.140 -10.161  1.00  0.00     0.031 A 
ATOM     55  C   UNL     1       5.782  -4.071 -12.058  1.00  0.00     0.049 A 
ATOM     56  C   UNL     1       2.262   0.204 -11.194  1.00  0.00     0.074 A 
ATOM     57  C   UNL     1       6.679  -3.936 -13.102  1.00  0.00     0.029 A 
ATOM     58  N   UNL     1       5.039  -2.901 -12.012  1.00  0.00    -0.354 N 
ATOM     59  N   UNL     1       3.147  -0.711 -11.516  1.00  0.00    -0.248 NA
ATOM     60  C   UNL     1       2.382   1.450 -11.967  1.00  0.00     0.031 C 
ATOM     61  C   UNL     1       6.531  -2.655 -13.638  1.00  0.00     0.029 A 
ATOM     62  C   UNL     1       5.479  -2.026 -12.990  1.00  0.00     0.049 A 
ATOM     63  H   UNL     1       4.308  -2.720 -11.378  1.00  0.00     0.167 HD
ATOM     64  C   UNL     1       3.895  -0.168 -12.558  1.00  0.00     0.074 A 
ATOM     65  C   UNL     1       3.362   1.153 -12.812  1.00  0.00     0.031 C 
ATOM     66  C   UNL     1       4.923  -0.720 -13.248  1.00  0.00     0.031 A 
BRANCH  53  67
ATOM     67  C   UNL     1       6.555  -6.356 -11.293  1.00  0.00    -0.014 A 
ATOM     68  C   UNL     1       6.097  -7.620 -11.707  1.00  0.00     0.010 A 
ATOM     69  C   UNL     1       7.928  -6.178 -11.038  1.00  0.00     0.010 A 
ATOM     70  C   UNL     1       6.986  -8.691 -11.825  1.00  0.00     0.020 A 
ATOM     71  C   UNL     1       8.826  -7.237 -11.190  1.00  0.00     0.020 A 
ATOM     72  C   UNL     1       8.346  -8.492 -11.568  1.00  0.00     0.054 A 
BRANCH  72  73
ATOM     73  S   UNL     1       9.479  -9.894 -11.760  1.00  0.00     0.124 S 
ATOM     74  O   UNL     1       9.082 -10.756 -10.649  1.00  0.00    -0.237 OA
ATOM     75  O   UNL     1       9.146 -10.392 -13.092  1.00  0.00    -0.237 OA
ATOM     76  O   UNL     1      10.804  -9.291 -11.635  1.00  0.00    -0.744 OA
ENDBRANCH  72  73
ENDBRANCH  53  67
BRANCH  54  77
ATOM     77  C   UNL     1       0.259   1.305  -9.943  1.00  0.00    -0.014 A 
ATOM     78  C   UNL     1      -0.648   1.706 -10.940  1.00  0.00     0.010 A 
ATOM     79  C   UNL     1       0.305   2.029  -8.736  1.00  0.00     0.010 A 
ATOM     80  C   UNL     1      -1.476   2.816 -10.743  1.00  0.00     0.020 A 
ATOM     81  C   UNL     1      -0.546   3.117  -8.521  1.00  0.00     0.020 A 
ATOM     82  C   UNL     1      -1.425   3.510  -9.531  1.00  0.00     0.054 A 
BRANCH  82  83
ATOM     83  S   UNL     1      -2.548   4.913  -9.282  1.00  0.00     0.124 S 
ATOM     84  O   UNL     1      -2.013   5.902 -10.213  1.00  0.00    -0.237 OA
ATOM     85  O   UNL     1      -3.844   4.342  -9.640  1.00  0.00    -0.237 OA
ATOM     86  O   UNL     1      -2.386   5.235  -7.866  1.00  0.00    -0.744 OA
ENDBRANCH  82  83
ENDBRANCH  54  77
BRANCH  66  87
ATOM     87  C   UNL     1       5.509   0.055 -14.401  1.00  0.00    -0.014 A 
ATOM     88  C   UNL     1       6.313   1.189 -14.201  1.00  0.00     0.010 A 
ATOM     89  C   UNL     1       5.342  -0.444 -15.709  1.00  0.00     0.010 A 
ATOM     90  C   UNL     1       6.935   1.813 -15.287  1.00  0.00     0.020 A 
ATOM     91  C   UNL     1       5.989   0.156 -16.791  1.00  0.00     0.020 A 
ATOM     92  C   UNL     1       6.780   1.285 -16.574  1.00  0.00     0.054 A 
BRANCH  92  93
ATOM     93  S   UNL     1       7.678   2.055 -17.949  1.00  0.00     0.124 S 
ATOM     94  O   UNL     1       6.992   3.337 -18.082  1.00  0.00    -0.237 OA
ATOM     95  O   UNL     1       9.044   2.123 -17.438  1.00  0.00    -0.237 OA
ATOM     96  O   UNL     1       7.479   1.126 -19.059  1.00  0.00    -0.744 OA
ENDBRANCH  92  93
ENDBRANCH  66  87
ENDBRANCH  40  41
ENDBRANCH  33  35
ENDBRANCH  32  33
ENDBRANCH  31  32
ENDBRANCH  30  31
ENDBRANCH  29  30
ENDBRANCH  28  29
ENDBRANCH  27  28
ENDBRANCH   1  27
TORSDOF 28
