REMARK SMILES CSCc1ccc(C(=O)N[C@H]2C=C[C@@H](C(=O)OCCOCCOCCOCCOC(=O)c3ccc(-c4c5nc(c(-c6ccc(S(=O)(=O)[O-])cc6)c6ccc([nH]6)c(-c6ccc(S(=O)(=O)[O-])cc6)c6nc(c(-c7ccc(S(=O)(=O)[O-])cc7)c7ccc4[nH]7)C=C6)C=C5)cc3)C2)o1
REMARK SMILES IDX 22 1 21 2 20 3 19 4 18 5 17 6 15 7 16 8 14 9 11 10 12 11
REMARK SMILES IDX 92 12 13 13 10 14 8 15 9 16 7 18 4 19 5 20 93 21 6 22 3 23
REMARK SMILES IDX 2 24 1 25 23 26 24 27 25 28 26 29 27 30 28 31 29 32 30 33
REMARK SMILES IDX 31 34 32 35 33 36 91 37 34 38 90 39 35 40 36 41 37 42 84 43
REMARK SMILES IDX 38 44 89 45 83 46 85 47 39 48 88 49 82 50 81 51 40 53 70 54
REMARK SMILES IDX 51 55 69 56 52 57 55 58 68 59 86 60 53 61 54 62 67 64 87 65
REMARK SMILES IDX 56 66 41 67 42 68 50 69 43 70 49 71 44 72 45 73 46 74 47 75
REMARK SMILES IDX 48 76 71 77 72 78 80 79 73 80 79 81 74 82 75 83 76 84 77 85
REMARK SMILES IDX 78 86 57 87 58 88 66 89 59 90 65 91 60 92 61 93 62 94 63 95
REMARK SMILES IDX 64 96
REMARK H PARENT 10 17 85 52 55 63
REMARK Flexibility Score: inf
ROOT
ATOM      1  C   UNL     1      -4.478  -5.270  -3.160  1.00  0.00     0.188 C 
ENDROOT
BRANCH   1   2
ATOM      2  C   UNL     1      -4.374  -6.671  -2.529  1.00  0.00     0.188 C 
BRANCH   2   3
ATOM      3  O   UNL     1      -4.212  -6.838  -1.126  1.00  0.00    -0.376 OA
BRANCH   3   4
ATOM      4  C   UNL     1      -3.312  -6.003  -0.407  1.00  0.00     0.202 C 
BRANCH   4   5
ATOM      5  C   UNL     1      -1.885  -5.782  -0.930  1.00  0.00     0.261 C 
BRANCH   5   6
ATOM      6  O   UNL     1      -1.800  -5.481  -2.334  1.00  0.00    -0.463 OA
BRANCH   6   7
ATOM      7  C   UNL     1      -1.056  -6.280  -3.135  1.00  0.00     0.312 C 
ATOM      8  O   UNL     1      -0.434  -7.263  -2.748  1.00  0.00    -0.252 OA
BRANCH   7   9
ATOM      9  C   UNL     1      -1.122  -5.859  -4.619  1.00  0.00     0.124 C 
ATOM     10  C   UNL     1      -0.628  -3.701  -5.727  1.00  0.00     0.106 C 
ATOM     11  C   UNL     1       0.545  -4.607  -5.755  1.00  0.00    -0.006 C 
ATOM     12  C   UNL     1      -1.689  -4.459  -4.941  1.00  0.00     0.048 C 
ATOM     13  C   UNL     1       0.260  -5.801  -5.216  1.00  0.00    -0.014 C 
BRANCH  10  14
ATOM     14  N   UNL     1      -0.364  -2.347  -5.285  1.00  0.00    -0.343 N 
ATOM     15  C   UNL     1      -0.043  -1.709  -4.106  1.00  0.00     0.287 C 
ATOM     16  O   UNL     1      -0.150  -0.478  -4.162  1.00  0.00    -0.266 OA
ATOM     17  H   UNL     1      -0.432  -1.708  -6.031  1.00  0.00     0.164 HD
BRANCH  15  18
ATOM     18  C   UNL     1       0.391  -2.405  -2.909  1.00  0.00     0.191 A 
ATOM     19  C   UNL     1       0.912  -2.535  -0.746  1.00  0.00     0.114 A 
ATOM     20  C   UNL     1       1.061  -3.799  -1.258  1.00  0.00     0.047 A 
ATOM     21  O   UNL     1       0.513  -1.679  -1.737  1.00  0.00    -0.455 OA
ATOM     22  C   UNL     1       0.804  -3.688  -2.634  1.00  0.00     0.056 A 
BRANCH  19  23
ATOM     23  C   UNL     1       1.187  -2.029   0.624  1.00  0.00     0.144 C 
BRANCH  23  24
ATOM     24  S   UNL     1       0.073  -0.736   1.205  1.00  0.00    -0.157 SA
ATOM     25  C   UNL     1       0.874   0.675   0.404  1.00  0.00     0.085 C 
ENDBRANCH  23  24
ENDBRANCH  19  23
ENDBRANCH  15  18
ENDBRANCH  10  14
ENDBRANCH   7   9
ENDBRANCH   6   7
ENDBRANCH   5   6
ENDBRANCH   4   5
ENDBRANCH   3   4
ENDBRANCH   2   3
ENDBRANCH   1   2
BRANCH   1  26
ATOM     26  O   UNL     1      -4.167  -4.189  -2.306  1.00  0.00    -0.377 OA
BRANCH  26  27
ATOM     27  C   UNL     1      -5.266  -3.505  -1.711  1.00  0.00     0.188 C 
BRANCH  27  28
ATOM     28  C   UNL     1      -6.478  -4.354  -1.281  1.00  0.00     0.188 C 
BRANCH  28  29
ATOM     29  O   UNL     1      -6.973  -5.220  -2.297  1.00  0.00    -0.376 OA
BRANCH  29  30
ATOM     30  C   UNL     1      -8.030  -4.775  -3.136  1.00  0.00     0.202 C 
BRANCH  30  31
ATOM     31  C   UNL     1      -7.788  -3.552  -4.040  1.00  0.00     0.261 C 
BRANCH  31  32
ATOM     32  O   UNL     1      -7.466  -2.320  -3.379  1.00  0.00    -0.460 OA
BRANCH  32  33
ATOM     33  C   UNL     1      -8.325  -1.874  -2.443  1.00  0.00     0.338 C 
ATOM     34  O   UNL     1      -9.409  -2.363  -2.152  1.00  0.00    -0.246 OA
BRANCH  33  35
ATOM     35  C   UNL     1      -7.660  -0.811  -1.667  1.00  0.00     0.060 A 
ATOM     36  C   UNL     1      -7.557  -0.966  -0.279  1.00  0.00     0.016 A 
ATOM     37  C   UNL     1      -7.174   0.341  -2.290  1.00  0.00     0.016 A 
ATOM     38  C   UNL     1      -7.031   0.061   0.499  1.00  0.00     0.010 A 
ATOM     39  C   UNL     1      -6.666   1.381  -1.505  1.00  0.00     0.010 A 
ATOM     40  C   UNL     1      -6.644   1.264  -0.104  1.00  0.00    -0.014 A 
BRANCH  40  41
ATOM     41  C   UNL     1      -6.453   2.459   0.753  1.00  0.00     0.031 A 
ATOM     42  C   UNL     1      -7.603   3.423   0.894  1.00  0.00     0.074 A 
ATOM     43  C   UNL     1      -5.319   2.647   1.452  1.00  0.00     0.049 A 
ATOM     44  N   UNL     1      -7.690   4.516   1.606  1.00  0.00    -0.248 NA
ATOM     45  C   UNL     1      -8.823   3.108   0.129  1.00  0.00     0.031 C 
ATOM     46  C   UNL     1      -4.160   1.757   1.442  1.00  0.00     0.029 A 
ATOM     47  N   UNL     1      -4.966   3.653   2.316  1.00  0.00    -0.354 N 
ATOM     48  C   UNL     1      -8.964   5.021   1.371  1.00  0.00     0.074 A 
ATOM     49  C   UNL     1      -9.604   4.136   0.423  1.00  0.00     0.031 C 
ATOM     50  C   UNL     1      -3.221   2.257   2.265  1.00  0.00     0.029 A 
ATOM     51  C   UNL     1      -3.700   3.516   2.834  1.00  0.00     0.049 A 
ATOM     52  H   UNL     1      -5.564   4.402   2.544  1.00  0.00     0.167 HD
ATOM     53  C   UNL     1      -9.555   6.117   1.903  1.00  0.00     0.031 A 
ATOM     54  C   UNL     1      -3.005   4.325   3.658  1.00  0.00     0.031 A 
ATOM     55  C   UNL     1      -8.910   7.002   2.836  1.00  0.00     0.049 A 
ATOM     56  C   UNL     1      -3.654   5.586   4.172  1.00  0.00     0.074 A 
ATOM     57  C   UNL     1      -9.425   8.134   3.443  1.00  0.00     0.029 A 
ATOM     58  N   UNL     1      -7.608   6.860   3.291  1.00  0.00    -0.354 N 
ATOM     59  N   UNL     1      -4.869   6.037   3.962  1.00  0.00    -0.248 NA
ATOM     60  C   UNL     1      -2.838   6.444   5.043  1.00  0.00     0.031 C 
ATOM     61  C   UNL     1      -8.411   8.714   4.211  1.00  0.00     0.029 A 
ATOM     62  C   UNL     1      -7.289   7.903   4.143  1.00  0.00     0.049 A 
ATOM     63  H   UNL     1      -7.000   6.126   3.044  1.00  0.00     0.167 HD
ATOM     64  C   UNL     1      -4.971   7.215   4.696  1.00  0.00     0.074 A 
ATOM     65  C   UNL     1      -3.702   7.394   5.372  1.00  0.00     0.031 C 
ATOM     66  C   UNL     1      -6.018   8.072   4.803  1.00  0.00     0.031 A 
BRANCH  53  67
ATOM     67  C   UNL     1     -10.956   6.441   1.454  1.00  0.00    -0.014 A 
ATOM     68  C   UNL     1     -12.051   5.640   1.828  1.00  0.00     0.010 A 
ATOM     69  C   UNL     1     -11.186   7.586   0.670  1.00  0.00     0.010 A 
ATOM     70  C   UNL     1     -13.342   5.957   1.395  1.00  0.00     0.020 A 
ATOM     71  C   UNL     1     -12.479   7.925   0.261  1.00  0.00     0.020 A 
ATOM     72  C   UNL     1     -13.547   7.099   0.614  1.00  0.00     0.054 A 
BRANCH  72  73
ATOM     73  S   UNL     1     -15.236   7.501   0.090  1.00  0.00     0.124 S 
ATOM     74  O   UNL     1     -15.506   6.451  -0.890  1.00  0.00    -0.237 OA
ATOM     75  O   UNL     1     -15.989   7.403   1.337  1.00  0.00    -0.237 OA
ATOM     76  O   UNL     1     -15.119   8.849  -0.460  1.00  0.00    -0.744 OA
ENDBRANCH  72  73
ENDBRANCH  53  67
BRANCH  54  77
ATOM     77  C   UNL     1      -1.604   3.982   4.033  1.00  0.00    -0.014 A 
ATOM     78  C   UNL     1      -1.269   3.649   5.357  1.00  0.00     0.010 A 
ATOM     79  C   UNL     1      -0.588   3.999   3.058  1.00  0.00     0.010 A 
ATOM     80  C   UNL     1       0.055   3.358   5.703  1.00  0.00     0.020 A 
ATOM     81  C   UNL     1       0.730   3.679   3.393  1.00  0.00     0.020 A 
ATOM     82  C   UNL     1       1.046   3.371   4.717  1.00  0.00     0.054 A 
BRANCH  82  83
ATOM     83  S   UNL     1       2.748   2.944   5.176  1.00  0.00     0.124 S 
ATOM     84  O   UNL     1       3.162   4.118   5.938  1.00  0.00    -0.237 OA
ATOM     85  O   UNL     1       2.570   1.718   5.951  1.00  0.00    -0.237 OA
ATOM     86  O   UNL     1       3.417   2.766   3.889  1.00  0.00    -0.744 OA
ENDBRANCH  82  83
ENDBRANCH  54  77
BRANCH  66  87
ATOM     87  C   UNL     1      -5.850   9.268   5.708  1.00  0.00    -0.014 A 
ATOM     88  C   UNL     1      -4.987  10.326   5.371  1.00  0.00     0.010 A 
ATOM     89  C   UNL     1      -6.607   9.354   6.891  1.00  0.00     0.010 A 
ATOM     90  C   UNL     1      -4.852  11.427   6.222  1.00  0.00     0.020 A 
ATOM     91  C   UNL     1      -6.502  10.469   7.727  1.00  0.00     0.020 A 
ATOM     92  C   UNL     1      -5.610  11.491   7.395  1.00  0.00     0.054 A 
BRANCH  92  93
ATOM     93  S   UNL     1      -5.439  12.945   8.466  1.00  0.00     0.124 S 
ATOM     94  O   UNL     1      -4.113  12.742   9.045  1.00  0.00    -0.237 OA
ATOM     95  O   UNL     1      -5.549  14.053   7.521  1.00  0.00    -0.237 OA
ATOM     96  O   UNL     1      -6.552  12.819   9.404  1.00  0.00    -0.744 OA
ENDBRANCH  92  93
ENDBRANCH  66  87
ENDBRANCH  40  41
ENDBRANCH  33  35
ENDBRANCH  32  33
ENDBRANCH  31  32
ENDBRANCH  30  31
ENDBRANCH  29  30
ENDBRANCH  28  29
ENDBRANCH  27  28
ENDBRANCH  26  27
ENDBRANCH   1  26
TORSDOF 27
