REMARK SMILES CC(C)CSc1cc2c(cc1Cl)C=C(C(=O)OCCOCCOCCOCCOC(=O)c1ccc(-c3c4nc(c(-c5ccc(S(=O)(=O)[O-])cc5)c5ccc([nH]5)c(-c5ccc(S(=O)(=O)[O-])cc5)c5nc(c(-c6ccc(S(=O)(=O)[O-])cc6)c6ccc3[nH]6)C=C5)C=C4)cc1)[C@@H](C(F)(F)F)O2
REMARK SMILES IDX 23 1 22 2 21 3 20 4 19 5 18 6 17 7 15 8 16 9 14 10 6 11 7 12
REMARK SMILES IDX 11 13 8 14 10 15 12 16 9 17 97 18 13 19 92 20 5 21 4 22 2 23
REMARK SMILES IDX 1 24 3 25 93 26 94 27 95 28 96 29 24 30 25 31 26 32 27 33
REMARK SMILES IDX 28 34 29 35 30 36 31 37 32 38 33 39 91 40 34 41 90 42 35 43
REMARK SMILES IDX 36 44 37 45 84 46 38 47 89 48 83 49 85 50 39 51 88 52 82 53
REMARK SMILES IDX 81 54 40 56 70 57 51 58 69 59 52 60 55 61 68 62 86 63 53 64
REMARK SMILES IDX 54 65 67 67 87 68 56 69 41 70 42 71 50 72 43 73 49 74 44 75
REMARK SMILES IDX 45 76 46 77 47 78 48 79 71 80 72 81 80 82 73 83 79 84 74 85
REMARK SMILES IDX 75 86 76 87 77 88 78 89 57 90 58 91 66 92 59 93 65 94 60 95
REMARK SMILES IDX 61 96 62 97 63 98 64 99
REMARK H PARENT 85 55 55 66
REMARK Flexibility Score: inf
ROOT
ATOM      1  O   UNL     1      -1.087   4.901   7.990  1.00  0.00    -0.377 OA
ENDROOT
BRANCH   1   2
ATOM      2  C   UNL     1      -1.114   3.558   7.538  1.00  0.00     0.188 C 
BRANCH   2   3
ATOM      3  C   UNL     1      -0.010   2.693   8.174  1.00  0.00     0.188 C 
BRANCH   3   4
ATOM      4  O   UNL     1       0.651   3.333   9.262  1.00  0.00    -0.376 OA
BRANCH   4   5
ATOM      5  C   UNL     1       1.924   3.915   8.999  1.00  0.00     0.202 C 
BRANCH   5   6
ATOM      6  C   UNL     1       1.974   5.114   8.038  1.00  0.00     0.261 C 
BRANCH   6   7
ATOM      7  O   UNL     1       1.443   4.864   6.727  1.00  0.00    -0.460 OA
BRANCH   7   8
ATOM      8  C   UNL     1       2.092   3.986   5.940  1.00  0.00     0.338 C 
ATOM      9  O   UNL     1       3.117   3.382   6.197  1.00  0.00    -0.246 OA
BRANCH   8  10
ATOM     10  C   UNL     1       1.225   3.716   4.774  1.00  0.00     0.087 C 
ATOM     11  C   UNL     1      -1.371   1.526   1.070  1.00  0.00     0.030 A 
ATOM     12  C   UNL     1      -1.014   2.851   1.379  1.00  0.00     0.063 A 
ATOM     13  C   UNL     1      -1.165   0.543   2.050  1.00  0.00     0.055 A 
ATOM     14  C   UNL     1      -0.334   3.158   2.558  1.00  0.00     0.129 A 
ATOM     15  C   UNL     1      -0.430   0.842   3.205  1.00  0.00     0.033 A 
ATOM     16  Cl  UNL     1      -1.785  -1.066   1.934  1.00  0.00    -0.083 Cl
ATOM     17  C   UNL     1       0.035   2.139   3.430  1.00  0.00     0.019 A 
ATOM     18  O   UNL     1      -0.008   4.468   2.750  1.00  0.00    -0.475 OA
ATOM     19  C   UNL     1       0.949   2.429   4.521  1.00  0.00     0.027 C 
ATOM     20  C   UNL     1       0.598   4.862   4.019  1.00  0.00     0.316 C 
BRANCH  11  21
ATOM     21  S   UNL     1      -2.010   1.279  -0.585  1.00  0.00    -0.124 SA
BRANCH  21  22
ATOM     22  C   UNL     1      -1.079  -0.166  -1.239  1.00  0.00     0.078 C 
BRANCH  22  23
ATOM     23  C   UNL     1       0.440  -0.059  -1.490  1.00  0.00    -0.007 C 
ATOM     24  C   UNL     1       1.295   0.205  -0.253  1.00  0.00     0.008 C 
ATOM     25  C   UNL     1       0.914  -1.378  -2.124  1.00  0.00     0.008 C 
ENDBRANCH  22  23
ENDBRANCH  21  22
ENDBRANCH  11  21
BRANCH  20  26
ATOM     26  C   UNL     1       1.583   6.001   3.708  1.00  0.00     0.430 C 
ATOM     27  F   UNL     1       0.974   6.990   3.012  1.00  0.00    -0.167 F 
ATOM     28  F   UNL     1       2.096   6.562   4.823  1.00  0.00    -0.167 F 
ATOM     29  F   UNL     1       2.622   5.558   2.961  1.00  0.00    -0.167 F 
ENDBRANCH  20  26
ENDBRANCH   8  10
ENDBRANCH   7   8
ENDBRANCH   6   7
ENDBRANCH   5   6
ENDBRANCH   4   5
ENDBRANCH   3   4
ENDBRANCH   2   3
ENDBRANCH   1   2
BRANCH   1  30
ATOM     30  C   UNL     1      -1.724   5.196   9.232  1.00  0.00     0.188 C 
BRANCH  30  31
ATOM     31  C   UNL     1      -1.940   4.108  10.309  1.00  0.00     0.188 C 
BRANCH  31  32
ATOM     32  O   UNL     1      -2.510   2.899   9.808  1.00  0.00    -0.376 OA
BRANCH  32  33
ATOM     33  C   UNL     1      -3.862   2.639  10.163  1.00  0.00     0.202 C 
BRANCH  33  34
ATOM     34  C   UNL     1      -4.882   3.423   9.329  1.00  0.00     0.261 C 
BRANCH  34  35
ATOM     35  O   UNL     1      -4.827   4.849   9.483  1.00  0.00    -0.460 OA
BRANCH  35  36
ATOM     36  C   UNL     1      -5.006   5.356  10.725  1.00  0.00     0.338 C 
ATOM     37  O   UNL     1      -5.273   4.737  11.739  1.00  0.00    -0.246 OA
BRANCH  36  38
ATOM     38  C   UNL     1      -4.610   6.779  10.678  1.00  0.00     0.060 A 
ATOM     39  C   UNL     1      -5.118   7.621   9.686  1.00  0.00     0.016 A 
ATOM     40  C   UNL     1      -3.686   7.261  11.615  1.00  0.00     0.016 A 
ATOM     41  C   UNL     1      -4.726   8.959   9.652  1.00  0.00     0.010 A 
ATOM     42  C   UNL     1      -3.289   8.600  11.574  1.00  0.00     0.010 A 
ATOM     43  C   UNL     1      -3.826   9.463  10.608  1.00  0.00    -0.014 A 
BRANCH  43  44
ATOM     44  C   UNL     1      -3.621  10.927  10.713  1.00  0.00     0.031 A 
ATOM     45  C   UNL     1      -2.414  11.611  10.150  1.00  0.00     0.074 A 
ATOM     46  C   UNL     1      -4.580  11.642  11.333  1.00  0.00     0.049 A 
ATOM     47  N   UNL     1      -2.167  12.894  10.079  1.00  0.00    -0.248 NA
ATOM     48  C   UNL     1      -1.350  10.758   9.601  1.00  0.00     0.031 C 
ATOM     49  C   UNL     1      -5.790  11.071  11.929  1.00  0.00     0.029 A 
ATOM     50  N   UNL     1      -4.702  12.990  11.551  1.00  0.00    -0.354 N 
ATOM     51  C   UNL     1      -0.933  13.011   9.454  1.00  0.00     0.074 A 
ATOM     52  C   UNL     1      -0.459  11.663   9.208  1.00  0.00     0.031 C 
ATOM     53  C   UNL     1      -6.547  12.064  12.417  1.00  0.00     0.029 A 
ATOM     54  C   UNL     1      -5.866  13.337  12.194  1.00  0.00     0.049 A 
ATOM     55  H   UNL     1      -4.022  13.646  11.274  1.00  0.00     0.167 HD
ATOM     56  C   UNL     1      -0.273  14.142   9.105  1.00  0.00     0.031 A 
ATOM     57  C   UNL     1      -6.347  14.542  12.555  1.00  0.00     0.031 A 
ATOM     58  C   UNL     1      -0.748  15.477   9.380  1.00  0.00     0.049 A 
ATOM     59  C   UNL     1      -5.572  15.777  12.199  1.00  0.00     0.074 A 
ATOM     60  C   UNL     1      -0.165  16.682   9.025  1.00  0.00     0.029 A 
ATOM     61  N   UNL     1      -1.903  15.789  10.083  1.00  0.00    -0.354 N 
ATOM     62  N   UNL     1      -4.444  15.872  11.538  1.00  0.00    -0.248 NA
ATOM     63  C   UNL     1      -6.139  17.064  12.619  1.00  0.00     0.031 C 
ATOM     64  C   UNL     1      -0.925  17.717   9.576  1.00  0.00     0.029 A 
ATOM     65  C   UNL     1      -2.027  17.164  10.208  1.00  0.00     0.049 A 
ATOM     66  H   UNL     1      -2.541  15.130  10.441  1.00  0.00     0.167 HD
ATOM     67  C   UNL     1      -4.169  17.232  11.452  1.00  0.00     0.074 A 
ATOM     68  C   UNL     1      -5.263  17.921  12.108  1.00  0.00     0.031 C 
ATOM     69  C   UNL     1      -3.105  17.848  10.881  1.00  0.00     0.031 A 
BRANCH  56  70
ATOM     70  C   UNL     1       1.035  14.012   8.365  1.00  0.00    -0.014 A 
ATOM     71  C   UNL     1       2.230  14.454   8.964  1.00  0.00     0.010 A 
ATOM     72  C   UNL     1       1.060  13.595   7.022  1.00  0.00     0.010 A 
ATOM     73  C   UNL     1       3.416  14.516   8.225  1.00  0.00     0.020 A 
ATOM     74  C   UNL     1       2.250  13.630   6.287  1.00  0.00     0.020 A 
ATOM     75  C   UNL     1       3.415  14.115   6.887  1.00  0.00     0.054 A 
BRANCH  75  76
ATOM     76  S   UNL     1       4.954  14.241   5.933  1.00  0.00     0.124 S 
ATOM     77  O   UNL     1       5.060  15.679   5.708  1.00  0.00    -0.237 OA
ATOM     78  O   UNL     1       5.941  13.669   6.846  1.00  0.00    -0.237 OA
ATOM     79  O   UNL     1       4.684  13.440   4.741  1.00  0.00    -0.744 OA
ENDBRANCH  75  76
ENDBRANCH  56  70
BRANCH  57  80
ATOM     80  C   UNL     1      -7.663  14.611  13.246  1.00  0.00    -0.014 A 
ATOM     81  C   UNL     1      -7.811  14.095  14.547  1.00  0.00     0.010 A 
ATOM     82  C   UNL     1      -8.796  15.089  12.566  1.00  0.00     0.010 A 
ATOM     83  C   UNL     1      -9.075  13.998  15.132  1.00  0.00     0.020 A 
ATOM     84  C   UNL     1     -10.059  15.023  13.161  1.00  0.00     0.020 A 
ATOM     85  C   UNL     1     -10.194  14.448  14.426  1.00  0.00     0.054 A 
BRANCH  85  86
ATOM     86  S   UNL     1     -11.833  14.250  15.177  1.00  0.00     0.124 S 
ATOM     87  O   UNL     1     -12.072  12.820  14.997  1.00  0.00    -0.237 OA
ATOM     88  O   UNL     1     -11.608  14.682  16.554  1.00  0.00    -0.237 OA
ATOM     89  O   UNL     1     -12.682  15.132  14.381  1.00  0.00    -0.744 OA
ENDBRANCH  85  86
ENDBRANCH  57  80
BRANCH  69  90
ATOM     90  C   UNL     1      -3.040  19.353  10.950  1.00  0.00    -0.014 A 
ATOM     91  C   UNL     1      -3.135  20.116   9.771  1.00  0.00     0.010 A 
ATOM     92  C   UNL     1      -2.775  20.008  12.166  1.00  0.00     0.010 A 
ATOM     93  C   UNL     1      -2.935  21.499   9.800  1.00  0.00     0.020 A 
ATOM     94  C   UNL     1      -2.605  21.395  12.205  1.00  0.00     0.020 A 
ATOM     95  C   UNL     1      -2.662  22.128  11.017  1.00  0.00     0.054 A 
BRANCH  95  96
ATOM     96  S   UNL     1      -2.382  23.921  11.033  1.00  0.00     0.124 S 
ATOM     97  O   UNL     1      -1.024  24.026  10.508  1.00  0.00    -0.237 OA
ATOM     98  O   UNL     1      -3.438  24.420  10.155  1.00  0.00    -0.237 OA
ATOM     99  O   UNL     1      -2.537  24.279  12.442  1.00  0.00    -0.744 OA
ENDBRANCH  95  96
ENDBRANCH  69  90
ENDBRANCH  43  44
ENDBRANCH  36  38
ENDBRANCH  35  36
ENDBRANCH  34  35
ENDBRANCH  33  34
ENDBRANCH  32  33
ENDBRANCH  31  32
ENDBRANCH  30  31
ENDBRANCH   1  30
TORSDOF 27
