REMARK SMILES CCN1C(=O)C[C@@H](C(=O)OCCOCCOCCOCCOC(=O)c2ccc(-c3c4nc(c(-c5ccc(S(=O)(=O)[O-])cc5)c5ccc([nH]5)c(-c5ccc(S(=O)(=O)[O-])cc5)c5nc(c(-c6ccc(S(=O)(=O)[O-])cc6)c6ccc3[nH]6)C=C5)C=C4)cc2)[C@H]1c1ccccc1C1CC1
REMARK SMILES IDX 17 1 16 2 15 3 14 4 13 5 12 6 11 7 10 8 8 9 9 10 7 11 3 12
REMARK SMILES IDX 4 13 85 14 5 15 6 16 2 17 1 18 86 19 87 20 91 21 88 22 90 23
REMARK SMILES IDX 89 24 92 25 93 26 94 27 18 28 19 29 20 30 21 31 22 32 23 33
REMARK SMILES IDX 24 34 25 35 26 36 84 37 27 38 83 39 28 40 29 41 30 42 77 43
REMARK SMILES IDX 31 44 82 45 76 46 78 47 32 48 81 49 75 50 74 51 33 53 63 54
REMARK SMILES IDX 44 55 62 56 45 57 48 58 61 59 79 60 46 61 47 62 60 64 80 65
REMARK SMILES IDX 49 66 34 67 35 68 43 69 36 70 42 71 37 72 38 73 39 74 40 75
REMARK SMILES IDX 41 76 64 77 65 78 73 79 66 80 72 81 67 82 68 83 69 84 70 85
REMARK SMILES IDX 71 86 50 87 51 88 59 89 52 90 58 91 53 92 54 93 55 94 56 95
REMARK SMILES IDX 57 96
REMARK H PARENT 78 52 48 63
REMARK Flexibility Score: inf
ROOT
ATOM      1  C   UNL     1      -2.331   2.047  -5.971  1.00  0.00     0.188 C 
ENDROOT
BRANCH   1   2
ATOM      2  O   UNL     1      -1.097   1.359  -6.081  1.00  0.00    -0.377 OA
BRANCH   2   3
ATOM      3  C   UNL     1      -0.564   1.170  -7.383  1.00  0.00     0.188 C 
BRANCH   3   4
ATOM      4  C   UNL     1      -0.219  -0.293  -7.679  1.00  0.00     0.188 C 
BRANCH   4   5
ATOM      5  O   UNL     1      -1.286  -1.212  -7.901  1.00  0.00    -0.376 OA
BRANCH   5   6
ATOM      6  C   UNL     1      -2.393  -1.194  -7.013  1.00  0.00     0.202 C 
BRANCH   6   7
ATOM      7  C   UNL     1      -2.203  -1.631  -5.545  1.00  0.00     0.261 C 
BRANCH   7   8
ATOM      8  O   UNL     1      -1.057  -1.100  -4.841  1.00  0.00    -0.463 OA
BRANCH   8   9
ATOM      9  C   UNL     1       0.024  -1.902  -4.885  1.00  0.00     0.312 C 
ATOM     10  O   UNL     1       0.052  -2.952  -5.532  1.00  0.00    -0.252 OA
BRANCH   9  11
ATOM     11  C   UNL     1       1.278  -1.448  -4.162  1.00  0.00     0.135 C 
ATOM     12  N   UNL     1       1.073  -0.834  -1.882  1.00  0.00    -0.335 N 
ATOM     13  C   UNL     1       1.108  -2.220  -1.904  1.00  0.00     0.224 C 
ATOM     14  C   UNL     1       1.483  -0.288  -3.175  1.00  0.00     0.130 C 
ATOM     15  O   UNL     1       0.839  -2.985  -0.995  1.00  0.00    -0.275 OA
ATOM     16  C   UNL     1       1.633  -2.647  -3.252  1.00  0.00     0.118 C 
BRANCH  12  17
ATOM     17  C   UNL     1       0.727  -0.027  -0.711  1.00  0.00     0.117 C 
ATOM     18  C   UNL     1       1.381  -0.463   0.589  1.00  0.00     0.027 C 
ENDBRANCH  12  17
BRANCH  14  19
ATOM     19  C   UNL     1       1.147   1.175  -3.415  1.00  0.00    -0.021 A 
ATOM     20  C   UNL     1      -0.203   1.543  -3.192  1.00  0.00     0.006 A 
ATOM     21  C   UNL     1       2.119   2.212  -3.610  1.00  0.00    -0.040 A 
ATOM     22  C   UNL     1      -0.602   2.872  -3.064  1.00  0.00     0.000 A 
ATOM     23  C   UNL     1       1.640   3.550  -3.533  1.00  0.00     0.004 A 
ATOM     24  C   UNL     1       0.323   3.880  -3.232  1.00  0.00     0.000 A 
BRANCH  21  25
ATOM     25  C   UNL     1       3.635   2.135  -3.833  1.00  0.00     0.019 C 
ATOM     26  C   UNL     1       4.557   1.276  -3.011  1.00  0.00     0.009 C 
ATOM     27  C   UNL     1       4.375   1.007  -4.484  1.00  0.00     0.009 C 
ENDBRANCH  21  25
ENDBRANCH  14  19
ENDBRANCH   9  11
ENDBRANCH   8   9
ENDBRANCH   7   8
ENDBRANCH   6   7
ENDBRANCH   5   6
ENDBRANCH   4   5
ENDBRANCH   3   4
ENDBRANCH   2   3
ENDBRANCH   1   2
BRANCH   1  28
ATOM     28  C   UNL     1      -2.537   3.365  -6.717  1.00  0.00     0.188 C 
BRANCH  28  29
ATOM     29  O   UNL     1      -1.469   3.900  -7.481  1.00  0.00    -0.376 OA
BRANCH  29  30
ATOM     30  C   UNL     1      -0.412   4.496  -6.731  1.00  0.00     0.202 C 
BRANCH  30  31
ATOM     31  C   UNL     1      -0.721   5.914  -6.229  1.00  0.00     0.261 C 
BRANCH  31  32
ATOM     32  O   UNL     1      -1.505   5.874  -5.018  1.00  0.00    -0.460 OA
BRANCH  32  33
ATOM     33  C   UNL     1      -2.805   6.250  -5.139  1.00  0.00     0.338 C 
ATOM     34  O   UNL     1      -3.336   6.739  -6.111  1.00  0.00    -0.246 OA
BRANCH  33  35
ATOM     35  C   UNL     1      -3.562   5.709  -3.982  1.00  0.00     0.060 A 
ATOM     36  C   UNL     1      -4.756   5.026  -4.255  1.00  0.00     0.016 A 
ATOM     37  C   UNL     1      -3.136   5.882  -2.664  1.00  0.00     0.016 A 
ATOM     38  C   UNL     1      -5.568   4.583  -3.213  1.00  0.00     0.010 A 
ATOM     39  C   UNL     1      -3.958   5.449  -1.616  1.00  0.00     0.010 A 
ATOM     40  C   UNL     1      -5.205   4.854  -1.889  1.00  0.00    -0.014 A 
BRANCH  40  41
ATOM     41  C   UNL     1      -6.255   4.789  -0.840  1.00  0.00     0.031 A 
ATOM     42  C   UNL     1      -6.958   6.073  -0.473  1.00  0.00     0.074 A 
ATOM     43  C   UNL     1      -6.644   3.627  -0.284  1.00  0.00     0.049 A 
ATOM     44  N   UNL     1      -7.920   6.277   0.389  1.00  0.00    -0.248 NA
ATOM     45  C   UNL     1      -6.519   7.288  -1.181  1.00  0.00     0.031 C 
ATOM     46  C   UNL     1      -6.096   2.309  -0.597  1.00  0.00     0.029 A 
ATOM     47  N   UNL     1      -7.607   3.377   0.662  1.00  0.00    -0.354 N 
ATOM     48  C   UNL     1      -8.194   7.639   0.330  1.00  0.00     0.074 A 
ATOM     49  C   UNL     1      -7.274   8.219  -0.621  1.00  0.00     0.031 C 
ATOM     50  C   UNL     1      -6.731   1.387   0.149  1.00  0.00     0.029 A 
ATOM     51  C   UNL     1      -7.708   2.051   1.012  1.00  0.00     0.049 A 
ATOM     52  H   UNL     1      -8.172   4.081   1.054  1.00  0.00     0.167 HD
ATOM     53  C   UNL     1      -9.135   8.348   0.997  1.00  0.00     0.031 A 
ATOM     54  C   UNL     1      -8.488   1.448   1.933  1.00  0.00     0.031 A 
ATOM     55  C   UNL     1     -10.045   7.779   1.952  1.00  0.00     0.049 A 
ATOM     56  C   UNL     1      -9.467   2.272   2.733  1.00  0.00     0.074 A 
ATOM     57  C   UNL     1     -11.035   8.416   2.680  1.00  0.00     0.029 A 
ATOM     58  N   UNL     1     -10.074   6.443   2.319  1.00  0.00    -0.354 N 
ATOM     59  N   UNL     1      -9.725   3.557   2.655  1.00  0.00    -0.248 NA
ATOM     60  C   UNL     1     -10.268   1.561   3.741  1.00  0.00     0.031 C 
ATOM     61  C   UNL     1     -11.620   7.476   3.533  1.00  0.00     0.029 A 
ATOM     62  C   UNL     1     -11.043   6.240   3.285  1.00  0.00     0.049 A 
ATOM     63  H   UNL     1      -9.491   5.742   1.947  1.00  0.00     0.167 HD
ATOM     64  C   UNL     1     -10.738   3.799   3.580  1.00  0.00     0.074 A 
ATOM     65  C   UNL     1     -11.055   2.527   4.194  1.00  0.00     0.031 C 
ATOM     66  C   UNL     1     -11.352   4.968   3.889  1.00  0.00     0.031 A 
BRANCH  53  67
ATOM     67  C   UNL     1      -9.196   9.830   0.740  1.00  0.00    -0.014 A 
ATOM     68  C   UNL     1      -9.658  10.343  -0.486  1.00  0.00     0.010 A 
ATOM     69  C   UNL     1      -8.806  10.725   1.753  1.00  0.00     0.010 A 
ATOM     70  C   UNL     1      -9.692  11.722  -0.708  1.00  0.00     0.020 A 
ATOM     71  C   UNL     1      -8.868  12.105   1.547  1.00  0.00     0.020 A 
ATOM     72  C   UNL     1      -9.295  12.595   0.311  1.00  0.00     0.054 A 
BRANCH  72  73
ATOM     73  S   UNL     1      -9.369  14.380   0.003  1.00  0.00     0.124 S 
ATOM     74  O   UNL     1      -8.265  14.569  -0.935  1.00  0.00    -0.237 OA
ATOM     75  O   UNL     1     -10.706  14.552  -0.557  1.00  0.00    -0.237 OA
ATOM     76  O   UNL     1      -9.169  14.969   1.325  1.00  0.00    -0.744 OA
ENDBRANCH  72  73
ENDBRANCH  53  67
BRANCH  54  77
ATOM     77  C   UNL     1      -8.362  -0.018   2.171  1.00  0.00    -0.014 A 
ATOM     78  C   UNL     1      -9.409  -0.898   1.844  1.00  0.00     0.010 A 
ATOM     79  C   UNL     1      -7.190  -0.540   2.750  1.00  0.00     0.010 A 
ATOM     80  C   UNL     1      -9.294  -2.267   2.106  1.00  0.00     0.020 A 
ATOM     81  C   UNL     1      -7.058  -1.911   2.986  1.00  0.00     0.020 A 
ATOM     82  C   UNL     1      -8.117  -2.765   2.673  1.00  0.00     0.054 A 
BRANCH  82  83
ATOM     83  S   UNL     1      -7.973  -4.551   2.961  1.00  0.00     0.124 S 
ATOM     84  O   UNL     1      -8.887  -4.753   4.080  1.00  0.00    -0.237 OA
ATOM     85  O   UNL     1      -8.404  -5.110   1.682  1.00  0.00    -0.237 OA
ATOM     86  O   UNL     1      -6.556  -4.734   3.268  1.00  0.00    -0.744 OA
ENDBRANCH  82  83
ENDBRANCH  54  77
BRANCH  66  87
ATOM     87  C   UNL     1     -12.460   4.933   4.911  1.00  0.00    -0.014 A 
ATOM     88  C   UNL     1     -12.195   4.720   6.275  1.00  0.00     0.010 A 
ATOM     89  C   UNL     1     -13.784   5.186   4.504  1.00  0.00     0.010 A 
ATOM     90  C   UNL     1     -13.236   4.728   7.208  1.00  0.00     0.020 A 
ATOM     91  C   UNL     1     -14.823   5.226   5.437  1.00  0.00     0.020 A 
ATOM     92  C   UNL     1     -14.544   4.983   6.783  1.00  0.00     0.054 A 
BRANCH  92  93
ATOM     93  S   UNL     1     -15.870   5.033   8.020  1.00  0.00     0.124 S 
ATOM     94  O   UNL     1     -16.014   3.623   8.370  1.00  0.00    -0.237 OA
ATOM     95  O   UNL     1     -15.304   5.885   9.062  1.00  0.00    -0.237 OA
ATOM     96  O   UNL     1     -17.000   5.612   7.295  1.00  0.00    -0.744 OA
ENDBRANCH  92  93
ENDBRANCH  66  87
ENDBRANCH  40  41
ENDBRANCH  33  35
ENDBRANCH  32  33
ENDBRANCH  31  32
ENDBRANCH  30  31
ENDBRANCH  29  30
ENDBRANCH  28  29
ENDBRANCH   1  28
TORSDOF 26
