REMARK SMILES Cc1ccc(C(C)C)c(OCC(=O)Nc2nc(CC(=O)OCCOCCOCCOCCOC(=O)c3ccc(-c4c5nc(c(-c6ccc(S(=O)(=O)[O-])cc6)c6ccc([nH]6)c(-c6ccc(S(=O)(=O)[O-])cc6)c6nc(c(-c7ccc(S(=O)(=O)[O-])cc7)c7ccc4[nH]7)C=C6)C=C5)cc3)cs2)c1
REMARK SMILES IDX 25 1 24 2 23 3 22 4 21 5 19 6 20 7 18 8 17 9 15 10 16 11
REMARK SMILES IDX 97 12 96 13 14 14 12 15 13 16 11 18 10 19 9 20 1 21 2 22
REMARK SMILES IDX 3 23 98 24 4 25 5 26 6 27 7 28 8 29 26 30 27 31 28 32 29 33
REMARK SMILES IDX 30 34 31 35 32 36 33 37 34 38 35 39 36 40 37 41 95 42 38 43
REMARK SMILES IDX 94 44 39 45 40 46 41 47 88 48 42 49 93 50 87 51 89 52 43 53
REMARK SMILES IDX 92 54 86 55 85 56 44 58 74 59 55 60 73 61 56 62 59 63 72 64
REMARK SMILES IDX 90 65 57 66 58 67 71 69 91 70 60 71 45 72 46 73 54 74 47 75
REMARK SMILES IDX 53 76 48 77 49 78 50 79 51 80 52 81 75 82 76 83 84 84 77 85
REMARK SMILES IDX 83 86 78 87 79 88 80 89 81 90 82 91 61 92 62 93 70 94 63 95
REMARK SMILES IDX 69 96 64 97 65 98 66 99 67 100 68 101
REMARK H PARENT 14 17 89 57 59 68
REMARK Flexibility Score: inf
ROOT
ATOM      1  C   UNL     1      -7.502   3.680   3.590  1.00  0.00     0.188 C 
ENDROOT
BRANCH   1   2
ATOM      2  O   UNL     1      -8.488   2.654   3.512  1.00  0.00    -0.376 OA
BRANCH   2   3
ATOM      3  C   UNL     1      -8.045   1.387   3.042  1.00  0.00     0.202 C 
BRANCH   3   4
ATOM      4  C   UNL     1      -7.684   1.330   1.561  1.00  0.00     0.261 C 
BRANCH   4   5
ATOM      5  O   UNL     1      -6.585   2.213   1.265  1.00  0.00    -0.463 OA
BRANCH   5   6
ATOM      6  C   UNL     1      -6.228   2.268  -0.037  1.00  0.00     0.311 C 
ATOM      7  O   UNL     1      -6.745   1.591  -0.921  1.00  0.00    -0.252 OA
BRANCH   6   8
ATOM      8  C   UNL     1      -5.241   3.364  -0.356  1.00  0.00     0.179 C 
BRANCH   8   9
ATOM      9  C   UNL     1      -4.338   3.840   0.738  1.00  0.00     0.065 A 
ATOM     10  C   UNL     1      -2.396   3.849   1.790  1.00  0.00     0.189 A 
ATOM     11  N   UNL     1      -3.078   3.280   0.834  1.00  0.00    -0.224 NA
ATOM     12  S   UNL     1      -3.190   5.067   2.668  1.00  0.00    -0.105 S 
ATOM     13  C   UNL     1      -4.527   4.917   1.589  1.00  0.00     0.093 A 
BRANCH  10  14
ATOM     14  N   UNL     1      -1.071   3.718   2.062  1.00  0.00    -0.299 N 
ATOM     15  C   UNL     1      -0.136   3.468   1.099  1.00  0.00     0.264 C 
ATOM     16  O   UNL     1       1.059   3.442   1.422  1.00  0.00    -0.271 OA
ATOM     17  H   UNL     1      -0.771   3.807   2.995  1.00  0.00     0.172 HD
BRANCH  15  18
ATOM     18  C   UNL     1      -0.547   3.413  -0.396  1.00  0.00     0.329 C 
BRANCH  18  19
ATOM     19  O   UNL     1      -1.198   2.277  -0.930  1.00  0.00    -0.483 OA
BRANCH  19  20
ATOM     20  C   UNL     1      -0.600   1.062  -0.742  1.00  0.00     0.123 A 
ATOM     21  C   UNL     1       2.815  -0.442  -0.007  1.00  0.00     0.044 C 
ATOM     22  C   UNL     1       1.347  -0.328  -0.281  1.00  0.00    -0.047 A 
ATOM     23  C   UNL     1       0.531  -1.457  -0.300  1.00  0.00     0.004 A 
ATOM     24  C   UNL     1       0.776   0.922  -0.531  1.00  0.00     0.050 A 
ATOM     25  C   UNL     1      -0.836  -1.334  -0.558  1.00  0.00     0.008 A 
ATOM     26  C   UNL     1      -1.425  -0.077  -0.789  1.00  0.00    -0.003 A 
BRANCH  26  27
ATOM     27  C   UNL     1      -2.925   0.027  -1.047  1.00  0.00     0.017 C 
ATOM     28  C   UNL     1      -3.357  -0.763  -2.286  1.00  0.00     0.012 C 
ATOM     29  C   UNL     1      -3.725  -0.428   0.171  1.00  0.00     0.012 C 
ENDBRANCH  26  27
ENDBRANCH  19  20
ENDBRANCH  18  19
ENDBRANCH  15  18
ENDBRANCH  10  14
ENDBRANCH   8   9
ENDBRANCH   6   8
ENDBRANCH   5   6
ENDBRANCH   4   5
ENDBRANCH   3   4
ENDBRANCH   2   3
ENDBRANCH   1   2
BRANCH   1  30
ATOM     30  C   UNL     1      -6.054   3.340   3.993  1.00  0.00     0.188 C 
BRANCH  30  31
ATOM     31  O   UNL     1      -5.963   2.403   5.048  1.00  0.00    -0.377 OA
BRANCH  31  32
ATOM     32  C   UNL     1      -4.850   2.621   5.920  1.00  0.00     0.188 C 
BRANCH  32  33
ATOM     33  C   UNL     1      -5.079   3.868   6.776  1.00  0.00     0.188 C 
BRANCH  33  34
ATOM     34  O   UNL     1      -6.488   4.109   6.822  1.00  0.00    -0.376 OA
BRANCH  34  35
ATOM     35  C   UNL     1      -6.901   5.334   7.384  1.00  0.00     0.202 C 
BRANCH  35  36
ATOM     36  C   UNL     1      -6.828   5.305   8.907  1.00  0.00     0.261 C 
BRANCH  36  37
ATOM     37  O   UNL     1      -7.809   4.376   9.410  1.00  0.00    -0.460 OA
BRANCH  37  38
ATOM     38  C   UNL     1      -7.270   3.274   9.999  1.00  0.00     0.338 C 
ATOM     39  O   UNL     1      -6.765   3.280  11.110  1.00  0.00    -0.246 OA
BRANCH  38  40
ATOM     40  C   UNL     1      -7.399   2.083   9.115  1.00  0.00     0.060 A 
ATOM     41  C   UNL     1      -6.547   0.981   9.281  1.00  0.00     0.016 A 
ATOM     42  C   UNL     1      -8.278   2.113   8.034  1.00  0.00     0.016 A 
ATOM     43  C   UNL     1      -6.526  -0.052   8.326  1.00  0.00     0.010 A 
ATOM     44  C   UNL     1      -8.198   1.131   7.059  1.00  0.00     0.010 A 
ATOM     45  C   UNL     1      -7.322   0.039   7.181  1.00  0.00    -0.014 A 
BRANCH  45  46
ATOM     46  C   UNL     1      -7.222  -0.827   5.990  1.00  0.00     0.031 A 
ATOM     47  C   UNL     1      -8.445  -1.427   5.358  1.00  0.00     0.074 A 
ATOM     48  C   UNL     1      -6.080  -0.830   5.256  1.00  0.00     0.049 A 
ATOM     49  N   UNL     1      -8.422  -2.216   4.330  1.00  0.00    -0.248 NA
ATOM     50  C   UNL     1      -9.810  -1.224   5.844  1.00  0.00     0.031 C 
ATOM     51  C   UNL     1      -5.994  -1.089   3.818  1.00  0.00     0.029 A 
ATOM     52  N   UNL     1      -4.747  -0.658   5.617  1.00  0.00    -0.354 N 
ATOM     53  C   UNL     1      -9.688  -2.248   3.792  1.00  0.00     0.074 A 
ATOM     54  C   UNL     1     -10.534  -1.761   4.853  1.00  0.00     0.031 C 
ATOM     55  C   UNL     1      -4.720  -1.250   3.464  1.00  0.00     0.029 A 
ATOM     56  C   UNL     1      -3.955  -1.329   4.681  1.00  0.00     0.049 A 
ATOM     57  H   UNL     1      -4.419  -0.152   6.395  1.00  0.00     0.167 HD
ATOM     58  C   UNL     1      -9.846  -2.530   2.462  1.00  0.00     0.031 A 
ATOM     59  C   UNL     1      -3.081  -2.337   4.956  1.00  0.00     0.031 A 
ATOM     60  C   UNL     1      -8.600  -3.013   1.839  1.00  0.00     0.049 A 
ATOM     61  C   UNL     1      -3.442  -3.608   4.218  1.00  0.00     0.074 A 
ATOM     62  C   UNL     1      -7.817  -2.597   0.773  1.00  0.00     0.029 A 
ATOM     63  N   UNL     1      -7.886  -4.043   2.455  1.00  0.00    -0.354 N 
ATOM     64  N   UNL     1      -4.616  -3.776   3.667  1.00  0.00    -0.248 NA
ATOM     65  C   UNL     1      -2.581  -4.767   4.003  1.00  0.00     0.031 C 
ATOM     66  C   UNL     1      -6.601  -3.338   0.799  1.00  0.00     0.029 A 
ATOM     67  C   UNL     1      -6.659  -4.234   1.854  1.00  0.00     0.049 A 
ATOM     68  H   UNL     1      -8.216  -4.567   3.220  1.00  0.00     0.167 HD
ATOM     69  C   UNL     1      -4.672  -4.960   3.000  1.00  0.00     0.074 A 
ATOM     70  C   UNL     1      -3.384  -5.572   3.274  1.00  0.00     0.031 C 
ATOM     71  C   UNL     1      -5.777  -5.319   2.284  1.00  0.00     0.031 A 
BRANCH  58  72
ATOM     72  C   UNL     1     -11.101  -2.209   1.648  1.00  0.00    -0.014 A 
ATOM     73  C   UNL     1     -11.130  -2.452   0.255  1.00  0.00     0.010 A 
ATOM     74  C   UNL     1     -12.262  -1.606   2.172  1.00  0.00     0.010 A 
ATOM     75  C   UNL     1     -12.236  -2.114  -0.553  1.00  0.00     0.020 A 
ATOM     76  C   UNL     1     -13.386  -1.292   1.387  1.00  0.00     0.020 A 
ATOM     77  C   UNL     1     -13.365  -1.540   0.023  1.00  0.00     0.054 A 
BRANCH  77  78
ATOM     78  S   UNL     1     -14.802  -1.136  -1.008  1.00  0.00     0.124 S 
ATOM     79  O   UNL     1     -14.289  -0.062  -1.855  1.00  0.00    -0.237 OA
ATOM     80  O   UNL     1     -15.074  -2.400  -1.687  1.00  0.00    -0.237 OA
ATOM     81  O   UNL     1     -15.819  -0.726  -0.041  1.00  0.00    -0.744 OA
ENDBRANCH  77  78
ENDBRANCH  58  72
BRANCH  59  82
ATOM     82  C   UNL     1      -2.266  -2.114   6.179  1.00  0.00    -0.014 A 
ATOM     83  C   UNL     1      -1.240  -1.157   6.006  1.00  0.00     0.010 A 
ATOM     84  C   UNL     1      -2.863  -2.244   7.449  1.00  0.00     0.010 A 
ATOM     85  C   UNL     1      -1.032  -0.165   6.966  1.00  0.00     0.020 A 
ATOM     86  C   UNL     1      -2.654  -1.245   8.416  1.00  0.00     0.020 A 
ATOM     87  C   UNL     1      -1.807  -0.168   8.125  1.00  0.00     0.054 A 
BRANCH  87  88
ATOM     88  S   UNL     1      -1.948   1.396   9.057  1.00  0.00     0.124 S 
ATOM     89  O   UNL     1      -0.708   1.413   9.824  1.00  0.00    -0.237 OA
ATOM     90  O   UNL     1      -2.049   2.396   7.992  1.00  0.00    -0.237 OA
ATOM     91  O   UNL     1      -3.173   1.213   9.830  1.00  0.00    -0.744 OA
ENDBRANCH  87  88
ENDBRANCH  59  82
BRANCH  71  92
ATOM     92  C   UNL     1      -6.130  -6.725   1.869  1.00  0.00    -0.014 A 
ATOM     93  C   UNL     1      -5.590  -7.867   2.478  1.00  0.00     0.010 A 
ATOM     94  C   UNL     1      -7.205  -6.924   0.967  1.00  0.00     0.010 A 
ATOM     95  C   UNL     1      -6.082  -9.147   2.187  1.00  0.00     0.020 A 
ATOM     96  C   UNL     1      -7.731  -8.191   0.703  1.00  0.00     0.020 A 
ATOM     97  C   UNL     1      -7.155  -9.300   1.309  1.00  0.00     0.054 A 
BRANCH  97  98
ATOM     98  S   UNL     1      -7.857 -10.947   1.046  1.00  0.00     0.124 S 
ATOM     99  O   UNL     1      -6.965 -11.494   0.027  1.00  0.00    -0.237 OA
ATOM    100  O   UNL     1      -7.746 -11.561   2.368  1.00  0.00    -0.237 OA
ATOM    101  O   UNL     1      -9.223 -10.676   0.607  1.00  0.00    -0.744 OA
ENDBRANCH  97  98
ENDBRANCH  71  92
ENDBRANCH  45  46
ENDBRANCH  38  40
ENDBRANCH  37  38
ENDBRANCH  36  37
ENDBRANCH  35  36
ENDBRANCH  34  35
ENDBRANCH  33  34
ENDBRANCH  32  33
ENDBRANCH  31  32
ENDBRANCH  30  31
ENDBRANCH   1  30
TORSDOF 29
