REMARK SMILES N#Cc1ccccc1Cn1cccc1C(=O)OCCOCCOCCOCCOC(=O)c1ccc(-c2c3nc(c(-c4ccc(S(=O)(=O)[O-])cc4)c4ccc([nH]4)c(-c4ccc(S(=O)(=O)[O-])cc4)c4nc(c(-c5ccc(S(=O)(=O)[O-])cc5)c5ccc2[nH]5)C=C4)C=C3)cc1
REMARK SMILES IDX 23 1 22 2 21 3 20 4 19 5 18 6 17 7 15 8 16 9 14 10 10 11
REMARK SMILES IDX 11 12 12 13 13 14 9 15 8 16 3 17 4 18 5 19 7 20 6 21 2 22
REMARK SMILES IDX 1 23 24 24 25 25 26 26 27 27 28 28 29 29 30 30 31 31 32 32
REMARK SMILES IDX 33 33 91 34 34 35 90 36 35 37 36 38 37 39 84 40 38 41 89 42
REMARK SMILES IDX 83 43 85 44 39 45 88 46 82 47 81 48 40 50 70 51 51 52 69 53
REMARK SMILES IDX 52 54 55 55 68 56 86 57 53 58 54 59 67 61 87 62 56 63 41 64
REMARK SMILES IDX 42 65 50 66 43 67 49 68 44 69 45 70 46 71 47 72 48 73 71 74
REMARK SMILES IDX 72 75 80 76 73 77 79 78 74 79 75 80 76 81 77 82 78 83 57 84
REMARK SMILES IDX 58 85 66 86 59 87 65 88 60 89 61 90 62 91 63 92 64 93
REMARK H PARENT 85 49 55 60
REMARK Flexibility Score: inf
ROOT
ATOM      1  O   UNL     1      -2.130   0.202  -2.717  1.00  0.00    -0.377 OA
ENDROOT
BRANCH   1   2
ATOM      2  C   UNL     1      -1.855  -1.101  -3.207  1.00  0.00     0.188 C 
BRANCH   2   3
ATOM      3  C   UNL     1      -2.894  -1.953  -3.971  1.00  0.00     0.188 C 
BRANCH   3   4
ATOM      4  O   UNL     1      -4.243  -1.691  -3.664  1.00  0.00    -0.376 OA
BRANCH   4   5
ATOM      5  C   UNL     1      -5.003  -2.436  -2.741  1.00  0.00     0.202 C 
BRANCH   5   6
ATOM      6  C   UNL     1      -4.441  -2.947  -1.405  1.00  0.00     0.261 C 
BRANCH   6   7
ATOM      7  O   UNL     1      -3.021  -3.062  -1.307  1.00  0.00    -0.459 OA
BRANCH   7   8
ATOM      8  C   UNL     1      -2.494  -4.236  -1.730  1.00  0.00     0.355 C 
ATOM      9  O   UNL     1      -3.155  -5.189  -2.121  1.00  0.00    -0.244 OA
BRANCH   8  10
ATOM     10  C   UNL     1      -1.053  -4.124  -1.866  1.00  0.00     0.127 A 
ATOM     11  N   UNL     1      -0.106  -3.503  -1.051  1.00  0.00    -0.338 N 
ATOM     12  C   UNL     1       1.143  -3.866  -1.518  1.00  0.00     0.087 A 
ATOM     13  C   UNL     1       1.014  -4.414  -2.768  1.00  0.00     0.020 A 
ATOM     14  C   UNL     1      -0.359  -4.604  -2.975  1.00  0.00     0.035 A 
BRANCH  11  15
ATOM     15  C   UNL     1      -0.324  -2.717   0.184  1.00  0.00     0.159 C 
BRANCH  15  16
ATOM     16  C   UNL     1       0.312  -1.323   0.178  1.00  0.00    -0.010 A 
ATOM     17  C   UNL     1      -0.440  -0.132   0.281  1.00  0.00     0.057 A 
ATOM     18  C   UNL     1       0.192   1.126   0.203  1.00  0.00     0.020 A 
ATOM     19  C   UNL     1       1.575   1.223   0.073  1.00  0.00     0.001 A 
ATOM     20  C   UNL     1       1.715  -1.184   0.138  1.00  0.00     0.007 A 
ATOM     21  C   UNL     1       2.338   0.065   0.064  1.00  0.00     0.000 A 
BRANCH  17  22
ATOM     22  C   UNL     1      -1.855  -0.144   0.566  1.00  0.00     0.099 C 
ATOM     23  N   UNL     1      -2.969  -0.172   0.851  1.00  0.00    -0.192 NA
ENDBRANCH  17  22
ENDBRANCH  15  16
ENDBRANCH  11  15
ENDBRANCH   8  10
ENDBRANCH   7   8
ENDBRANCH   6   7
ENDBRANCH   5   6
ENDBRANCH   4   5
ENDBRANCH   3   4
ENDBRANCH   2   3
ENDBRANCH   1   2
BRANCH   1  24
ATOM     24  C   UNL     1      -3.463   0.569  -2.431  1.00  0.00     0.188 C 
BRANCH  24  25
ATOM     25  C   UNL     1      -4.268   1.055  -3.646  1.00  0.00     0.188 C 
BRANCH  25  26
ATOM     26  O   UNL     1      -3.815   0.754  -4.954  1.00  0.00    -0.376 OA
BRANCH  26  27
ATOM     27  C   UNL     1      -2.557   1.117  -5.501  1.00  0.00     0.202 C 
BRANCH  27  28
ATOM     28  C   UNL     1      -1.507   2.046  -4.885  1.00  0.00     0.261 C 
BRANCH  28  29
ATOM     29  O   UNL     1      -1.815   2.634  -3.645  1.00  0.00    -0.460 OA
BRANCH  29  30
ATOM     30  C   UNL     1      -2.725   3.608  -3.766  1.00  0.00     0.338 C 
ATOM     31  O   UNL     1      -3.406   3.882  -4.740  1.00  0.00    -0.246 OA
BRANCH  30  32
ATOM     32  C   UNL     1      -2.667   4.426  -2.560  1.00  0.00     0.060 A 
ATOM     33  C   UNL     1      -3.789   5.235  -2.401  1.00  0.00     0.016 A 
ATOM     34  C   UNL     1      -1.365   4.855  -2.272  1.00  0.00     0.016 A 
ATOM     35  C   UNL     1      -3.572   6.586  -2.292  1.00  0.00     0.010 A 
ATOM     36  C   UNL     1      -1.141   6.208  -2.226  1.00  0.00     0.010 A 
ATOM     37  C   UNL     1      -2.249   7.066  -2.275  1.00  0.00    -0.014 A 
BRANCH  37  38
ATOM     38  C   UNL     1      -2.069   8.452  -1.843  1.00  0.00     0.031 A 
ATOM     39  C   UNL     1      -2.188   8.390  -0.272  1.00  0.00     0.074 A 
ATOM     40  C   UNL     1      -1.931   9.411  -2.836  1.00  0.00     0.049 A 
ATOM     41  N   UNL     1      -2.630   9.287   0.540  1.00  0.00    -0.248 NA
ATOM     42  C   UNL     1      -1.926   7.126   0.520  1.00  0.00     0.031 C 
ATOM     43  C   UNL     1      -1.807   9.149  -4.301  1.00  0.00     0.029 A 
ATOM     44  N   UNL     1      -1.831  10.795  -2.855  1.00  0.00    -0.354 N 
ATOM     45  C   UNL     1      -2.341   8.867   1.858  1.00  0.00     0.074 A 
ATOM     46  C   UNL     1      -2.103   7.468   1.800  1.00  0.00     0.031 C 
ATOM     47  C   UNL     1      -1.788  10.302  -5.029  1.00  0.00     0.029 A 
ATOM     48  C   UNL     1      -1.845  11.453  -4.143  1.00  0.00     0.049 A 
ATOM     49  H   UNL     1      -1.754  11.312  -2.021  1.00  0.00     0.167 HD
ATOM     50  C   UNL     1      -2.077   9.772   2.843  1.00  0.00     0.031 A 
ATOM     51  C   UNL     1      -1.914  12.814  -4.415  1.00  0.00     0.031 A 
ATOM     52  C   UNL     1      -2.210  11.080   2.288  1.00  0.00     0.049 A 
ATOM     53  C   UNL     1      -1.617  13.408  -3.105  1.00  0.00     0.074 A 
ATOM     54  C   UNL     1      -3.304  11.704   1.738  1.00  0.00     0.029 A 
ATOM     55  N   UNL     1      -1.049  11.605   1.760  1.00  0.00    -0.354 N 
ATOM     56  N   UNL     1      -0.444  13.402  -2.547  1.00  0.00    -0.248 NA
ATOM     57  C   UNL     1      -2.719  13.979  -2.322  1.00  0.00     0.031 C 
ATOM     58  C   UNL     1      -2.785  12.129   0.502  1.00  0.00     0.029 A 
ATOM     59  C   UNL     1      -1.387  12.180   0.570  1.00  0.00     0.049 A 
ATOM     60  H   UNL     1      -0.151  11.572   2.163  1.00  0.00     0.167 HD
ATOM     61  C   UNL     1      -0.771  13.542  -1.226  1.00  0.00     0.074 A 
ATOM     62  C   UNL     1      -2.062  14.219  -1.190  1.00  0.00     0.031 C 
ATOM     63  C   UNL     1      -0.362  12.578  -0.353  1.00  0.00     0.031 A 
BRANCH  50  64
ATOM     64  C   UNL     1      -1.383   9.682   4.169  1.00  0.00    -0.014 A 
ATOM     65  C   UNL     1      -1.482  10.842   4.980  1.00  0.00     0.010 A 
ATOM     66  C   UNL     1      -0.396   8.742   4.491  1.00  0.00     0.010 A 
ATOM     67  C   UNL     1      -0.560  11.124   5.981  1.00  0.00     0.020 A 
ATOM     68  C   UNL     1       0.512   8.998   5.538  1.00  0.00     0.020 A 
ATOM     69  C   UNL     1       0.446  10.204   6.246  1.00  0.00     0.054 A 
BRANCH  69  70
ATOM     70  S   UNL     1       1.667  10.646   7.510  1.00  0.00     0.124 S 
ATOM     71  O   UNL     1       2.353  11.779   6.897  1.00  0.00    -0.237 OA
ATOM     72  O   UNL     1       0.820  10.973   8.655  1.00  0.00    -0.237 OA
ATOM     73  O   UNL     1       2.462   9.430   7.660  1.00  0.00    -0.744 OA
ENDBRANCH  69  70
ENDBRANCH  50  64
BRANCH  51  74
ATOM     74  C   UNL     1      -2.190  13.908  -5.482  1.00  0.00    -0.014 A 
ATOM     75  C   UNL     1      -2.510  13.752  -6.836  1.00  0.00     0.010 A 
ATOM     76  C   UNL     1      -2.319  15.265  -5.017  1.00  0.00     0.010 A 
ATOM     77  C   UNL     1      -3.095  14.824  -7.592  1.00  0.00     0.020 A 
ATOM     78  C   UNL     1      -2.951  16.305  -5.718  1.00  0.00     0.020 A 
ATOM     79  C   UNL     1      -3.385  16.065  -7.003  1.00  0.00     0.054 A 
BRANCH  79  80
ATOM     80  S   UNL     1      -4.460  17.294  -7.825  1.00  0.00     0.124 S 
ATOM     81  O   UNL     1      -3.583  17.863  -8.844  1.00  0.00    -0.237 OA
ATOM     82  O   UNL     1      -5.557  16.469  -8.325  1.00  0.00    -0.237 OA
ATOM     83  O   UNL     1      -4.833  18.210  -6.747  1.00  0.00    -0.744 OA
ENDBRANCH  79  80
ENDBRANCH  51  74
BRANCH  63  84
ATOM     84  C   UNL     1       0.935  11.839  -0.666  1.00  0.00    -0.014 A 
ATOM     85  C   UNL     1       2.087  12.605  -0.938  1.00  0.00     0.010 A 
ATOM     86  C   UNL     1       1.077  10.435  -0.735  1.00  0.00     0.010 A 
ATOM     87  C   UNL     1       3.326  12.017  -1.229  1.00  0.00     0.020 A 
ATOM     88  C   UNL     1       2.321   9.830  -1.039  1.00  0.00     0.020 A 
ATOM     89  C   UNL     1       3.445  10.630  -1.263  1.00  0.00     0.054 A 
BRANCH  89  90
ATOM     90  S   UNL     1       5.094   9.914  -1.552  1.00  0.00     0.124 S 
ATOM     91  O   UNL     1       5.457  10.449  -2.862  1.00  0.00    -0.237 OA
ATOM     92  O   UNL     1       5.866  10.440  -0.430  1.00  0.00    -0.237 OA
ATOM     93  O   UNL     1       4.862   8.470  -1.520  1.00  0.00    -0.744 OA
ENDBRANCH  89  90
ENDBRANCH  63  84
ENDBRANCH  37  38
ENDBRANCH  30  32
ENDBRANCH  29  30
ENDBRANCH  28  29
ENDBRANCH  27  28
ENDBRANCH  26  27
ENDBRANCH  25  26
ENDBRANCH  24  25
ENDBRANCH   1  24
TORSDOF 26
