REMARK SMILES O=C(OCCOCCOCCOCCOC(=O)c1ccc(-c2c3nc(c(-c4ccc(S(=O)(=O)[O-])cc4)c4ccc([nH]4)c(-c4ccc(S(=O)(=O)[O-])cc4)c4nc(c(-c5ccc(S(=O)(=O)[O-])cc5)c5ccc2[nH]5)C=C4)C=C3)cc1)C1=Cc2cc(C(F)(F)F)ccc2O[C@@H]1C(F)(F)F
REMARK SMILES IDX 10 1 9 2 8 3 7 4 6 5 5 6 4 7 3 8 2 9 1 10 78 11 79 12 91 13
REMARK SMILES IDX 80 14 90 15 81 16 89 17 82 18 88 19 87 20 92 21 93 22 94 23
REMARK SMILES IDX 95 24 83 25 84 26 85 27 86 28 11 29 12 30 13 31 14 32 15 33
REMARK SMILES IDX 16 34 17 35 18 36 19 37 77 38 20 39 76 40 21 41 22 42 23 43
REMARK SMILES IDX 70 44 24 45 75 46 69 47 71 48 25 49 74 50 68 51 67 52 26 54
REMARK SMILES IDX 56 55 37 56 55 57 38 58 41 59 54 60 72 61 39 62 40 63 53 65
REMARK SMILES IDX 73 66 42 67 27 68 28 69 36 70 29 71 35 72 30 73 31 74 32 75
REMARK SMILES IDX 33 76 34 77 57 78 58 79 66 80 59 81 65 82 60 83 61 84 62 85
REMARK SMILES IDX 63 86 64 87 43 88 44 89 52 90 45 91 51 92 46 93 47 94 48 95
REMARK SMILES IDX 49 96 50 97
REMARK H PARENT 71 53 41 64
REMARK Flexibility Score: inf
ROOT
ATOM      1  C   UNL     1       4.191   3.486   0.856  1.00  0.00     0.188 C 
ENDROOT
BRANCH   1   2
ATOM      2  O   UNL     1       2.867   3.827   1.192  1.00  0.00    -0.377 OA
BRANCH   2   3
ATOM      3  C   UNL     1       1.974   2.762   0.961  1.00  0.00     0.188 C 
BRANCH   3   4
ATOM      4  C   UNL     1       2.259   1.482   1.764  1.00  0.00     0.188 C 
BRANCH   4   5
ATOM      5  O   UNL     1       3.564   0.800   1.822  1.00  0.00    -0.376 OA
BRANCH   5   6
ATOM      6  C   UNL     1       4.295  -0.340   0.849  1.00  0.00     0.202 C 
BRANCH   6   7
ATOM      7  C   UNL     1       3.513  -1.168  -1.014  1.00  0.00     0.261 C 
BRANCH   7   8
ATOM      8  O   UNL     1       2.580  -2.355  -1.149  1.00  0.00    -0.460 OA
BRANCH   8   9
ATOM      9  C   UNL     1       2.799  -3.278  -0.207  1.00  0.00     0.338 C 
ATOM     10  O   UNL     1       2.148  -4.262   0.044  1.00  0.00    -0.246 OA
BRANCH   9  11
ATOM     11  C   UNL     1       3.686  -2.484   0.629  1.00  0.00     0.087 C 
ATOM     12  C   UNL     1       5.055  -2.381   0.109  1.00  0.00     0.027 C 
ATOM     13  C   UNL     1       2.446  -1.018   0.736  1.00  0.00     0.316 C 
ATOM     14  C   UNL     1       5.720  -0.934  -0.724  1.00  0.00     0.018 A 
ATOM     15  O   UNL     1       3.087   0.525  -0.270  1.00  0.00    -0.475 OA
ATOM     16  C   UNL     1       6.981  -0.990  -1.250  1.00  0.00     0.025 A 
ATOM     17  C   UNL     1       4.768   0.478  -1.017  1.00  0.00     0.128 A 
ATOM     18  C   UNL     1       7.403   0.145  -1.986  1.00  0.00     0.056 A 
ATOM     19  C   UNL     1       5.238   1.547  -1.732  1.00  0.00     0.048 A 
ATOM     20  C   UNL     1       6.572   1.345  -2.194  1.00  0.00     0.017 A 
BRANCH  13  21
ATOM     21  C   UNL     1       2.166  -1.251   2.361  1.00  0.00     0.430 C 
ATOM     22  F   UNL     1       1.294  -0.433   2.979  1.00  0.00    -0.167 F 
ATOM     23  F   UNL     1       1.593  -2.490   2.482  1.00  0.00    -0.167 F 
ATOM     24  F   UNL     1       3.277  -1.329   3.135  1.00  0.00    -0.167 F 
ENDBRANCH  13  21
BRANCH  18  25
ATOM     25  C   UNL     1       8.797   0.042  -2.604  1.00  0.00     0.416 C 
ATOM     26  F   UNL     1       9.763  -0.138  -1.657  1.00  0.00    -0.166 F 
ATOM     27  F   UNL     1       8.905  -1.033  -3.436  1.00  0.00    -0.166 F 
ATOM     28  F   UNL     1       9.175   1.125  -3.329  1.00  0.00    -0.166 F 
ENDBRANCH  18  25
ENDBRANCH   9  11
ENDBRANCH   8   9
ENDBRANCH   7   8
ENDBRANCH   6   7
ENDBRANCH   5   6
ENDBRANCH   4   5
ENDBRANCH   3   4
ENDBRANCH   2   3
ENDBRANCH   1   2
BRANCH   1  29
ATOM     29  C   UNL     1       5.188   3.416   2.018  1.00  0.00     0.188 C 
BRANCH  29  30
ATOM     30  O   UNL     1       4.788   3.307   3.374  1.00  0.00    -0.376 OA
BRANCH  30  31
ATOM     31  C   UNL     1       3.597   3.909   3.847  1.00  0.00     0.202 C 
BRANCH  31  32
ATOM     32  C   UNL     1       3.341   5.420   3.739  1.00  0.00     0.261 C 
BRANCH  32  33
ATOM     33  O   UNL     1       3.571   6.018   2.459  1.00  0.00    -0.460 OA
BRANCH  33  34
ATOM     34  C   UNL     1       4.818   6.491   2.249  1.00  0.00     0.338 C 
ATOM     35  O   UNL     1       5.735   6.524   3.051  1.00  0.00    -0.246 OA
BRANCH  34  36
ATOM     36  C   UNL     1       4.979   6.803   0.810  1.00  0.00     0.060 A 
ATOM     37  C   UNL     1       6.098   6.293   0.128  1.00  0.00     0.016 A 
ATOM     38  C   UNL     1       4.049   7.598   0.142  1.00  0.00     0.016 A 
ATOM     39  C   UNL     1       6.308   6.599  -1.214  1.00  0.00     0.010 A 
ATOM     40  C   UNL     1       4.286   7.948  -1.186  1.00  0.00     0.010 A 
ATOM     41  C   UNL     1       5.436   7.484  -1.853  1.00  0.00    -0.014 A 
BRANCH  41  42
ATOM     42  C   UNL     1       5.847   8.151  -3.107  1.00  0.00     0.031 A 
ATOM     43  C   UNL     1       6.422   9.535  -2.996  1.00  0.00     0.074 A 
ATOM     44  C   UNL     1       5.667   7.576  -4.306  1.00  0.00     0.049 A 
ATOM     45  N   UNL     1       6.673  10.407  -3.934  1.00  0.00    -0.248 NA
ATOM     46  C   UNL     1       6.732  10.001  -1.634  1.00  0.00     0.031 C 
ATOM     47  C   UNL     1       5.176   6.219  -4.529  1.00  0.00     0.029 A 
ATOM     48  N   UNL     1       5.843   8.090  -5.566  1.00  0.00    -0.354 N 
ATOM     49  C   UNL     1       7.127  11.542  -3.273  1.00  0.00     0.074 A 
ATOM     50  C   UNL     1       7.100  11.252  -1.857  1.00  0.00     0.031 C 
ATOM     51  C   UNL     1       5.047   6.020  -5.852  1.00  0.00     0.029 A 
ATOM     52  C   UNL     1       5.394   7.254  -6.559  1.00  0.00     0.049 A 
ATOM     53  H   UNL     1       6.251   8.969  -5.741  1.00  0.00     0.167 HD
ATOM     54  C   UNL     1       7.515  12.726  -3.802  1.00  0.00     0.031 A 
ATOM     55  C   UNL     1       5.226   7.480  -7.878  1.00  0.00     0.031 A 
ATOM     56  C   UNL     1       7.502  13.005  -5.213  1.00  0.00     0.049 A 
ATOM     57  C   UNL     1       5.592   8.825  -8.448  1.00  0.00     0.074 A 
ATOM     58  C   UNL     1       7.901  14.157  -5.865  1.00  0.00     0.029 A 
ATOM     59  N   UNL     1       7.043  12.130  -6.188  1.00  0.00    -0.354 N 
ATOM     60  N   UNL     1       6.045   9.888  -7.824  1.00  0.00    -0.248 NA
ATOM     61  C   UNL     1       5.433   9.002  -9.898  1.00  0.00     0.031 C 
ATOM     62  C   UNL     1       7.600  14.012  -7.222  1.00  0.00     0.029 A 
ATOM     63  C   UNL     1       7.111  12.732  -7.433  1.00  0.00     0.049 A 
ATOM     64  H   UNL     1       6.718  11.216  -6.020  1.00  0.00     0.167 HD
ATOM     65  C   UNL     1       6.259  10.847  -8.810  1.00  0.00     0.074 A 
ATOM     66  C   UNL     1       5.885  10.238 -10.070  1.00  0.00     0.031 C 
ATOM     67  C   UNL     1       6.735  12.111  -8.682  1.00  0.00     0.031 A 
BRANCH  54  68
ATOM     68  C   UNL     1       7.902  13.822  -2.841  1.00  0.00    -0.014 A 
ATOM     69  C   UNL     1       9.026  13.714  -2.001  1.00  0.00     0.010 A 
ATOM     70  C   UNL     1       7.111  14.984  -2.772  1.00  0.00     0.010 A 
ATOM     71  C   UNL     1       9.307  14.712  -1.063  1.00  0.00     0.020 A 
ATOM     72  C   UNL     1       7.414  16.004  -1.867  1.00  0.00     0.020 A 
ATOM     73  C   UNL     1       8.495  15.848  -0.999  1.00  0.00     0.054 A 
BRANCH  73  74
ATOM     74  S   UNL     1       8.875  17.119   0.237  1.00  0.00     0.124 S 
ATOM     75  O   UNL     1       8.536  16.438   1.484  1.00  0.00    -0.237 OA
ATOM     76  O   UNL     1      10.299  17.358   0.019  1.00  0.00    -0.237 OA
ATOM     77  O   UNL     1       7.996  18.229  -0.124  1.00  0.00    -0.744 OA
ENDBRANCH  73  74
ENDBRANCH  54  68
BRANCH  55  78
ATOM     78  C   UNL     1       4.643   6.406  -8.728  1.00  0.00    -0.014 A 
ATOM     79  C   UNL     1       5.431   5.722  -9.668  1.00  0.00     0.010 A 
ATOM     80  C   UNL     1       3.301   6.018  -8.549  1.00  0.00     0.010 A 
ATOM     81  C   UNL     1       4.893   4.659 -10.400  1.00  0.00     0.020 A 
ATOM     82  C   UNL     1       2.769   4.937  -9.255  1.00  0.00     0.020 A 
ATOM     83  C   UNL     1       3.571   4.262 -10.176  1.00  0.00     0.054 A 
BRANCH  83  84
ATOM     84  S   UNL     1       2.937   2.806 -11.053  1.00  0.00     0.124 S 
ATOM     85  O   UNL     1       2.877   3.281 -12.431  1.00  0.00    -0.237 OA
ATOM     86  O   UNL     1       3.961   1.804 -10.770  1.00  0.00    -0.237 OA
ATOM     87  O   UNL     1       1.644   2.560 -10.417  1.00  0.00    -0.744 OA
ENDBRANCH  83  84
ENDBRANCH  55  78
BRANCH  67  88
ATOM     88  C   UNL     1       6.946  12.921  -9.937  1.00  0.00    -0.014 A 
ATOM     89  C   UNL     1       5.870  13.430 -10.684  1.00  0.00     0.010 A 
ATOM     90  C   UNL     1       8.260  13.267 -10.308  1.00  0.00     0.010 A 
ATOM     91  C   UNL     1       6.106  14.261 -11.784  1.00  0.00     0.020 A 
ATOM     92  C   UNL     1       8.499  14.124 -11.384  1.00  0.00     0.020 A 
ATOM     93  C   UNL     1       7.419  14.611 -12.120  1.00  0.00     0.054 A 
BRANCH  93  94
ATOM     94  S   UNL     1       7.691  15.757 -13.499  1.00  0.00     0.124 S 
ATOM     95  O   UNL     1       7.296  14.950 -14.650  1.00  0.00    -0.237 OA
ATOM     96  O   UNL     1       6.798  16.866 -13.172  1.00  0.00    -0.237 OA
ATOM     97  O   UNL     1       9.117  16.067 -13.418  1.00  0.00    -0.744 OA
ENDBRANCH  93  94
ENDBRANCH  67  88
ENDBRANCH  41  42
ENDBRANCH  34  36
ENDBRANCH  33  34
ENDBRANCH  32  33
ENDBRANCH  31  32
ENDBRANCH  30  31
ENDBRANCH  29  30
ENDBRANCH   1  29
TORSDOF 25
