REMARK SMILES C[C@H]1[C@H](C(=O)OCCOCCOCCOCCOC(=O)c2ccc(-c3c4nc(c(-c5ccc(S(=O)(=O)[O-])cc5)c5ccc([nH]5)c(-c5ccc(S(=O)(=O)[O-])cc5)c5nc(c(-c6ccc(S(=O)(=O)[O-])cc6)c6ccc3[nH]6)C=C5)C=C4)cc2)CC[N@@H+]1Cc1ccc(C(F)(F)F)cc1
REMARK SMILES IDX 12 1 11 2 10 3 9 4 8 5 7 6 6 7 4 8 5 9 3 10 1 11 2 12 83 13
REMARK SMILES IDX 81 14 82 15 84 17 85 18 86 19 94 20 87 21 93 22 88 23 89 24
REMARK SMILES IDX 90 25 91 26 92 27 13 28 14 29 15 30 16 31 17 32 18 33 19 34
REMARK SMILES IDX 20 35 21 36 22 37 80 38 23 39 79 40 24 41 25 42 26 43 73 44
REMARK SMILES IDX 27 45 78 46 72 47 74 48 28 49 77 50 71 51 70 52 29 54 59 55
REMARK SMILES IDX 40 56 58 57 41 58 44 59 57 60 75 61 42 62 43 63 56 65 76 66
REMARK SMILES IDX 45 67 30 68 31 69 39 70 32 71 38 72 33 73 34 74 35 75 36 76
REMARK SMILES IDX 37 77 60 78 61 79 69 80 62 81 68 82 63 83 64 84 65 85 66 86
REMARK SMILES IDX 67 87 46 88 47 89 55 90 48 91 54 92 49 93 50 94 51 95 52 96
REMARK SMILES IDX 53 97
REMARK H PARENT 83 16 74 53 44 64
REMARK Flexibility Score: inf
ROOT
ATOM      1  O   UNL     1       2.845   1.703   3.002  1.00  0.00    -0.377 OA
ENDROOT
BRANCH   1   2
ATOM      2  C   UNL     1       1.930   2.084   2.010  1.00  0.00     0.188 C 
BRANCH   2   3
ATOM      3  C   UNL     1       1.787   3.537   1.546  1.00  0.00     0.188 C 
BRANCH   3   4
ATOM      4  O   UNL     1       1.165   4.508   2.369  1.00  0.00    -0.376 OA
BRANCH   4   5
ATOM      5  C   UNL     1      -0.011   4.265   3.117  1.00  0.00     0.202 C 
BRANCH   5   6
ATOM      6  C   UNL     1      -1.200   3.428   2.611  1.00  0.00     0.261 C 
BRANCH   6   7
ATOM      7  O   UNL     1      -0.895   2.268   1.818  1.00  0.00    -0.463 OA
BRANCH   7   8
ATOM      8  C   UNL     1      -1.136   2.357   0.493  1.00  0.00     0.315 C 
ATOM      9  O   UNL     1      -1.638   3.344  -0.039  1.00  0.00    -0.252 OA
BRANCH   8  10
ATOM     10  C   UNL     1      -0.748   1.137  -0.338  1.00  0.00     0.162 C 
ATOM     11  C   UNL     1       1.393  -0.153  -0.743  1.00  0.00     0.076 C 
ATOM     12  C   UNL     1       0.174   0.021   0.187  1.00  0.00     0.195 C 
ATOM     13  N   UNL     1      -0.567  -1.242   0.125  1.00  0.00    -0.328 N 
ATOM     14  C   UNL     1      -2.018   0.424  -0.779  1.00  0.00     0.083 C 
ATOM     15  C   UNL     1      -1.688  -1.057  -0.779  1.00  0.00     0.263 C 
ATOM     16  H   UNL     1       0.027  -1.970  -0.271  1.00  0.00     0.348 HD
BRANCH  13  17
ATOM     17  C   UNL     1      -0.834  -1.888   1.418  1.00  0.00     0.299 C 
BRANCH  17  18
ATOM     18  C   UNL     1      -1.507  -1.062   2.495  1.00  0.00     0.006 A 
ATOM     19  C   UNL     1      -0.809  -0.698   3.659  1.00  0.00     0.010 A 
ATOM     20  C   UNL     1      -2.844  -0.668   2.372  1.00  0.00     0.010 A 
ATOM     21  C   UNL     1      -1.420   0.084   4.645  1.00  0.00     0.013 A 
ATOM     22  C   UNL     1      -3.447   0.138   3.339  1.00  0.00     0.013 A 
ATOM     23  C   UNL     1      -2.737   0.536   4.478  1.00  0.00     0.056 A 
BRANCH  23  24
ATOM     24  C   UNL     1      -3.370   1.446   5.504  1.00  0.00     0.416 C 
ATOM     25  F   UNL     1      -3.751   0.792   6.629  1.00  0.00    -0.166 F 
ATOM     26  F   UNL     1      -2.519   2.435   5.903  1.00  0.00    -0.166 F 
ATOM     27  F   UNL     1      -4.475   2.090   5.032  1.00  0.00    -0.166 F 
ENDBRANCH  23  24
ENDBRANCH  17  18
ENDBRANCH  13  17
ENDBRANCH   8  10
ENDBRANCH   7   8
ENDBRANCH   6   7
ENDBRANCH   5   6
ENDBRANCH   4   5
ENDBRANCH   3   4
ENDBRANCH   2   3
ENDBRANCH   1   2
BRANCH   1  28
ATOM     28  C   UNL     1       2.606   2.291   4.260  1.00  0.00     0.188 C 
BRANCH  28  29
ATOM     29  C   UNL     1       3.552   3.463   4.475  1.00  0.00     0.188 C 
BRANCH  29  30
ATOM     30  O   UNL     1       4.366   3.819   3.374  1.00  0.00    -0.376 OA
BRANCH  30  31
ATOM     31  C   UNL     1       5.292   2.926   2.768  1.00  0.00     0.202 C 
BRANCH  31  32
ATOM     32  C   UNL     1       5.619   1.456   3.143  1.00  0.00     0.261 C 
BRANCH  32  33
ATOM     33  O   UNL     1       5.068   0.866   4.319  1.00  0.00    -0.460 OA
BRANCH  33  34
ATOM     34  C   UNL     1       5.617   1.221   5.493  1.00  0.00     0.338 C 
ATOM     35  O   UNL     1       6.537   2.003   5.666  1.00  0.00    -0.246 OA
BRANCH  34  36
ATOM     36  C   UNL     1       4.774   0.650   6.564  1.00  0.00     0.060 A 
ATOM     37  C   UNL     1       4.196   1.530   7.487  1.00  0.00     0.016 A 
ATOM     38  C   UNL     1       4.541  -0.727   6.656  1.00  0.00     0.016 A 
ATOM     39  C   UNL     1       3.437   1.034   8.541  1.00  0.00     0.010 A 
ATOM     40  C   UNL     1       3.806  -1.228   7.735  1.00  0.00     0.010 A 
ATOM     41  C   UNL     1       3.299  -0.349   8.709  1.00  0.00    -0.014 A 
BRANCH  41  42
ATOM     42  C   UNL     1       2.878  -0.846  10.039  1.00  0.00     0.031 A 
ATOM     43  C   UNL     1       3.959  -1.215  11.022  1.00  0.00     0.074 A 
ATOM     44  C   UNL     1       1.584  -0.870  10.404  1.00  0.00     0.049 A 
ATOM     45  N   UNL     1       3.853  -1.603  12.265  1.00  0.00    -0.248 NA
ATOM     46  C   UNL     1       5.348  -1.125  10.537  1.00  0.00     0.031 C 
ATOM     47  C   UNL     1       0.457  -0.478   9.560  1.00  0.00     0.029 A 
ATOM     48  N   UNL     1       1.007  -1.228  11.596  1.00  0.00    -0.354 N 
ATOM     49  C   UNL     1       5.156  -1.807  12.707  1.00  0.00     0.074 A 
ATOM     50  C   UNL     1       6.033  -1.537  11.591  1.00  0.00     0.031 C 
ATOM     51  C   UNL     1      -0.681  -0.616  10.264  1.00  0.00     0.029 A 
ATOM     52  C   UNL     1      -0.363  -1.128  11.597  1.00  0.00     0.049 A 
ATOM     53  H   UNL     1       1.525  -1.528  12.377  1.00  0.00     0.167 HD
ATOM     54  C   UNL     1       5.587  -2.174  13.937  1.00  0.00     0.031 A 
ATOM     55  C   UNL     1      -1.256  -1.425  12.562  1.00  0.00     0.031 A 
ATOM     56  C   UNL     1       4.710  -2.456  15.040  1.00  0.00     0.049 A 
ATOM     57  C   UNL     1      -0.756  -1.908  13.901  1.00  0.00     0.074 A 
ATOM     58  C   UNL     1       5.043  -2.834  16.328  1.00  0.00     0.029 A 
ATOM     59  N   UNL     1       3.325  -2.400  14.984  1.00  0.00    -0.354 N 
ATOM     60  N   UNL     1       0.480  -2.077  14.311  1.00  0.00    -0.248 NA
ATOM     61  C   UNL     1      -1.773  -2.223  14.913  1.00  0.00     0.031 C 
ATOM     62  C   UNL     1       3.857  -3.070  17.032  1.00  0.00     0.029 A 
ATOM     63  C   UNL     1       2.787  -2.764  16.206  1.00  0.00     0.049 A 
ATOM     64  H   UNL     1       2.802  -2.139  14.191  1.00  0.00     0.167 HD
ATOM     65  C   UNL     1       0.388  -2.485  15.639  1.00  0.00     0.074 A 
ATOM     66  C   UNL     1      -1.024  -2.519  15.965  1.00  0.00     0.031 C 
ATOM     67  C   UNL     1       1.379  -2.799  16.512  1.00  0.00     0.031 A 
BRANCH  54  68
ATOM     68  C   UNL     1       7.072  -2.333  14.133  1.00  0.00    -0.014 A 
ATOM     69  C   UNL     1       7.937  -1.222  14.128  1.00  0.00     0.010 A 
ATOM     70  C   UNL     1       7.608  -3.615  14.350  1.00  0.00     0.010 A 
ATOM     71  C   UNL     1       9.313  -1.397  14.299  1.00  0.00     0.020 A 
ATOM     72  C   UNL     1       8.979  -3.790  14.552  1.00  0.00     0.020 A 
ATOM     73  C   UNL     1       9.826  -2.681  14.510  1.00  0.00     0.054 A 
BRANCH  73  74
ATOM     74  S   UNL     1      11.612  -2.875  14.755  1.00  0.00     0.124 S 
ATOM     75  O   UNL     1      12.132  -2.598  13.419  1.00  0.00    -0.237 OA
ATOM     76  O   UNL     1      11.907  -1.863  15.766  1.00  0.00    -0.237 OA
ATOM     77  O   UNL     1      11.753  -4.258  15.203  1.00  0.00    -0.744 OA
ENDBRANCH  73  74
ENDBRANCH  54  68
BRANCH  55  78
ATOM     78  C   UNL     1      -2.716  -1.286  12.298  1.00  0.00    -0.014 A 
ATOM     79  C   UNL     1      -3.486  -0.320  12.969  1.00  0.00     0.010 A 
ATOM     80  C   UNL     1      -3.348  -2.138  11.372  1.00  0.00     0.010 A 
ATOM     81  C   UNL     1      -4.862  -0.223  12.736  1.00  0.00     0.020 A 
ATOM     82  C   UNL     1      -4.716  -2.023  11.113  1.00  0.00     0.020 A 
ATOM     83  C   UNL     1      -5.467  -1.073  11.806  1.00  0.00     0.054 A 
BRANCH  83  84
ATOM     84  S   UNL     1      -7.245  -0.900  11.488  1.00  0.00     0.124 S 
ATOM     85  O   UNL     1      -7.827  -1.419  12.722  1.00  0.00    -0.237 OA
ATOM     86  O   UNL     1      -7.388   0.539  11.277  1.00  0.00    -0.237 OA
ATOM     87  O   UNL     1      -7.463  -1.721  10.300  1.00  0.00    -0.744 OA
ENDBRANCH  83  84
ENDBRANCH  55  78
BRANCH  67  88
ATOM     88  C   UNL     1       0.975  -3.162  17.919  1.00  0.00    -0.014 A 
ATOM     89  C   UNL     1       0.294  -4.359  18.206  1.00  0.00     0.010 A 
ATOM     90  C   UNL     1       1.316  -2.300  18.979  1.00  0.00     0.010 A 
ATOM     91  C   UNL     1      -0.087  -4.659  19.517  1.00  0.00     0.020 A 
ATOM     92  C   UNL     1       0.970  -2.614  20.295  1.00  0.00     0.020 A 
ATOM     93  C   UNL     1       0.250  -3.781  20.553  1.00  0.00     0.054 A 
BRANCH  93  94
ATOM     94  S   UNL     1      -0.247  -4.198  22.247  1.00  0.00     0.124 S 
ATOM     95  O   UNL     1      -1.688  -3.966  22.206  1.00  0.00    -0.237 OA
ATOM     96  O   UNL     1       0.162  -5.596  22.365  1.00  0.00    -0.237 OA
ATOM     97  O   UNL     1       0.512  -3.261  23.072  1.00  0.00    -0.744 OA
ENDBRANCH  93  94
ENDBRANCH  67  88
ENDBRANCH  41  42
ENDBRANCH  34  36
ENDBRANCH  33  34
ENDBRANCH  32  33
ENDBRANCH  31  32
ENDBRANCH  30  31
ENDBRANCH  29  30
ENDBRANCH  28  29
ENDBRANCH   1  28
TORSDOF 26
