REMARK SMILES N#Cc1cnc2cc(C(=O)OCCOCCOCCOCCOC(=O)c3ccc(-c4c5nc(c(-c6ccc(S(=O)(=O)[O-])cc6)c6ccc([nH]6)c(-c6ccc(S(=O)(=O)[O-])cc6)c6nc(c(-c7ccc(S(=O)(=O)[O-])cc7)c7ccc4[nH]7)C=C6)C=C5)cc3)[nH]c2c1
REMARK SMILES IDX 18 1 17 2 16 3 15 4 14 5 13 6 12 7 11 8 9 9 10 10 8 11 3 12
REMARK SMILES IDX 4 13 88 14 5 15 87 16 6 17 86 18 7 19 2 21 1 22 19 23 20 24
REMARK SMILES IDX 21 25 22 26 23 27 24 28 25 29 26 30 27 31 85 32 28 33 84 34
REMARK SMILES IDX 29 35 30 36 31 37 78 38 32 39 83 40 77 41 79 42 33 43 82 44
REMARK SMILES IDX 76 45 75 46 34 48 64 49 45 50 63 51 46 52 49 53 62 54 80 55
REMARK SMILES IDX 47 56 48 57 61 59 81 60 50 61 35 62 36 63 44 64 37 65 43 66
REMARK SMILES IDX 38 67 39 68 40 69 41 70 42 71 65 72 66 73 74 74 67 75 73 76
REMARK SMILES IDX 68 77 69 78 70 79 71 80 72 81 51 82 52 83 60 84 53 85 59 86
REMARK SMILES IDX 54 87 55 88 56 89 57 90 58 91
REMARK H PARENT 86 20 79 47 49 58
REMARK Flexibility Score: inf
ROOT
ATOM      1  C   UNL     1      10.812   1.707  -4.435  1.00  0.00     0.188 C 
ENDROOT
BRANCH   1   2
ATOM      2  O   UNL     1      10.236   1.510  -3.146  1.00  0.00    -0.377 OA
BRANCH   2   3
ATOM      3  C   UNL     1       8.959   2.071  -2.921  1.00  0.00     0.188 C 
BRANCH   3   4
ATOM      4  C   UNL     1       8.988   3.474  -2.270  1.00  0.00     0.188 C 
BRANCH   4   5
ATOM      5  O   UNL     1      10.188   4.224  -2.132  1.00  0.00    -0.376 OA
BRANCH   5   6
ATOM      6  C   UNL     1      11.420   3.626  -1.770  1.00  0.00     0.202 C 
BRANCH   6   7
ATOM      7  C   UNL     1      11.554   2.634  -0.599  1.00  0.00     0.261 C 
BRANCH   7   8
ATOM      8  O   UNL     1      10.441   1.780  -0.331  1.00  0.00    -0.459 OA
BRANCH   8   9
ATOM      9  C   UNL     1       9.542   2.251   0.569  1.00  0.00     0.354 C 
ATOM     10  O   UNL     1       9.642   3.292   1.202  1.00  0.00    -0.244 OA
BRANCH   9  11
ATOM     11  C   UNL     1       8.341   1.455   0.508  1.00  0.00     0.127 A 
ATOM     12  C   UNL     1       4.023   0.022   0.083  1.00  0.00     0.072 A 
ATOM     13  C   UNL     1       4.733  -1.168  -0.029  1.00  0.00     0.131 A 
ATOM     14  C   UNL     1       4.722   1.216   0.273  1.00  0.00     0.049 A 
ATOM     15  N   UNL     1       6.081  -1.288   0.018  1.00  0.00    -0.253 NA
ATOM     16  C   UNL     1       6.110   1.099   0.362  1.00  0.00     0.066 A 
ATOM     17  C   UNL     1       6.750  -0.128   0.215  1.00  0.00     0.089 A 
ATOM     18  N   UNL     1       7.090   2.032   0.589  1.00  0.00    -0.348 N 
ATOM     19  C   UNL     1       8.144   0.102   0.281  1.00  0.00     0.064 A 
ATOM     20  H   UNL     1       6.924   2.983   0.784  1.00  0.00     0.167 HD
BRANCH  12  21
ATOM     21  C   UNL     1       2.592   0.018   0.032  1.00  0.00     0.101 C 
ATOM     22  N   UNL     1       1.437   0.031   0.014  1.00  0.00    -0.192 NA
ENDBRANCH  12  21
ENDBRANCH   9  11
ENDBRANCH   8   9
ENDBRANCH   7   8
ENDBRANCH   6   7
ENDBRANCH   5   6
ENDBRANCH   4   5
ENDBRANCH   3   4
ENDBRANCH   2   3
ENDBRANCH   1   2
BRANCH   1  23
ATOM     23  C   UNL     1      10.626   3.061  -5.176  1.00  0.00     0.188 C 
BRANCH  23  24
ATOM     24  O   UNL     1       9.403   3.728  -4.913  1.00  0.00    -0.376 OA
BRANCH  24  25
ATOM     25  C   UNL     1       8.324   3.808  -5.827  1.00  0.00     0.202 C 
BRANCH  25  26
ATOM     26  C   UNL     1       7.672   2.542  -6.372  1.00  0.00     0.261 C 
BRANCH  26  27
ATOM     27  O   UNL     1       8.536   1.431  -6.419  1.00  0.00    -0.460 OA
BRANCH  27  28
ATOM     28  C   UNL     1       9.399   1.450  -7.452  1.00  0.00     0.338 C 
ATOM     29  O   UNL     1       9.624   2.381  -8.203  1.00  0.00    -0.246 OA
BRANCH  28  30
ATOM     30  C   UNL     1       9.964   0.104  -7.573  1.00  0.00     0.060 A 
ATOM     31  C   UNL     1      10.926  -0.062  -8.562  1.00  0.00     0.016 A 
ATOM     32  C   UNL     1       9.273  -0.974  -6.993  1.00  0.00     0.016 A 
ATOM     33  C   UNL     1      10.920  -1.260  -9.229  1.00  0.00     0.010 A 
ATOM     34  C   UNL     1       9.290  -2.175  -7.643  1.00  0.00     0.010 A 
ATOM     35  C   UNL     1       9.989  -2.233  -8.838  1.00  0.00    -0.014 A 
BRANCH  35  36
ATOM     36  C   UNL     1       9.757  -3.345  -9.722  1.00  0.00     0.031 A 
ATOM     37  C   UNL     1      10.909  -4.256  -9.760  1.00  0.00     0.074 A 
ATOM     38  C   UNL     1       8.607  -3.516 -10.401  1.00  0.00     0.049 A 
ATOM     39  N   UNL     1      11.801  -4.315 -10.688  1.00  0.00    -0.248 NA
ATOM     40  C   UNL     1      11.247  -4.993  -8.534  1.00  0.00     0.031 C 
ATOM     41  C   UNL     1       7.328  -2.804 -10.305  1.00  0.00     0.029 A 
ATOM     42  N   UNL     1       8.341  -4.466 -11.326  1.00  0.00    -0.354 N 
ATOM     43  C   UNL     1      12.707  -5.271 -10.264  1.00  0.00     0.074 A 
ATOM     44  C   UNL     1      12.433  -5.503  -8.867  1.00  0.00     0.031 C 
ATOM     45  C   UNL     1       6.370  -3.510 -10.960  1.00  0.00     0.029 A 
ATOM     46  C   UNL     1       7.000  -4.623 -11.652  1.00  0.00     0.049 A 
ATOM     47  H   UNL     1       9.049  -5.010 -11.741  1.00  0.00     0.167 HD
ATOM     48  C   UNL     1      13.440  -5.984 -11.158  1.00  0.00     0.031 A 
ATOM     49  C   UNL     1       6.486  -5.621 -12.419  1.00  0.00     0.031 A 
ATOM     50  C   UNL     1      13.418  -5.387 -12.469  1.00  0.00     0.049 A 
ATOM     51  C   UNL     1       7.612  -6.133 -13.246  1.00  0.00     0.074 A 
ATOM     52  C   UNL     1      13.867  -4.191 -12.995  1.00  0.00     0.029 A 
ATOM     53  N   UNL     1      12.480  -5.863 -13.357  1.00  0.00    -0.354 N 
ATOM     54  N   UNL     1       8.194  -5.416 -14.167  1.00  0.00    -0.248 NA
ATOM     55  C   UNL     1       8.408  -7.228 -12.711  1.00  0.00     0.031 C 
ATOM     56  C   UNL     1      12.849  -3.783 -13.908  1.00  0.00     0.029 A 
ATOM     57  C   UNL     1      11.873  -4.780 -13.947  1.00  0.00     0.049 A 
ATOM     58  H   UNL     1      12.280  -6.810 -13.537  1.00  0.00     0.167 HD
ATOM     59  C   UNL     1       9.548  -5.682 -14.025  1.00  0.00     0.074 A 
ATOM     60  C   UNL     1       9.613  -6.859 -13.157  1.00  0.00     0.031 C 
ATOM     61  C   UNL     1      10.493  -4.765 -14.389  1.00  0.00     0.031 A 
BRANCH  48  62
ATOM     62  C   UNL     1      13.810  -7.419 -10.923  1.00  0.00    -0.014 A 
ATOM     63  C   UNL     1      14.680  -8.054 -11.824  1.00  0.00     0.010 A 
ATOM     64  C   UNL     1      13.119  -8.236 -10.001  1.00  0.00     0.010 A 
ATOM     65  C   UNL     1      14.812  -9.447 -11.834  1.00  0.00     0.020 A 
ATOM     66  C   UNL     1      13.275  -9.619  -9.974  1.00  0.00     0.020 A 
ATOM     67  C   UNL     1      14.099 -10.220 -10.914  1.00  0.00     0.054 A 
BRANCH  67  68
ATOM     68  S   UNL     1      14.197 -12.022 -11.008  1.00  0.00     0.124 S 
ATOM     69  O   UNL     1      13.627 -12.286 -12.325  1.00  0.00    -0.237 OA
ATOM     70  O   UNL     1      15.633 -12.255 -10.877  1.00  0.00    -0.237 OA
ATOM     71  O   UNL     1      13.392 -12.469  -9.874  1.00  0.00    -0.744 OA
ENDBRANCH  67  68
ENDBRANCH  48  62
BRANCH  49  72
ATOM     72  C   UNL     1       5.271  -6.448 -12.175  1.00  0.00    -0.014 A 
ATOM     73  C   UNL     1       4.801  -7.334 -13.167  1.00  0.00     0.010 A 
ATOM     74  C   UNL     1       4.786  -6.622 -10.864  1.00  0.00     0.010 A 
ATOM     75  C   UNL     1       3.946  -8.404 -12.843  1.00  0.00     0.020 A 
ATOM     76  C   UNL     1       3.932  -7.686 -10.534  1.00  0.00     0.020 A 
ATOM     77  C   UNL     1       3.540  -8.590 -11.520  1.00  0.00     0.054 A 
BRANCH  77  78
ATOM     78  S   UNL     1       2.604 -10.088 -11.076  1.00  0.00     0.124 S 
ATOM     79  O   UNL     1       1.333  -9.879 -11.765  1.00  0.00    -0.237 OA
ATOM     80  O   UNL     1       3.443 -11.156 -11.612  1.00  0.00    -0.237 OA
ATOM     81  O   UNL     1       2.534 -10.031  -9.617  1.00  0.00    -0.744 OA
ENDBRANCH  77  78
ENDBRANCH  49  72
BRANCH  61  82
ATOM     82  C   UNL     1      10.034  -3.542 -15.157  1.00  0.00    -0.014 A 
ATOM     83  C   UNL     1       9.143  -2.572 -14.649  1.00  0.00     0.010 A 
ATOM     84  C   UNL     1      10.627  -3.308 -16.409  1.00  0.00     0.010 A 
ATOM     85  C   UNL     1       8.825  -1.425 -15.397  1.00  0.00     0.020 A 
ATOM     86  C   UNL     1      10.327  -2.162 -17.150  1.00  0.00     0.020 A 
ATOM     87  C   UNL     1       9.416  -1.232 -16.649  1.00  0.00     0.054 A 
BRANCH  87  88
ATOM     88  S   UNL     1       8.999   0.242 -17.625  1.00  0.00     0.124 S 
ATOM     89  O   UNL     1       7.583   0.040 -17.919  1.00  0.00    -0.237 OA
ATOM     90  O   UNL     1       9.301   1.336 -16.705  1.00  0.00    -0.237 OA
ATOM     91  O   UNL     1       9.888   0.156 -18.784  1.00  0.00    -0.744 OA
ENDBRANCH  87  88
ENDBRANCH  61  82
ENDBRANCH  35  36
ENDBRANCH  28  30
ENDBRANCH  27  28
ENDBRANCH  26  27
ENDBRANCH  25  26
ENDBRANCH  24  25
ENDBRANCH  23  24
ENDBRANCH   1  23
TORSDOF 24
