REMARK SMILES COc1cc(Cl)ccc1NC(=O)COc1ccccc1C(=O)OCCOCCOCCOCCOC(=O)c1ccc(-c2c3nc(c(-c4ccc(S(=O)(=O)[O-])cc4)c4ccc([nH]4)c(-c4ccc(S(=O)(=O)[O-])cc4)c4nc(c(-c5ccc(S(=O)(=O)[O-])cc5)c5ccc2[nH]5)C=C4)C=C3)cc1
REMARK SMILES IDX 28 1 27 2 26 3 25 4 24 5 23 6 21 7 22 8 20 9 15 10 16 11
REMARK SMILES IDX 17 12 19 13 18 14 14 15 13 16 11 17 10 18 12 20 9 21 3 22
REMARK SMILES IDX 4 23 5 24 8 25 6 26 7 27 2 28 1 29 29 30 30 31 31 32 32 33
REMARK SMILES IDX 33 34 34 35 35 36 36 37 37 38 38 39 39 40 97 41 40 42 96 43
REMARK SMILES IDX 41 44 42 45 43 46 90 47 44 48 95 49 89 50 91 51 45 52 94 53
REMARK SMILES IDX 88 54 87 55 46 57 76 58 57 59 75 60 58 61 61 62 74 63 92 64
REMARK SMILES IDX 59 65 60 66 73 68 93 69 62 70 47 71 48 72 56 73 49 74 55 75
REMARK SMILES IDX 50 76 51 77 52 78 53 79 54 80 77 81 78 82 86 83 79 84 85 85
REMARK SMILES IDX 80 86 81 87 82 88 83 89 84 90 63 91 64 92 72 93 65 94 71 95
REMARK SMILES IDX 66 96 67 97 68 98 69 99 70 100
REMARK H PARENT 10 19 91 56 61 67
REMARK Flexibility Score: inf
ROOT
ATOM      1  C   UNL     1      -2.540   1.313  -1.250  1.00  0.00     0.188 C 
ENDROOT
BRANCH   1   2
ATOM      2  C   UNL     1      -3.839   1.355  -0.452  1.00  0.00     0.188 C 
BRANCH   2   3
ATOM      3  O   UNL     1      -5.044   0.769  -0.942  1.00  0.00    -0.376 OA
BRANCH   3   4
ATOM      4  C   UNL     1      -5.025  -0.080  -2.080  1.00  0.00     0.202 C 
BRANCH   4   5
ATOM      5  C   UNL     1      -4.988   0.614  -3.446  1.00  0.00     0.261 C 
BRANCH   5   6
ATOM      6  O   UNL     1      -4.270   1.856  -3.439  1.00  0.00    -0.460 OA
BRANCH   6   7
ATOM      7  C   UNL     1      -5.000   2.955  -3.203  1.00  0.00     0.342 C 
ATOM      8  O   UNL     1      -6.229   2.989  -3.118  1.00  0.00    -0.246 OA
BRANCH   7   9
ATOM      9  C   UNL     1      -4.163   4.131  -2.845  1.00  0.00     0.102 A 
ATOM     10  C   UNL     1      -2.945   4.569  -3.387  1.00  0.00     0.134 A 
ATOM     11  C   UNL     1      -2.424   5.799  -2.918  1.00  0.00     0.047 A 
ATOM     12  C   UNL     1      -3.030   6.541  -1.903  1.00  0.00     0.004 A 
ATOM     13  C   UNL     1      -4.731   4.868  -1.771  1.00  0.00     0.019 A 
ATOM     14  C   UNL     1      -4.170   6.050  -1.296  1.00  0.00     0.001 A 
BRANCH  10  15
ATOM     15  O   UNL     1      -2.062   4.023  -4.268  1.00  0.00    -0.483 OA
BRANCH  15  16
ATOM     16  C   UNL     1      -2.356   3.047  -5.243  1.00  0.00     0.329 C 
BRANCH  16  17
ATOM     17  C   UNL     1      -1.881   1.616  -4.968  1.00  0.00     0.262 C 
ATOM     18  N   UNL     1      -0.818   1.374  -4.159  1.00  0.00    -0.320 N 
ATOM     19  H   UNL     1      -0.869   0.508  -3.694  1.00  0.00     0.170 HD
ATOM     20  O   UNL     1      -2.489   0.646  -5.434  1.00  0.00    -0.271 OA
BRANCH  18  21
ATOM     21  C   UNL     1       0.336   2.106  -3.850  1.00  0.00     0.084 A 
ATOM     22  C   UNL     1       1.022   1.704  -2.705  1.00  0.00     0.143 A 
ATOM     23  C   UNL     1       2.224   2.308  -2.332  1.00  0.00     0.069 A 
ATOM     24  C   UNL     1       2.752   3.323  -3.112  1.00  0.00     0.044 A 
ATOM     25  C   UNL     1       0.874   3.122  -4.629  1.00  0.00     0.031 A 
ATOM     26  Cl  UNL     1       4.214   4.091  -2.629  1.00  0.00    -0.084 Cl
ATOM     27  C   UNL     1       2.079   3.736  -4.255  1.00  0.00     0.023 A 
BRANCH  22  28
ATOM     28  O   UNL     1       0.327   0.872  -1.871  1.00  0.00    -0.495 OA
ATOM     29  C   UNL     1       0.891  -0.402  -1.736  1.00  0.00     0.278 C 
ENDBRANCH  22  28
ENDBRANCH  18  21
ENDBRANCH  16  17
ENDBRANCH  15  16
ENDBRANCH  10  15
ENDBRANCH   7   9
ENDBRANCH   6   7
ENDBRANCH   5   6
ENDBRANCH   4   5
ENDBRANCH   3   4
ENDBRANCH   2   3
ENDBRANCH   1   2
BRANCH   1  30
ATOM     30  O   UNL     1      -2.193   0.049  -1.793  1.00  0.00    -0.377 OA
BRANCH  30  31
ATOM     31  C   UNL     1      -1.959  -1.045  -0.912  1.00  0.00     0.188 C 
BRANCH  31  32
ATOM     32  C   UNL     1      -1.443  -0.773   0.528  1.00  0.00     0.188 C 
BRANCH  32  33
ATOM     33  O   UNL     1      -0.589   0.373   0.582  1.00  0.00    -0.376 OA
BRANCH  33  34
ATOM     34  C   UNL     1       0.461   0.429   1.552  1.00  0.00     0.202 C 
BRANCH  34  35
ATOM     35  C   UNL     1       1.806   0.979   0.934  1.00  0.00     0.261 C 
BRANCH  35  36
ATOM     36  O   UNL     1       2.742  -0.168   0.591  1.00  0.00    -0.460 OA
BRANCH  36  37
ATOM     37  C   UNL     1       3.946  -0.235  -0.106  1.00  0.00     0.338 C 
ATOM     38  O   UNL     1       5.005  -0.412   0.491  1.00  0.00    -0.246 OA
BRANCH  37  39
ATOM     39  C   UNL     1       3.994  -0.565  -1.614  1.00  0.00     0.060 A 
ATOM     40  C   UNL     1       3.380  -1.720  -2.149  1.00  0.00     0.016 A 
ATOM     41  C   UNL     1       4.708   0.230  -2.526  1.00  0.00     0.016 A 
ATOM     42  C   UNL     1       3.329  -1.978  -3.546  1.00  0.00     0.010 A 
ATOM     43  C   UNL     1       4.730  -0.072  -3.918  1.00  0.00     0.010 A 
ATOM     44  C   UNL     1       4.036  -1.178  -4.452  1.00  0.00    -0.014 A 
BRANCH  44  45
ATOM     45  C   UNL     1       4.389  -1.711  -5.819  1.00  0.00     0.031 A 
ATOM     46  C   UNL     1       5.657  -2.536  -5.895  1.00  0.00     0.074 A 
ATOM     47  C   UNL     1       3.676  -1.529  -6.955  1.00  0.00     0.049 A 
ATOM     48  N   UNL     1       6.346  -2.941  -6.930  1.00  0.00    -0.248 NA
ATOM     49  C   UNL     1       6.224  -2.950  -4.600  1.00  0.00     0.031 C 
ATOM     50  C   UNL     1       2.364  -0.893  -7.059  1.00  0.00     0.029 A 
ATOM     51  N   UNL     1       3.979  -1.864  -8.264  1.00  0.00    -0.354 N 
ATOM     52  C   UNL     1       7.451  -3.608  -6.405  1.00  0.00     0.074 A 
ATOM     53  C   UNL     1       7.337  -3.558  -4.967  1.00  0.00     0.031 C 
ATOM     54  C   UNL     1       1.992  -0.855  -8.356  1.00  0.00     0.029 A 
ATOM     55  C   UNL     1       3.062  -1.407  -9.189  1.00  0.00     0.049 A 
ATOM     56  H   UNL     1       4.778  -2.383  -8.512  1.00  0.00     0.167 HD
ATOM     57  C   UNL     1       8.484  -4.198  -7.053  1.00  0.00     0.031 A 
ATOM     58  C   UNL     1       3.102  -1.391 -10.543  1.00  0.00     0.031 A 
ATOM     59  C   UNL     1       8.608  -4.243  -8.483  1.00  0.00     0.049 A 
ATOM     60  C   UNL     1       4.315  -1.948 -11.260  1.00  0.00     0.074 A 
ATOM     61  C   UNL     1       9.623  -4.795  -9.243  1.00  0.00     0.029 A 
ATOM     62  N   UNL     1       7.682  -3.713  -9.369  1.00  0.00    -0.354 N 
ATOM     63  N   UNL     1       5.382  -2.522 -10.752  1.00  0.00    -0.248 NA
ATOM     64  C   UNL     1       4.336  -1.846 -12.729  1.00  0.00     0.031 C 
ATOM     65  C   UNL     1       9.339  -4.546 -10.590  1.00  0.00     0.029 A 
ATOM     66  C   UNL     1       8.113  -3.903 -10.670  1.00  0.00     0.049 A 
ATOM     67  H   UNL     1       6.843  -3.268  -9.111  1.00  0.00     0.167 HD
ATOM     68  C   UNL     1       6.182  -2.874 -11.838  1.00  0.00     0.074 A 
ATOM     69  C   UNL     1       5.475  -2.458 -13.031  1.00  0.00     0.031 C 
ATOM     70  C   UNL     1       7.393  -3.488 -11.847  1.00  0.00     0.031 A 
BRANCH  57  71
ATOM     71  C   UNL     1       9.594  -4.770  -6.207  1.00  0.00    -0.014 A 
ATOM     72  C   UNL     1       9.400  -5.912  -5.407  1.00  0.00     0.010 A 
ATOM     73  C   UNL     1      10.854  -4.144  -6.207  1.00  0.00     0.010 A 
ATOM     74  C   UNL     1      10.430  -6.385  -4.587  1.00  0.00     0.020 A 
ATOM     75  C   UNL     1      11.897  -4.635  -5.416  1.00  0.00     0.020 A 
ATOM     76  C   UNL     1      11.671  -5.741  -4.595  1.00  0.00     0.054 A 
BRANCH  76  77
ATOM     77  S   UNL     1      12.992  -6.386  -3.533  1.00  0.00     0.124 S 
ATOM     78  O   UNL     1      12.521  -6.007  -2.202  1.00  0.00    -0.237 OA
ATOM     79  O   UNL     1      12.965  -7.817  -3.823  1.00  0.00    -0.237 OA
ATOM     80  O   UNL     1      14.185  -5.681  -3.994  1.00  0.00    -0.744 OA
ENDBRANCH  76  77
ENDBRANCH  57  71
BRANCH  58  81
ATOM     81  C   UNL     1       1.988  -0.773 -11.334  1.00  0.00    -0.014 A 
ATOM     82  C   UNL     1       1.165  -1.556 -12.166  1.00  0.00     0.010 A 
ATOM     83  C   UNL     1       1.754   0.614 -11.274  1.00  0.00     0.010 A 
ATOM     84  C   UNL     1       0.132  -0.970 -12.910  1.00  0.00     0.020 A 
ATOM     85  C   UNL     1       0.705   1.201 -11.995  1.00  0.00     0.020 A 
ATOM     86  C   UNL     1      -0.098   0.404 -12.812  1.00  0.00     0.054 A 
BRANCH  86  87
ATOM     87  S   UNL     1      -1.494   1.130 -13.722  1.00  0.00     0.124 S 
ATOM     88  O   UNL     1      -1.028   1.062 -15.104  1.00  0.00    -0.237 OA
ATOM     89  O   UNL     1      -2.594   0.232 -13.380  1.00  0.00    -0.237 OA
ATOM     90  O   UNL     1      -1.602   2.477 -13.165  1.00  0.00    -0.744 OA
ENDBRANCH  86  87
ENDBRANCH  58  81
BRANCH  70  91
ATOM     91  C   UNL     1       8.019  -3.798 -13.183  1.00  0.00    -0.014 A 
ATOM     92  C   UNL     1       8.569  -2.786 -13.988  1.00  0.00     0.010 A 
ATOM     93  C   UNL     1       8.133  -5.139 -13.596  1.00  0.00     0.010 A 
ATOM     94  C   UNL     1       9.200  -3.108 -15.194  1.00  0.00     0.020 A 
ATOM     95  C   UNL     1       8.789  -5.467 -14.785  1.00  0.00     0.020 A 
ATOM     96  C   UNL     1       9.309  -4.447 -15.583  1.00  0.00     0.054 A 
BRANCH  96  97
ATOM     97  S   UNL     1      10.182  -4.841 -17.123  1.00  0.00     0.124 S 
ATOM     98  O   UNL     1       9.239  -4.375 -18.136  1.00  0.00    -0.237 OA
ATOM     99  O   UNL     1      11.412  -4.061 -17.002  1.00  0.00    -0.237 OA
ATOM    100  O   UNL     1      10.362  -6.290 -17.060  1.00  0.00    -0.744 OA
ENDBRANCH  96  97
ENDBRANCH  70  91
ENDBRANCH  44  45
ENDBRANCH  37  39
ENDBRANCH  36  37
ENDBRANCH  35  36
ENDBRANCH  34  35
ENDBRANCH  33  34
ENDBRANCH  32  33
ENDBRANCH  31  32
ENDBRANCH  30  31
ENDBRANCH   1  30
TORSDOF 28
