REMARK SMILES [NH3+][C@@]1(C(=O)OCCOCCOCCOCCOC(=O)c2ccc(-c3c4nc(c(-c5ccc(S(=O)(=O)[O-])cc5)c5ccc([nH]5)c(-c5ccc(S(=O)(=O)[O-])cc5)c5nc(c(-c6ccc(S(=O)(=O)[O-])cc6)c6ccc3[nH]6)C=C5)C=C4)cc2)CC[N@H+](Cc2ccc(OCC(=O)N3CCCCC3)cc2)C1
REMARK SMILES IDX 10 1 9 2 8 3 7 4 6 5 5 6 3 7 4 8 2 9 80 10 100 11 81 12
REMARK SMILES IDX 82 13 1 15 83 19 84 20 85 21 99 22 86 23 98 24 87 25 88 26
REMARK SMILES IDX 89 27 90 28 91 29 92 30 93 31 97 32 94 33 96 34 95 35 11 36
REMARK SMILES IDX 12 37 13 38 14 39 15 40 16 41 17 42 18 43 19 44 20 45 21 46
REMARK SMILES IDX 79 47 22 48 78 49 23 50 24 51 25 52 72 53 26 54 77 55 71 56
REMARK SMILES IDX 73 57 27 58 76 59 70 60 69 61 28 63 58 64 39 65 57 66 40 67
REMARK SMILES IDX 43 68 56 69 74 70 41 71 42 72 55 74 75 75 44 76 29 77 30 78
REMARK SMILES IDX 38 79 31 80 37 81 32 82 33 83 34 84 35 85 36 86 59 87 60 88
REMARK SMILES IDX 68 89 61 90 67 91 62 92 63 93 64 94 65 95 66 96 45 97 46 98
REMARK SMILES IDX 54 99 47 100 53 101 48 102 49 103 50 104 51 105 52 106
REMARK H PARENT 82 14 1 16 1 17 1 18 73 62 43 73
REMARK Flexibility Score: inf
ROOT
ATOM      1  C   UNL     1      -0.387   2.022   3.149  1.00  0.00     0.188 C 
ENDROOT
BRANCH   1   2
ATOM      2  C   UNL     1      -0.703   1.732   1.669  1.00  0.00     0.188 C 
BRANCH   2   3
ATOM      3  O   UNL     1      -1.651   0.776   1.230  1.00  0.00    -0.376 OA
BRANCH   3   4
ATOM      4  C   UNL     1      -2.102  -0.253   2.084  1.00  0.00     0.202 C 
BRANCH   4   5
ATOM      5  C   UNL     1      -2.226  -1.573   1.318  1.00  0.00     0.261 C 
BRANCH   5   6
ATOM      6  O   UNL     1      -0.945  -2.205   1.265  1.00  0.00    -0.458 OA
BRANCH   6   7
ATOM      7  C   UNL     1      -0.056  -1.583   0.453  1.00  0.00     0.374 C 
ATOM      8  O   UNL     1      -0.347  -0.963  -0.566  1.00  0.00    -0.244 OA
BRANCH   7   9
ATOM      9  C   UNL     1       1.371  -1.639   1.058  1.00  0.00     0.246 C 
ATOM     10  C   UNL     1       1.816  -3.080   1.277  1.00  0.00     0.148 C 
ATOM     11  C   UNL     1       1.373  -1.050   2.495  1.00  0.00     0.344 C 
ATOM     12  C   UNL     1       1.371  -3.404   2.708  1.00  0.00     0.270 C 
ATOM     13  N   UNL     1       1.552  -2.157   3.431  1.00  0.00    -0.325 N 
ATOM     14  H   UNL     1       2.516  -2.117   3.763  1.00  0.00     0.348 HD
BRANCH   9  15
ATOM     15  N   UNL     1       2.272  -0.930   0.105  1.00  0.00    -0.338 N 
ATOM     16  H   UNL     1       2.214  -1.375  -0.812  1.00  0.00     0.345 HD
ATOM     17  H   UNL     1       3.232  -0.978   0.445  1.00  0.00     0.345 HD
ATOM     18  H   UNL     1       1.986   0.046   0.028  1.00  0.00     0.345 HD
ENDBRANCH   9  15
BRANCH  13  19
ATOM     19  C   UNL     1       0.980  -2.048   4.787  1.00  0.00     0.299 C 
BRANCH  19  20
ATOM     20  C   UNL     1      -0.515  -1.793   4.983  1.00  0.00     0.006 A 
ATOM     21  C   UNL     1      -0.941  -0.636   5.651  1.00  0.00     0.013 A 
ATOM     22  C   UNL     1      -1.531  -2.663   4.553  1.00  0.00     0.013 A 
ATOM     23  C   UNL     1      -2.296  -0.259   5.654  1.00  0.00     0.047 A 
ATOM     24  C   UNL     1      -2.896  -2.269   4.536  1.00  0.00     0.047 A 
ATOM     25  C   UNL     1      -3.256  -0.997   4.958  1.00  0.00     0.120 A 
BRANCH  25  26
ATOM     26  O   UNL     1      -4.387  -0.292   4.641  1.00  0.00    -0.484 OA
BRANCH  26  27
ATOM     27  C   UNL     1      -5.428  -0.816   3.837  1.00  0.00     0.329 C 
BRANCH  27  28
ATOM     28  C   UNL     1      -5.409  -1.166   2.302  1.00  0.00     0.260 C 
ATOM     29  O   UNL     1      -5.370  -2.363   1.987  1.00  0.00    -0.271 OA
ATOM     30  N   UNL     1      -5.528  -0.188   1.305  1.00  0.00    -0.340 N 
ATOM     31  C   UNL     1      -5.925  -0.610  -0.044  1.00  0.00     0.119 C 
ATOM     32  C   UNL     1      -5.422   1.263   1.463  1.00  0.00     0.119 C 
ATOM     33  C   UNL     1      -4.997  -0.073  -1.129  1.00  0.00     0.022 C 
ATOM     34  C   UNL     1      -4.569   1.919   0.357  1.00  0.00     0.022 C 
ATOM     35  C   UNL     1      -4.890   1.444  -1.059  1.00  0.00     0.004 C 
ENDBRANCH  27  28
ENDBRANCH  26  27
ENDBRANCH  25  26
ENDBRANCH  19  20
ENDBRANCH  13  19
ENDBRANCH   7   9
ENDBRANCH   6   7
ENDBRANCH   5   6
ENDBRANCH   4   5
ENDBRANCH   3   4
ENDBRANCH   2   3
ENDBRANCH   1   2
BRANCH   1  36
ATOM     36  O   UNL     1      -1.405   2.129   4.129  1.00  0.00    -0.377 OA
BRANCH  36  37
ATOM     37  C   UNL     1      -2.678   2.613   3.753  1.00  0.00     0.188 C 
BRANCH  37  38
ATOM     38  C   UNL     1      -2.774   4.074   3.343  1.00  0.00     0.188 C 
BRANCH  38  39
ATOM     39  O   UNL     1      -1.612   4.490   2.644  1.00  0.00    -0.376 OA
BRANCH  39  40
ATOM     40  C   UNL     1      -0.919   5.565   3.266  1.00  0.00     0.202 C 
BRANCH  40  41
ATOM     41  C   UNL     1      -0.141   5.280   4.573  1.00  0.00     0.261 C 
BRANCH  41  42
ATOM     42  O   UNL     1      -0.729   4.398   5.547  1.00  0.00    -0.460 OA
BRANCH  42  43
ATOM     43  C   UNL     1      -1.702   4.893   6.333  1.00  0.00     0.338 C 
ATOM     44  O   UNL     1      -2.188   6.022   6.247  1.00  0.00    -0.246 OA
BRANCH  43  45
ATOM     45  C   UNL     1      -2.219   3.852   7.254  1.00  0.00     0.060 A 
ATOM     46  C   UNL     1      -3.597   3.601   7.277  1.00  0.00     0.016 A 
ATOM     47  C   UNL     1      -1.383   3.208   8.174  1.00  0.00     0.016 A 
ATOM     48  C   UNL     1      -4.150   2.763   8.252  1.00  0.00     0.010 A 
ATOM     49  C   UNL     1      -1.942   2.381   9.165  1.00  0.00     0.010 A 
ATOM     50  C   UNL     1      -3.335   2.196   9.242  1.00  0.00    -0.014 A 
BRANCH  50  51
ATOM     51  C   UNL     1      -3.971   1.639  10.472  1.00  0.00     0.031 A 
ATOM     52  C   UNL     1      -4.122   2.545  11.672  1.00  0.00     0.074 A 
ATOM     53  C   UNL     1      -4.463   0.387  10.529  1.00  0.00     0.049 A 
ATOM     54  N   UNL     1      -4.688   2.312  12.829  1.00  0.00    -0.248 NA
ATOM     55  C   UNL     1      -3.556   3.897  11.542  1.00  0.00     0.031 C 
ATOM     56  C   UNL     1      -4.419  -0.592   9.447  1.00  0.00     0.029 A 
ATOM     57  N   UNL     1      -5.099  -0.273  11.556  1.00  0.00    -0.354 N 
ATOM     58  C   UNL     1      -4.554   3.488  13.561  1.00  0.00     0.074 A 
ATOM     59  C   UNL     1      -3.812   4.414  12.734  1.00  0.00     0.031 C 
ATOM     60  C   UNL     1      -4.991  -1.734   9.870  1.00  0.00     0.029 A 
ATOM     61  C   UNL     1      -5.426  -1.575  11.259  1.00  0.00     0.049 A 
ATOM     62  H   UNL     1      -5.301   0.148  12.422  1.00  0.00     0.167 HD
ATOM     63  C   UNL     1      -5.013   3.784  14.802  1.00  0.00     0.031 A 
ATOM     64  C   UNL     1      -5.997  -2.534  12.019  1.00  0.00     0.031 A 
ATOM     65  C   UNL     1      -5.716   2.857  15.649  1.00  0.00     0.049 A 
ATOM     66  C   UNL     1      -6.439  -2.213  13.426  1.00  0.00     0.074 A 
ATOM     67  C   UNL     1      -6.222   3.065  16.920  1.00  0.00     0.029 A 
ATOM     68  N   UNL     1      -5.998   1.539  15.320  1.00  0.00    -0.354 N 
ATOM     69  N   UNL     1      -6.346  -1.081  14.085  1.00  0.00    -0.248 NA
ATOM     70  C   UNL     1      -7.085  -3.295  14.185  1.00  0.00     0.031 C 
ATOM     71  C   UNL     1      -6.752   1.856  17.385  1.00  0.00     0.029 A 
ATOM     72  C   UNL     1      -6.645   0.914  16.374  1.00  0.00     0.049 A 
ATOM     73  H   UNL     1      -5.771   1.111  14.463  1.00  0.00     0.167 HD
ATOM     74  C   UNL     1      -6.945  -1.308  15.323  1.00  0.00     0.074 A 
ATOM     75  C   UNL     1      -7.411  -2.679  15.314  1.00  0.00     0.031 C 
ATOM     76  C   UNL     1      -7.100  -0.455  16.367  1.00  0.00     0.031 A 
BRANCH  63  77
ATOM     77  C   UNL     1      -4.723   5.168  15.328  1.00  0.00    -0.014 A 
ATOM     78  C   UNL     1      -5.328   6.306  14.762  1.00  0.00     0.010 A 
ATOM     79  C   UNL     1      -3.827   5.334  16.399  1.00  0.00     0.010 A 
ATOM     80  C   UNL     1      -4.992   7.585  15.213  1.00  0.00     0.020 A 
ATOM     81  C   UNL     1      -3.514   6.610  16.877  1.00  0.00     0.020 A 
ATOM     82  C   UNL     1      -4.080   7.729  16.262  1.00  0.00     0.054 A 
BRANCH  82  83
ATOM     83  S   UNL     1      -3.646   9.402  16.815  1.00  0.00     0.124 S 
ATOM     84  O   UNL     1      -2.823   9.880  15.706  1.00  0.00    -0.237 OA
ATOM     85  O   UNL     1      -4.951  10.043  16.949  1.00  0.00    -0.237 OA
ATOM     86  O   UNL     1      -2.931   9.179  18.069  1.00  0.00    -0.744 OA
ENDBRANCH  82  83
ENDBRANCH  63  77
BRANCH  64  87
ATOM     87  C   UNL     1      -6.171  -3.907  11.464  1.00  0.00    -0.014 A 
ATOM     88  C   UNL     1      -7.447  -4.418  11.165  1.00  0.00     0.010 A 
ATOM     89  C   UNL     1      -5.042  -4.712  11.220  1.00  0.00     0.010 A 
ATOM     90  C   UNL     1      -7.589  -5.706  10.635  1.00  0.00     0.020 A 
ATOM     91  C   UNL     1      -5.178  -5.987  10.664  1.00  0.00     0.020 A 
ATOM     92  C   UNL     1      -6.452  -6.478  10.380  1.00  0.00     0.054 A 
BRANCH  92  93
ATOM     93  S   UNL     1      -6.657  -8.113   9.616  1.00  0.00     0.124 S 
ATOM     94  O   UNL     1      -7.236  -8.889  10.708  1.00  0.00    -0.237 OA
ATOM     95  O   UNL     1      -7.553  -7.826   8.498  1.00  0.00    -0.237 OA
ATOM     96  O   UNL     1      -5.296  -8.485   9.235  1.00  0.00    -0.744 OA
ENDBRANCH  92  93
ENDBRANCH  64  87
BRANCH  76  97
ATOM     97  C   UNL     1      -7.840  -0.958  17.584  1.00  0.00    -0.014 A 
ATOM     98  C   UNL     1      -7.285  -1.928  18.438  1.00  0.00     0.010 A 
ATOM     99  C   UNL     1      -9.097  -0.410  17.904  1.00  0.00     0.010 A 
ATOM    100  C   UNL     1      -7.990  -2.370  19.562  1.00  0.00     0.020 A 
ATOM    101  C   UNL     1      -9.791  -0.826  19.044  1.00  0.00     0.020 A 
ATOM    102  C   UNL     1      -9.241  -1.818  19.857  1.00  0.00     0.054 A 
BRANCH 102 103
ATOM    103  S   UNL     1     -10.126  -2.390  21.334  1.00  0.00     0.124 S 
ATOM    104  O   UNL     1     -10.554  -3.728  20.933  1.00  0.00    -0.237 OA
ATOM    105  O   UNL     1      -9.092  -2.343  22.365  1.00  0.00    -0.237 OA
ATOM    106  O   UNL     1     -11.202  -1.415  21.494  1.00  0.00    -0.744 OA
ENDBRANCH 102 103
ENDBRANCH  76  97
ENDBRANCH  50  51
ENDBRANCH  43  45
ENDBRANCH  42  43
ENDBRANCH  41  42
ENDBRANCH  40  41
ENDBRANCH  39  40
ENDBRANCH  38  39
ENDBRANCH  37  38
ENDBRANCH  36  37
ENDBRANCH   1  36
TORSDOF 29
