REMARK SMILES COc1cccc(-c2nn(-c3cc4c(cc3C(N)=O)OCO4)cc2C(=O)OCCOCCOCCOCCOC(=O)c2ccc(-c3c4nc(c(-c5ccc(S(=O)(=O)[O-])cc5)c5ccc([nH]5)c(-c5ccc(S(=O)(=O)[O-])cc5)c5nc(c(-c6ccc(S(=O)(=O)[O-])cc6)c6ccc3[nH]6)C=C5)C=C4)cc2)c1
REMARK SMILES IDX 34 1 33 2 32 3 31 4 30 5 29 6 28 7 27 8 25 9 26 10 24 11
REMARK SMILES IDX 8 12 9 13 10 14 23 15 7 16 3 17 4 18 102 19 5 20 6 21 2 22
REMARK SMILES IDX 1 23 11 24 12 25 16 26 13 27 15 28 14 29 22 30 20 31 21 32
REMARK SMILES IDX 17 33 18 34 19 35 35 38 36 39 37 40 38 41 39 42 40 43 41 44
REMARK SMILES IDX 42 45 43 46 101 47 44 48 100 49 45 50 46 51 47 52 94 53
REMARK SMILES IDX 48 54 99 55 93 56 95 57 49 58 98 59 92 60 91 61 50 63 80 64
REMARK SMILES IDX 61 65 79 66 62 67 65 68 78 69 96 70 63 71 64 72 77 74 97 75
REMARK SMILES IDX 66 76 51 77 52 78 60 79 53 80 59 81 54 82 55 83 56 84 57 85
REMARK SMILES IDX 58 86 81 87 82 88 90 89 83 90 89 91 84 92 85 93 86 94 87 95
REMARK SMILES IDX 88 96 67 97 68 98 76 99 69 100 75 101 70 102 71 103 72 104
REMARK SMILES IDX 73 105 74 106
REMARK H PARENT 18 36 18 37 95 62 65 73
REMARK Flexibility Score: inf
ROOT
ATOM      1  C   UNL     1       3.307   9.948  -0.197  1.00  0.00     0.188 C 
ENDROOT
BRANCH   1   2
ATOM      2  O   UNL     1       3.946   8.680  -0.311  1.00  0.00    -0.377 OA
BRANCH   2   3
ATOM      3  C   UNL     1       3.274   7.649  -1.007  1.00  0.00     0.188 C 
BRANCH   3   4
ATOM      4  C   UNL     1       2.071   7.030  -0.263  1.00  0.00     0.188 C 
BRANCH   4   5
ATOM      5  O   UNL     1       1.603   7.709   0.882  1.00  0.00    -0.376 OA
BRANCH   5   6
ATOM      6  C   UNL     1       2.251   7.644   2.135  1.00  0.00     0.202 C 
BRANCH   6   7
ATOM      7  C   UNL     1       3.547   6.887   2.469  1.00  0.00     0.261 C 
BRANCH   7   8
ATOM      8  O   UNL     1       4.271   6.277   1.410  1.00  0.00    -0.460 OA
BRANCH   8   9
ATOM      9  C   UNL     1       3.929   5.002   1.084  1.00  0.00     0.342 C 
ATOM     10  O   UNL     1       3.069   4.337   1.658  1.00  0.00    -0.246 OA
BRANCH   9  11
ATOM     11  C   UNL     1       4.625   4.573  -0.103  1.00  0.00     0.106 A 
ATOM     12  C   UNL     1       4.174   3.849  -1.243  1.00  0.00     0.107 A 
ATOM     13  N   UNL     1       5.187   3.618  -2.100  1.00  0.00    -0.167 NA
ATOM     14  N   UNL     1       6.280   4.032  -1.409  1.00  0.00    -0.239 N 
ATOM     15  C   UNL     1       5.926   4.905  -0.417  1.00  0.00     0.131 A 
BRANCH  12  16
ATOM     16  C   UNL     1       2.801   3.470  -1.556  1.00  0.00     0.007 A 
ATOM     17  C   UNL     1       0.933   1.952  -1.283  1.00  0.00     0.119 A 
ATOM     18  C   UNL     1       0.117   2.845  -1.984  1.00  0.00     0.046 A 
ATOM     19  C   UNL     1       2.275   2.272  -1.061  1.00  0.00     0.056 A 
ATOM     20  C   UNL     1       0.635   4.037  -2.486  1.00  0.00     0.005 A 
ATOM     21  C   UNL     1       1.984   4.336  -2.295  1.00  0.00     0.011 A 
BRANCH  17  22
ATOM     22  O   UNL     1       0.309   0.799  -0.890  1.00  0.00    -0.497 OA
ATOM     23  C   UNL     1       0.967   0.036   0.113  1.00  0.00     0.278 C 
ENDBRANCH  17  22
ENDBRANCH  12  16
BRANCH  14  24
ATOM     24  C   UNL     1       7.596   3.626  -1.732  1.00  0.00     0.081 A 
ATOM     25  C   UNL     1       7.891   3.364  -3.083  1.00  0.00     0.079 A 
ATOM     26  C   UNL     1       8.598   3.488  -0.720  1.00  0.00     0.069 A 
ATOM     27  C   UNL     1       9.194   3.046  -3.395  1.00  0.00     0.167 A 
ATOM     28  C   UNL     1       9.929   3.280  -1.111  1.00  0.00     0.066 A 
ATOM     29  C   UNL     1      10.183   3.041  -2.442  1.00  0.00     0.166 A 
ATOM     30  O   UNL     1       9.666   2.686  -4.618  1.00  0.00    -0.454 OA
ATOM     31  O   UNL     1      11.396   2.687  -2.946  1.00  0.00    -0.454 OA
ATOM     32  C   UNL     1      11.011   2.287  -4.277  1.00  0.00     0.468 C 
BRANCH  26  33
ATOM     33  C   UNL     1       8.242   3.264   0.730  1.00  0.00     0.251 C 
ATOM     34  N   UNL     1       9.239   3.149   1.657  1.00  0.00    -0.366 N 
ATOM     35  O   UNL     1       7.096   3.080   1.122  1.00  0.00    -0.269 OA
ATOM     36  H   UNL     1      10.177   3.287   1.391  1.00  0.00     0.159 HD
ATOM     37  H   UNL     1       9.020   2.927   2.590  1.00  0.00     0.159 HD
ENDBRANCH  26  33
ENDBRANCH  14  24
ENDBRANCH   9  11
ENDBRANCH   8   9
ENDBRANCH   7   8
ENDBRANCH   6   7
ENDBRANCH   5   6
ENDBRANCH   4   5
ENDBRANCH   3   4
ENDBRANCH   2   3
ENDBRANCH   1   2
BRANCH   1  38
ATOM     38  C   UNL     1       1.820  10.197  -0.587  1.00  0.00     0.188 C 
BRANCH  38  39
ATOM     39  O   UNL     1       1.224   9.237  -1.445  1.00  0.00    -0.376 OA
BRANCH  39  40
ATOM     40  C   UNL     1       0.867   9.504  -2.788  1.00  0.00     0.202 C 
BRANCH  40  41
ATOM     41  C   UNL     1       2.000   9.721  -3.785  1.00  0.00     0.261 C 
BRANCH  41  42
ATOM     42  O   UNL     1       3.073  10.457  -3.240  1.00  0.00    -0.460 OA
BRANCH  42  43
ATOM     43  C   UNL     1       2.783  11.743  -2.987  1.00  0.00     0.338 C 
ATOM     44  O   UNL     1       1.685  12.280  -3.055  1.00  0.00    -0.246 OA
BRANCH  43  45
ATOM     45  C   UNL     1       4.038  12.445  -2.722  1.00  0.00     0.060 A 
ATOM     46  C   UNL     1       3.903  13.817  -2.534  1.00  0.00     0.016 A 
ATOM     47  C   UNL     1       5.230  11.841  -3.157  1.00  0.00     0.016 A 
ATOM     48  C   UNL     1       4.821  14.610  -3.163  1.00  0.00     0.010 A 
ATOM     49  C   UNL     1       6.136  12.633  -3.801  1.00  0.00     0.010 A 
ATOM     50  C   UNL     1       5.836  13.986  -3.897  1.00  0.00    -0.014 A 
BRANCH  50  51
ATOM     51  C   UNL     1       6.602  14.820  -4.779  1.00  0.00     0.031 A 
ATOM     52  C   UNL     1       7.574  15.641  -4.048  1.00  0.00     0.074 A 
ATOM     53  C   UNL     1       6.447  14.792  -6.113  1.00  0.00     0.049 A 
ATOM     54  N   UNL     1       7.491  16.901  -3.792  1.00  0.00    -0.248 NA
ATOM     55  C   UNL     1       8.634  14.930  -3.317  1.00  0.00     0.031 C 
ATOM     56  C   UNL     1       5.728  13.820  -6.939  1.00  0.00     0.029 A 
ATOM     57  N   UNL     1       7.035  15.596  -7.027  1.00  0.00    -0.354 N 
ATOM     58  C   UNL     1       8.623  17.188  -3.049  1.00  0.00     0.074 A 
ATOM     59  C   UNL     1       9.148  15.924  -2.596  1.00  0.00     0.031 C 
ATOM     60  C   UNL     1       6.156  13.940  -8.219  1.00  0.00     0.029 A 
ATOM     61  C   UNL     1       7.069  15.070  -8.307  1.00  0.00     0.049 A 
ATOM     62  H   UNL     1       7.407  16.480  -6.802  1.00  0.00     0.167 HD
ATOM     63  C   UNL     1       9.211  18.412  -3.104  1.00  0.00     0.031 A 
ATOM     64  C   UNL     1       7.902  15.475  -9.300  1.00  0.00     0.031 A 
ATOM     65  C   UNL     1       8.342  19.403  -3.685  1.00  0.00     0.049 A 
ATOM     66  C   UNL     1       8.377  16.843  -8.938  1.00  0.00     0.074 A 
ATOM     67  C   UNL     1       7.086  19.885  -3.366  1.00  0.00     0.029 A 
ATOM     68  N   UNL     1       8.554  19.736  -5.005  1.00  0.00    -0.354 N 
ATOM     69  N   UNL     1       7.586  17.881  -8.871  1.00  0.00    -0.248 NA
ATOM     70  C   UNL     1       9.609  16.960  -8.165  1.00  0.00     0.031 C 
ATOM     71  C   UNL     1       6.426  20.048  -4.619  1.00  0.00     0.029 A 
ATOM     72  C   UNL     1       7.332  19.724  -5.631  1.00  0.00     0.049 A 
ATOM     73  H   UNL     1       9.421  19.945  -5.421  1.00  0.00     0.167 HD
ATOM     74  C   UNL     1       7.998  18.582  -7.743  1.00  0.00     0.074 A 
ATOM     75  C   UNL     1       9.301  18.013  -7.400  1.00  0.00     0.031 C 
ATOM     76  C   UNL     1       7.129  19.351  -7.018  1.00  0.00     0.031 A 
BRANCH  63  77
ATOM     77  C   UNL     1      10.702  18.581  -3.025  1.00  0.00    -0.014 A 
ATOM     78  C   UNL     1      11.238  19.879  -2.975  1.00  0.00     0.010 A 
ATOM     79  C   UNL     1      11.602  17.519  -3.268  1.00  0.00     0.010 A 
ATOM     80  C   UNL     1      12.599  20.103  -3.215  1.00  0.00     0.020 A 
ATOM     81  C   UNL     1      12.964  17.725  -3.457  1.00  0.00     0.020 A 
ATOM     82  C   UNL     1      13.448  19.023  -3.466  1.00  0.00     0.054 A 
BRANCH  82  83
ATOM     83  S   UNL     1      15.179  19.329  -3.883  1.00  0.00     0.124 S 
ATOM     84  O   UNL     1      15.060  19.995  -5.177  1.00  0.00    -0.237 OA
ATOM     85  O   UNL     1      15.618  20.169  -2.773  1.00  0.00    -0.237 OA
ATOM     86  O   UNL     1      15.764  17.991  -3.917  1.00  0.00    -0.744 OA
ENDBRANCH  82  83
ENDBRANCH  63  77
BRANCH  64  87
ATOM     87  C   UNL     1       8.608  14.586 -10.263  1.00  0.00    -0.014 A 
ATOM     88  C   UNL     1       9.327  15.107 -11.354  1.00  0.00     0.010 A 
ATOM     89  C   UNL     1       8.787  13.217  -9.965  1.00  0.00     0.010 A 
ATOM     90  C   UNL     1      10.223  14.302 -12.084  1.00  0.00     0.020 A 
ATOM     91  C   UNL     1       9.666  12.407 -10.691  1.00  0.00     0.020 A 
ATOM     92  C   UNL     1      10.399  12.959 -11.736  1.00  0.00     0.054 A 
BRANCH  92  93
ATOM     93  S   UNL     1      11.673  11.966 -12.569  1.00  0.00     0.124 S 
ATOM     94  O   UNL     1      11.112  11.798 -13.906  1.00  0.00    -0.237 OA
ATOM     95  O   UNL     1      12.852  12.822 -12.480  1.00  0.00    -0.237 OA
ATOM     96  O   UNL     1      11.737  10.745 -11.767  1.00  0.00    -0.744 OA
ENDBRANCH  92  93
ENDBRANCH  64  87
BRANCH  76  97
ATOM     97  C   UNL     1       5.755  19.636  -7.587  1.00  0.00    -0.014 A 
ATOM     98  C   UNL     1       4.812  18.635  -7.895  1.00  0.00     0.010 A 
ATOM     99  C   UNL     1       5.341  20.979  -7.642  1.00  0.00     0.010 A 
ATOM    100  C   UNL     1       3.500  18.973  -8.268  1.00  0.00     0.020 A 
ATOM    101  C   UNL     1       4.033  21.321  -7.995  1.00  0.00     0.020 A 
ATOM    102  C   UNL     1       3.120  20.317  -8.315  1.00  0.00     0.054 A 
BRANCH 102 103
ATOM    103  S   UNL     1       1.411  20.749  -8.750  1.00  0.00     0.124 S 
ATOM    104  O   UNL     1       1.337  20.374 -10.159  1.00  0.00    -0.237 OA
ATOM    105  O   UNL     1       0.624  19.924  -7.836  1.00  0.00    -0.237 OA
ATOM    106  O   UNL     1       1.338  22.187  -8.490  1.00  0.00    -0.744 OA
ENDBRANCH 102 103
ENDBRANCH  76  97
ENDBRANCH  50  51
ENDBRANCH  43  45
ENDBRANCH  42  43
ENDBRANCH  41  42
ENDBRANCH  40  41
ENDBRANCH  39  40
ENDBRANCH  38  39
ENDBRANCH   1  38
TORSDOF 27
