REMARK SMILES O=C(/C=C/c1ccccc1Oc1cccc(Cl)c1)OCCOCCOCCOCCOC(=O)c1ccc(-c2c3nc(c(-c4ccc(S(=O)(=O)[O-])cc4)c4ccc([nH]4)c(-c4ccc(S(=O)(=O)[O-])cc4)c4nc(c(-c5ccc(S(=O)(=O)[O-])cc5)c5ccc2[nH]5)C=C4)C=C3)cc1
REMARK SMILES IDX 25 1 24 2 23 3 22 4 21 5 20 6 19 7 2 8 1 9 3 10 4 11 5 12
REMARK SMILES IDX 6 13 10 14 7 15 9 16 8 17 11 18 12 19 13 20 18 21 14 22
REMARK SMILES IDX 16 23 15 24 17 25 26 26 27 27 28 28 29 29 30 30 31 31 32 32
REMARK SMILES IDX 33 33 34 34 35 35 93 36 36 37 92 38 37 39 38 40 39 41 86 42
REMARK SMILES IDX 40 43 91 44 85 45 87 46 41 47 90 48 84 49 83 50 42 52 72 53
REMARK SMILES IDX 53 54 71 55 54 56 57 57 70 58 88 59 55 60 56 61 69 63 89 64
REMARK SMILES IDX 58 65 43 66 44 67 52 68 45 69 51 70 46 71 47 72 48 73 49 74
REMARK SMILES IDX 50 75 73 76 74 77 82 78 75 79 81 80 76 81 77 82 78 83 79 84
REMARK SMILES IDX 80 85 59 86 60 87 68 88 61 89 67 90 62 91 63 92 64 93 65 94
REMARK SMILES IDX 66 95
REMARK H PARENT 87 51 57 62
REMARK Flexibility Score: inf
ROOT
ATOM      1  O   UNL     1       2.664   3.917   0.925  1.00  0.00    -0.377 OA
ENDROOT
BRANCH   1   2
ATOM      2  C   UNL     1       2.245   2.590   0.657  1.00  0.00     0.188 C 
BRANCH   2   3
ATOM      3  C   UNL     1       3.012   1.468   1.359  1.00  0.00     0.188 C 
BRANCH   3   4
ATOM      4  O   UNL     1       4.359   1.079   1.087  1.00  0.00    -0.376 OA
BRANCH   4   5
ATOM      5  C   UNL     1       5.111   1.166  -0.108  1.00  0.00     0.202 C 
BRANCH   5   6
ATOM      6  C   UNL     1       4.719   0.502  -1.425  1.00  0.00     0.261 C 
BRANCH   6   7
ATOM      7  O   UNL     1       3.344   0.217  -1.616  1.00  0.00    -0.460 OA
BRANCH   7   8
ATOM      8  C   UNL     1       2.658  -0.702  -0.914  1.00  0.00     0.330 C 
ATOM      9  O   UNL     1       1.441  -0.774  -1.051  1.00  0.00    -0.247 OA
BRANCH   8  10
ATOM     10  C   UNL     1       3.306  -1.414   0.208  1.00  0.00     0.094 C 
ATOM     11  C   UNL     1       4.470  -2.063   0.338  1.00  0.00     0.019 C 
BRANCH  11  12
ATOM     12  C   UNL     1       4.915  -2.506   1.676  1.00  0.00     0.017 A 
ATOM     13  C   UNL     1       5.944  -1.727   2.253  1.00  0.00     0.012 A 
ATOM     14  C   UNL     1       4.438  -3.614   2.402  1.00  0.00     0.134 A 
ATOM     15  C   UNL     1       6.526  -2.060   3.477  1.00  0.00     0.001 A 
ATOM     16  C   UNL     1       5.049  -3.950   3.625  1.00  0.00     0.048 A 
ATOM     17  C   UNL     1       6.088  -3.186   4.157  1.00  0.00     0.004 A 
BRANCH  14  18
ATOM     18  O   UNL     1       3.490  -4.543   2.010  1.00  0.00    -0.457 OA
BRANCH  18  19
ATOM     19  C   UNL     1       2.364  -4.120   1.354  1.00  0.00     0.128 A 
ATOM     20  C   UNL     1       1.328  -3.453   2.017  1.00  0.00     0.047 A 
ATOM     21  C   UNL     1       2.267  -4.409  -0.008  1.00  0.00     0.067 A 
ATOM     22  C   UNL     1       0.225  -2.998   1.286  1.00  0.00     0.005 A 
ATOM     23  C   UNL     1       1.176  -3.938  -0.731  1.00  0.00     0.044 A 
ATOM     24  C   UNL     1       0.155  -3.233  -0.091  1.00  0.00     0.021 A 
ATOM     25  Cl  UNL     1       1.145  -4.144  -2.439  1.00  0.00    -0.084 Cl
ENDBRANCH  18  19
ENDBRANCH  14  18
ENDBRANCH  11  12
ENDBRANCH   8  10
ENDBRANCH   7   8
ENDBRANCH   6   7
ENDBRANCH   5   6
ENDBRANCH   4   5
ENDBRANCH   3   4
ENDBRANCH   2   3
ENDBRANCH   1   2
BRANCH   1  26
ATOM     26  C   UNL     1       4.011   4.147   0.555  1.00  0.00     0.188 C 
BRANCH  26  27
ATOM     27  C   UNL     1       4.982   3.984   1.742  1.00  0.00     0.188 C 
BRANCH  27  28
ATOM     28  O   UNL     1       4.338   3.502   2.908  1.00  0.00    -0.376 OA
BRANCH  28  29
ATOM     29  C   UNL     1       3.810   4.436   3.836  1.00  0.00     0.202 C 
BRANCH  29  30
ATOM     30  C   UNL     1       3.040   5.707   3.418  1.00  0.00     0.261 C 
BRANCH  30  31
ATOM     31  O   UNL     1       3.443   6.404   2.234  1.00  0.00    -0.460 OA
BRANCH  31  32
ATOM     32  C   UNL     1       4.609   7.084   2.214  1.00  0.00     0.338 C 
ATOM     33  O   UNL     1       5.391   7.222   3.138  1.00  0.00    -0.246 OA
BRANCH  32  34
ATOM     34  C   UNL     1       4.891   7.372   0.780  1.00  0.00     0.060 A 
ATOM     35  C   UNL     1       6.099   6.920   0.220  1.00  0.00     0.016 A 
ATOM     36  C   UNL     1       3.897   7.914  -0.045  1.00  0.00     0.016 A 
ATOM     37  C   UNL     1       6.322   7.026  -1.157  1.00  0.00     0.010 A 
ATOM     38  C   UNL     1       4.136   8.058  -1.413  1.00  0.00     0.010 A 
ATOM     39  C   UNL     1       5.363   7.649  -1.967  1.00  0.00    -0.014 A 
BRANCH  39  40
ATOM     40  C   UNL     1       5.756   8.211  -3.282  1.00  0.00     0.031 A 
ATOM     41  C   UNL     1       6.324   9.605  -3.263  1.00  0.00     0.074 A 
ATOM     42  C   UNL     1       5.558   7.569  -4.446  1.00  0.00     0.049 A 
ATOM     43  N   UNL     1       6.597  10.408  -4.255  1.00  0.00    -0.248 NA
ATOM     44  C   UNL     1       6.600  10.173  -1.931  1.00  0.00     0.031 C 
ATOM     45  C   UNL     1       5.054   6.207  -4.595  1.00  0.00     0.029 A 
ATOM     46  N   UNL     1       5.732   8.009  -5.736  1.00  0.00    -0.354 N 
ATOM     47  C   UNL     1       7.048  11.583  -3.665  1.00  0.00     0.074 A 
ATOM     48  C   UNL     1       7.004  11.393  -2.235  1.00  0.00     0.031 C 
ATOM     49  C   UNL     1       4.923   5.934  -5.906  1.00  0.00     0.029 A 
ATOM     50  C   UNL     1       5.291   7.117  -6.685  1.00  0.00     0.049 A 
ATOM     51  H   UNL     1       6.134   8.880  -5.960  1.00  0.00     0.167 HD
ATOM     52  C   UNL     1       7.449  12.729  -4.259  1.00  0.00     0.031 A 
ATOM     53  C   UNL     1       5.157   7.260  -8.021  1.00  0.00     0.031 A 
ATOM     54  C   UNL     1       7.446  12.930  -5.679  1.00  0.00     0.049 A 
ATOM     55  C   UNL     1       5.548   8.566  -8.668  1.00  0.00     0.074 A 
ATOM     56  C   UNL     1       7.842  14.047  -6.389  1.00  0.00     0.029 A 
ATOM     57  N   UNL     1       7.001  11.997  -6.603  1.00  0.00    -0.354 N 
ATOM     58  N   UNL     1       6.010   9.659  -8.105  1.00  0.00    -0.248 NA
ATOM     59  C   UNL     1       5.404   8.660 -10.128  1.00  0.00     0.031 C 
ATOM     60  C   UNL     1       7.579  13.811  -7.742  1.00  0.00     0.029 A 
ATOM     61  C   UNL     1       7.086  12.521  -7.879  1.00  0.00     0.049 A 
ATOM     62  H   UNL     1       6.673  11.095  -6.383  1.00  0.00     0.167 HD
ATOM     63  C   UNL     1       6.236  10.559  -9.143  1.00  0.00     0.074 A 
ATOM     64  C   UNL     1       5.863   9.882 -10.369  1.00  0.00     0.031 C 
ATOM     65  C   UNL     1       6.715  11.827  -9.087  1.00  0.00     0.031 A 
BRANCH  52  66
ATOM     66  C   UNL     1       7.841  13.863  -3.352  1.00  0.00    -0.014 A 
ATOM     67  C   UNL     1       9.006  13.804  -2.564  1.00  0.00     0.010 A 
ATOM     68  C   UNL     1       7.005  14.989  -3.256  1.00  0.00     0.010 A 
ATOM     69  C   UNL     1       9.293  14.822  -1.651  1.00  0.00     0.020 A 
ATOM     70  C   UNL     1       7.306  16.025  -2.368  1.00  0.00     0.020 A 
ATOM     71  C   UNL     1       8.435  15.921  -1.553  1.00  0.00     0.054 A 
BRANCH  71  72
ATOM     72  S   UNL     1       8.818  17.220  -0.347  1.00  0.00     0.124 S 
ATOM     73  O   UNL     1       8.467  16.572   0.914  1.00  0.00    -0.237 OA
ATOM     74  O   UNL     1      10.246  17.444  -0.561  1.00  0.00    -0.237 OA
ATOM     75  O   UNL     1       7.951  18.327  -0.742  1.00  0.00    -0.744 OA
ENDBRANCH  71  72
ENDBRANCH  52  66
BRANCH  53  76
ATOM     76  C   UNL     1       4.590   6.142  -8.826  1.00  0.00    -0.014 A 
ATOM     77  C   UNL     1       5.404   5.388  -9.688  1.00  0.00     0.010 A 
ATOM     78  C   UNL     1       3.230   5.799  -8.699  1.00  0.00     0.010 A 
ATOM     79  C   UNL     1       4.873   4.306 -10.398  1.00  0.00     0.020 A 
ATOM     80  C   UNL     1       2.701   4.703  -9.388  1.00  0.00     0.020 A 
ATOM     81  C   UNL     1       3.527   3.962 -10.234  1.00  0.00     0.054 A 
BRANCH  81  82
ATOM     82  S   UNL     1       2.890   2.492 -11.087  1.00  0.00     0.124 S 
ATOM     83  O   UNL     1       2.843   2.940 -12.475  1.00  0.00    -0.237 OA
ATOM     84  O   UNL     1       3.906   1.488 -10.780  1.00  0.00    -0.237 OA
ATOM     85  O   UNL     1       1.591   2.266 -10.456  1.00  0.00    -0.744 OA
ENDBRANCH  81  82
ENDBRANCH  53  76
BRANCH  65  86
ATOM     86  C   UNL     1       6.919  12.567 -10.383  1.00  0.00    -0.014 A 
ATOM     87  C   UNL     1       5.835  13.095 -11.105  1.00  0.00     0.010 A 
ATOM     88  C   UNL     1       8.231  12.840 -10.816  1.00  0.00     0.010 A 
ATOM     89  C   UNL     1       6.061  13.877 -12.242  1.00  0.00     0.020 A 
ATOM     90  C   UNL     1       8.461  13.643 -11.935  1.00  0.00     0.020 A 
ATOM     91  C   UNL     1       7.373  14.152 -12.645  1.00  0.00     0.054 A 
BRANCH  91  92
ATOM     92  S   UNL     1       7.640  15.239 -14.072  1.00  0.00     0.124 S 
ATOM     93  O   UNL     1       7.253  14.379 -15.187  1.00  0.00    -0.237 OA
ATOM     94  O   UNL     1       6.739  16.356 -13.798  1.00  0.00    -0.237 OA
ATOM     95  O   UNL     1       9.063  15.563 -14.001  1.00  0.00    -0.744 OA
ENDBRANCH  91  92
ENDBRANCH  65  86
ENDBRANCH  39  40
ENDBRANCH  32  34
ENDBRANCH  31  32
ENDBRANCH  30  31
ENDBRANCH  29  30
ENDBRANCH  28  29
ENDBRANCH  27  28
ENDBRANCH  26  27
ENDBRANCH   1  26
TORSDOF 26
