REMARK SMILES Cc1c(Cl)ccc2c(OCC(=O)OCCOCCOCCOCCOC(=O)c3ccc(-c4c5nc(c(-c6ccc(S(=O)(=O)[O-])cc6)c6ccc([nH]6)c(-c6ccc(S(=O)(=O)[O-])cc6)c6nc(c(-c7ccc(S(=O)(=O)[O-])cc7)c7ccc4[nH]7)C=C6)C=C5)cc3)ccnc12
REMARK SMILES IDX 20 1 19 2 18 3 17 4 16 5 15 6 14 7 13 8 11 9 12 10 10 11
REMARK SMILES IDX 9 12 8 13 1 14 2 15 3 16 91 17 4 18 5 19 7 20 90 21 6 22
REMARK SMILES IDX 89 23 88 24 21 25 22 26 23 27 24 28 25 29 26 30 27 31 28 32
REMARK SMILES IDX 29 33 87 34 30 35 86 36 31 37 32 38 33 39 80 40 34 41 85 42
REMARK SMILES IDX 79 43 81 44 35 45 84 46 78 47 77 48 36 50 66 51 47 52 65 53
REMARK SMILES IDX 48 54 51 55 64 56 82 57 49 58 50 59 63 61 83 62 52 63 37 64
REMARK SMILES IDX 38 65 46 66 39 67 45 68 40 69 41 70 42 71 43 72 44 73 67 74
REMARK SMILES IDX 68 75 76 76 69 77 75 78 70 79 71 80 72 81 73 82 74 83 53 84
REMARK SMILES IDX 54 85 62 86 55 87 61 88 56 89 57 90 58 91 59 92 60 93
REMARK H PARENT 81 49 51 60
REMARK Flexibility Score: inf
ROOT
ATOM      1  C   UNL     1      -5.200  -0.841  -0.592  1.00  0.00     0.188 C 
ENDROOT
BRANCH   1   2
ATOM      2  O   UNL     1      -5.117  -1.403  -1.884  1.00  0.00    -0.377 OA
BRANCH   2   3
ATOM      3  C   UNL     1      -4.103  -0.869  -2.708  1.00  0.00     0.188 C 
BRANCH   3   4
ATOM      4  C   UNL     1      -4.633   0.090  -3.795  1.00  0.00     0.188 C 
BRANCH   4   5
ATOM      5  O   UNL     1      -6.010   0.117  -4.161  1.00  0.00    -0.376 OA
BRANCH   5   6
ATOM      6  C   UNL     1      -6.822  -1.017  -3.908  1.00  0.00     0.202 C 
BRANCH   6   7
ATOM      7  C   UNL     1      -6.428  -2.374  -4.527  1.00  0.00     0.261 C 
BRANCH   7   8
ATOM      8  O   UNL     1      -5.021  -2.642  -4.707  1.00  0.00    -0.461 OA
BRANCH   8   9
ATOM      9  C   UNL     1      -4.481  -2.330  -5.913  1.00  0.00     0.344 C 
ATOM     10  O   UNL     1      -5.112  -1.856  -6.853  1.00  0.00    -0.248 OA
BRANCH   9  11
ATOM     11  C   UNL     1      -2.977  -2.678  -6.031  1.00  0.00     0.352 C 
BRANCH  11  12
ATOM     12  O   UNL     1      -2.091  -2.790  -4.927  1.00  0.00    -0.481 OA
BRANCH  12  13
ATOM     13  C   UNL     1      -1.354  -1.721  -4.467  1.00  0.00     0.131 A 
ATOM     14  C   UNL     1       1.332   0.062  -0.682  1.00  0.00     0.048 C 
ATOM     15  C   UNL     1       0.848  -1.098  -1.522  1.00  0.00    -0.006 A 
ATOM     16  C   UNL     1       1.135  -2.413  -1.118  1.00  0.00     0.046 A 
ATOM     17  C   UNL     1       0.083  -0.872  -2.682  1.00  0.00     0.078 A 
ATOM     18  Cl  UNL     1       2.127  -2.748   0.260  1.00  0.00    -0.084 Cl
ATOM     19  C   UNL     1       0.626  -3.498  -1.821  1.00  0.00     0.022 A 
ATOM     20  C   UNL     1      -0.496  -1.975  -3.361  1.00  0.00     0.043 A 
ATOM     21  N   UNL     1      -0.108   0.385  -3.125  1.00  0.00    -0.256 NA
ATOM     22  C   UNL     1      -0.207  -3.280  -2.914  1.00  0.00     0.016 A 
ATOM     23  C   UNL     1      -0.842   0.583  -4.239  1.00  0.00     0.115 A 
ATOM     24  C   UNL     1      -1.474  -0.424  -4.942  1.00  0.00     0.067 A 
ENDBRANCH  12  13
ENDBRANCH  11  12
ENDBRANCH   9  11
ENDBRANCH   8   9
ENDBRANCH   7   8
ENDBRANCH   6   7
ENDBRANCH   5   6
ENDBRANCH   4   5
ENDBRANCH   3   4
ENDBRANCH   2   3
ENDBRANCH   1   2
BRANCH   1  25
ATOM     25  C   UNL     1      -5.345   0.687  -0.519  1.00  0.00     0.188 C 
BRANCH  25  26
ATOM     26  O   UNL     1      -4.301   1.391  -1.192  1.00  0.00    -0.376 OA
BRANCH  26  27
ATOM     27  C   UNL     1      -3.328   2.041  -0.384  1.00  0.00     0.202 C 
BRANCH  27  28
ATOM     28  C   UNL     1      -2.175   1.145   0.083  1.00  0.00     0.261 C 
BRANCH  28  29
ATOM     29  O   UNL     1      -2.556  -0.003   0.851  1.00  0.00    -0.460 OA
BRANCH  29  30
ATOM     30  C   UNL     1      -3.141   0.221   2.048  1.00  0.00     0.338 C 
ATOM     31  O   UNL     1      -3.356   1.298   2.574  1.00  0.00    -0.246 OA
BRANCH  30  32
ATOM     32  C   UNL     1      -3.677  -1.077   2.502  1.00  0.00     0.060 A 
ATOM     33  C   UNL     1      -5.065  -1.216   2.617  1.00  0.00     0.016 A 
ATOM     34  C   UNL     1      -2.829  -2.168   2.716  1.00  0.00     0.016 A 
ATOM     35  C   UNL     1      -5.611  -2.458   2.930  1.00  0.00     0.010 A 
ATOM     36  C   UNL     1      -3.374  -3.399   3.092  1.00  0.00     0.010 A 
ATOM     37  C   UNL     1      -4.765  -3.539   3.220  1.00  0.00    -0.014 A 
BRANCH  37  38
ATOM     38  C   UNL     1      -5.345  -4.687   3.951  1.00  0.00     0.031 A 
ATOM     39  C   UNL     1      -5.550  -4.505   5.431  1.00  0.00     0.074 A 
ATOM     40  C   UNL     1      -5.746  -5.812   3.332  1.00  0.00     0.049 A 
ATOM     41  N   UNL     1      -6.160  -5.283   6.282  1.00  0.00    -0.248 NA
ATOM     42  C   UNL     1      -5.018  -3.261   6.025  1.00  0.00     0.031 C 
ATOM     43  C   UNL     1      -5.645  -6.080   1.899  1.00  0.00     0.029 A 
ATOM     44  N   UNL     1      -6.346  -6.937   3.843  1.00  0.00    -0.354 N 
ATOM     45  C   UNL     1      -6.111  -4.612   7.497  1.00  0.00     0.074 A 
ATOM     46  C   UNL     1      -5.396  -3.377   7.288  1.00  0.00     0.031 C 
ATOM     47  C   UNL     1      -6.178  -7.290   1.643  1.00  0.00     0.029 A 
ATOM     48  C   UNL     1      -6.646  -7.886   2.894  1.00  0.00     0.049 A 
ATOM     49  H   UNL     1      -6.543  -7.054   4.800  1.00  0.00     0.167 HD
ATOM     50  C   UNL     1      -6.625  -4.990   8.686  1.00  0.00     0.031 A 
ATOM     51  C   UNL     1      -7.236  -9.093   3.027  1.00  0.00     0.031 A 
ATOM     52  C   UNL     1      -7.302  -6.233   8.903  1.00  0.00     0.049 A 
ATOM     53  C   UNL     1      -7.691  -9.544   4.393  1.00  0.00     0.074 A 
ATOM     54  C   UNL     1      -7.862  -6.706  10.075  1.00  0.00     0.029 A 
ATOM     55  N   UNL     1      -7.489  -7.206   7.936  1.00  0.00    -0.354 N 
ATOM     56  N   UNL     1      -7.683  -8.877   5.523  1.00  0.00    -0.248 NA
ATOM     57  C   UNL     1      -8.230 -10.909   4.506  1.00  0.00     0.031 C 
ATOM     58  C   UNL     1      -8.337  -7.995   9.831  1.00  0.00     0.029 A 
ATOM     59  C   UNL     1      -8.119  -8.300   8.495  1.00  0.00     0.049 A 
ATOM     60  H   UNL     1      -7.215  -7.129   6.994  1.00  0.00     0.167 HD
ATOM     61  C   UNL     1      -8.232  -9.732   6.473  1.00  0.00     0.074 A 
ATOM     62  C   UNL     1      -8.565 -10.964   5.790  1.00  0.00     0.031 C 
ATOM     63  C   UNL     1      -8.445  -9.514   7.793  1.00  0.00     0.031 A 
BRANCH  50  64
ATOM     64  C   UNL     1      -6.452  -4.065   9.851  1.00  0.00    -0.014 A 
ATOM     65  C   UNL     1      -7.276  -2.936   9.997  1.00  0.00     0.010 A 
ATOM     66  C   UNL     1      -5.515  -4.376  10.852  1.00  0.00     0.010 A 
ATOM     67  C   UNL     1      -7.170  -2.135  11.135  1.00  0.00     0.020 A 
ATOM     68  C   UNL     1      -5.418  -3.586  11.998  1.00  0.00     0.020 A 
ATOM     69  C   UNL     1      -6.251  -2.473  12.134  1.00  0.00     0.054 A 
BRANCH  69  70
ATOM     70  S   UNL     1      -6.188  -1.450  13.629  1.00  0.00     0.124 S 
ATOM     71  O   UNL     1      -5.849  -0.136  13.087  1.00  0.00    -0.237 OA
ATOM     72  O   UNL     1      -7.544  -1.582  14.155  1.00  0.00    -0.237 OA
ATOM     73  O   UNL     1      -5.142  -2.074  14.435  1.00  0.00    -0.744 OA
ENDBRANCH  69  70
ENDBRANCH  50  64
BRANCH  51  74
ATOM     74  C   UNL     1      -7.435  -9.967   1.838  1.00  0.00    -0.014 A 
ATOM     75  C   UNL     1      -8.723 -10.188   1.319  1.00  0.00     0.010 A 
ATOM     76  C   UNL     1      -6.335 -10.592   1.221  1.00  0.00     0.010 A 
ATOM     77  C   UNL     1      -8.908 -11.019   0.209  1.00  0.00     0.020 A 
ATOM     78  C   UNL     1      -6.513 -11.409   0.100  1.00  0.00     0.020 A 
ATOM     79  C   UNL     1      -7.800 -11.619  -0.399  1.00  0.00     0.054 A 
BRANCH  79  80
ATOM     80  S   UNL     1      -8.068 -12.666  -1.857  1.00  0.00     0.124 S 
ATOM     81  O   UNL     1      -8.950 -13.705  -1.334  1.00  0.00    -0.237 OA
ATOM     82  O   UNL     1      -8.679 -11.731  -2.798  1.00  0.00    -0.237 OA
ATOM     83  O   UNL     1      -6.723 -13.113  -2.212  1.00  0.00    -0.744 OA
ENDBRANCH  79  80
ENDBRANCH  51  74
BRANCH  63  84
ATOM     84  C   UNL     1      -9.067 -10.607   8.615  1.00  0.00    -0.014 A 
ATOM     85  C   UNL     1      -8.282 -11.668   9.095  1.00  0.00     0.010 A 
ATOM     86  C   UNL     1     -10.390 -10.461   9.072  1.00  0.00     0.010 A 
ATOM     87  C   UNL     1      -8.804 -12.554  10.039  1.00  0.00     0.020 A 
ATOM     88  C   UNL     1     -10.909 -11.334  10.030  1.00  0.00     0.020 A 
ATOM     89  C   UNL     1     -10.107 -12.370  10.515  1.00  0.00     0.054 A 
BRANCH  89  90
ATOM     90  S   UNL     1     -10.713 -13.470  11.823  1.00  0.00     0.124 S 
ATOM     91  O   UNL     1     -10.637 -14.781  11.183  1.00  0.00    -0.237 OA
ATOM     92  O   UNL     1      -9.752 -13.239  12.898  1.00  0.00    -0.237 OA
ATOM     93  O   UNL     1     -12.067 -12.987  12.087  1.00  0.00    -0.744 OA
ENDBRANCH  89  90
ENDBRANCH  63  84
ENDBRANCH  37  38
ENDBRANCH  30  32
ENDBRANCH  29  30
ENDBRANCH  28  29
ENDBRANCH  27  28
ENDBRANCH  26  27
ENDBRANCH  25  26
ENDBRANCH   1  25
TORSDOF 25
