REMARK SMILES C[C@H](CCCO)Nc1ccc2c(C(=O)OCCOCCOCCOCCOC(=O)c3ccc(-c4c5nc(c(-c6ccc(S(=O)(=O)[O-])cc6)c6ccc([nH]6)c(-c6ccc(S(=O)(=O)[O-])cc6)c6nc(c(-c7ccc(S(=O)(=O)[O-])cc7)c7ccc4[nH]7)C=C6)C=C5)cc3)cccc2n1
REMARK SMILES IDX 19 1 18 2 17 3 16 4 15 5 13 6 14 7 12 8 8 9 9 10 94 11 10 12
REMARK SMILES IDX 93 13 11 14 92 15 91 16 90 17 7 18 2 20 1 21 3 22 4 23 5 24
REMARK SMILES IDX 6 25 20 27 21 28 22 29 23 30 24 31 25 32 26 33 27 34 28 35
REMARK SMILES IDX 29 36 30 37 31 38 89 39 32 40 88 41 33 42 34 43 35 44 82 45
REMARK SMILES IDX 36 46 87 47 81 48 83 49 37 50 86 51 80 52 79 53 38 55 68 56
REMARK SMILES IDX 49 57 67 58 50 59 53 60 66 61 84 62 51 63 52 64 65 66 85 67
REMARK SMILES IDX 54 68 39 69 40 70 48 71 41 72 47 73 42 74 43 75 44 76 45 77
REMARK SMILES IDX 46 78 69 79 70 80 78 81 71 82 77 83 72 84 73 85 74 86 75 87
REMARK SMILES IDX 76 88 55 89 56 90 64 91 57 92 63 93 58 94 59 95 60 96 61 97
REMARK SMILES IDX 62 98
REMARK H PARENT 7 19 6 26 83 54 53 65
REMARK Flexibility Score: inf
ROOT
ATOM      1  C   UNL     1      -6.501   4.507  -1.111  1.00  0.00     0.188 C 
ENDROOT
BRANCH   1   2
ATOM      2  O   UNL     1      -7.382   5.422  -0.478  1.00  0.00    -0.376 OA
BRANCH   2   3
ATOM      3  C   UNL     1      -6.801   6.421   0.344  1.00  0.00     0.202 C 
BRANCH   3   4
ATOM      4  C   UNL     1      -5.994   7.501  -0.386  1.00  0.00     0.261 C 
BRANCH   4   5
ATOM      5  O   UNL     1      -4.969   6.994  -1.253  1.00  0.00    -0.460 OA
BRANCH   5   6
ATOM      6  C   UNL     1      -3.876   6.450  -0.673  1.00  0.00     0.338 C 
ATOM      7  O   UNL     1      -3.655   6.364   0.523  1.00  0.00    -0.246 OA
BRANCH   6   8
ATOM      8  C   UNL     1      -3.068   5.815  -1.745  1.00  0.00     0.069 A 
ATOM      9  C   UNL     1      -1.641   1.869  -1.582  1.00  0.00     0.126 A 
ATOM     10  C   UNL     1      -2.467   2.287  -0.556  1.00  0.00     0.047 A 
ATOM     11  N   UNL     1      -1.333   2.673  -2.616  1.00  0.00    -0.231 NA
ATOM     12  C   UNL     1      -2.928   3.598  -0.560  1.00  0.00     0.015 A 
ATOM     13  C   UNL     1      -1.842   3.917  -2.664  1.00  0.00     0.073 A 
ATOM     14  C   UNL     1      -2.620   4.468  -1.626  1.00  0.00     0.015 A 
ATOM     15  C   UNL     1      -1.593   4.681  -3.797  1.00  0.00     0.029 A 
ATOM     16  C   UNL     1      -2.085   5.979  -3.941  1.00  0.00     0.003 A 
ATOM     17  C   UNL     1      -2.814   6.553  -2.909  1.00  0.00     0.016 A 
BRANCH   9  18
ATOM     18  N   UNL     1      -1.008   0.646  -1.472  1.00  0.00    -0.368 N 
ATOM     19  H   UNL     1      -1.523  -0.187  -1.369  1.00  0.00     0.162 HD
BRANCH  18  20
ATOM     20  C   UNL     1       0.443   0.634  -1.514  1.00  0.00     0.077 C 
ATOM     21  C   UNL     1       0.919  -0.025  -2.799  1.00  0.00     0.031 C 
BRANCH  20  22
ATOM     22  C   UNL     1       0.987   0.013  -0.212  1.00  0.00     0.027 C 
BRANCH  22  23
ATOM     23  C   UNL     1       0.701  -1.471   0.058  1.00  0.00     0.030 C 
BRANCH  23  24
ATOM     24  C   UNL     1       1.555  -2.474  -0.709  1.00  0.00     0.156 C 
BRANCH  24  25
ATOM     25  O   UNL     1       2.940  -2.234  -0.510  1.00  0.00    -0.396 OA
ATOM     26  H   UNL     1       3.164  -1.348  -0.834  1.00  0.00     0.210 HD
ENDBRANCH  24  25
ENDBRANCH  23  24
ENDBRANCH  22  23
ENDBRANCH  20  22
ENDBRANCH  18  20
ENDBRANCH   9  18
ENDBRANCH   6   8
ENDBRANCH   5   6
ENDBRANCH   4   5
ENDBRANCH   3   4
ENDBRANCH   2   3
ENDBRANCH   1   2
BRANCH   1  27
ATOM     27  C   UNL     1      -6.395   4.651  -2.644  1.00  0.00     0.188 C 
BRANCH  27  28
ATOM     28  O   UNL     1      -7.156   5.637  -3.324  1.00  0.00    -0.377 OA
BRANCH  28  29
ATOM     29  C   UNL     1      -8.478   5.932  -2.892  1.00  0.00     0.188 C 
BRANCH  29  30
ATOM     30  C   UNL     1      -9.382   4.806  -2.342  1.00  0.00     0.188 C 
BRANCH  30  31
ATOM     31  O   UNL     1      -8.834   3.500  -2.453  1.00  0.00    -0.376 OA
BRANCH  31  32
ATOM     32  C   UNL     1      -9.393   2.657  -3.447  1.00  0.00     0.202 C 
BRANCH  32  33
ATOM     33  C   UNL     1      -9.162   3.086  -4.902  1.00  0.00     0.261 C 
BRANCH  33  34
ATOM     34  O   UNL     1      -9.664   4.383  -5.262  1.00  0.00    -0.460 OA
BRANCH  34  35
ATOM     35  C   UNL     1     -10.996   4.594  -5.168  1.00  0.00     0.338 C 
ATOM     36  O   UNL     1     -11.846   3.793  -4.826  1.00  0.00    -0.246 OA
BRANCH  35  37
ATOM     37  C   UNL     1     -11.221   6.042  -5.364  1.00  0.00     0.060 A 
ATOM     38  C   UNL     1     -11.782   6.798  -4.326  1.00  0.00     0.016 A 
ATOM     39  C   UNL     1     -10.827   6.656  -6.555  1.00  0.00     0.016 A 
ATOM     40  C   UNL     1     -11.955   8.175  -4.481  1.00  0.00     0.010 A 
ATOM     41  C   UNL     1     -11.025   8.029  -6.718  1.00  0.00     0.010 A 
ATOM     42  C   UNL     1     -11.605   8.792  -5.690  1.00  0.00    -0.014 A 
BRANCH  42  43
ATOM     43  C   UNL     1     -11.983  10.203  -5.947  1.00  0.00     0.031 A 
ATOM     44  C   UNL     1     -13.242  10.476  -6.721  1.00  0.00     0.074 A 
ATOM     45  C   UNL     1     -11.219  11.221  -5.512  1.00  0.00     0.049 A 
ATOM     46  N   UNL     1     -13.736  11.618  -7.123  1.00  0.00    -0.248 NA
ATOM     47  C   UNL     1     -14.051   9.304  -7.095  1.00  0.00     0.031 C 
ATOM     48  C   UNL     1      -9.998  11.087  -4.719  1.00  0.00     0.029 A 
ATOM     49  N   UNL     1     -11.356  12.576  -5.692  1.00  0.00    -0.354 N 
ATOM     50  C   UNL     1     -14.906  11.303  -7.803  1.00  0.00     0.074 A 
ATOM     51  C   UNL     1     -15.037   9.863  -7.780  1.00  0.00     0.031 C 
ATOM     52  C   UNL     1      -9.489  12.311  -4.494  1.00  0.00     0.029 A 
ATOM     53  C   UNL     1     -10.325  13.311  -5.157  1.00  0.00     0.049 A 
ATOM     54  H   UNL     1     -12.121  12.982  -6.160  1.00  0.00     0.167 HD
ATOM     55  C   UNL     1     -15.792  12.139  -8.394  1.00  0.00     0.031 A 
ATOM     56  C   UNL     1     -10.069  14.633  -5.223  1.00  0.00     0.031 A 
ATOM     57  C   UNL     1     -15.647  13.570  -8.434  1.00  0.00     0.049 A 
ATOM     58  C   UNL     1     -11.026  15.535  -5.962  1.00  0.00     0.074 A 
ATOM     59  C   UNL     1     -16.504  14.504  -8.989  1.00  0.00     0.029 A 
ATOM     60  N   UNL     1     -14.571  14.272  -7.914  1.00  0.00    -0.354 N 
ATOM     61  N   UNL     1     -12.150  15.229  -6.565  1.00  0.00    -0.248 NA
ATOM     62  C   UNL     1     -10.679  16.963  -6.027  1.00  0.00     0.031 C 
ATOM     63  C   UNL     1     -15.912  15.765  -8.865  1.00  0.00     0.029 A 
ATOM     64  C   UNL     1     -14.721  15.625  -8.171  1.00  0.00     0.049 A 
ATOM     65  H   UNL     1     -13.812  13.869  -7.433  1.00  0.00     0.167 HD
ATOM     66  C   UNL     1     -12.654  16.427  -7.063  1.00  0.00     0.074 A 
ATOM     67  C   UNL     1     -11.724  17.466  -6.672  1.00  0.00     0.031 C 
ATOM     68  C   UNL     1     -13.783  16.648  -7.782  1.00  0.00     0.031 A 
BRANCH  55  69
ATOM     69  C   UNL     1     -16.979  11.522  -9.084  1.00  0.00    -0.014 A 
ATOM     70  C   UNL     1     -18.025  10.932  -8.351  1.00  0.00     0.010 A 
ATOM     71  C   UNL     1     -17.071  11.576 -10.487  1.00  0.00     0.010 A 
ATOM     72  C   UNL     1     -19.126  10.380  -9.012  1.00  0.00     0.020 A 
ATOM     73  C   UNL     1     -18.184  11.051 -11.149  1.00  0.00     0.020 A 
ATOM     74  C   UNL     1     -19.199  10.444 -10.407  1.00  0.00     0.054 A 
BRANCH  74  75
ATOM     75  S   UNL     1     -20.657   9.752 -11.234  1.00  0.00     0.124 S 
ATOM     76  O   UNL     1     -20.454   8.316 -11.050  1.00  0.00    -0.237 OA
ATOM     77  O   UNL     1     -21.760  10.332 -10.474  1.00  0.00    -0.237 OA
ATOM     78  O   UNL     1     -20.534  10.226 -12.611  1.00  0.00    -0.744 OA
ENDBRANCH  74  75
ENDBRANCH  55  69
BRANCH  56  79
ATOM     79  C   UNL     1      -8.831  15.187  -4.604  1.00  0.00    -0.014 A 
ATOM     80  C   UNL     1      -8.901  16.044  -3.492  1.00  0.00     0.010 A 
ATOM     81  C   UNL     1      -7.569  14.868  -5.140  1.00  0.00     0.010 A 
ATOM     82  C   UNL     1      -7.735  16.583  -2.937  1.00  0.00     0.020 A 
ATOM     83  C   UNL     1      -6.400  15.380  -4.570  1.00  0.00     0.020 A 
ATOM     84  C   UNL     1      -6.491  16.244  -3.478  1.00  0.00     0.054 A 
BRANCH  84  85
ATOM     85  S   UNL     1      -4.990  16.912  -2.709  1.00  0.00     0.124 S 
ATOM     86  O   UNL     1      -5.038  18.313  -3.114  1.00  0.00    -0.237 OA
ATOM     87  O   UNL     1      -5.223  16.654  -1.290  1.00  0.00    -0.237 OA
ATOM     88  O   UNL     1      -3.917  16.122  -3.309  1.00  0.00    -0.744 OA
ENDBRANCH  84  85
ENDBRANCH  56  79
BRANCH  68  89
ATOM     89  C   UNL     1     -14.091  18.069  -8.180  1.00  0.00    -0.014 A 
ATOM     90  C   UNL     1     -13.336  18.729  -9.165  1.00  0.00     0.010 A 
ATOM     91  C   UNL     1     -15.191  18.731  -7.603  1.00  0.00     0.010 A 
ATOM     92  C   UNL     1     -13.656  20.036  -9.544  1.00  0.00     0.020 A 
ATOM     93  C   UNL     1     -15.533  20.026  -8.001  1.00  0.00     0.020 A 
ATOM     94  C   UNL     1     -14.755  20.676  -8.960  1.00  0.00     0.054 A 
BRANCH  94  95
ATOM     95  S   UNL     1     -15.176  22.355  -9.504  1.00  0.00     0.124 S 
ATOM     96  O   UNL     1     -14.101  23.145  -8.909  1.00  0.00    -0.237 OA
ATOM     97  O   UNL     1     -15.140  22.238 -10.959  1.00  0.00    -0.237 OA
ATOM     98  O   UNL     1     -16.503  22.581  -8.935  1.00  0.00    -0.744 OA
ENDBRANCH  94  95
ENDBRANCH  68  89
ENDBRANCH  42  43
ENDBRANCH  35  37
ENDBRANCH  34  35
ENDBRANCH  33  34
ENDBRANCH  32  33
ENDBRANCH  31  32
ENDBRANCH  30  31
ENDBRANCH  29  30
ENDBRANCH  28  29
ENDBRANCH  27  28
ENDBRANCH   1  27
TORSDOF 29
