REMARK SMILES O=C(OCCOCCOCCOCCOC(=O)c1ccc(-c2c3nc(c(-c4ccc(S(=O)(=O)[O-])cc4)c4ccc([nH]4)c(-c4ccc(S(=O)(=O)[O-])cc4)c4nc(c(-c5ccc(S(=O)(=O)[O-])cc5)c5ccc2[nH]5)C=C4)C=C3)cc1)C1=Cc2cc(Cl)cc(-c3ccccc3)c2O[C@@H]1C(F)(F)F
REMARK SMILES IDX 10 1 9 2 8 3 7 4 6 5 5 6 4 7 3 8 2 9 1 10 78 11 79 12 94 13
REMARK SMILES IDX 80 14 93 15 81 16 92 17 82 18 85 19 83 20 84 21 95 22 96 23
REMARK SMILES IDX 97 24 98 25 86 26 87 27 91 28 88 29 90 30 89 31 11 32 12 33
REMARK SMILES IDX 13 34 14 35 15 36 16 37 17 38 18 39 19 40 77 41 20 42 76 43
REMARK SMILES IDX 21 44 22 45 23 46 70 47 24 48 75 49 69 50 71 51 25 52 74 53
REMARK SMILES IDX 68 54 67 55 26 57 56 58 37 59 55 60 38 61 41 62 54 63 72 64
REMARK SMILES IDX 39 65 40 66 53 68 73 69 42 70 27 71 28 72 36 73 29 74 35 75
REMARK SMILES IDX 30 76 31 77 32 78 33 79 34 80 57 81 58 82 66 83 59 84 65 85
REMARK SMILES IDX 60 86 61 87 62 88 63 89 64 90 43 91 44 92 52 93 45 94 51 95
REMARK SMILES IDX 46 96 47 97 48 98 49 99 50 100
REMARK H PARENT 71 56 41 67
REMARK Flexibility Score: inf
ROOT
ATOM      1  C   UNL     1       3.693  -1.111   3.585  1.00  0.00     0.188 C 
ENDROOT
BRANCH   1   2
ATOM      2  O   UNL     1       2.413  -1.695   3.616  1.00  0.00    -0.377 OA
BRANCH   2   3
ATOM      3  C   UNL     1       1.694  -1.303   2.483  1.00  0.00     0.188 C 
BRANCH   3   4
ATOM      4  C   UNL     1       2.220  -2.042   1.266  1.00  0.00     0.188 C 
BRANCH   4   5
ATOM      5  O   UNL     1       3.570  -1.929   0.707  1.00  0.00    -0.376 OA
BRANCH   5   6
ATOM      6  C   UNL     1       4.372  -0.869  -0.277  1.00  0.00     0.202 C 
BRANCH   6   7
ATOM      7  C   UNL     1       3.661   1.064  -1.005  1.00  0.00     0.261 C 
BRANCH   7   8
ATOM      8  O   UNL     1       2.763   1.299  -2.213  1.00  0.00    -0.460 OA
BRANCH   8   9
ATOM      9  C   UNL     1       2.974   0.408  -3.189  1.00  0.00     0.338 C 
ATOM     10  O   UNL     1       2.331   0.226  -4.193  1.00  0.00    -0.246 OA
BRANCH   9  11
ATOM     11  C   UNL     1       3.821  -0.485  -2.419  1.00  0.00     0.087 C 
ATOM     12  C   UNL     1       5.197  -0.030  -2.264  1.00  0.00     0.027 C 
ATOM     13  C   UNL     1       2.552  -0.658  -0.989  1.00  0.00     0.316 C 
ATOM     14  C   UNL     1       5.863   0.672  -0.752  1.00  0.00     0.019 A 
ATOM     15  O   UNL     1       3.197   0.230   0.635  1.00  0.00    -0.475 OA
ATOM     16  C   UNL     1       7.167   1.094  -0.791  1.00  0.00     0.032 A 
ATOM     17  C   UNL     1       4.895   0.963   0.664  1.00  0.00     0.135 A 
ATOM     18  C   UNL     1       7.621   1.749   0.355  1.00  0.00     0.042 A 
ATOM     19  C   UNL     1       5.423   1.725   1.715  1.00  0.00     0.026 A 
ATOM     20  Cl  UNL     1       9.276   2.260   0.372  1.00  0.00    -0.084 Cl
ATOM     21  C   UNL     1       6.808   2.053   1.507  1.00  0.00     0.033 A 
BRANCH  13  22
ATOM     22  C   UNL     1       2.311  -2.288  -1.469  1.00  0.00     0.430 C 
ATOM     23  F   UNL     1       1.474  -3.089  -0.785  1.00  0.00    -0.167 F 
ATOM     24  F   UNL     1       1.733  -2.232  -2.713  1.00  0.00    -0.167 F 
ATOM     25  F   UNL     1       3.455  -2.995  -1.668  1.00  0.00    -0.167 F 
ENDBRANCH  13  22
BRANCH  19  26
ATOM     26  C   UNL     1       4.831   2.274   2.934  1.00  0.00    -0.015 A 
ATOM     27  C   UNL     1       4.471   3.622   3.081  1.00  0.00     0.009 A 
ATOM     28  C   UNL     1       4.829   1.530   4.098  1.00  0.00     0.009 A 
ATOM     29  C   UNL     1       3.910   4.103   4.277  1.00  0.00     0.001 A 
ATOM     30  C   UNL     1       4.086   1.931   5.204  1.00  0.00     0.001 A 
ATOM     31  C   UNL     1       3.631   3.227   5.312  1.00  0.00     0.000 A 
ENDBRANCH  19  26
ENDBRANCH   9  11
ENDBRANCH   8   9
ENDBRANCH   7   8
ENDBRANCH   6   7
ENDBRANCH   5   6
ENDBRANCH   4   5
ENDBRANCH   3   4
ENDBRANCH   2   3
ENDBRANCH   1   2
BRANCH   1  32
ATOM     32  C   UNL     1       4.884  -2.052   3.490  1.00  0.00     0.188 C 
BRANCH  32  33
ATOM     33  O   UNL     1       4.548  -3.381   3.190  1.00  0.00    -0.376 OA
BRANCH  33  34
ATOM     34  C   UNL     1       3.925  -4.177   4.188  1.00  0.00     0.202 C 
BRANCH  34  35
ATOM     35  C   UNL     1       3.209  -3.627   5.446  1.00  0.00     0.261 C 
BRANCH  35  36
ATOM     36  O   UNL     1       3.772  -2.501   6.142  1.00  0.00    -0.460 OA
BRANCH  36  37
ATOM     37  C   UNL     1       5.035  -2.584   6.613  1.00  0.00     0.338 C 
ATOM     38  O   UNL     1       5.773  -3.549   6.548  1.00  0.00    -0.246 OA
BRANCH  37  39
ATOM     39  C   UNL     1       5.450  -1.209   7.010  1.00  0.00     0.060 A 
ATOM     40  C   UNL     1       6.666  -0.693   6.535  1.00  0.00     0.016 A 
ATOM     41  C   UNL     1       4.623  -0.412   7.806  1.00  0.00     0.016 A 
ATOM     42  C   UNL     1       7.080   0.601   6.888  1.00  0.00     0.010 A 
ATOM     43  C   UNL     1       5.033   0.883   8.154  1.00  0.00     0.010 A 
ATOM     44  C   UNL     1       6.288   1.383   7.737  1.00  0.00    -0.014 A 
BRANCH  44  45
ATOM     45  C   UNL     1       6.887   2.532   8.476  1.00  0.00     0.031 A 
ATOM     46  C   UNL     1       7.252   2.256   9.915  1.00  0.00     0.074 A 
ATOM     47  C   UNL     1       7.131   3.750   7.947  1.00  0.00     0.049 A 
ATOM     48  N   UNL     1       7.791   3.044  10.806  1.00  0.00    -0.248 NA
ATOM     49  C   UNL     1       6.953   0.901  10.418  1.00  0.00     0.031 C 
ATOM     50  C   UNL     1       6.886   4.155   6.565  1.00  0.00     0.029 A 
ATOM     51  N   UNL     1       7.643   4.889   8.531  1.00  0.00    -0.354 N 
ATOM     52  C   UNL     1       7.891   2.276  11.959  1.00  0.00     0.074 A 
ATOM     53  C   UNL     1       7.262   1.007  11.696  1.00  0.00     0.031 C 
ATOM     54  C   UNL     1       7.216   5.453   6.415  1.00  0.00     0.029 A 
ATOM     55  C   UNL     1       7.712   5.976   7.686  1.00  0.00     0.049 A 
ATOM     56  H   UNL     1       7.935   4.923   9.471  1.00  0.00     0.167 HD
ATOM     57  C   UNL     1       8.500   2.568  13.128  1.00  0.00     0.031 A 
ATOM     58  C   UNL     1       8.142   7.238   7.908  1.00  0.00     0.031 A 
ATOM     59  C   UNL     1       9.125   3.827  13.402  1.00  0.00     0.049 A 
ATOM     60  C   UNL     1       8.730   7.583   9.258  1.00  0.00     0.074 A 
ATOM     61  C   UNL     1       9.796   4.220  14.543  1.00  0.00     0.029 A 
ATOM     62  N   UNL     1       9.141   4.902  12.528  1.00  0.00    -0.354 N 
ATOM     63  N   UNL     1       8.883   6.818  10.315  1.00  0.00    -0.248 NA
ATOM     64  C   UNL     1       9.249   8.948   9.429  1.00  0.00     0.031 C 
ATOM     65  C   UNL     1      10.143   5.565  14.394  1.00  0.00     0.029 A 
ATOM     66  C   UNL     1       9.778   5.976  13.120  1.00  0.00     0.049 A 
ATOM     67  H   UNL     1       8.756   4.901  11.622  1.00  0.00     0.167 HD
ATOM     68  C   UNL     1       9.578   7.588  11.246  1.00  0.00     0.074 A 
ATOM     69  C   UNL     1       9.809   8.877  10.629  1.00  0.00     0.031 C 
ATOM     70  C   UNL     1      10.005   7.251  12.489  1.00  0.00     0.031 A 
BRANCH  57  71
ATOM     71  C   UNL     1       8.483   1.504  14.190  1.00  0.00    -0.014 A 
ATOM     72  C   UNL     1       9.169   0.285  14.020  1.00  0.00     0.010 A 
ATOM     73  C   UNL     1       7.746   1.718  15.366  1.00  0.00     0.010 A 
ATOM     74  C   UNL     1       9.075  -0.719  14.986  1.00  0.00     0.020 A 
ATOM     75  C   UNL     1       7.684   0.733  16.353  1.00  0.00     0.020 A 
ATOM     76  C   UNL     1       8.335  -0.485  16.148  1.00  0.00     0.054 A 
BRANCH  76  77
ATOM     77  S   UNL     1       8.257  -1.792  17.400  1.00  0.00     0.124 S 
ATOM     78  O   UNL     1       7.439  -2.802  16.732  1.00  0.00    -0.237 OA
ATOM     79  O   UNL     1       9.663  -2.142  17.581  1.00  0.00    -0.237 OA
ATOM     80  O   UNL     1       7.626  -1.139  18.544  1.00  0.00    -0.744 OA
ENDBRANCH  76  77
ENDBRANCH  57  71
BRANCH  58  81
ATOM     81  C   UNL     1       8.096   8.270   6.826  1.00  0.00    -0.014 A 
ATOM     82  C   UNL     1       9.283   8.778   6.262  1.00  0.00     0.010 A 
ATOM     83  C   UNL     1       6.866   8.790   6.382  1.00  0.00     0.010 A 
ATOM     84  C   UNL     1       9.243   9.796   5.300  1.00  0.00     0.020 A 
ATOM     85  C   UNL     1       6.819   9.787   5.398  1.00  0.00     0.020 A 
ATOM     86  C   UNL     1       8.009  10.290   4.869  1.00  0.00     0.054 A 
BRANCH  86  87
ATOM     87  S   UNL     1       7.983  11.572   3.582  1.00  0.00     0.124 S 
ATOM     88  O   UNL     1       8.560  12.718   4.277  1.00  0.00    -0.237 OA
ATOM     89  O   UNL     1       8.814  10.980   2.537  1.00  0.00    -0.237 OA
ATOM     90  O   UNL     1       6.566  11.692   3.248  1.00  0.00    -0.744 OA
ENDBRANCH  86  87
ENDBRANCH  58  81
BRANCH  70  91
ATOM     91  C   UNL     1      10.838   8.255  13.245  1.00  0.00    -0.014 A 
ATOM     92  C   UNL     1      10.307   9.470  13.710  1.00  0.00     0.010 A 
ATOM     93  C   UNL     1      12.178   7.937  13.543  1.00  0.00     0.010 A 
ATOM     94  C   UNL     1      11.115  10.371  14.408  1.00  0.00     0.020 A 
ATOM     95  C   UNL     1      12.976   8.814  14.279  1.00  0.00     0.020 A 
ATOM     96  C   UNL     1      12.444  10.037  14.687  1.00  0.00     0.054 A 
BRANCH  96  97
ATOM     97  S   UNL     1      13.466  11.216  15.610  1.00  0.00     0.124 S 
ATOM     98  O   UNL     1      13.650  12.286  14.634  1.00  0.00    -0.237 OA
ATOM     99  O   UNL     1      12.617  11.546  16.753  1.00  0.00    -0.237 OA
ATOM    100  O   UNL     1      14.670  10.454  15.934  1.00  0.00    -0.744 OA
ENDBRANCH  96  97
ENDBRANCH  70  91
ENDBRANCH  44  45
ENDBRANCH  37  39
ENDBRANCH  36  37
ENDBRANCH  35  36
ENDBRANCH  34  35
ENDBRANCH  33  34
ENDBRANCH  32  33
ENDBRANCH   1  32
TORSDOF 25
