REMARK SMILES C#CC[N@@H+](CC(=O)OCCOCCOCCOCCOC(=O)c1ccc(-c2c3nc(c(-c4ccc(S(=O)(=O)[O-])cc4)c4ccc([nH]4)c(-c4ccc(S(=O)(=O)[O-])cc4)c4nc(c(-c5ccc(S(=O)(=O)[O-])cc5)c5ccc2[nH]5)C=C4)C=C3)cc1)Cc1ccc(C(C)C)cc1
REMARK SMILES IDX 13 1 12 2 11 3 10 4 9 5 8 6 6 7 7 8 5 9 4 10 3 12 2 13 1 14
REMARK SMILES IDX 83 15 84 16 85 17 92 18 86 19 91 20 87 21 88 22 89 23 90 24
REMARK SMILES IDX 14 25 15 26 16 27 17 28 18 29 19 30 20 31 21 32 22 33 23 34
REMARK SMILES IDX 24 35 82 36 25 37 81 38 26 39 27 40 28 41 75 42 29 43 80 44
REMARK SMILES IDX 74 45 76 46 30 47 79 48 73 49 72 50 31 52 61 53 42 54 60 55
REMARK SMILES IDX 43 56 46 57 59 58 77 59 44 60 45 61 58 63 78 64 47 65 32 66
REMARK SMILES IDX 33 67 41 68 34 69 40 70 35 71 36 72 37 73 38 74 39 75 62 76
REMARK SMILES IDX 63 77 71 78 64 79 70 80 65 81 66 82 67 83 68 84 69 85 48 86
REMARK SMILES IDX 49 87 57 88 50 89 56 90 51 91 52 92 53 93 54 94 55 95
REMARK H PARENT 4 11 76 51 46 62
REMARK Flexibility Score: inf
ROOT
ATOM      1  C   UNL     1      -2.704  -1.427   4.335  1.00  0.00     0.188 C 
ENDROOT
BRANCH   1   2
ATOM      2  C   UNL     1      -4.646  -1.203   3.333  1.00  0.00     0.188 C 
BRANCH   2   3
ATOM      3  O   UNL     1      -5.750  -2.196   2.950  1.00  0.00    -0.376 OA
BRANCH   3   4
ATOM      4  C   UNL     1      -5.848  -2.736   1.629  1.00  0.00     0.202 C 
BRANCH   4   5
ATOM      5  C   UNL     1      -5.701  -1.940   0.307  1.00  0.00     0.261 C 
BRANCH   5   6
ATOM      6  O   UNL     1      -4.630  -0.985   0.172  1.00  0.00    -0.459 OA
BRANCH   6   7
ATOM      7  C   UNL     1      -4.976   0.328   0.286  1.00  0.00     0.361 C 
ATOM      8  O   UNL     1      -6.127   0.715   0.483  1.00  0.00    -0.245 OA
BRANCH   7   9
ATOM      9  C   UNL     1      -3.829   1.320   0.057  1.00  0.00     0.387 C 
BRANCH   9  10
ATOM     10  N   UNL     1      -2.495   1.095   0.678  1.00  0.00    -0.312 N 
ATOM     11  H   UNL     1      -1.959   1.926   0.432  1.00  0.00     0.349 HD
BRANCH  10  12
ATOM     12  C   UNL     1      -1.746   0.022   0.058  1.00  0.00     0.354 C 
BRANCH  12  13
ATOM     13  C   UNL     1      -0.226   0.022   0.058  1.00  0.00    -0.047 C 
ATOM     14  C   UNL     1       1.078   0.022   0.058  1.00  0.00     0.010 C 
ENDBRANCH  12  13
ENDBRANCH  10  12
BRANCH  10  15
ATOM     15  C   UNL     1      -2.416   1.222   2.123  1.00  0.00     0.300 C 
BRANCH  15  16
ATOM     16  C   UNL     1      -3.022   0.093   2.903  1.00  0.00     0.006 A 
ATOM     17  C   UNL     1      -3.830   0.363   4.503  1.00  0.00     0.010 A 
ATOM     18  C   UNL     1      -2.903  -1.588   2.248  1.00  0.00     0.010 A 
ATOM     19  C   UNL     1      -4.449  -1.068   5.445  1.00  0.00     0.004 A 
ATOM     20  C   UNL     1      -3.512  -2.978   3.169  1.00  0.00     0.004 A 
ATOM     21  C   UNL     1      -4.289  -2.738   4.761  1.00  0.00    -0.045 A 
BRANCH  21  22
ATOM     22  C   UNL     1      -4.591  -4.042   5.447  1.00  0.00     0.013 C 
ATOM     23  C   UNL     1      -3.725  -4.308   6.669  1.00  0.00     0.012 C 
ATOM     24  C   UNL     1      -6.070  -4.207   5.695  1.00  0.00     0.012 C 
ENDBRANCH  21  22
ENDBRANCH  15  16
ENDBRANCH  10  15
ENDBRANCH   9  10
ENDBRANCH   7   9
ENDBRANCH   6   7
ENDBRANCH   5   6
ENDBRANCH   4   5
ENDBRANCH   3   4
ENDBRANCH   2   3
ENDBRANCH   1   2
BRANCH   1  25
ATOM     25  O   UNL     1      -1.376  -1.960   3.788  1.00  0.00    -0.377 OA
BRANCH  25  26
ATOM     26  C   UNL     1      -0.917  -3.157   4.380  1.00  0.00     0.188 C 
BRANCH  26  27
ATOM     27  C   UNL     1      -0.446  -3.099   5.839  1.00  0.00     0.188 C 
BRANCH  27  28
ATOM     28  O   UNL     1      -0.306  -1.856   6.497  1.00  0.00    -0.376 OA
BRANCH  28  29
ATOM     29  C   UNL     1       0.451  -0.839   5.861  1.00  0.00     0.202 C 
BRANCH  29  30
ATOM     30  C   UNL     1       1.853  -1.165   5.327  1.00  0.00     0.261 C 
BRANCH  30  31
ATOM     31  O   UNL     1       1.898  -2.212   4.340  1.00  0.00    -0.460 OA
BRANCH  31  32
ATOM     32  C   UNL     1       2.487  -3.381   4.710  1.00  0.00     0.338 C 
ATOM     33  O   UNL     1       3.006  -3.641   5.781  1.00  0.00    -0.246 OA
BRANCH  32  34
ATOM     34  C   UNL     1       2.219  -4.387   3.658  1.00  0.00     0.060 A 
ATOM     35  C   UNL     1       1.287  -5.419   3.884  1.00  0.00     0.016 A 
ATOM     36  C   UNL     1       2.853  -4.268   2.426  1.00  0.00     0.016 A 
ATOM     37  C   UNL     1       0.937  -6.293   2.855  1.00  0.00     0.010 A 
ATOM     38  C   UNL     1       2.577  -5.202   1.430  1.00  0.00     0.010 A 
ATOM     39  C   UNL     1       1.631  -6.223   1.644  1.00  0.00    -0.014 A 
BRANCH  39  40
ATOM     40  C   UNL     1       1.648  -7.381   0.725  1.00  0.00     0.031 A 
ATOM     41  C   UNL     1       2.639  -8.467   1.035  1.00  0.00     0.074 A 
ATOM     42  C   UNL     1       0.906  -7.417  -0.395  1.00  0.00     0.049 A 
ATOM     43  N   UNL     1       3.054  -9.451   0.286  1.00  0.00    -0.248 NA
ATOM     44  C   UNL     1       3.262  -8.418   2.370  1.00  0.00     0.031 C 
ATOM     45  C   UNL     1      -0.142  -6.465  -0.755  1.00  0.00     0.029 A 
ATOM     46  N   UNL     1       0.956  -8.285  -1.457  1.00  0.00    -0.354 N 
ATOM     47  C   UNL     1       4.005 -10.119   1.048  1.00  0.00     0.074 A 
ATOM     48  C   UNL     1       4.112  -9.428   2.311  1.00  0.00     0.031 C 
ATOM     49  C   UNL     1      -0.613  -6.781  -1.976  1.00  0.00     0.029 A 
ATOM     50  C   UNL     1       0.143  -7.917  -2.503  1.00  0.00     0.049 A 
ATOM     51  H   UNL     1       1.520  -9.092  -1.468  1.00  0.00     0.167 HD
ATOM     52  C   UNL     1       4.739 -11.205   0.717  1.00  0.00     0.031 A 
ATOM     53  C   UNL     1       0.063  -8.413  -3.755  1.00  0.00     0.031 A 
ATOM     54  C   UNL     1       4.664 -11.845  -0.565  1.00  0.00     0.049 A 
ATOM     55  C   UNL     1       0.981  -9.546  -4.151  1.00  0.00     0.074 A 
ATOM     56  C   UNL     1       5.366 -12.945  -1.020  1.00  0.00     0.029 A 
ATOM     57  N   UNL     1       3.851 -11.423  -1.607  1.00  0.00    -0.354 N 
ATOM     58  N   UNL     1       1.863 -10.189  -3.420  1.00  0.00    -0.248 NA
ATOM     59  C   UNL     1       0.902 -10.012  -5.543  1.00  0.00     0.031 C 
ATOM     60  C   UNL     1       5.030 -13.144  -2.362  1.00  0.00     0.029 A 
ATOM     61  C   UNL     1       4.063 -12.215  -2.720  1.00  0.00     0.049 A 
ATOM     62  H   UNL     1       3.218 -10.671  -1.562  1.00  0.00     0.167 HD
ATOM     63  C   UNL     1       2.427 -11.148  -4.257  1.00  0.00     0.074 A 
ATOM     64  C   UNL     1       1.772 -11.013  -5.543  1.00  0.00     0.031 C 
ATOM     65  C   UNL     1       3.398 -12.057  -3.990  1.00  0.00     0.031 A 
BRANCH  52  66
ATOM     66  C   UNL     1       5.724 -11.706   1.739  1.00  0.00    -0.014 A 
ATOM     67  C   UNL     1       5.295 -12.277   2.951  1.00  0.00     0.010 A 
ATOM     68  C   UNL     1       7.104 -11.592   1.489  1.00  0.00     0.010 A 
ATOM     69  C   UNL     1       6.224 -12.680   3.912  1.00  0.00     0.020 A 
ATOM     70  C   UNL     1       8.038 -12.027   2.433  1.00  0.00     0.020 A 
ATOM     71  C   UNL     1       7.591 -12.551   3.647  1.00  0.00     0.054 A 
BRANCH  71  72
ATOM     72  S   UNL     1       8.773 -13.095   4.909  1.00  0.00     0.124 S 
ATOM     73  O   UNL     1       8.584 -12.090   5.953  1.00  0.00    -0.237 OA
ATOM     74  O   UNL     1       8.294 -14.436   5.235  1.00  0.00    -0.237 OA
ATOM     75  O   UNL     1      10.062 -13.045   4.224  1.00  0.00    -0.744 OA
ENDBRANCH  71  72
ENDBRANCH  52  66
BRANCH  53  76
ATOM     76  C   UNL     1      -0.891  -7.825  -4.737  1.00  0.00    -0.014 A 
ATOM     77  C   UNL     1      -1.986  -8.576  -5.201  1.00  0.00     0.010 A 
ATOM     78  C   UNL     1      -0.722  -6.510  -5.210  1.00  0.00     0.010 A 
ATOM     79  C   UNL     1      -2.891  -8.026  -6.114  1.00  0.00     0.020 A 
ATOM     80  C   UNL     1      -1.641  -5.945  -6.101  1.00  0.00     0.020 A 
ATOM     81  C   UNL     1      -2.719  -6.709  -6.549  1.00  0.00     0.054 A 
BRANCH  81  82
ATOM     82  S   UNL     1      -3.956  -5.995  -7.669  1.00  0.00     0.124 S 
ATOM     83  O   UNL     1      -3.725  -6.745  -8.899  1.00  0.00    -0.237 OA
ATOM     84  O   UNL     1      -5.208  -6.285  -6.974  1.00  0.00    -0.237 OA
ATOM     85  O   UNL     1      -3.595  -4.580  -7.720  1.00  0.00    -0.744 OA
ENDBRANCH  81  82
ENDBRANCH  53  76
BRANCH  65  86
ATOM     86  C   UNL     1       3.809 -12.991  -5.099  1.00  0.00    -0.014 A 
ATOM     87  C   UNL     1       4.565 -12.532  -6.191  1.00  0.00     0.010 A 
ATOM     88  C   UNL     1       3.526 -14.366  -4.989  1.00  0.00     0.010 A 
ATOM     89  C   UNL     1       5.020 -13.430  -7.160  1.00  0.00     0.020 A 
ATOM     90  C   UNL     1       4.007 -15.270  -5.937  1.00  0.00     0.020 A 
ATOM     91  C   UNL     1       4.748 -14.795  -7.021  1.00  0.00     0.054 A 
BRANCH  91  92
ATOM     92  S   UNL     1       5.425 -15.945  -8.248  1.00  0.00     0.124 S 
ATOM     93  O   UNL     1       4.648 -15.614  -9.439  1.00  0.00    -0.237 OA
ATOM     94  O   UNL     1       6.836 -15.567  -8.293  1.00  0.00    -0.237 OA
ATOM     95  O   UNL     1       5.157 -17.263  -7.677  1.00  0.00    -0.744 OA
ENDBRANCH  91  92
ENDBRANCH  65  86
ENDBRANCH  39  40
ENDBRANCH  32  34
ENDBRANCH  31  32
ENDBRANCH  30  31
ENDBRANCH  29  30
ENDBRANCH  28  29
ENDBRANCH  27  28
ENDBRANCH  26  27
ENDBRANCH  25  26
ENDBRANCH   1  25
TORSDOF 29
