REMARK SMILES O=C(OCCOCCOCCOCCOC(=O)c1ccc(-c2c3nc(c(-c4ccc(S(=O)(=O)[O-])cc4)c4ccc([nH]4)c(-c4ccc(S(=O)(=O)[O-])cc4)c4nc(c(-c5ccc(S(=O)(=O)[O-])cc5)c5ccc2[nH]5)C=C4)C=C3)cc1)C1=Cc2cc(Cl)cc(-c3ccc(O)cc3)c2O[C@@H]1C(F)(F)F
REMARK SMILES IDX 10 1 9 2 8 3 7 4 6 5 5 6 4 7 3 8 2 9 1 10 78 11 79 12 95 13
REMARK SMILES IDX 80 14 94 15 81 16 93 17 82 18 85 19 83 20 84 21 96 22 97 23
REMARK SMILES IDX 98 24 99 25 86 26 87 27 92 28 88 29 91 30 89 31 90 32 11 34
REMARK SMILES IDX 12 35 13 36 14 37 15 38 16 39 17 40 18 41 19 42 77 43 20 44
REMARK SMILES IDX 76 45 21 46 22 47 23 48 70 49 24 50 75 51 69 52 71 53 25 54
REMARK SMILES IDX 74 55 68 56 67 57 26 59 56 60 37 61 55 62 38 63 41 64 54 65
REMARK SMILES IDX 72 66 39 67 40 68 53 70 73 71 42 72 27 73 28 74 36 75 29 76
REMARK SMILES IDX 35 77 30 78 31 79 32 80 33 81 34 82 57 83 58 84 66 85 59 86
REMARK SMILES IDX 65 87 60 88 61 89 62 90 63 91 64 92 43 93 44 94 52 95 45 96
REMARK SMILES IDX 51 97 46 98 47 99 48 100 49 101 50 102
REMARK H PARENT 90 33 71 58 41 69
REMARK Flexibility Score: inf
ROOT
ATOM      1  C   UNL     1       3.753  -1.772  -3.800  1.00  0.00     0.188 C 
ENDROOT
BRANCH   1   2
ATOM      2  O   UNL     1       2.462  -1.278  -4.116  1.00  0.00    -0.377 OA
BRANCH   2   3
ATOM      3  C   UNL     1       1.728  -0.990  -2.945  1.00  0.00     0.188 C 
BRANCH   3   4
ATOM      4  C   UNL     1       2.228   0.279  -2.251  1.00  0.00     0.188 C 
BRANCH   4   5
ATOM      5  O   UNL     1       3.577   0.220  -1.736  1.00  0.00    -0.376 OA
BRANCH   5   6
ATOM      6  C   UNL     1       4.099   0.847  -0.353  1.00  0.00     0.202 C 
BRANCH   6   7
ATOM      7  C   UNL     1       3.627   0.181   1.667  1.00  0.00     0.261 C 
BRANCH   7   8
ATOM      8  O   UNL     1       3.035   1.079   2.803  1.00  0.00    -0.460 OA
BRANCH   8   9
ATOM      9  C   UNL     1       3.228   2.387   2.616  1.00  0.00     0.338 C 
ATOM     10  O   UNL     1       2.858   3.347   3.239  1.00  0.00    -0.246 OA
BRANCH   9  11
ATOM     11  C   UNL     1       3.778   2.240   1.300  1.00  0.00     0.087 C 
ATOM     12  C   UNL     1       5.183   1.772   1.412  1.00  0.00     0.027 C 
ATOM     13  C   UNL     1       2.326   1.217   0.506  1.00  0.00     0.316 C 
ATOM     14  C   UNL     1       5.719   0.092   0.968  1.00  0.00     0.019 A 
ATOM     15  O   UNL     1       2.876  -0.580   0.060  1.00  0.00    -0.475 OA
ATOM     16  C   UNL     1       7.009  -0.267   1.266  1.00  0.00     0.032 A 
ATOM     17  C   UNL     1       4.615  -1.088   0.322  1.00  0.00     0.135 A 
ATOM     18  C   UNL     1       7.327  -1.602   1.005  1.00  0.00     0.042 A 
ATOM     19  C   UNL     1       5.031  -2.394   0.119  1.00  0.00     0.026 A 
ATOM     20  Cl  UNL     1       8.943  -2.116   1.364  1.00  0.00    -0.084 Cl
ATOM     21  C   UNL     1       6.410  -2.585   0.472  1.00  0.00     0.033 A 
BRANCH  13  22
ATOM     22  C   UNL     1       1.625   2.326  -0.405  1.00  0.00     0.430 C 
ATOM     23  F   UNL     1       0.435   1.957  -0.921  1.00  0.00    -0.167 F 
ATOM     24  F   UNL     1       1.356   3.408   0.381  1.00  0.00    -0.167 F 
ATOM     25  F   UNL     1       2.385   2.811  -1.411  1.00  0.00    -0.167 F 
ENDBRANCH  13  22
BRANCH  19  26
ATOM     26  C   UNL     1       4.327  -3.549  -0.415  1.00  0.00    -0.014 A 
ATOM     27  C   UNL     1       3.570  -4.410   0.385  1.00  0.00     0.012 A 
ATOM     28  C   UNL     1       4.573  -3.948  -1.734  1.00  0.00     0.012 A 
ATOM     29  C   UNL     1       2.987  -5.564  -0.158  1.00  0.00     0.047 A 
ATOM     30  C   UNL     1       3.900  -5.023  -2.305  1.00  0.00     0.047 A 
ATOM     31  C   UNL     1       3.121  -5.838  -1.510  1.00  0.00     0.115 A 
BRANCH  31  32
ATOM     32  O   UNL     1       2.508  -6.937  -2.027  1.00  0.00    -0.508 OA
ATOM     33  H   UNL     1       1.982  -7.483  -1.476  1.00  0.00     0.293 HD
ENDBRANCH  31  32
ENDBRANCH  19  26
ENDBRANCH   9  11
ENDBRANCH   8   9
ENDBRANCH   7   8
ENDBRANCH   6   7
ENDBRANCH   5   6
ENDBRANCH   4   5
ENDBRANCH   3   4
ENDBRANCH   2   3
ENDBRANCH   1   2
BRANCH   1  34
ATOM     34  C   UNL     1       4.944  -0.875  -4.166  1.00  0.00     0.188 C 
BRANCH  34  35
ATOM     35  O   UNL     1       5.032  -0.236  -5.433  1.00  0.00    -0.376 OA
BRANCH  35  36
ATOM     36  C   UNL     1       3.830  -0.031  -6.151  1.00  0.00     0.202 C 
BRANCH  36  37
ATOM     37  C   UNL     1       3.452  -1.220  -7.054  1.00  0.00     0.261 C 
BRANCH  37  38
ATOM     38  O   UNL     1       3.895  -2.512  -6.593  1.00  0.00    -0.460 OA
BRANCH  38  39
ATOM     39  C   UNL     1       5.203  -2.813  -6.805  1.00  0.00     0.338 C 
ATOM     40  O   UNL     1       6.017  -2.154  -7.429  1.00  0.00    -0.246 OA
BRANCH  39  41
ATOM     41  C   UNL     1       5.550  -4.050  -6.054  1.00  0.00     0.060 A 
ATOM     42  C   UNL     1       6.749  -4.098  -5.327  1.00  0.00     0.016 A 
ATOM     43  C   UNL     1       4.713  -5.168  -6.078  1.00  0.00     0.016 A 
ATOM     44  C   UNL     1       7.122  -5.265  -4.639  1.00  0.00     0.010 A 
ATOM     45  C   UNL     1       5.091  -6.335  -5.400  1.00  0.00     0.010 A 
ATOM     46  C   UNL     1       6.308  -6.404  -4.687  1.00  0.00    -0.014 A 
BRANCH  46  47
ATOM     47  C   UNL     1       6.788  -7.728  -4.194  1.00  0.00     0.031 A 
ATOM     48  C   UNL     1       7.216  -8.738  -5.228  1.00  0.00     0.074 A 
ATOM     49  C   UNL     1       6.824  -8.074  -2.890  1.00  0.00     0.049 A 
ATOM     50  N   UNL     1       7.610  -9.974  -5.067  1.00  0.00    -0.248 NA
ATOM     51  C   UNL     1       7.194  -8.288  -6.631  1.00  0.00     0.031 C 
ATOM     52  C   UNL     1       6.502  -7.206  -1.763  1.00  0.00     0.029 A 
ATOM     53  N   UNL     1       7.122  -9.279  -2.294  1.00  0.00    -0.354 N 
ATOM     54  C   UNL     1       7.909 -10.436  -6.342  1.00  0.00     0.074 A 
ATOM     55  C   UNL     1       7.561  -9.384  -7.271  1.00  0.00     0.031 C 
ATOM     56  C   UNL     1       6.532  -7.920  -0.623  1.00  0.00     0.029 A 
ATOM     57  C   UNL     1       6.912  -9.296  -0.932  1.00  0.00     0.049 A 
ATOM     58  H   UNL     1       7.454 -10.059  -2.795  1.00  0.00     0.167 HD
ATOM     59  C   UNL     1       8.473 -11.608  -6.714  1.00  0.00     0.031 A 
ATOM     60  C   UNL     1       7.015 -10.299  -0.035  1.00  0.00     0.031 A 
ATOM     61  C   UNL     1       8.817 -12.666  -5.809  1.00  0.00     0.049 A 
ATOM     62  C   UNL     1       7.519 -11.648  -0.485  1.00  0.00     0.074 A 
ATOM     63  C   UNL     1       9.425 -13.876  -6.093  1.00  0.00     0.029 A 
ATOM     64  N   UNL     1       8.574 -12.647  -4.445  1.00  0.00    -0.354 N 
ATOM     65  N   UNL     1       7.883 -12.034  -1.685  1.00  0.00    -0.248 NA
ATOM     66  C   UNL     1       7.671 -12.684   0.549  1.00  0.00     0.031 C 
ATOM     67  C   UNL     1       9.506 -14.610  -4.905  1.00  0.00     0.029 A 
ATOM     68  C   UNL     1       8.996 -13.835  -3.876  1.00  0.00     0.049 A 
ATOM     69  H   UNL     1       8.163 -11.899  -3.955  1.00  0.00     0.167 HD
ATOM     70  C   UNL     1       8.367 -13.331  -1.536  1.00  0.00     0.074 A 
ATOM     71  C   UNL     1       8.239 -13.669  -0.135  1.00  0.00     0.031 C 
ATOM     72  C   UNL     1       8.889 -14.157  -2.476  1.00  0.00     0.031 A 
BRANCH  59  73
ATOM     73  C   UNL     1       8.761 -11.779  -8.178  1.00  0.00    -0.014 A 
ATOM     74  C   UNL     1       9.786 -11.035  -8.793  1.00  0.00     0.010 A 
ATOM     75  C   UNL     1       7.999 -12.673  -8.947  1.00  0.00     0.010 A 
ATOM     76  C   UNL     1      10.007 -11.142 -10.166  1.00  0.00     0.020 A 
ATOM     77  C   UNL     1       8.237 -12.804 -10.318  1.00  0.00     0.020 A 
ATOM     78  C   UNL     1       9.225 -12.021 -10.921  1.00  0.00     0.054 A 
BRANCH  78  79
ATOM     79  S   UNL     1       9.534 -12.140 -12.703  1.00  0.00     0.124 S 
ATOM     80  O   UNL     1       8.965 -10.885 -13.189  1.00  0.00    -0.237 OA
ATOM     81  O   UNL     1      10.989 -12.238 -12.770  1.00  0.00    -0.237 OA
ATOM     82  O   UNL     1       8.811 -13.346 -13.100  1.00  0.00    -0.744 OA
ENDBRANCH  78  79
ENDBRANCH  59  73
BRANCH  60  83
ATOM     83  C   UNL     1       6.662 -10.083   1.399  1.00  0.00    -0.014 A 
ATOM     84  C   UNL     1       7.662 -10.055   2.389  1.00  0.00     0.010 A 
ATOM     85  C   UNL     1       5.315  -9.974   1.790  1.00  0.00     0.010 A 
ATOM     86  C   UNL     1       7.321  -9.964   3.743  1.00  0.00     0.020 A 
ATOM     87  C   UNL     1       4.971  -9.861   3.143  1.00  0.00     0.020 A 
ATOM     88  C   UNL     1       5.976  -9.873   4.112  1.00  0.00     0.054 A 
BRANCH  88  89
ATOM     89  S   UNL     1       5.560  -9.751   5.875  1.00  0.00     0.124 S 
ATOM     90  O   UNL     1       5.862 -11.096   6.354  1.00  0.00    -0.237 OA
ATOM     91  O   UNL     1       6.460  -8.697   6.337  1.00  0.00    -0.237 OA
ATOM     92  O   UNL     1       4.144  -9.391   5.869  1.00  0.00    -0.744 OA
ENDBRANCH  88  89
ENDBRANCH  60  83
BRANCH  72  93
ATOM     93  C   UNL     1       9.432 -15.487  -2.023  1.00  0.00    -0.014 A 
ATOM     94  C   UNL     1       8.583 -16.532  -1.624  1.00  0.00     0.010 A 
ATOM     95  C   UNL     1      10.821 -15.713  -2.071  1.00  0.00     0.010 A 
ATOM     96  C   UNL     1       9.114 -17.773  -1.260  1.00  0.00     0.020 A 
ATOM     97  C   UNL     1      11.354 -16.959  -1.735  1.00  0.00     0.020 A 
ATOM     98  C   UNL     1      10.497 -17.979  -1.320  1.00  0.00     0.054 A 
BRANCH  98  99
ATOM     99  S   UNL     1      11.157 -19.616  -0.902  1.00  0.00     0.124 S 
ATOM    100  O   UNL     1      11.044 -19.627   0.554  1.00  0.00    -0.237 OA
ATOM    101  O   UNL     1      10.252 -20.519  -1.609  1.00  0.00    -0.237 OA
ATOM    102  O   UNL     1      12.523 -19.582  -1.421  1.00  0.00    -0.744 OA
ENDBRANCH  98  99
ENDBRANCH  72  93
ENDBRANCH  46  47
ENDBRANCH  39  41
ENDBRANCH  38  39
ENDBRANCH  37  38
ENDBRANCH  36  37
ENDBRANCH  35  36
ENDBRANCH  34  35
ENDBRANCH   1  34
TORSDOF 26
