REMARK SMILES CCC(=O)Nc1cc(NC(=O)/C=C/C(=O)OCCOCCOCCOCCOC(=O)c2ccc(-c3c4nc(c(-c5ccc(S(=O)(=O)[O-])cc5)c5ccc([nH]5)c(-c5ccc(S(=O)(=O)[O-])cc5)c5nc(c(-c6ccc(S(=O)(=O)[O-])cc6)c6ccc3[nH]6)C=C5)C=C4)cc2)ccc1C
REMARK SMILES IDX 21 1 20 2 19 3 18 4 17 5 16 6 14 7 15 8 13 9 12 10 10 11
REMARK SMILES IDX 9 12 11 14 8 15 6 16 7 17 93 18 92 19 94 20 91 21 5 22 3 23
REMARK SMILES IDX 4 24 2 26 1 27 22 28 23 29 24 30 25 31 26 32 27 33 28 34
REMARK SMILES IDX 29 35 30 36 31 37 32 38 90 39 33 40 89 41 34 42 35 43 36 44
REMARK SMILES IDX 83 45 37 46 88 47 82 48 84 49 38 50 87 51 81 52 80 53 39 55
REMARK SMILES IDX 69 56 50 57 68 58 51 59 54 60 67 61 85 62 52 63 53 64 66 66
REMARK SMILES IDX 86 67 55 68 40 69 41 70 49 71 42 72 48 73 43 74 44 75 45 76
REMARK SMILES IDX 46 77 47 78 70 79 71 80 79 81 72 82 78 83 73 84 74 85 75 86
REMARK SMILES IDX 76 87 77 88 56 89 57 90 65 91 58 92 64 93 59 94 60 95 61 96
REMARK SMILES IDX 62 97 63 98
REMARK H PARENT 9 13 5 25 84 54 54 65
REMARK Flexibility Score: inf
ROOT
ATOM      1  C   UNL     1       6.084  -1.839  -3.496  1.00  0.00     0.188 C 
ENDROOT
BRANCH   1   2
ATOM      2  C   UNL     1       4.780  -2.230  -2.780  1.00  0.00     0.188 C 
BRANCH   2   3
ATOM      3  O   UNL     1       3.832  -1.167  -2.752  1.00  0.00    -0.376 OA
BRANCH   3   4
ATOM      4  C   UNL     1       2.647  -1.434  -3.519  1.00  0.00     0.202 C 
BRANCH   4   5
ATOM      5  C   UNL     1       2.048  -0.081  -3.953  1.00  0.00     0.261 C 
BRANCH   5   6
ATOM      6  O   UNL     1       3.099   0.682  -4.568  1.00  0.00    -0.460 OA
BRANCH   6   7
ATOM      7  C   UNL     1       3.404   1.894  -4.148  1.00  0.00     0.331 C 
ATOM      8  O   UNL     1       2.672   2.826  -3.803  1.00  0.00    -0.247 OA
BRANCH   7   9
ATOM      9  C   UNL     1       4.829   1.801  -3.820  1.00  0.00     0.099 C 
ATOM     10  C   UNL     1       5.505   2.924  -3.589  1.00  0.00     0.079 C 
BRANCH  10  11
ATOM     11  C   UNL     1       6.682   2.873  -2.723  1.00  0.00     0.248 C 
ATOM     12  N   UNL     1       6.600   2.508  -1.404  1.00  0.00    -0.322 N 
ATOM     13  H   UNL     1       7.450   2.658  -0.929  1.00  0.00     0.170 HD
ATOM     14  O   UNL     1       7.771   3.228  -3.178  1.00  0.00    -0.270 OA
BRANCH  12  15
ATOM     15  C   UNL     1       5.605   1.969  -0.546  1.00  0.00     0.043 A 
ATOM     16  C   UNL     1       3.469   0.851  -0.132  1.00  0.00     0.046 A 
ATOM     17  C   UNL     1       4.261   1.774  -0.844  1.00  0.00     0.052 A 
ATOM     18  C   UNL     1       3.992   0.220   1.000  1.00  0.00    -0.027 A 
ATOM     19  C   UNL     1       5.251   0.628   1.457  1.00  0.00     0.008 A 
ATOM     20  C   UNL     1       3.354  -0.977   1.654  1.00  0.00     0.046 C 
ATOM     21  C   UNL     1       6.057   1.467   0.677  1.00  0.00     0.026 A 
BRANCH  16  22
ATOM     22  N   UNL     1       2.524   0.168  -0.902  1.00  0.00    -0.326 N 
ATOM     23  C   UNL     1       1.205  -0.118  -0.712  1.00  0.00     0.224 C 
ATOM     24  O   UNL     1       0.763  -1.202  -1.099  1.00  0.00    -0.275 OA
ATOM     25  H   UNL     1       2.883  -0.176  -1.752  1.00  0.00     0.169 HD
BRANCH  23  26
ATOM     26  C   UNL     1       0.315   0.938  -0.141  1.00  0.00     0.097 C 
ATOM     27  C   UNL     1       0.211   0.788   1.354  1.00  0.00     0.014 C 
ENDBRANCH  23  26
ENDBRANCH  16  22
ENDBRANCH  12  15
ENDBRANCH  10  11
ENDBRANCH   7   9
ENDBRANCH   6   7
ENDBRANCH   5   6
ENDBRANCH   4   5
ENDBRANCH   3   4
ENDBRANCH   2   3
ENDBRANCH   1   2
BRANCH   1  28
ATOM     28  O   UNL     1       6.020  -1.610  -4.898  1.00  0.00    -0.377 OA
BRANCH  28  29
ATOM     29  C   UNL     1       5.954  -2.730  -5.795  1.00  0.00     0.188 C 
BRANCH  29  30
ATOM     30  C   UNL     1       6.482  -4.082  -5.307  1.00  0.00     0.188 C 
BRANCH  30  31
ATOM     31  O   UNL     1       5.549  -4.593  -4.353  1.00  0.00    -0.376 OA
BRANCH  31  32
ATOM     32  C   UNL     1       6.028  -5.581  -3.455  1.00  0.00     0.202 C 
BRANCH  32  33
ATOM     33  C   UNL     1       6.381  -6.910  -4.125  1.00  0.00     0.261 C 
BRANCH  33  34
ATOM     34  O   UNL     1       5.182  -7.581  -4.554  1.00  0.00    -0.460 OA
BRANCH  34  35
ATOM     35  C   UNL     1       5.030  -7.638  -5.905  1.00  0.00     0.338 C 
ATOM     36  O   UNL     1       5.673  -8.382  -6.631  1.00  0.00    -0.246 OA
BRANCH  35  37
ATOM     37  C   UNL     1       4.018  -6.646  -6.351  1.00  0.00     0.060 A 
ATOM     38  C   UNL     1       3.970  -6.221  -7.687  1.00  0.00     0.016 A 
ATOM     39  C   UNL     1       3.238  -6.003  -5.394  1.00  0.00     0.016 A 
ATOM     40  C   UNL     1       3.209  -5.099  -8.048  1.00  0.00     0.010 A 
ATOM     41  C   UNL     1       2.577  -4.842  -5.737  1.00  0.00     0.010 A 
ATOM     42  C   UNL     1       2.535  -4.378  -7.065  1.00  0.00    -0.014 A 
BRANCH  42  43
ATOM     43  C   UNL     1       1.890  -3.065  -7.261  1.00  0.00     0.031 A 
ATOM     44  C   UNL     1       0.615  -2.755  -6.482  1.00  0.00     0.074 A 
ATOM     45  C   UNL     1       2.696  -2.058  -7.677  1.00  0.00     0.049 A 
ATOM     46  N   UNL     1       0.104  -1.590  -6.233  1.00  0.00    -0.248 NA
ATOM     47  C   UNL     1      -0.230  -3.833  -5.937  1.00  0.00     0.031 C 
ATOM     48  C   UNL     1       3.015  -0.947  -6.820  1.00  0.00     0.029 A 
ATOM     49  N   UNL     1       3.664  -1.898  -8.651  1.00  0.00    -0.354 N 
ATOM     50  C   UNL     1      -0.927  -1.746  -5.304  1.00  0.00     0.074 A 
ATOM     51  C   UNL     1      -1.139  -3.168  -5.218  1.00  0.00     0.031 C 
ATOM     52  C   UNL     1       3.831  -0.055  -7.370  1.00  0.00     0.029 A 
ATOM     53  C   UNL     1       4.036  -0.528  -8.689  1.00  0.00     0.049 A 
ATOM     54  H   UNL     1       4.033  -2.612  -9.220  1.00  0.00     0.167 HD
ATOM     55  C   UNL     1      -1.441  -0.687  -4.603  1.00  0.00     0.031 A 
ATOM     56  C   UNL     1       3.839   0.259  -9.773  1.00  0.00     0.031 A 
ATOM     57  C   UNL     1      -0.944   0.617  -5.069  1.00  0.00     0.049 A 
ATOM     58  C   UNL     1       2.760   1.318  -9.577  1.00  0.00     0.074 A 
ATOM     59  C   UNL     1      -0.494   1.752  -4.415  1.00  0.00     0.029 A 
ATOM     60  N   UNL     1      -0.713   0.845  -6.428  1.00  0.00    -0.354 N 
ATOM     61  N   UNL     1       1.859   1.322  -8.614  1.00  0.00    -0.248 NA
ATOM     62  C   UNL     1       2.632   2.486 -10.441  1.00  0.00     0.031 C 
ATOM     63  C   UNL     1       0.083   2.618  -5.378  1.00  0.00     0.029 A 
ATOM     64  C   UNL     1      -0.100   2.060  -6.632  1.00  0.00     0.049 A 
ATOM     65  H   UNL     1      -0.958   0.218  -7.146  1.00  0.00     0.167 HD
ATOM     66  C   UNL     1       1.018   2.411  -8.757  1.00  0.00     0.074 A 
ATOM     67  C   UNL     1       1.567   3.110  -9.907  1.00  0.00     0.031 C 
ATOM     68  C   UNL     1      -0.062   2.676  -7.952  1.00  0.00     0.031 A 
BRANCH  55  69
ATOM     69  C   UNL     1      -2.280  -0.790  -3.309  1.00  0.00    -0.014 A 
ATOM     70  C   UNL     1      -2.901   0.371  -2.782  1.00  0.00     0.010 A 
ATOM     71  C   UNL     1      -2.361  -1.933  -2.485  1.00  0.00     0.010 A 
ATOM     72  C   UNL     1      -3.479   0.415  -1.496  1.00  0.00     0.020 A 
ATOM     73  C   UNL     1      -2.986  -1.918  -1.216  1.00  0.00     0.020 A 
ATOM     74  C   UNL     1      -3.500  -0.729  -0.708  1.00  0.00     0.054 A 
BRANCH  74  75
ATOM     75  S   UNL     1      -4.183  -0.659   0.977  1.00  0.00     0.124 S 
ATOM     76  O   UNL     1      -3.055  -0.146   1.751  1.00  0.00    -0.237 OA
ATOM     77  O   UNL     1      -5.314   0.255   0.843  1.00  0.00    -0.237 OA
ATOM     78  O   UNL     1      -4.547  -2.047   1.258  1.00  0.00    -0.744 OA
ENDBRANCH  74  75
ENDBRANCH  55  69
BRANCH  56  79
ATOM     79  C   UNL     1       4.512  -0.374 -10.959  1.00  0.00    -0.014 A 
ATOM     80  C   UNL     1       5.930  -0.393 -10.819  1.00  0.00     0.010 A 
ATOM     81  C   UNL     1       3.892  -1.525 -11.492  1.00  0.00     0.010 A 
ATOM     82  C   UNL     1       6.618  -1.616 -10.797  1.00  0.00     0.020 A 
ATOM     83  C   UNL     1       4.587  -2.753 -11.485  1.00  0.00     0.020 A 
ATOM     84  C   UNL     1       5.913  -2.797 -11.038  1.00  0.00     0.054 A 
BRANCH  84  85
ATOM     85  S   UNL     1       6.620  -4.355 -10.392  1.00  0.00     0.124 S 
ATOM     86  O   UNL     1       7.834  -4.507 -11.185  1.00  0.00    -0.237 OA
ATOM     87  O   UNL     1       6.818  -4.032  -8.978  1.00  0.00    -0.237 OA
ATOM     88  O   UNL     1       5.571  -5.339 -10.644  1.00  0.00    -0.744 OA
ENDBRANCH  84  85
ENDBRANCH  56  79
BRANCH  68  89
ATOM     89  C   UNL     1      -1.258   3.601  -8.230  1.00  0.00    -0.014 A 
ATOM     90  C   UNL     1      -1.385   4.506  -9.286  1.00  0.00     0.010 A 
ATOM     91  C   UNL     1      -2.398   3.493  -7.376  1.00  0.00     0.010 A 
ATOM     92  C   UNL     1      -2.573   5.237  -9.487  1.00  0.00     0.020 A 
ATOM     93  C   UNL     1      -3.582   4.208  -7.561  1.00  0.00     0.020 A 
ATOM     94  C   UNL     1      -3.666   5.074  -8.633  1.00  0.00     0.054 A 
BRANCH  94  95
ATOM     95  S   UNL     1      -5.206   5.952  -8.980  1.00  0.00     0.124 S 
ATOM     96  O   UNL     1      -4.805   7.350  -8.838  1.00  0.00    -0.237 OA
ATOM     97  O   UNL     1      -5.506   5.522 -10.344  1.00  0.00    -0.237 OA
ATOM     98  O   UNL     1      -6.133   5.464  -7.962  1.00  0.00    -0.744 OA
ENDBRANCH  94  95
ENDBRANCH  68  89
ENDBRANCH  42  43
ENDBRANCH  35  37
ENDBRANCH  34  35
ENDBRANCH  33  34
ENDBRANCH  32  33
ENDBRANCH  31  32
ENDBRANCH  30  31
ENDBRANCH  29  30
ENDBRANCH  28  29
ENDBRANCH   1  28
TORSDOF 27
