REMARK SMILES Cc1ccc(-c2cc(Cl)cc3c2O[C@H](C(F)(F)F)C(C(=O)OCCOCCOCCOCCOC(=O)c2ccc(-c4c5nc(c(-c6ccc(S(=O)(=O)[O-])cc6)c6ccc([nH]6)c(-c6ccc(S(=O)(=O)[O-])cc6)c6nc(c(-c7ccc(S(=O)(=O)[O-])cc7)c7ccc4[nH]7)C=C6)C=C5)cc2)=C3)cc1F
REMARK SMILES IDX 29 1 28 2 27 3 26 4 25 5 24 6 23 7 22 8 20 9 21 10 19 11
REMARK SMILES IDX 6 12 7 13 12 14 8 15 11 16 13 17 9 18 10 19 97 20 14 21 5 22
REMARK SMILES IDX 1 23 2 24 3 25 99 26 4 27 98 28 100 29 15 30 16 31 17 32
REMARK SMILES IDX 18 33 30 34 31 35 32 36 33 37 34 38 35 39 36 40 37 41 38 42
REMARK SMILES IDX 96 43 39 44 95 45 40 46 41 47 42 48 89 49 43 50 94 51 88 52
REMARK SMILES IDX 90 53 44 54 93 55 87 56 86 57 45 59 75 60 56 61 74 62 57 63
REMARK SMILES IDX 60 64 73 65 91 66 58 67 59 68 72 70 92 71 61 72 46 73 47 74
REMARK SMILES IDX 55 75 48 76 54 77 49 78 50 79 51 80 52 81 53 82 76 83 77 84
REMARK SMILES IDX 85 85 78 86 84 87 79 88 80 89 81 90 82 91 83 92 62 93 63 94
REMARK SMILES IDX 71 95 64 96 70 97 65 98 66 99 67 100 68 101 69 102
REMARK H PARENT 90 58 60 69
REMARK Flexibility Score: inf
ROOT
ATOM      1  C   UNL     1      -4.260  -4.101   7.855  1.00  0.00     0.188 C 
ENDROOT
BRANCH   1   2
ATOM      2  O   UNL     1      -3.840  -4.239   6.497  1.00  0.00    -0.377 OA
BRANCH   2   3
ATOM      3  C   UNL     1      -4.846  -4.222   5.498  1.00  0.00     0.188 C 
BRANCH   3   4
ATOM      4  C   UNL     1      -5.483  -5.607   5.280  1.00  0.00     0.188 C 
BRANCH   4   5
ATOM      5  O   UNL     1      -5.162  -6.536   6.310  1.00  0.00    -0.376 OA
BRANCH   5   6
ATOM      6  C   UNL     1      -4.129  -7.482   6.058  1.00  0.00     0.202 C 
BRANCH   6   7
ATOM      7  C   UNL     1      -2.705  -6.972   5.780  1.00  0.00     0.261 C 
BRANCH   7   8
ATOM      8  O   UNL     1      -2.585  -6.009   4.722  1.00  0.00    -0.460 OA
BRANCH   8   9
ATOM      9  C   UNL     1      -2.871  -6.400   3.468  1.00  0.00     0.338 C 
ATOM     10  O   UNL     1      -3.193  -7.516   3.101  1.00  0.00    -0.246 OA
BRANCH   9  11
ATOM     11  C   UNL     1      -2.913  -5.186   2.620  1.00  0.00     0.087 C 
ATOM     12  C   UNL     1      -2.947  -1.831   0.101  1.00  0.00     0.026 A 
ATOM     13  C   UNL     1      -3.990  -1.711  -0.834  1.00  0.00     0.033 A 
ATOM     14  C   UNL     1      -2.989  -2.917   1.007  1.00  0.00     0.135 A 
ATOM     15  C   UNL     1      -5.026  -2.643  -0.870  1.00  0.00     0.042 A 
ATOM     16  C   UNL     1      -3.996  -3.886   0.923  1.00  0.00     0.019 A 
ATOM     17  O   UNL     1      -2.015  -2.957   1.968  1.00  0.00    -0.475 OA
ATOM     18  Cl  UNL     1      -6.290  -2.469  -2.026  1.00  0.00    -0.084 Cl
ATOM     19  C   UNL     1      -5.030  -3.732  -0.004  1.00  0.00     0.032 A 
ATOM     20  C   UNL     1      -3.931  -5.076   1.757  1.00  0.00     0.027 C 
ATOM     21  C   UNL     1      -1.875  -4.114   2.830  1.00  0.00     0.316 C 
BRANCH  12  22
ATOM     22  C   UNL     1      -1.813  -0.883   0.066  1.00  0.00    -0.012 A 
ATOM     23  C   UNL     1       1.568   1.827  -0.025  1.00  0.00     0.047 C 
ATOM     24  C   UNL     1       0.385   0.909  -0.012  1.00  0.00    -0.015 A 
ATOM     25  C   UNL     1      -0.925   1.395   0.052  1.00  0.00     0.007 A 
ATOM     26  C   UNL     1       0.581  -0.470  -0.046  1.00  0.00     0.126 A 
ATOM     27  C   UNL     1      -2.010   0.509   0.090  1.00  0.00     0.009 A 
ATOM     28  C   UNL     1      -0.492  -1.354  -0.015  1.00  0.00     0.048 A 
ATOM     29  F   UNL     1       1.824  -0.965  -0.117  1.00  0.00    -0.207 F 
ENDBRANCH  12  22
BRANCH  21  30
ATOM     30  C   UNL     1      -0.443  -4.644   2.676  1.00  0.00     0.430 C 
ATOM     31  F   UNL     1       0.464  -3.651   2.830  1.00  0.00    -0.167 F 
ATOM     32  F   UNL     1      -0.150  -5.597   3.587  1.00  0.00    -0.167 F 
ATOM     33  F   UNL     1      -0.251  -5.182   1.448  1.00  0.00    -0.167 F 
ENDBRANCH  21  30
ENDBRANCH   9  11
ENDBRANCH   8   9
ENDBRANCH   7   8
ENDBRANCH   6   7
ENDBRANCH   5   6
ENDBRANCH   4   5
ENDBRANCH   3   4
ENDBRANCH   2   3
ENDBRANCH   1   2
BRANCH   1  34
ATOM     34  C   UNL     1      -5.671  -4.539   8.311  1.00  0.00     0.188 C 
BRANCH  34  35
ATOM     35  O   UNL     1      -6.725  -4.049   7.483  1.00  0.00    -0.376 OA
BRANCH  35  36
ATOM     36  C   UNL     1      -7.542  -3.022   8.029  1.00  0.00     0.202 C 
BRANCH  36  37
ATOM     37  C   UNL     1      -6.897  -1.632   8.004  1.00  0.00     0.261 C 
BRANCH  37  38
ATOM     38  O   UNL     1      -5.707  -1.495   8.795  1.00  0.00    -0.460 OA
BRANCH  38  39
ATOM     39  C   UNL     1      -5.794  -1.756  10.118  1.00  0.00     0.338 C 
ATOM     40  O   UNL     1      -6.798  -2.045  10.745  1.00  0.00    -0.246 OA
BRANCH  39  41
ATOM     41  C   UNL     1      -4.414  -1.833  10.644  1.00  0.00     0.060 A 
ATOM     42  C   UNL     1      -3.500  -0.811  10.375  1.00  0.00     0.016 A 
ATOM     43  C   UNL     1      -4.024  -2.958  11.380  1.00  0.00     0.016 A 
ATOM     44  C   UNL     1      -2.201  -0.901  10.874  1.00  0.00     0.010 A 
ATOM     45  C   UNL     1      -2.720  -3.049  11.874  1.00  0.00     0.010 A 
ATOM     46  C   UNL     1      -1.808  -2.009  11.646  1.00  0.00    -0.014 A 
BRANCH  46  47
ATOM     47  C   UNL     1      -0.515  -1.969  12.371  1.00  0.00     0.031 A 
ATOM     48  C   UNL     1       0.703  -2.686  11.873  1.00  0.00     0.074 A 
ATOM     49  C   UNL     1      -0.459  -1.233  13.499  1.00  0.00     0.049 A 
ATOM     50  N   UNL     1       1.919  -2.650  12.354  1.00  0.00    -0.248 NA
ATOM     51  C   UNL     1       0.547  -3.548  10.691  1.00  0.00     0.031 C 
ATOM     52  C   UNL     1      -1.588  -0.492  14.068  1.00  0.00     0.029 A 
ATOM     53  N   UNL     1       0.581  -0.962  14.351  1.00  0.00    -0.354 N 
ATOM     54  C   UNL     1       2.684  -3.455  11.520  1.00  0.00     0.074 A 
ATOM     55  C   UNL     1       1.784  -4.007  10.529  1.00  0.00     0.031 C 
ATOM     56  C   UNL     1      -1.169   0.183  15.148  1.00  0.00     0.029 A 
ATOM     57  C   UNL     1       0.246  -0.101  15.370  1.00  0.00     0.049 A 
ATOM     58  H   UNL     1       1.481  -1.346  14.244  1.00  0.00     0.167 HD
ATOM     59  C   UNL     1       4.018  -3.687  11.571  1.00  0.00     0.031 A 
ATOM     60  C   UNL     1       0.991   0.418  16.366  1.00  0.00     0.031 A 
ATOM     61  C   UNL     1       4.899  -3.143  12.576  1.00  0.00     0.049 A 
ATOM     62  C   UNL     1       2.454   0.080  16.436  1.00  0.00     0.074 A 
ATOM     63  C   UNL     1       6.269  -3.311  12.691  1.00  0.00     0.029 A 
ATOM     64  N   UNL     1       4.510  -2.333  13.632  1.00  0.00    -0.354 N 
ATOM     65  N   UNL     1       3.170  -0.637  15.604  1.00  0.00    -0.248 NA
ATOM     66  C   UNL     1       3.213   0.631  17.567  1.00  0.00     0.031 C 
ATOM     67  C   UNL     1       6.696  -2.663  13.851  1.00  0.00     0.029 A 
ATOM     68  C   UNL     1       5.607  -2.022  14.419  1.00  0.00     0.049 A 
ATOM     69  H   UNL     1       3.590  -2.024  13.798  1.00  0.00     0.167 HD
ATOM     70  C   UNL     1       4.470  -0.600  16.097  1.00  0.00     0.074 A 
ATOM     71  C   UNL     1       4.444   0.222  17.288  1.00  0.00     0.031 C 
ATOM     72  C   UNL     1       5.580  -1.197  15.602  1.00  0.00     0.031 A 
BRANCH  59  73
ATOM     73  C   UNL     1       4.652  -4.538  10.499  1.00  0.00    -0.014 A 
ATOM     74  C   UNL     1       5.239  -5.772  10.835  1.00  0.00     0.010 A 
ATOM     75  C   UNL     1       4.843  -4.019   9.206  1.00  0.00     0.010 A 
ATOM     76  C   UNL     1       6.053  -6.444   9.917  1.00  0.00     0.020 A 
ATOM     77  C   UNL     1       5.636  -4.701   8.277  1.00  0.00     0.020 A 
ATOM     78  C   UNL     1       6.261  -5.893   8.650  1.00  0.00     0.054 A 
BRANCH  78  79
ATOM     79  S   UNL     1       7.393  -6.734   7.507  1.00  0.00     0.124 S 
ATOM     80  O   UNL     1       8.694  -6.479   8.117  1.00  0.00    -0.237 OA
ATOM     81  O   UNL     1       6.928  -8.118   7.564  1.00  0.00    -0.237 OA
ATOM     82  O   UNL     1       7.157  -6.059   6.232  1.00  0.00    -0.744 OA
ENDBRANCH  78  79
ENDBRANCH  59  73
BRANCH  60  83
ATOM     83  C   UNL     1       0.367   1.356  17.338  1.00  0.00    -0.014 A 
ATOM     84  C   UNL     1      -0.627   0.909  18.229  1.00  0.00     0.010 A 
ATOM     85  C   UNL     1       0.727   2.715  17.342  1.00  0.00     0.010 A 
ATOM     86  C   UNL     1      -1.277   1.809  19.076  1.00  0.00     0.020 A 
ATOM     87  C   UNL     1       0.102   3.613  18.213  1.00  0.00     0.020 A 
ATOM     88  C   UNL     1      -0.912   3.158  19.058  1.00  0.00     0.054 A 
BRANCH  88  89
ATOM     89  S   UNL     1      -1.777   4.310  20.160  1.00  0.00     0.124 S 
ATOM     90  O   UNL     1      -3.048   4.493  19.463  1.00  0.00    -0.237 OA
ATOM     91  O   UNL     1      -1.847   3.562  21.412  1.00  0.00    -0.237 OA
ATOM     92  O   UNL     1      -0.902   5.480  20.184  1.00  0.00    -0.744 OA
ENDBRANCH  88  89
ENDBRANCH  60  83
BRANCH  72  93
ATOM     93  C   UNL     1       6.885  -0.993  16.329  1.00  0.00    -0.014 A 
ATOM     94  C   UNL     1       7.931  -0.287  15.704  1.00  0.00     0.010 A 
ATOM     95  C   UNL     1       7.125  -1.611  17.569  1.00  0.00     0.010 A 
ATOM     96  C   UNL     1       9.202  -0.239  16.282  1.00  0.00     0.020 A 
ATOM     97  C   UNL     1       8.387  -1.539  18.166  1.00  0.00     0.020 A 
ATOM     98  C   UNL     1       9.424  -0.877  17.505  1.00  0.00     0.054 A 
BRANCH  98  99
ATOM     99  S   UNL     1      11.092  -0.845  18.218  1.00  0.00     0.124 S 
ATOM    100  O   UNL     1      11.801  -1.813  17.387  1.00  0.00    -0.237 OA
ATOM    101  O   UNL     1      11.491   0.550  18.040  1.00  0.00    -0.237 OA
ATOM    102  O   UNL     1      10.880  -1.251  19.605  1.00  0.00    -0.744 OA
ENDBRANCH  98  99
ENDBRANCH  72  93
ENDBRANCH  46  47
ENDBRANCH  39  41
ENDBRANCH  38  39
ENDBRANCH  37  38
ENDBRANCH  36  37
ENDBRANCH  35  36
ENDBRANCH  34  35
ENDBRANCH   1  34
TORSDOF 25
