REMARK SMILES CC(C)CCN(C(=O)N[C@H](C(=O)OCCOCCOCCOCCOC(=O)c1ccc(-c2c3nc(c(-c4ccc(S(=O)(=O)[O-])cc4)c4ccc([nH]4)c(-c4ccc(S(=O)(=O)[O-])cc4)c4nc(c(-c5ccc(S(=O)(=O)[O-])cc5)c5ccc2[nH]5)C=C4)C=C3)cc1)[C@H](C)O)C1CCCC1
REMARK SMILES IDX 18 1 17 2 16 3 15 4 14 5 13 6 11 7 12 8 10 9 9 10 7 11 8 12
REMARK SMILES IDX 6 14 5 15 4 16 2 17 1 18 3 19 91 20 92 21 95 22 93 23 94 24
REMARK SMILES IDX 88 25 89 26 90 27 19 29 20 30 21 31 22 32 23 33 24 34 25 35
REMARK SMILES IDX 26 36 27 37 28 38 29 39 87 40 30 41 86 42 31 43 32 44 33 45
REMARK SMILES IDX 80 46 34 47 85 48 79 49 81 50 35 51 84 52 78 53 77 54 36 56
REMARK SMILES IDX 66 57 47 58 65 59 48 60 51 61 64 62 82 63 49 64 50 65 63 67
REMARK SMILES IDX 83 68 52 69 37 70 38 71 46 72 39 73 45 74 40 75 41 76 42 77
REMARK SMILES IDX 43 78 44 79 67 80 68 81 76 82 69 83 75 84 70 85 71 86 72 87
REMARK SMILES IDX 73 88 74 89 53 90 54 91 62 92 55 93 61 94 56 95 57 96 58 97
REMARK SMILES IDX 59 98 60 99
REMARK H PARENT 9 13 90 28 81 55 51 66
REMARK Flexibility Score: inf
ROOT
ATOM      1  C   UNL     1      -3.825  -1.368  -5.477  1.00  0.00     0.188 C 
ENDROOT
BRANCH   1   2
ATOM      2  C   UNL     1      -5.320  -1.651  -5.210  1.00  0.00     0.188 C 
BRANCH   2   3
ATOM      3  O   UNL     1      -6.282  -1.393  -6.215  1.00  0.00    -0.376 OA
BRANCH   3   4
ATOM      4  C   UNL     1      -6.584  -0.113  -6.737  1.00  0.00     0.202 C 
BRANCH   4   5
ATOM      5  C   UNL     1      -6.066   1.225  -6.208  1.00  0.00     0.261 C 
BRANCH   5   6
ATOM      6  O   UNL     1      -5.073   1.190  -5.196  1.00  0.00    -0.462 OA
BRANCH   6   7
ATOM      7  C   UNL     1      -5.515   1.085  -3.918  1.00  0.00     0.331 C 
ATOM      8  O   UNL     1      -6.684   0.894  -3.608  1.00  0.00    -0.250 OA
BRANCH   7   9
ATOM      9  C   UNL     1      -4.328   1.183  -2.937  1.00  0.00     0.222 C 
BRANCH   9  10
ATOM     10  N   UNL     1      -3.148   1.932  -3.430  1.00  0.00    -0.322 N 
ATOM     11  C   UNL     1      -2.816   3.190  -3.800  1.00  0.00     0.318 C 
ATOM     12  O   UNL     1      -1.596   3.354  -3.867  1.00  0.00    -0.249 OA
ATOM     13  H   UNL     1      -2.372   1.332  -3.515  1.00  0.00     0.166 HD
BRANCH  11  14
ATOM     14  N   UNL     1      -3.737   4.170  -4.104  1.00  0.00    -0.322 N 
BRANCH  14  15
ATOM     15  C   UNL     1      -5.176   3.952  -4.074  1.00  0.00     0.122 C 
BRANCH  15  16
ATOM     16  C   UNL     1      -6.169   4.990  -3.576  1.00  0.00     0.024 C 
BRANCH  16  17
ATOM     17  C   UNL     1      -6.738   5.975  -4.604  1.00  0.00    -0.016 C 
ATOM     18  C   UNL     1      -7.433   5.292  -5.785  1.00  0.00     0.007 C 
ATOM     19  C   UNL     1      -7.730   6.883  -3.874  1.00  0.00     0.007 C 
ENDBRANCH  16  17
ENDBRANCH  15  16
ENDBRANCH  14  15
BRANCH  14  20
ATOM     20  C   UNL     1      -3.323   5.400  -4.802  1.00  0.00     0.087 C 
ATOM     21  C   UNL     1      -3.329   6.654  -3.931  1.00  0.00     0.025 C 
ATOM     22  C   UNL     1      -1.951   5.538  -5.485  1.00  0.00     0.025 C 
ATOM     23  C   UNL     1      -2.893   7.722  -4.924  1.00  0.00     0.002 C 
ATOM     24  C   UNL     1      -1.842   7.038  -5.798  1.00  0.00     0.002 C 
ENDBRANCH  14  20
ENDBRANCH  11  14
ENDBRANCH   9  10
BRANCH   9  25
ATOM     25  C   UNL     1      -4.806   1.509  -1.502  1.00  0.00     0.145 C 
ATOM     26  C   UNL     1      -3.794   2.240  -0.632  1.00  0.00     0.041 C 
BRANCH  25  27
ATOM     27  O   UNL     1      -5.131   0.282  -0.817  1.00  0.00    -0.391 OA
ATOM     28  H   UNL     1      -4.332  -0.260  -0.727  1.00  0.00     0.211 HD
ENDBRANCH  25  27
ENDBRANCH   9  25
ENDBRANCH   7   9
ENDBRANCH   6   7
ENDBRANCH   5   6
ENDBRANCH   4   5
ENDBRANCH   3   4
ENDBRANCH   2   3
ENDBRANCH   1   2
BRANCH   1  29
ATOM     29  O   UNL     1      -3.544  -0.490  -6.544  1.00  0.00    -0.377 OA
BRANCH  29  30
ATOM     30  C   UNL     1      -3.599  -0.980  -7.877  1.00  0.00     0.188 C 
BRANCH  30  31
ATOM     31  C   UNL     1      -4.316  -2.306  -8.226  1.00  0.00     0.188 C 
BRANCH  31  32
ATOM     32  O   UNL     1      -4.331  -3.273  -7.190  1.00  0.00    -0.376 OA
BRANCH  32  33
ATOM     33  C   UNL     1      -3.464  -4.388  -7.247  1.00  0.00     0.202 C 
BRANCH  33  34
ATOM     34  C   UNL     1      -1.953  -4.123  -7.183  1.00  0.00     0.261 C 
BRANCH  34  35
ATOM     35  O   UNL     1      -1.449  -3.152  -8.107  1.00  0.00    -0.460 OA
BRANCH  35  36
ATOM     36  C   UNL     1      -1.554  -3.464  -9.415  1.00  0.00     0.338 C 
ATOM     37  O   UNL     1      -2.022  -4.488  -9.889  1.00  0.00    -0.246 OA
BRANCH  36  38
ATOM     38  C   UNL     1      -1.188  -2.271 -10.199  1.00  0.00     0.060 A 
ATOM     39  C   UNL     1      -2.123  -1.742 -11.098  1.00  0.00     0.016 A 
ATOM     40  C   UNL     1       0.075  -1.691 -10.058  1.00  0.00     0.016 A 
ATOM     41  C   UNL     1      -1.770  -0.674 -11.917  1.00  0.00     0.010 A 
ATOM     42  C   UNL     1       0.438  -0.638 -10.899  1.00  0.00     0.010 A 
ATOM     43  C   UNL     1      -0.465  -0.170 -11.870  1.00  0.00    -0.014 A 
BRANCH  43  44
ATOM     44  C   UNL     1       0.035   0.606 -13.029  1.00  0.00     0.031 A 
ATOM     45  C   UNL     1       0.773  -0.154 -14.103  1.00  0.00     0.074 A 
ATOM     46  C   UNL     1      -0.219   1.918 -13.169  1.00  0.00     0.049 A 
ATOM     47  N   UNL     1       1.320   0.284 -15.206  1.00  0.00    -0.248 NA
ATOM     48  C   UNL     1       0.909  -1.609 -13.903  1.00  0.00     0.031 C 
ATOM     49  C   UNL     1      -0.984   2.742 -12.234  1.00  0.00     0.029 A 
ATOM     50  N   UNL     1       0.140   2.786 -14.168  1.00  0.00    -0.354 N 
ATOM     51  C   UNL     1       1.857  -0.837 -15.829  1.00  0.00     0.074 A 
ATOM     52  C   UNL     1       1.616  -1.967 -14.963  1.00  0.00     0.031 C 
ATOM     53  C   UNL     1      -1.034   4.001 -12.706  1.00  0.00     0.029 A 
ATOM     54  C   UNL     1      -0.279   4.077 -13.955  1.00  0.00     0.049 A 
ATOM     55  H   UNL     1       0.650   2.510 -14.964  1.00  0.00     0.167 HD
ATOM     56  C   UNL     1       2.481  -0.924 -17.026  1.00  0.00     0.031 A 
ATOM     57  C   UNL     1      -0.060   5.191 -14.683  1.00  0.00     0.031 A 
ATOM     58  C   UNL     1       2.736   0.205 -17.878  1.00  0.00     0.049 A 
ATOM     59  C   UNL     1       0.735   5.083 -15.963  1.00  0.00     0.074 A 
ATOM     60  C   UNL     1       3.390   0.235 -19.096  1.00  0.00     0.029 A 
ATOM     61  N   UNL     1       2.342   1.505 -17.601  1.00  0.00    -0.354 N 
ATOM     62  N   UNL     1       1.250   4.019 -16.534  1.00  0.00    -0.248 NA
ATOM     63  C   UNL     1       0.962   6.331 -16.706  1.00  0.00     0.031 C 
ATOM     64  C   UNL     1       3.435   1.562 -19.533  1.00  0.00     0.029 A 
ATOM     65  C   UNL     1       2.744   2.347 -18.623  1.00  0.00     0.049 A 
ATOM     66  H   UNL     1       1.850   1.788 -16.796  1.00  0.00     0.167 HD
ATOM     67  C   UNL     1       1.812   4.464 -17.729  1.00  0.00     0.074 A 
ATOM     68  C   UNL     1       1.563   5.888 -17.800  1.00  0.00     0.031 C 
ATOM     69  C   UNL     1       2.468   3.759 -18.686  1.00  0.00     0.031 A 
BRANCH  56  70
ATOM     70  C   UNL     1       2.944  -2.285 -17.473  1.00  0.00    -0.014 A 
ATOM     71  C   UNL     1       2.019  -3.276 -17.853  1.00  0.00     0.010 A 
ATOM     72  C   UNL     1       4.319  -2.566 -17.552  1.00  0.00     0.010 A 
ATOM     73  C   UNL     1       2.462  -4.530 -18.282  1.00  0.00     0.020 A 
ATOM     74  C   UNL     1       4.767  -3.809 -18.010  1.00  0.00     0.020 A 
ATOM     75  C   UNL     1       3.834  -4.786 -18.362  1.00  0.00     0.054 A 
BRANCH  75  76
ATOM     76  S   UNL     1       4.378  -6.406 -18.970  1.00  0.00     0.124 S 
ATOM     77  O   UNL     1       3.992  -7.287 -17.871  1.00  0.00    -0.237 OA
ATOM     78  O   UNL     1       3.606  -6.559 -20.200  1.00  0.00    -0.237 OA
ATOM     79  O   UNL     1       5.817  -6.241 -19.158  1.00  0.00    -0.744 OA
ENDBRANCH  75  76
ENDBRANCH  56  70
BRANCH  57  80
ATOM     80  C   UNL     1      -0.579   6.513 -14.229  1.00  0.00    -0.014 A 
ATOM     81  C   UNL     1      -1.537   7.210 -14.987  1.00  0.00     0.010 A 
ATOM     82  C   UNL     1      -0.066   7.113 -13.064  1.00  0.00     0.010 A 
ATOM     83  C   UNL     1      -1.933   8.500 -14.620  1.00  0.00     0.020 A 
ATOM     84  C   UNL     1      -0.486   8.388 -12.673  1.00  0.00     0.020 A 
ATOM     85  C   UNL     1      -1.400   9.083 -13.467  1.00  0.00     0.054 A 
BRANCH  85  86
ATOM     86  S   UNL     1      -1.925  10.758 -13.011  1.00  0.00     0.124 S 
ATOM     87  O   UNL     1      -1.256  11.572 -14.021  1.00  0.00    -0.237 OA
ATOM     88  O   UNL     1      -3.379  10.675 -13.124  1.00  0.00    -0.237 OA
ATOM     89  O   UNL     1      -1.422  10.915 -11.648  1.00  0.00    -0.744 OA
ENDBRANCH  85  86
ENDBRANCH  57  80
BRANCH  69  90
ATOM     90  C   UNL     1       2.882   4.499 -19.933  1.00  0.00    -0.014 A 
ATOM     91  C   UNL     1       3.889   5.480 -19.916  1.00  0.00     0.010 A 
ATOM     92  C   UNL     1       2.259   4.180 -21.154  1.00  0.00     0.010 A 
ATOM     93  C   UNL     1       4.220   6.171 -21.086  1.00  0.00     0.020 A 
ATOM     94  C   UNL     1       2.614   4.840 -22.332  1.00  0.00     0.020 A 
ATOM     95  C   UNL     1       3.576   5.850 -22.285  1.00  0.00     0.054 A 
BRANCH  95  96
ATOM     96  S   UNL     1       4.025   6.757 -23.789  1.00  0.00     0.124 S 
ATOM     97  O   UNL     1       3.420   8.064 -23.548  1.00  0.00    -0.237 OA
ATOM     98  O   UNL     1       5.485   6.725 -23.758  1.00  0.00    -0.237 OA
ATOM     99  O   UNL     1       3.413   5.976 -24.862  1.00  0.00    -0.744 OA
ENDBRANCH  95  96
ENDBRANCH  69  90
ENDBRANCH  43  44
ENDBRANCH  36  38
ENDBRANCH  35  36
ENDBRANCH  34  35
ENDBRANCH  33  34
ENDBRANCH  32  33
ENDBRANCH  31  32
ENDBRANCH  30  31
ENDBRANCH  29  30
ENDBRANCH   1  29
TORSDOF 31
