REMARK SMILES Cc1ccccc1-c1nn(-c2ccccc2)cc1/C=C(\C#N)C(=O)OCCOCCOCCOCCOC(=O)c1ccc(-c2c3nc(c(-c4ccc(S(=O)(=O)[O-])cc4)c4ccc([nH]4)c(-c4ccc(S(=O)(=O)[O-])cc4)c4nc(c(-c5ccc(S(=O)(=O)[O-])cc5)c5ccc2[nH]5)C=C4)C=C3)cc1
REMARK SMILES IDX 32 1 31 2 30 3 29 4 28 5 27 6 26 7 25 8 23 9 24 10 20 11
REMARK SMILES IDX 19 12 18 13 8 14 9 15 10 16 17 17 7 18 1 19 2 20 3 21 4 22
REMARK SMILES IDX 6 23 5 24 11 25 12 26 16 27 13 28 15 29 14 30 21 31 22 32
REMARK SMILES IDX 33 33 34 34 35 35 36 36 37 37 38 38 39 39 40 40 41 41 99 42
REMARK SMILES IDX 42 43 98 44 43 45 44 46 45 47 92 48 46 49 97 50 91 51 93 52
REMARK SMILES IDX 47 53 96 54 90 55 89 56 48 58 78 59 59 60 77 61 60 62 63 63
REMARK SMILES IDX 76 64 94 65 61 66 62 67 75 69 95 70 64 71 49 72 50 73 58 74
REMARK SMILES IDX 51 75 57 76 52 77 53 78 54 79 55 80 56 81 79 82 80 83 88 84
REMARK SMILES IDX 81 85 87 86 82 87 83 88 84 89 85 90 86 91 65 92 66 93 74 94
REMARK SMILES IDX 67 95 73 96 68 97 69 98 70 99 71 100 72 101
REMARK H PARENT 93 57 63 68
REMARK Flexibility Score: inf
ROOT
ATOM      1  C   UNL     1       1.486  -2.300   5.881  1.00  0.00     0.188 C 
ENDROOT
BRANCH   1   2
ATOM      2  O   UNL     1       1.847  -1.288   4.950  1.00  0.00    -0.377 OA
BRANCH   2   3
ATOM      3  C   UNL     1       0.671  -0.665   4.423  1.00  0.00     0.188 C 
BRANCH   3   4
ATOM      4  C   UNL     1      -0.320  -0.104   5.507  1.00  0.00     0.188 C 
BRANCH   4   5
ATOM      5  O   UNL     1      -1.794  -0.554   5.810  1.00  0.00    -0.376 OA
BRANCH   5   6
ATOM      6  C   UNL     1      -3.282   0.240   5.818  1.00  0.00     0.202 C 
BRANCH   6   7
ATOM      7  C   UNL     1      -3.958   1.857   5.208  1.00  0.00     0.261 C 
BRANCH   7   8
ATOM      8  O   UNL     1      -3.176   3.062   4.058  1.00  0.00    -0.459 OA
BRANCH   8   9
ATOM      9  C   UNL     1      -1.835   3.426   3.227  1.00  0.00     0.348 C 
ATOM     10  O   UNL     1      -1.548   4.631   3.183  1.00  0.00    -0.245 OA
BRANCH   9  11
ATOM     11  C   UNL     1      -0.706   2.285   2.404  1.00  0.00     0.138 C 
ATOM     12  C   UNL     1       0.289   3.144   1.959  1.00  0.00     0.039 C 
BRANCH  12  13
ATOM     13  C   UNL     1       1.109   3.244   0.722  1.00  0.00     0.023 A 
ATOM     14  C   UNL     1       1.163   2.652  -0.610  1.00  0.00     0.100 A 
ATOM     15  N   UNL     1       1.876   3.415  -1.443  1.00  0.00    -0.167 NA
ATOM     16  N   UNL     1       2.485   4.325  -0.688  1.00  0.00    -0.240 N 
ATOM     17  C   UNL     1       2.061   4.261   0.620  1.00  0.00     0.123 A 
BRANCH  14  18
ATOM     18  C   UNL     1       0.635   1.466  -1.282  1.00  0.00     0.006 A 
ATOM     19  C   UNL     1       2.653   0.061  -0.543  1.00  0.00     0.045 C 
ATOM     20  C   UNL     1       1.363   0.247  -1.295  1.00  0.00    -0.042 A 
ATOM     21  C   UNL     1       0.780  -0.886  -1.896  1.00  0.00     0.004 A 
ATOM     22  C   UNL     1      -0.473  -0.805  -2.509  1.00  0.00     0.000 A 
ATOM     23  C   UNL     1      -0.585   1.554  -1.979  1.00  0.00     0.011 A 
ATOM     24  C   UNL     1      -1.144   0.416  -2.570  1.00  0.00     0.001 A 
ENDBRANCH  14  18
BRANCH  16  25
ATOM     25  C   UNL     1       3.468   5.137  -1.309  1.00  0.00     0.065 A 
ATOM     26  C   UNL     1       3.386   5.340  -2.702  1.00  0.00     0.028 A 
ATOM     27  C   UNL     1       4.553   5.641  -0.595  1.00  0.00     0.028 A 
ATOM     28  C   UNL     1       4.386   6.035  -3.377  1.00  0.00     0.002 A 
ATOM     29  C   UNL     1       5.574   6.303  -1.288  1.00  0.00     0.002 A 
ATOM     30  C   UNL     1       5.490   6.501  -2.670  1.00  0.00     0.000 A 
ENDBRANCH  16  25
ENDBRANCH  12  13
BRANCH  11  31
ATOM     31  C   UNL     1      -0.714   1.123   1.424  1.00  0.00     0.107 C 
ATOM     32  N   UNL     1      -0.720   0.160   0.611  1.00  0.00    -0.192 NA
ENDBRANCH  11  31
ENDBRANCH   9  11
ENDBRANCH   8   9
ENDBRANCH   7   8
ENDBRANCH   6   7
ENDBRANCH   5   6
ENDBRANCH   4   5
ENDBRANCH   3   4
ENDBRANCH   2   3
ENDBRANCH   1   2
BRANCH   1  33
ATOM     33  C   UNL     1       1.554  -1.821   7.338  1.00  0.00     0.188 C 
BRANCH  33  34
ATOM     34  O   UNL     1       1.829  -0.426   7.456  1.00  0.00    -0.376 OA
BRANCH  34  35
ATOM     35  C   UNL     1       3.155  -0.002   7.647  1.00  0.00     0.202 C 
BRANCH  35  36
ATOM     36  C   UNL     1       3.485  -0.066   9.139  1.00  0.00     0.261 C 
BRANCH  36  37
ATOM     37  O   UNL     1       2.693   0.891   9.886  1.00  0.00    -0.460 OA
BRANCH  37  38
ATOM     38  C   UNL     1       1.416   0.473  10.186  1.00  0.00     0.338 C 
ATOM     39  O   UNL     1       1.147  -0.402  10.948  1.00  0.00    -0.246 OA
BRANCH  38  40
ATOM     40  C   UNL     1       0.443   1.230   9.318  1.00  0.00     0.060 A 
ATOM     41  C   UNL     1      -0.843   0.738   9.154  1.00  0.00     0.016 A 
ATOM     42  C   UNL     1       0.878   2.253   8.470  1.00  0.00     0.016 A 
ATOM     43  C   UNL     1      -1.599   1.156   8.043  1.00  0.00     0.010 A 
ATOM     44  C   UNL     1       0.203   2.508   7.265  1.00  0.00     0.010 A 
ATOM     45  C   UNL     1      -1.023   1.879   6.964  1.00  0.00    -0.014 A 
BRANCH  45  46
ATOM     46  C   UNL     1      -1.709   2.179   5.482  1.00  0.00     0.031 A 
ATOM     47  C   UNL     1      -2.304   3.797   6.074  1.00  0.00     0.074 A 
ATOM     48  C   UNL     1      -2.085   1.240   4.101  1.00  0.00     0.049 A 
ATOM     49  N   UNL     1      -3.397   4.384   5.679  1.00  0.00    -0.248 NA
ATOM     50  C   UNL     1      -1.884   4.548   7.298  1.00  0.00     0.031 C 
ATOM     51  C   UNL     1      -3.058   1.546   2.645  1.00  0.00     0.029 A 
ATOM     52  N   UNL     1      -2.043  -0.178   3.626  1.00  0.00    -0.354 N 
ATOM     53  C   UNL     1      -3.535   5.635   6.154  1.00  0.00     0.074 A 
ATOM     54  C   UNL     1      -2.680   5.633   7.303  1.00  0.00     0.031 C 
ATOM     55  C   UNL     1      -3.273   0.534   1.829  1.00  0.00     0.029 A 
ATOM     56  C   UNL     1      -3.059  -0.553   2.676  1.00  0.00     0.049 A 
ATOM     57  H   UNL     1      -1.363  -0.816   3.943  1.00  0.00     0.167 HD
ATOM     58  C   UNL     1      -4.251   6.516   5.396  1.00  0.00     0.031 A 
ATOM     59  C   UNL     1      -4.143  -1.367   2.854  1.00  0.00     0.031 A 
ATOM     60  C   UNL     1      -4.794   5.858   4.155  1.00  0.00     0.049 A 
ATOM     61  C   UNL     1      -5.433  -0.438   2.720  1.00  0.00     0.074 A 
ATOM     62  C   UNL     1      -4.339   5.883   2.845  1.00  0.00     0.029 A 
ATOM     63  N   UNL     1      -5.688   4.751   4.203  1.00  0.00    -0.354 N 
ATOM     64  N   UNL     1      -5.558   0.757   3.279  1.00  0.00    -0.248 NA
ATOM     65  C   UNL     1      -6.391  -0.585   1.620  1.00  0.00     0.031 C 
ATOM     66  C   UNL     1      -4.865   4.745   2.154  1.00  0.00     0.029 A 
ATOM     67  C   UNL     1      -5.687   3.999   3.007  1.00  0.00     0.049 A 
ATOM     68  H   UNL     1      -6.247   4.534   4.984  1.00  0.00     0.167 HD
ATOM     69  C   UNL     1      -6.452   1.568   2.579  1.00  0.00     0.074 A 
ATOM     70  C   UNL     1      -6.981   0.629   1.580  1.00  0.00     0.031 C 
ATOM     71  C   UNL     1      -6.694   2.943   2.663  1.00  0.00     0.031 A 
BRANCH  58  72
ATOM     72  C   UNL     1      -4.036   8.015   5.618  1.00  0.00    -0.014 A 
ATOM     73  C   UNL     1      -4.044   8.927   4.542  1.00  0.00     0.010 A 
ATOM     74  C   UNL     1      -3.728   8.575   6.881  1.00  0.00     0.010 A 
ATOM     75  C   UNL     1      -3.685  10.285   4.703  1.00  0.00     0.020 A 
ATOM     76  C   UNL     1      -3.328   9.914   7.051  1.00  0.00     0.020 A 
ATOM     77  C   UNL     1      -3.304  10.766   5.955  1.00  0.00     0.054 A 
BRANCH  77  78
ATOM     78  S   UNL     1      -2.802  12.504   6.149  1.00  0.00     0.124 S 
ATOM     79  O   UNL     1      -1.668  12.615   5.234  1.00  0.00    -0.237 OA
ATOM     80  O   UNL     1      -4.006  13.227   5.752  1.00  0.00    -0.237 OA
ATOM     81  O   UNL     1      -2.457  12.612   7.566  1.00  0.00    -0.744 OA
ENDBRANCH  77  78
ENDBRANCH  58  72
BRANCH  59  82
ATOM     82  C   UNL     1      -3.792  -2.552   3.687  1.00  0.00    -0.014 A 
ATOM     83  C   UNL     1      -2.595  -3.235   3.309  1.00  0.00     0.010 A 
ATOM     84  C   UNL     1      -4.318  -2.814   4.953  1.00  0.00     0.010 A 
ATOM     85  C   UNL     1      -1.838  -3.965   4.229  1.00  0.00     0.020 A 
ATOM     86  C   UNL     1      -3.556  -3.549   5.884  1.00  0.00     0.020 A 
ATOM     87  C   UNL     1      -2.308  -4.084   5.531  1.00  0.00     0.054 A 
BRANCH  87  88
ATOM     88  S   UNL     1      -1.246  -4.804   6.824  1.00  0.00     0.124 S 
ATOM     89  O   UNL     1      -1.913  -6.071   7.101  1.00  0.00    -0.237 OA
ATOM     90  O   UNL     1       0.063  -4.926   6.184  1.00  0.00    -0.237 OA
ATOM     91  O   UNL     1      -1.310  -3.804   7.885  1.00  0.00    -0.744 OA
ENDBRANCH  87  88
ENDBRANCH  59  82
BRANCH  71  92
ATOM     92  C   UNL     1      -8.039   3.513   2.215  1.00  0.00    -0.014 A 
ATOM     93  C   UNL     1      -9.211   2.743   2.237  1.00  0.00     0.010 A 
ATOM     94  C   UNL     1      -8.194   4.905   1.981  1.00  0.00     0.010 A 
ATOM     95  C   UNL     1     -10.463   3.316   1.997  1.00  0.00     0.020 A 
ATOM     96  C   UNL     1      -9.444   5.497   1.788  1.00  0.00     0.020 A 
ATOM     97  C   UNL     1     -10.573   4.690   1.783  1.00  0.00     0.054 A 
BRANCH  97  98
ATOM     98  S   UNL     1     -12.216   5.419   1.594  1.00  0.00     0.124 S 
ATOM     99  O   UNL     1     -12.493   5.164   0.183  1.00  0.00    -0.237 OA
ATOM    100  O   UNL     1     -13.020   4.649   2.540  1.00  0.00    -0.237 OA
ATOM    101  O   UNL     1     -12.016   6.821   1.952  1.00  0.00    -0.744 OA
ENDBRANCH  97  98
ENDBRANCH  71  92
ENDBRANCH  45  46
ENDBRANCH  38  40
ENDBRANCH  37  38
ENDBRANCH  36  37
ENDBRANCH  35  36
ENDBRANCH  34  35
ENDBRANCH  33  34
ENDBRANCH   1  33
TORSDOF 27
