REMARK SMILES CCCc1nc(C[N@H+]2CCCC[C@@H]2C(=O)OCCOCCOCCOCCOC(=O)c2ccc(-c3c4nc(c(-c5ccc(S(=O)(=O)[O-])cc5)c5ccc([nH]5)c(-c5ccc(S(=O)(=O)[O-])cc5)c5nc(c(-c6ccc(S(=O)(=O)[O-])cc6)c6ccc3[nH]6)C=C5)C=C4)cc2)cs1
REMARK SMILES IDX 21 1 20 2 19 3 18 4 17 5 16 6 14 7 15 8 13 9 8 10 9 11 10 13
REMARK SMILES IDX 12 14 11 15 7 16 6 17 4 18 5 19 92 20 91 21 3 22 2 23 1 24
REMARK SMILES IDX 22 25 23 26 24 27 25 28 26 29 27 30 28 31 29 32 30 33 31 34
REMARK SMILES IDX 32 35 90 36 33 37 89 38 34 39 35 40 36 41 83 42 37 43 88 44
REMARK SMILES IDX 82 45 84 46 38 47 87 48 81 49 80 50 39 52 69 53 50 54 68 55
REMARK SMILES IDX 51 56 54 57 67 58 85 59 52 60 53 61 66 63 86 64 55 65 40 66
REMARK SMILES IDX 41 67 49 68 42 69 48 70 43 71 44 72 45 73 46 74 47 75 70 76
REMARK SMILES IDX 71 77 79 78 72 79 78 80 73 81 74 82 75 83 76 84 77 85 56 86
REMARK SMILES IDX 57 87 65 88 58 89 64 90 59 91 60 92 61 93 62 94 63 95
REMARK H PARENT 8 12 84 51 54 62
REMARK Flexibility Score: inf
ROOT
ATOM      1  C   UNL     1      -2.105   4.936   6.807  1.00  0.00     0.188 C 
ENDROOT
BRANCH   1   2
ATOM      2  C   UNL     1      -0.926   4.203   7.456  1.00  0.00     0.188 C 
BRANCH   2   3
ATOM      3  O   UNL     1      -0.040   4.982   8.221  1.00  0.00    -0.376 OA
BRANCH   3   4
ATOM      4  C   UNL     1       1.023   5.763   7.705  1.00  0.00     0.202 C 
BRANCH   4   5
ATOM      5  C   UNL     1       1.271   6.259   6.261  1.00  0.00     0.261 C 
BRANCH   5   6
ATOM      6  O   UNL     1       0.284   6.053   5.254  1.00  0.00    -0.459 OA
BRANCH   6   7
ATOM      7  C   UNL     1       0.362   4.827   4.700  1.00  0.00     0.364 C 
ATOM      8  O   UNL     1       1.153   3.981   5.116  1.00  0.00    -0.245 OA
BRANCH   7   9
ATOM      9  C   UNL     1      -0.667   4.528   3.582  1.00  0.00     0.295 C 
ATOM     10  N   UNL     1       0.011   4.133   2.322  1.00  0.00    -0.318 N 
ATOM     11  C   UNL     1      -0.924   3.669   1.290  1.00  0.00     0.263 C 
ATOM     12  H   UNL     1       0.426   5.007   1.998  1.00  0.00     0.349 HD
ATOM     13  C   UNL     1      -2.029   4.689   1.003  1.00  0.00     0.062 C 
ATOM     14  C   UNL     1      -1.713   5.619   3.291  1.00  0.00     0.078 C 
ATOM     15  C   UNL     1      -2.740   5.100   2.282  1.00  0.00     0.013 C 
BRANCH  10  16
ATOM     16  C   UNL     1       1.154   3.211   2.476  1.00  0.00     0.321 C 
BRANCH  16  17
ATOM     17  C   UNL     1       0.825   1.825   2.976  1.00  0.00     0.106 A 
ATOM     18  C   UNL     1       0.899  -0.369   2.659  1.00  0.00     0.093 A 
ATOM     19  N   UNL     1       1.329   0.788   2.220  1.00  0.00    -0.240 NA
ATOM     20  S   UNL     1      -0.007  -0.320   4.105  1.00  0.00    -0.127 S 
ATOM     21  C   UNL     1       0.135   1.390   4.096  1.00  0.00     0.096 A 
BRANCH  18  22
ATOM     22  C   UNL     1       1.152  -1.635   1.918  1.00  0.00     0.067 C 
BRANCH  22  23
ATOM     23  C   UNL     1       0.541  -1.589   0.510  1.00  0.00     0.004 C 
ATOM     24  C   UNL     1       1.046  -0.443  -0.366  1.00  0.00     0.004 C 
ENDBRANCH  22  23
ENDBRANCH  18  22
ENDBRANCH  16  17
ENDBRANCH  10  16
ENDBRANCH   7   9
ENDBRANCH   6   7
ENDBRANCH   5   6
ENDBRANCH   4   5
ENDBRANCH   3   4
ENDBRANCH   2   3
ENDBRANCH   1   2
BRANCH   1  25
ATOM     25  O   UNL     1      -1.937   6.316   6.564  1.00  0.00    -0.377 OA
BRANCH  25  26
ATOM     26  C   UNL     1      -1.909   7.240   7.646  1.00  0.00     0.188 C 
BRANCH  26  27
ATOM     27  C   UNL     1      -2.108   6.773   9.103  1.00  0.00     0.188 C 
BRANCH  27  28
ATOM     28  O   UNL     1      -2.941   5.637   9.255  1.00  0.00    -0.376 OA
BRANCH  28  29
ATOM     29  C   UNL     1      -4.311   5.848   9.556  1.00  0.00     0.202 C 
BRANCH  29  30
ATOM     30  C   UNL     1      -5.153   6.636   8.540  1.00  0.00     0.261 C 
BRANCH  30  31
ATOM     31  O   UNL     1      -4.745   7.987   8.269  1.00  0.00    -0.460 OA
BRANCH  31  32
ATOM     32  C   UNL     1      -4.613   8.838   9.307  1.00  0.00     0.338 C 
ATOM     33  O   UNL     1      -4.871   8.613  10.479  1.00  0.00    -0.246 OA
BRANCH  32  34
ATOM     34  C   UNL     1      -3.899  10.038   8.822  1.00  0.00     0.060 A 
ATOM     35  C   UNL     1      -2.674  10.388   9.408  1.00  0.00     0.016 A 
ATOM     36  C   UNL     1      -4.439  10.815   7.795  1.00  0.00     0.016 A 
ATOM     37  C   UNL     1      -2.011  11.547   9.004  1.00  0.00     0.010 A 
ATOM     38  C   UNL     1      -3.786  11.988   7.409  1.00  0.00     0.010 A 
ATOM     39  C   UNL     1      -2.593  12.381   8.042  1.00  0.00    -0.014 A 
BRANCH  39  40
ATOM     40  C   UNL     1      -2.093  13.767   7.872  1.00  0.00     0.031 A 
ATOM     41  C   UNL     1      -2.817  14.871   8.597  1.00  0.00     0.074 A 
ATOM     42  C   UNL     1      -1.018  14.046   7.114  1.00  0.00     0.049 A 
ATOM     43  N   UNL     1      -2.618  16.162   8.559  1.00  0.00    -0.248 NA
ATOM     44  C   UNL     1      -3.919  14.457   9.483  1.00  0.00     0.031 C 
ATOM     45  C   UNL     1      -0.195  13.063   6.413  1.00  0.00     0.029 A 
ATOM     46  N   UNL     1      -0.441  15.253   6.804  1.00  0.00    -0.354 N 
ATOM     47  C   UNL     1      -3.576  16.715   9.400  1.00  0.00     0.074 A 
ATOM     48  C   UNL     1      -4.375  15.624   9.911  1.00  0.00     0.031 C 
ATOM     49  C   UNL     1       0.779  13.708   5.746  1.00  0.00     0.029 A 
ATOM     50  C   UNL     1       0.622  15.150   5.939  1.00  0.00     0.049 A 
ATOM     51  H   UNL     1      -0.758  16.111   7.168  1.00  0.00     0.167 HD
ATOM     52  C   UNL     1      -3.773  18.016   9.723  1.00  0.00     0.031 A 
ATOM     53  C   UNL     1       1.364  16.110   5.350  1.00  0.00     0.031 A 
ATOM     54  C   UNL     1      -2.988  19.100   9.197  1.00  0.00     0.049 A 
ATOM     55  C   UNL     1       1.069  17.559   5.650  1.00  0.00     0.074 A 
ATOM     56  C   UNL     1      -3.102  20.452   9.463  1.00  0.00     0.029 A 
ATOM     57  N   UNL     1      -1.950  18.956   8.288  1.00  0.00    -0.354 N 
ATOM     58  N   UNL     1       0.168  18.069   6.458  1.00  0.00    -0.248 NA
ATOM     59  C   UNL     1       1.896  18.561   4.964  1.00  0.00     0.031 C 
ATOM     60  C   UNL     1      -2.178  21.133   8.664  1.00  0.00     0.029 A 
ATOM     61  C   UNL     1      -1.435  20.198   7.959  1.00  0.00     0.049 A 
ATOM     62  H   UNL     1      -1.627  18.098   7.930  1.00  0.00     0.167 HD
ATOM     63  C   UNL     1       0.344  19.449   6.402  1.00  0.00     0.074 A 
ATOM     64  C   UNL     1       1.444  19.692   5.491  1.00  0.00     0.031 C 
ATOM     65  C   UNL     1      -0.338  20.426   7.050  1.00  0.00     0.031 A 
BRANCH  52  66
ATOM     66  C   UNL     1      -4.915  18.334  10.653  1.00  0.00    -0.014 A 
ATOM     67  C   UNL     1      -4.886  17.959  12.009  1.00  0.00     0.010 A 
ATOM     68  C   UNL     1      -6.031  19.039  10.165  1.00  0.00     0.010 A 
ATOM     69  C   UNL     1      -5.969  18.240  12.845  1.00  0.00     0.020 A 
ATOM     70  C   UNL     1      -7.102  19.352  11.005  1.00  0.00     0.020 A 
ATOM     71  C   UNL     1      -7.072  18.934  12.337  1.00  0.00     0.054 A 
BRANCH  71  72
ATOM     72  S   UNL     1      -8.458  19.297  13.448  1.00  0.00     0.124 S 
ATOM     73  O   UNL     1      -9.041  17.971  13.646  1.00  0.00    -0.237 OA
ATOM     74  O   UNL     1      -7.790  19.868  14.615  1.00  0.00    -0.237 OA
ATOM     75  O   UNL     1      -9.282  20.230  12.684  1.00  0.00    -0.744 OA
ENDBRANCH  71  72
ENDBRANCH  52  66
BRANCH  53  76
ATOM     76  C   UNL     1       2.451  15.736   4.402  1.00  0.00    -0.014 A 
ATOM     77  C   UNL     1       3.799  15.964   4.727  1.00  0.00     0.010 A 
ATOM     78  C   UNL     1       2.140  15.147   3.161  1.00  0.00     0.010 A 
ATOM     79  C   UNL     1       4.814  15.622   3.828  1.00  0.00     0.020 A 
ATOM     80  C   UNL     1       3.153  14.775   2.273  1.00  0.00     0.020 A 
ATOM     81  C   UNL     1       4.485  15.023   2.609  1.00  0.00     0.054 A 
BRANCH  81  82
ATOM     82  S   UNL     1       5.824  14.534   1.486  1.00  0.00     0.124 S 
ATOM     83  O   UNL     1       6.321  15.825   1.023  1.00  0.00    -0.237 OA
ATOM     84  O   UNL     1       6.717  13.791   2.371  1.00  0.00    -0.237 OA
ATOM     85  O   UNL     1       5.145  13.725   0.476  1.00  0.00    -0.744 OA
ENDBRANCH  81  82
ENDBRANCH  53  76
BRANCH  65  86
ATOM     86  C   UNL     1       0.108  21.851   6.840  1.00  0.00    -0.014 A 
ATOM     87  C   UNL     1      -0.096  22.515   5.618  1.00  0.00     0.010 A 
ATOM     88  C   UNL     1       0.685  22.558   7.913  1.00  0.00     0.010 A 
ATOM     89  C   UNL     1       0.298  23.848   5.463  1.00  0.00     0.020 A 
ATOM     90  C   UNL     1       1.050  23.899   7.773  1.00  0.00     0.020 A 
ATOM     91  C   UNL     1       0.866  24.532   6.543  1.00  0.00     0.054 A 
BRANCH  91  92
ATOM     92  S   UNL     1       1.326  26.274   6.328  1.00  0.00     0.124 S 
ATOM     93  O   UNL     1       2.490  26.176   5.452  1.00  0.00    -0.237 OA
ATOM     94  O   UNL     1       0.127  26.847   5.721  1.00  0.00    -0.237 OA
ATOM     95  O   UNL     1       1.607  26.729   7.688  1.00  0.00    -0.744 OA
ENDBRANCH  91  92
ENDBRANCH  65  86
ENDBRANCH  39  40
ENDBRANCH  32  34
ENDBRANCH  31  32
ENDBRANCH  30  31
ENDBRANCH  29  30
ENDBRANCH  28  29
ENDBRANCH  27  28
ENDBRANCH  26  27
ENDBRANCH  25  26
ENDBRANCH   1  25
TORSDOF 27
