REMARK SMILES Cc1ccc(NC(=O)c2ccccc2NC(=O)[C@H]2CCCC[C@H]2C(=O)OCCOCCOCCOCCOC(=O)c2ccc(-c3c4nc(c(-c5ccc(S(=O)(=O)[O-])cc5)c5ccc([nH]5)c(-c5ccc(S(=O)(=O)[O-])cc5)c5nc(c(-c6ccc(S(=O)(=O)[O-])cc6)c6ccc3[nH]6)C=C5)C=C4)cc2)cc1
REMARK SMILES IDX 31 1 30 2 29 3 28 4 27 5 26 6 24 7 25 8 23 9 18 10 19 11
REMARK SMILES IDX 20 12 22 13 21 14 16 15 15 16 17 18 14 19 9 20 10 21 11 22
REMARK SMILES IDX 13 23 12 24 7 25 6 26 8 28 5 29 1 30 2 31 3 32 102 33 4 34
REMARK SMILES IDX 101 35 32 36 33 37 34 38 35 39 36 40 37 41 38 42 39 43 40 44
REMARK SMILES IDX 41 45 42 46 100 47 43 48 99 49 44 50 45 51 46 52 93 53 47 54
REMARK SMILES IDX 98 55 92 56 94 57 48 58 97 59 91 60 90 61 49 63 79 64 60 65
REMARK SMILES IDX 78 66 61 67 64 68 77 69 95 70 62 71 63 72 76 74 96 75 65 76
REMARK SMILES IDX 50 77 51 78 59 79 52 80 58 81 53 82 54 83 55 84 56 85 57 86
REMARK SMILES IDX 80 87 81 88 89 89 82 90 88 91 83 92 84 93 85 94 86 95 87 96
REMARK SMILES IDX 66 97 67 98 75 99 68 100 74 101 69 102 70 103 71 104 72 105
REMARK SMILES IDX 73 106
REMARK H PARENT 15 17 6 27 94 62 64 73
REMARK Flexibility Score: inf
ROOT
ATOM      1  C   UNL     1      -1.866   0.487   2.799  1.00  0.00     0.188 C 
ENDROOT
BRANCH   1   2
ATOM      2  C   UNL     1      -3.231   0.912   3.350  1.00  0.00     0.188 C 
BRANCH   2   3
ATOM      3  O   UNL     1      -3.323   1.689   4.517  1.00  0.00    -0.376 OA
BRANCH   3   4
ATOM      4  C   UNL     1      -2.879   1.104   5.732  1.00  0.00     0.202 C 
BRANCH   4   5
ATOM      5  C   UNL     1      -3.224  -0.332   6.094  1.00  0.00     0.261 C 
BRANCH   5   6
ATOM      6  O   UNL     1      -2.204  -1.247   5.641  1.00  0.00    -0.463 OA
BRANCH   6   7
ATOM      7  C   UNL     1      -2.596  -2.121   4.705  1.00  0.00     0.309 C 
ATOM      8  O   UNL     1      -3.719  -2.156   4.203  1.00  0.00    -0.252 OA
BRANCH   7   9
ATOM      9  C   UNL     1      -1.560  -3.147   4.329  1.00  0.00     0.111 C 
ATOM     10  C   UNL     1      -0.429  -2.810   3.326  1.00  0.00     0.093 C 
ATOM     11  C   UNL     1      -0.030  -4.158   2.680  1.00  0.00     0.014 C 
ATOM     12  C   UNL     1       0.225  -5.276   3.713  1.00  0.00     0.001 C 
ATOM     13  C   UNL     1      -1.208  -4.129   5.435  1.00  0.00     0.016 C 
ATOM     14  C   UNL     1      -0.875  -5.458   4.761  1.00  0.00     0.001 C 
BRANCH  10  15
ATOM     15  C   UNL     1       0.874  -2.109   3.778  1.00  0.00     0.228 C 
ATOM     16  N   UNL     1       1.677  -1.315   2.968  1.00  0.00    -0.325 N 
ATOM     17  H   UNL     1       2.531  -1.111   3.415  1.00  0.00     0.169 HD
ATOM     18  O   UNL     1       1.325  -2.358   4.905  1.00  0.00    -0.274 OA
BRANCH  16  19
ATOM     19  C   UNL     1       1.624  -0.707   1.669  1.00  0.00     0.054 A 
ATOM     20  C   UNL     1       2.623   0.211   1.199  1.00  0.00     0.063 A 
ATOM     21  C   UNL     1       2.349   0.996   0.042  1.00  0.00     0.016 A 
ATOM     22  C   UNL     1       1.170   0.877  -0.676  1.00  0.00     0.001 A 
ATOM     23  C   UNL     1       0.519  -0.896   0.827  1.00  0.00     0.027 A 
ATOM     24  C   UNL     1       0.270  -0.097  -0.300  1.00  0.00     0.002 A 
BRANCH  20  25
ATOM     25  C   UNL     1       3.974   0.575   1.765  1.00  0.00     0.257 C 
ATOM     26  N   UNL     1       4.728  -0.227   2.579  1.00  0.00    -0.322 N 
ATOM     27  H   UNL     1       5.375   0.254   3.143  1.00  0.00     0.170 HD
ATOM     28  O   UNL     1       4.477   1.656   1.449  1.00  0.00    -0.269 OA
BRANCH  26  29
ATOM     29  C   UNL     1       4.730  -1.607   2.740  1.00  0.00     0.041 A 
ATOM     30  C   UNL     1       3.979  -5.707   3.677  1.00  0.00     0.044 C 
ATOM     31  C   UNL     1       4.331  -4.296   3.330  1.00  0.00    -0.051 A 
ATOM     32  C   UNL     1       4.038  -3.807   2.054  1.00  0.00     0.005 A 
ATOM     33  C   UNL     1       4.941  -3.454   4.267  1.00  0.00     0.005 A 
ATOM     34  C   UNL     1       4.255  -2.468   1.754  1.00  0.00     0.026 A 
ATOM     35  C   UNL     1       5.165  -2.113   3.962  1.00  0.00     0.026 A 
ENDBRANCH  26  29
ENDBRANCH  20  25
ENDBRANCH  16  19
ENDBRANCH  10  15
ENDBRANCH   7   9
ENDBRANCH   6   7
ENDBRANCH   5   6
ENDBRANCH   4   5
ENDBRANCH   3   4
ENDBRANCH   2   3
ENDBRANCH   1   2
BRANCH   1  36
ATOM     36  O   UNL     1      -0.773   0.289   3.674  1.00  0.00    -0.377 OA
BRANCH  36  37
ATOM     37  C   UNL     1       0.110   1.386   3.942  1.00  0.00     0.188 C 
BRANCH  37  38
ATOM     38  C   UNL     1       0.324   2.430   2.859  1.00  0.00     0.188 C 
BRANCH  38  39
ATOM     39  O   UNL     1      -0.899   3.129   2.623  1.00  0.00    -0.376 OA
BRANCH  39  40
ATOM     40  C   UNL     1      -0.938   3.822   1.384  1.00  0.00     0.202 C 
BRANCH  40  41
ATOM     41  C   UNL     1       0.081   4.959   1.288  1.00  0.00     0.261 C 
BRANCH  41  42
ATOM     42  O   UNL     1      -0.301   6.027   2.175  1.00  0.00    -0.460 OA
BRANCH  42  43
ATOM     43  C   UNL     1       0.637   6.344   3.122  1.00  0.00     0.338 C 
ATOM     44  O   UNL     1       1.557   7.093   2.920  1.00  0.00    -0.246 OA
BRANCH  43  45
ATOM     45  C   UNL     1       0.300   5.699   4.428  1.00  0.00     0.060 A 
ATOM     46  C   UNL     1       1.271   5.524   5.423  1.00  0.00     0.016 A 
ATOM     47  C   UNL     1      -0.962   5.150   4.612  1.00  0.00     0.016 A 
ATOM     48  C   UNL     1       1.019   4.688   6.530  1.00  0.00     0.010 A 
ATOM     49  C   UNL     1      -1.177   4.277   5.660  1.00  0.00     0.010 A 
ATOM     50  C   UNL     1      -0.191   4.008   6.624  1.00  0.00    -0.014 A 
BRANCH  50  51
ATOM     51  C   UNL     1      -0.525   2.922   7.571  1.00  0.00     0.031 A 
ATOM     52  C   UNL     1      -1.834   2.984   8.306  1.00  0.00     0.074 A 
ATOM     53  C   UNL     1       0.131   1.734   7.487  1.00  0.00     0.049 A 
ATOM     54  N   UNL     1      -2.315   2.027   9.023  1.00  0.00    -0.248 NA
ATOM     55  C   UNL     1      -2.762   4.118   8.242  1.00  0.00     0.031 C 
ATOM     56  C   UNL     1      -0.394   0.401   7.821  1.00  0.00     0.029 A 
ATOM     57  N   UNL     1       1.405   1.429   7.043  1.00  0.00    -0.354 N 
ATOM     58  C   UNL     1      -3.668   2.230   9.176  1.00  0.00     0.074 A 
ATOM     59  C   UNL     1      -3.883   3.591   8.753  1.00  0.00     0.031 C 
ATOM     60  C   UNL     1       0.560  -0.534   7.697  1.00  0.00     0.029 A 
ATOM     61  C   UNL     1       1.803   0.186   7.556  1.00  0.00     0.049 A 
ATOM     62  H   UNL     1       1.950   2.000   6.455  1.00  0.00     0.167 HD
ATOM     63  C   UNL     1      -4.457   1.166   9.511  1.00  0.00     0.031 A 
ATOM     64  C   UNL     1       2.772   0.133   8.525  1.00  0.00     0.031 A 
ATOM     65  C   UNL     1      -3.657   0.005   9.937  1.00  0.00     0.049 A 
ATOM     66  C   UNL     1       2.185  -0.245   9.875  1.00  0.00     0.074 A 
ATOM     67  C   UNL     1      -3.590  -1.335   9.593  1.00  0.00     0.029 A 
ATOM     68  N   UNL     1      -2.589   0.225  10.806  1.00  0.00    -0.354 N 
ATOM     69  N   UNL     1       0.943   0.000  10.212  1.00  0.00    -0.248 NA
ATOM     70  C   UNL     1       2.869  -1.067  10.873  1.00  0.00     0.031 C 
ATOM     71  C   UNL     1      -2.381  -1.865  10.139  1.00  0.00     0.029 A 
ATOM     72  C   UNL     1      -1.762  -0.870  10.882  1.00  0.00     0.049 A 
ATOM     73  H   UNL     1      -2.444   1.063  11.303  1.00  0.00     0.167 HD
ATOM     74  C   UNL     1       0.623  -0.710  11.331  1.00  0.00     0.074 A 
ATOM     75  C   UNL     1       1.878  -1.307  11.753  1.00  0.00     0.031 C 
ATOM     76  C   UNL     1      -0.644  -0.858  11.813  1.00  0.00     0.031 A 
BRANCH  63  77
ATOM     77  C   UNL     1      -5.966   1.106   9.335  1.00  0.00    -0.014 A 
ATOM     78  C   UNL     1      -6.681   0.003   9.852  1.00  0.00     0.010 A 
ATOM     79  C   UNL     1      -6.731   2.040   8.602  1.00  0.00     0.010 A 
ATOM     80  C   UNL     1      -8.066  -0.154   9.668  1.00  0.00     0.020 A 
ATOM     81  C   UNL     1      -8.126   1.916   8.443  1.00  0.00     0.020 A 
ATOM     82  C   UNL     1      -8.786   0.813   8.974  1.00  0.00     0.054 A 
BRANCH  82  83
ATOM     83  S   UNL     1     -10.582   0.615   8.794  1.00  0.00     0.124 S 
ATOM     84  O   UNL     1     -10.684  -0.556   7.927  1.00  0.00    -0.237 OA
ATOM     85  O   UNL     1     -11.021   0.416  10.173  1.00  0.00    -0.237 OA
ATOM     86  O   UNL     1     -11.012   1.873   8.187  1.00  0.00    -0.744 OA
ENDBRANCH  82  83
ENDBRANCH  63  77
BRANCH  64  87
ATOM     87  C   UNL     1       3.924   1.024   8.179  1.00  0.00    -0.014 A 
ATOM     88  C   UNL     1       4.649   0.586   7.045  1.00  0.00     0.010 A 
ATOM     89  C   UNL     1       3.867   2.407   8.447  1.00  0.00     0.010 A 
ATOM     90  C   UNL     1       5.030   1.496   6.060  1.00  0.00     0.020 A 
ATOM     91  C   UNL     1       4.290   3.326   7.467  1.00  0.00     0.020 A 
ATOM     92  C   UNL     1       4.767   2.851   6.244  1.00  0.00     0.054 A 
BRANCH  92  93
ATOM     93  S   UNL     1       4.802   3.914   4.768  1.00  0.00     0.124 S 
ATOM     94  O   UNL     1       6.096   3.578   4.182  1.00  0.00    -0.237 OA
ATOM     95  O   UNL     1       3.623   3.426   4.053  1.00  0.00    -0.237 OA
ATOM     96  O   UNL     1       4.690   5.261   5.319  1.00  0.00    -0.744 OA
ENDBRANCH  92  93
ENDBRANCH  64  87
BRANCH  76  97
ATOM     97  C   UNL     1      -0.951  -0.953  13.286  1.00  0.00    -0.014 A 
ATOM     98  C   UNL     1      -0.000  -0.674  14.277  1.00  0.00     0.010 A 
ATOM     99  C   UNL     1      -2.300  -1.090  13.701  1.00  0.00     0.010 A 
ATOM    100  C   UNL     1      -0.365  -0.582  15.622  1.00  0.00     0.020 A 
ATOM    101  C   UNL     1      -2.682  -0.947  15.034  1.00  0.00     0.020 A 
ATOM    102  C   UNL     1      -1.703  -0.718  15.991  1.00  0.00     0.054 A 
BRANCH 102 103
ATOM    103  S   UNL     1      -2.147  -0.541  17.731  1.00  0.00     0.124 S 
ATOM    104  O   UNL     1      -1.753  -1.841  18.269  1.00  0.00    -0.237 OA
ATOM    105  O   UNL     1      -1.325   0.590  18.160  1.00  0.00    -0.237 OA
ATOM    106  O   UNL     1      -3.584  -0.283  17.701  1.00  0.00    -0.744 OA
ENDBRANCH 102 103
ENDBRANCH  76  97
ENDBRANCH  50  51
ENDBRANCH  43  45
ENDBRANCH  42  43
ENDBRANCH  41  42
ENDBRANCH  40  41
ENDBRANCH  39  40
ENDBRANCH  38  39
ENDBRANCH  37  38
ENDBRANCH  36  37
ENDBRANCH   1  36
TORSDOF 27
