REMARK SMILES O=C(OCCOCCOCCOCCOC(=O)[C@H]1O[C@@H](Oc2c(-c3cc(O)c(O)c(O)c3)oc3cc(O)cc(O)c3c2=O)[C@H](O)[C@@H](O)[C@@H]1O)c1ccc(-c2c3nc(c(-c4ccc(S(=O)(=O)[O-])cc4)c4ccc([nH]4)c(-c4ccc(S(=O)(=O)[O-])cc4)c4nc(c(-c5ccc(S(=O)(=O)[O-])cc5)c5ccc2[nH]5)C=C4)C=C3)cc1
REMARK SMILES IDX 10 1 9 2 8 3 7 4 6 5 5 6 4 7 3 8 2 9 1 10 50 11 51 12 109 13
REMARK SMILES IDX 52 14 108 15 53 16 54 17 55 18 102 19 56 20 107 21 101 22
REMARK SMILES IDX 103 23 57 24 106 25 100 26 99 27 58 29 88 30 69 31 87 32
REMARK SMILES IDX 70 33 73 34 86 35 104 36 71 37 72 38 85 40 105 41 74 42
REMARK SMILES IDX 59 43 60 44 68 45 61 46 67 47 62 48 63 49 64 50 65 51 66 52
REMARK SMILES IDX 89 53 90 54 98 55 91 56 97 57 92 58 93 59 94 60 95 61 96 62
REMARK SMILES IDX 75 63 76 64 84 65 77 66 83 67 78 68 79 69 80 70 81 71 82 72
REMARK SMILES IDX 11 73 12 74 13 75 14 76 15 77 16 78 17 79 18 80 19 81 48 82
REMARK SMILES IDX 20 83 46 84 44 85 49 86 21 88 22 89 23 90 42 91 33 92 41 93
REMARK SMILES IDX 43 94 34 95 39 96 35 97 38 98 36 99 24 100 25 101 32 102
REMARK SMILES IDX 26 103 30 104 28 105 27 106 31 108 29 110 40 112 37 114
REMARK SMILES IDX 47 116 45 118
REMARK H PARENT 103 28 73 39 49 87 27 107 31 109 29 111 40 113 37 115 47 117
REMARK H PARENT 45 119
REMARK Flexibility Score: inf
ROOT
ATOM      1  C   UNL     1       5.892   1.523  -3.805  1.00  0.00     0.188 C 
ENDROOT
BRANCH   1   2
ATOM      2  O   UNL     1       6.027   2.869  -4.247  1.00  0.00    -0.377 OA
BRANCH   2   3
ATOM      3  C   UNL     1       6.936   3.663  -3.493  1.00  0.00     0.188 C 
BRANCH   3   4
ATOM      4  C   UNL     1       6.776   3.573  -1.973  1.00  0.00     0.188 C 
BRANCH   4   5
ATOM      5  O   UNL     1       6.796   2.231  -1.516  1.00  0.00    -0.376 OA
BRANCH   5   6
ATOM      6  C   UNL     1       5.977   1.781  -0.449  1.00  0.00     0.202 C 
BRANCH   6   7
ATOM      7  C   UNL     1       5.860   2.671   0.770  1.00  0.00     0.261 C 
BRANCH   7   8
ATOM      8  O   UNL     1       6.730   3.819   0.841  1.00  0.00    -0.460 OA
BRANCH   8   9
ATOM      9  C   UNL     1       8.067   4.001   0.830  1.00  0.00     0.338 C 
ATOM     10  O   UNL     1       8.496   5.153   0.784  1.00  0.00    -0.246 OA
BRANCH   9  11
ATOM     11  C   UNL     1       9.061   2.905   0.938  1.00  0.00     0.060 A 
ATOM     12  C   UNL     1       9.000   1.692   0.265  1.00  0.00     0.016 A 
ATOM     13  C   UNL     1      10.209   3.163   1.696  1.00  0.00     0.016 A 
ATOM     14  C   UNL     1       9.879   0.665   0.522  1.00  0.00     0.010 A 
ATOM     15  C   UNL     1      11.179   2.174   1.873  1.00  0.00     0.010 A 
ATOM     16  C   UNL     1      10.959   0.892   1.355  1.00  0.00    -0.014 A 
BRANCH  16  17
ATOM     17  C   UNL     1      11.668  -0.294   1.853  1.00  0.00     0.031 A 
ATOM     18  C   UNL     1      11.457  -0.649   3.296  1.00  0.00     0.074 A 
ATOM     19  C   UNL     1      12.295  -1.120   0.995  1.00  0.00     0.049 A 
ATOM     20  N   UNL     1      12.015  -1.585   4.007  1.00  0.00    -0.248 NA
ATOM     21  C   UNL     1      10.474   0.164   4.041  1.00  0.00     0.031 C 
ATOM     22  C   UNL     1      12.365  -0.942  -0.461  1.00  0.00     0.029 A 
ATOM     23  N   UNL     1      12.941  -2.303   1.213  1.00  0.00    -0.354 N 
ATOM     24  C   UNL     1      11.513  -1.421   5.293  1.00  0.00     0.074 A 
ATOM     25  C   UNL     1      10.601  -0.305   5.270  1.00  0.00     0.031 C 
ATOM     26  C   UNL     1      12.978  -2.005  -1.005  1.00  0.00     0.029 A 
ATOM     27  C   UNL     1      13.435  -2.878   0.066  1.00  0.00     0.049 A 
ATOM     28  H   UNL     1      13.044  -2.706   2.106  1.00  0.00     0.167 HD
ATOM     29  C   UNL     1      11.811  -2.141   6.396  1.00  0.00     0.031 A 
ATOM     30  C   UNL     1      14.212  -3.966  -0.080  1.00  0.00     0.031 A 
ATOM     31  C   UNL     1      12.709  -3.259   6.360  1.00  0.00     0.049 A 
ATOM     32  C   UNL     1      14.614  -4.691   1.175  1.00  0.00     0.074 A 
ATOM     33  C   UNL     1      13.163  -4.041   7.402  1.00  0.00     0.029 A 
ATOM     34  N   UNL     1      13.282  -3.756   5.195  1.00  0.00    -0.354 N 
ATOM     35  N   UNL     1      14.241  -4.459   2.414  1.00  0.00    -0.248 NA
ATOM     36  C   UNL     1      15.549  -5.809   1.022  1.00  0.00     0.031 C 
ATOM     37  C   UNL     1      14.058  -4.977   6.872  1.00  0.00     0.029 A 
ATOM     38  C   UNL     1      14.101  -4.826   5.492  1.00  0.00     0.049 A 
ATOM     39  H   UNL     1      13.127  -3.398   4.292  1.00  0.00     0.167 HD
ATOM     40  C   UNL     1      14.874  -5.421   3.188  1.00  0.00     0.074 A 
ATOM     41  C   UNL     1      15.641  -6.245   2.271  1.00  0.00     0.031 C 
ATOM     42  C   UNL     1      14.833  -5.614   4.531  1.00  0.00     0.031 A 
BRANCH  29  43
ATOM     43  C   UNL     1      11.252  -1.655   7.706  1.00  0.00    -0.014 A 
ATOM     44  C   UNL     1       9.882  -1.735   8.016  1.00  0.00     0.010 A 
ATOM     45  C   UNL     1      12.126  -1.051   8.629  1.00  0.00     0.010 A 
ATOM     46  C   UNL     1       9.392  -1.179   9.202  1.00  0.00     0.020 A 
ATOM     47  C   UNL     1      11.645  -0.522   9.829  1.00  0.00     0.020 A 
ATOM     48  C   UNL     1      10.277  -0.573  10.099  1.00  0.00     0.054 A 
BRANCH  48  49
ATOM     49  S   UNL     1       9.619   0.135  11.634  1.00  0.00     0.124 S 
ATOM     50  O   UNL     1       8.918   1.319  11.144  1.00  0.00    -0.237 OA
ATOM     51  O   UNL     1       8.763  -0.937  12.137  1.00  0.00    -0.237 OA
ATOM     52  O   UNL     1      10.812   0.403  12.433  1.00  0.00    -0.744 OA
ENDBRANCH  48  49
ENDBRANCH  29  43
BRANCH  30  53
ATOM     53  C   UNL     1      14.705  -4.376  -1.426  1.00  0.00    -0.014 A 
ATOM     54  C   UNL     1      14.347  -5.615  -1.985  1.00  0.00     0.010 A 
ATOM     55  C   UNL     1      15.546  -3.520  -2.164  1.00  0.00     0.010 A 
ATOM     56  C   UNL     1      14.837  -5.998  -3.240  1.00  0.00     0.020 A 
ATOM     57  C   UNL     1      16.010  -3.882  -3.432  1.00  0.00     0.020 A 
ATOM     58  C   UNL     1      15.665  -5.128  -3.955  1.00  0.00     0.054 A 
BRANCH  58  59
ATOM     59  S   UNL     1      16.269  -5.635  -5.590  1.00  0.00     0.124 S 
ATOM     60  O   UNL     1      17.228  -6.681  -5.248  1.00  0.00    -0.237 OA
ATOM     61  O   UNL     1      15.048  -6.087  -6.251  1.00  0.00    -0.237 OA
ATOM     62  O   UNL     1      16.848  -4.409  -6.136  1.00  0.00    -0.744 OA
ENDBRANCH  58  59
ENDBRANCH  30  53
BRANCH  42  63
ATOM     63  C   UNL     1      15.582  -6.801   5.063  1.00  0.00    -0.014 A 
ATOM     64  C   UNL     1      16.986  -6.823   5.110  1.00  0.00     0.010 A 
ATOM     65  C   UNL     1      14.851  -7.888   5.575  1.00  0.00     0.010 A 
ATOM     66  C   UNL     1      17.649  -7.938   5.622  1.00  0.00     0.020 A 
ATOM     67  C   UNL     1      15.510  -8.987   6.121  1.00  0.00     0.020 A 
ATOM     68  C   UNL     1      16.906  -9.013   6.124  1.00  0.00     0.054 A 
BRANCH  68  69
ATOM     69  S   UNL     1      17.789 -10.434   6.817  1.00  0.00     0.124 S 
ATOM     70  O   UNL     1      18.302 -11.085   5.615  1.00  0.00    -0.237 OA
ATOM     71  O   UNL     1      18.793  -9.802   7.668  1.00  0.00    -0.237 OA
ATOM     72  O   UNL     1      16.750 -11.172   7.531  1.00  0.00    -0.744 OA
ENDBRANCH  68  69
ENDBRANCH  42  63
ENDBRANCH  16  17
ENDBRANCH   9  11
ENDBRANCH   8   9
ENDBRANCH   7   8
ENDBRANCH   6   7
ENDBRANCH   5   6
ENDBRANCH   4   5
ENDBRANCH   3   4
ENDBRANCH   2   3
ENDBRANCH   1   2
BRANCH   1  73
ATOM     73  C   UNL     1       7.134   0.590  -3.741  1.00  0.00     0.188 C 
BRANCH  73  74
ATOM     74  O   UNL     1       8.372   1.284  -3.788  1.00  0.00    -0.376 OA
BRANCH  74  75
ATOM     75  C   UNL     1       9.188   0.995  -4.919  1.00  0.00     0.202 C 
BRANCH  75  76
ATOM     76  C   UNL     1       8.627   1.312  -6.322  1.00  0.00     0.261 C 
BRANCH  76  77
ATOM     77  O   UNL     1       7.196   1.268  -6.430  1.00  0.00    -0.461 OA
BRANCH  77  78
ATOM     78  C   UNL     1       6.575   0.177  -6.957  1.00  0.00     0.338 C 
ATOM     79  O   UNL     1       7.145  -0.793  -7.458  1.00  0.00    -0.249 OA
BRANCH  78  80
ATOM     80  C   UNL     1       5.060   0.337  -6.798  1.00  0.00     0.263 C 
ATOM     81  O   UNL     1       4.374   0.320  -8.039  1.00  0.00    -0.322 OA
ATOM     82  C   UNL     1       4.412  -0.771  -5.944  1.00  0.00     0.186 C 
ATOM     83  C   UNL     1       3.032   0.811  -7.932  1.00  0.00     0.340 C 
ATOM     84  C   UNL     1       3.008  -0.281  -5.567  1.00  0.00     0.181 C 
ATOM     85  C   UNL     1       2.216   0.134  -6.797  1.00  0.00     0.214 C 
BRANCH  82  86
ATOM     86  O   UNL     1       5.070  -1.142  -4.736  1.00  0.00    -0.387 OA
ATOM     87  H   UNL     1       5.076  -0.388  -4.126  1.00  0.00     0.211 HD
ENDBRANCH  82  86
BRANCH  83  88
ATOM     88  O   UNL     1       2.278   0.594  -9.153  1.00  0.00    -0.454 OA
BRANCH  88  89
ATOM     89  C   UNL     1       2.935  -0.236 -10.051  1.00  0.00     0.214 A 
ATOM     90  C   UNL     1       2.753  -1.573 -10.110  1.00  0.00     0.181 A 
ATOM     91  C   UNL     1       3.933   0.397 -10.966  1.00  0.00     0.239 A 
ATOM     92  O   UNL     1       3.442  -2.414 -10.959  1.00  0.00    -0.452 OA
ATOM     93  C   UNL     1       4.545  -0.492 -11.980  1.00  0.00     0.111 A 
ATOM     94  O   UNL     1       4.201   1.589 -10.867  1.00  0.00    -0.285 OA
ATOM     95  C   UNL     1       4.248  -1.855 -11.915  1.00  0.00     0.146 A 
ATOM     96  C   UNL     1       5.373  -0.028 -13.013  1.00  0.00     0.134 A 
ATOM     97  C   UNL     1       4.752  -2.742 -12.866  1.00  0.00     0.094 A 
ATOM     98  C   UNL     1       5.864  -0.910 -13.981  1.00  0.00     0.093 A 
ATOM     99  C   UNL     1       5.537  -2.259 -13.903  1.00  0.00     0.123 A 
BRANCH  90 100
ATOM    100  C   UNL     1       1.901  -2.303  -9.146  1.00  0.00     0.029 A 
ATOM    101  C   UNL     1       2.512  -3.209  -8.254  1.00  0.00     0.062 A 
ATOM    102  C   UNL     1       0.547  -1.962  -8.963  1.00  0.00     0.062 A 
ATOM    103  C   UNL     1       1.813  -3.658  -7.137  1.00  0.00     0.162 A 
ATOM    104  C   UNL     1      -0.129  -2.417  -7.831  1.00  0.00     0.162 A 
ATOM    105  C   UNL     1       0.512  -3.233  -6.906  1.00  0.00     0.200 A 
BRANCH 103 106
ATOM    106  O   UNL     1       2.468  -4.403  -6.200  1.00  0.00    -0.504 OA
ATOM    107  H   UNL     1       3.346  -4.689  -6.358  1.00  0.00     0.293 HD
ENDBRANCH 103 106
BRANCH 104 108
ATOM    108  O   UNL     1      -1.369  -1.918  -7.550  1.00  0.00    -0.504 OA
ATOM    109  H   UNL     1      -1.832  -2.216  -6.792  1.00  0.00     0.293 HD
ENDBRANCH 104 108
BRANCH 105 110
ATOM    110  O   UNL     1      -0.095  -3.461  -5.700  1.00  0.00    -0.502 OA
ATOM    111  H   UNL     1       0.321  -4.008  -5.062  1.00  0.00     0.293 HD
ENDBRANCH 105 110
ENDBRANCH  90 100
BRANCH  96 112
ATOM    112  O   UNL     1       5.686   1.297 -13.124  1.00  0.00    -0.507 OA
ATOM    113  H   UNL     1       6.241   1.591 -13.820  1.00  0.00     0.293 HD
ENDBRANCH  96 112
BRANCH  99 114
ATOM    114  O   UNL     1       5.949  -3.151 -14.847  1.00  0.00    -0.508 OA
ATOM    115  H   UNL     1       5.715  -4.056 -14.771  1.00  0.00     0.293 HD
ENDBRANCH  99 114
ENDBRANCH  88  89
ENDBRANCH  83  88
BRANCH  84 116
ATOM    116  O   UNL     1       2.320  -1.341  -4.850  1.00  0.00    -0.387 OA
ATOM    117  H   UNL     1       2.243  -2.121  -5.421  1.00  0.00     0.211 HD
ENDBRANCH  84 116
BRANCH  85 118
ATOM    118  O   UNL     1       1.075   0.913  -6.410  1.00  0.00    -0.384 OA
ATOM    119  H   UNL     1       1.372   1.741  -6.002  1.00  0.00     0.211 HD
ENDBRANCH  85 118
ENDBRANCH  78  80
ENDBRANCH  77  78
ENDBRANCH  76  77
ENDBRANCH  75  76
ENDBRANCH  74  75
ENDBRANCH  73  74
ENDBRANCH   1  73
TORSDOF 34
