REMARK SMILES CC[C@@H]1CCCN1C(=O)N1CC[C@@H](C(=O)OCCOCCOCCOCCOC(=O)c2ccc(-c3c4nc(c(-c5ccc(S(=O)(=O)[O-])cc5)c5ccc([nH]5)c(-c5ccc(S(=O)(=O)[O-])cc5)c5nc(c(-c6ccc(S(=O)(=O)[O-])cc6)c6ccc3[nH]6)C=C5)C=C4)cc2)[C@@H]1C
REMARK SMILES IDX 22 1 21 2 20 3 19 4 18 5 17 6 16 7 14 8 15 9 13 10 10 11
REMARK SMILES IDX 11 12 91 13 12 14 92 15 8 16 9 17 7 18 3 19 4 20 5 21 6 22
REMARK SMILES IDX 2 23 1 24 23 25 24 26 25 27 26 28 27 29 28 30 29 31 30 32
REMARK SMILES IDX 31 33 32 34 90 35 33 36 89 37 34 38 35 39 36 40 83 41 37 42
REMARK SMILES IDX 88 43 82 44 84 45 38 46 87 47 81 48 80 49 39 51 69 52 50 53
REMARK SMILES IDX 68 54 51 55 54 56 67 57 85 58 52 59 53 60 66 62 86 63 55 64
REMARK SMILES IDX 40 65 41 66 49 67 42 68 48 69 43 70 44 71 45 72 46 73 47 74
REMARK SMILES IDX 70 75 71 76 79 77 72 78 78 79 73 80 74 81 75 82 76 83 77 84
REMARK SMILES IDX 56 85 57 86 65 87 58 88 64 89 59 90 60 91 61 92 62 93 63 94
REMARK H PARENT 84 50 54 61
REMARK Flexibility Score: inf
ROOT
ATOM      1  O   UNL     1       4.306   6.299  -1.772  1.00  0.00    -0.377 OA
ENDROOT
BRANCH   1   2
ATOM      2  C   UNL     1       2.969   6.183  -1.319  1.00  0.00     0.188 C 
BRANCH   2   3
ATOM      3  C   UNL     1       2.777   6.025   0.201  1.00  0.00     0.188 C 
BRANCH   3   4
ATOM      4  O   UNL     1       3.759   6.702   0.961  1.00  0.00    -0.376 OA
BRANCH   4   5
ATOM      5  C   UNL     1       4.664   5.960   1.762  1.00  0.00     0.202 C 
BRANCH   5   6
ATOM      6  C   UNL     1       5.590   4.889   1.146  1.00  0.00     0.261 C 
BRANCH   6   7
ATOM      7  O   UNL     1       5.118   4.273  -0.053  1.00  0.00    -0.463 OA
BRANCH   7   8
ATOM      8  C   UNL     1       4.354   3.164   0.091  1.00  0.00     0.311 C 
ATOM      9  O   UNL     1       4.136   2.613   1.162  1.00  0.00    -0.252 OA
BRANCH   8  10
ATOM     10  C   UNL     1       3.632   2.866  -1.216  1.00  0.00     0.123 C 
ATOM     11  N   UNL     1       2.934   0.601  -1.494  1.00  0.00    -0.321 N 
ATOM     12  C   UNL     1       2.088   1.248  -0.528  1.00  0.00     0.122 C 
ATOM     13  C   UNL     1       4.012   1.538  -1.873  1.00  0.00     0.098 C 
ATOM     14  C   UNL     1       2.143   2.700  -0.929  1.00  0.00     0.039 C 
ATOM     15  C   UNL     1       4.058   1.684  -3.398  1.00  0.00     0.032 C 
BRANCH  11  16
ATOM     16  C   UNL     1       3.154  -0.739  -1.599  1.00  0.00     0.320 C 
ATOM     17  O   UNL     1       4.322  -1.133  -1.712  1.00  0.00    -0.248 OA
BRANCH  16  18
ATOM     18  N   UNL     1       2.114  -1.646  -1.649  1.00  0.00    -0.322 N 
ATOM     19  C   UNL     1       0.666  -1.552  -1.960  1.00  0.00     0.086 C 
ATOM     20  C   UNL     1       0.204  -3.021  -1.937  1.00  0.00     0.027 C 
ATOM     21  C   UNL     1       1.389  -3.782  -2.467  1.00  0.00     0.024 C 
ATOM     22  C   UNL     1       2.566  -3.019  -1.894  1.00  0.00     0.122 C 
BRANCH  19  23
ATOM     23  C   UNL     1      -0.339  -0.770  -1.102  1.00  0.00     0.022 C 
ATOM     24  C   UNL     1      -0.186  -0.947   0.407  1.00  0.00     0.006 C 
ENDBRANCH  19  23
ENDBRANCH  16  18
ENDBRANCH  11  16
ENDBRANCH   8  10
ENDBRANCH   7   8
ENDBRANCH   6   7
ENDBRANCH   5   6
ENDBRANCH   4   5
ENDBRANCH   3   4
ENDBRANCH   2   3
ENDBRANCH   1   2
BRANCH   1  25
ATOM     25  C   UNL     1       5.068   7.451  -1.403  1.00  0.00     0.188 C 
BRANCH  25  26
ATOM     26  C   UNL     1       4.425   8.696  -0.736  1.00  0.00     0.188 C 
BRANCH  26  27
ATOM     27  O   UNL     1       3.025   8.831  -0.919  1.00  0.00    -0.376 OA
BRANCH  27  28
ATOM     28  C   UNL     1       2.571   9.773  -1.876  1.00  0.00     0.202 C 
BRANCH  28  29
ATOM     29  C   UNL     1       2.968   9.530  -3.339  1.00  0.00     0.261 C 
BRANCH  29  30
ATOM     30  O   UNL     1       4.373   9.435  -3.611  1.00  0.00    -0.460 OA
BRANCH  30  31
ATOM     31  C   UNL     1       5.156  10.489  -3.290  1.00  0.00     0.338 C 
ATOM     32  O   UNL     1       4.802  11.552  -2.810  1.00  0.00    -0.246 OA
BRANCH  31  33
ATOM     33  C   UNL     1       6.558  10.046  -3.434  1.00  0.00     0.060 A 
ATOM     34  C   UNL     1       7.410  10.048  -2.319  1.00  0.00     0.016 A 
ATOM     35  C   UNL     1       7.012   9.594  -4.673  1.00  0.00     0.016 A 
ATOM     36  C   UNL     1       8.734   9.626  -2.450  1.00  0.00     0.010 A 
ATOM     37  C   UNL     1       8.342   9.201  -4.810  1.00  0.00     0.010 A 
ATOM     38  C   UNL     1       9.217   9.250  -3.709  1.00  0.00    -0.014 A 
BRANCH  38  39
ATOM     39  C   UNL     1      10.672   9.153  -3.966  1.00  0.00     0.031 A 
ATOM     40  C   UNL     1      11.348  10.361  -4.555  1.00  0.00     0.074 A 
ATOM     41  C   UNL     1      11.363   8.022  -3.748  1.00  0.00     0.049 A 
ATOM     42  N   UNL     1      12.549  10.480  -5.054  1.00  0.00    -0.248 NA
ATOM     43  C   UNL     1      10.549  11.599  -4.598  1.00  0.00     0.031 C 
ATOM     44  C   UNL     1      10.837   6.810  -3.123  1.00  0.00     0.029 A 
ATOM     45  N   UNL     1      12.663   7.706  -4.059  1.00  0.00    -0.354 N 
ATOM     46  C   UNL     1      12.639  11.795  -5.497  1.00  0.00     0.074 A 
ATOM     47  C   UNL     1      11.370  12.428  -5.223  1.00  0.00     0.031 C 
ATOM     48  C   UNL     1      11.801   5.870  -3.120  1.00  0.00     0.029 A 
ATOM     49  C   UNL     1      12.990   6.398  -3.790  1.00  0.00     0.049 A 
ATOM     50  H   UNL     1      13.299   8.354  -4.439  1.00  0.00     0.167 HD
ATOM     51  C   UNL     1      13.686  12.416  -6.087  1.00  0.00     0.031 A 
ATOM     52  C   UNL     1      14.104   5.700  -4.089  1.00  0.00     0.031 A 
ATOM     53  C   UNL     1      14.937  11.771  -6.374  1.00  0.00     0.049 A 
ATOM     54  C   UNL     1      15.229   6.385  -4.829  1.00  0.00     0.074 A 
ATOM     55  C   UNL     1      16.065  12.309  -6.966  1.00  0.00     0.029 A 
ATOM     56  N   UNL     1      15.222  10.442  -6.097  1.00  0.00    -0.354 N 
ATOM     57  N   UNL     1      15.307   7.629  -5.242  1.00  0.00    -0.248 NA
ATOM     58  C   UNL     1      16.415   5.575  -5.142  1.00  0.00     0.031 C 
ATOM     59  C   UNL     1      17.010  11.290  -7.104  1.00  0.00     0.029 A 
ATOM     60  C   UNL     1      16.501  10.137  -6.526  1.00  0.00     0.049 A 
ATOM     61  H   UNL     1      14.606   9.810  -5.661  1.00  0.00     0.167 HD
ATOM     62  C   UNL     1      16.567   7.760  -5.820  1.00  0.00     0.074 A 
ATOM     63  C   UNL     1      17.215   6.470  -5.709  1.00  0.00     0.031 C 
ATOM     64  C   UNL     1      17.140   8.853  -6.382  1.00  0.00     0.031 A 
BRANCH  51  65
ATOM     65  C   UNL     1      13.500  13.850  -6.504  1.00  0.00    -0.014 A 
ATOM     66  C   UNL     1      13.387  14.881  -5.553  1.00  0.00     0.010 A 
ATOM     67  C   UNL     1      13.466  14.174  -7.872  1.00  0.00     0.010 A 
ATOM     68  C   UNL     1      13.205  16.203  -5.964  1.00  0.00     0.020 A 
ATOM     69  C   UNL     1      13.317  15.499  -8.287  1.00  0.00     0.020 A 
ATOM     70  C   UNL     1      13.171  16.504  -7.329  1.00  0.00     0.054 A 
BRANCH  70  71
ATOM     71  S   UNL     1      12.957  18.233  -7.832  1.00  0.00     0.124 S 
ATOM     72  O   UNL     1      11.563  18.481  -7.472  1.00  0.00    -0.237 OA
ATOM     73  O   UNL     1      13.950  18.927  -7.016  1.00  0.00    -0.237 OA
ATOM     74  O   UNL     1      13.236  18.215  -9.266  1.00  0.00    -0.744 OA
ENDBRANCH  70  71
ENDBRANCH  51  65
BRANCH  52  75
ATOM     75  C   UNL     1      14.209   4.261  -3.716  1.00  0.00    -0.014 A 
ATOM     76  C   UNL     1      15.131   3.840  -2.741  1.00  0.00     0.010 A 
ATOM     77  C   UNL     1      13.391   3.299  -4.339  1.00  0.00     0.010 A 
ATOM     78  C   UNL     1      15.247   2.486  -2.410  1.00  0.00     0.020 A 
ATOM     79  C   UNL     1      13.482   1.948  -3.989  1.00  0.00     0.020 A 
ATOM     80  C   UNL     1      14.418   1.549  -3.034  1.00  0.00     0.054 A 
BRANCH  80  81
ATOM     81  S   UNL     1      14.559  -0.195  -2.554  1.00  0.00     0.124 S 
ATOM     82  O   UNL     1      15.852  -0.563  -3.122  1.00  0.00    -0.237 OA
ATOM     83  O   UNL     1      14.506  -0.123  -1.096  1.00  0.00    -0.237 OA
ATOM     84  O   UNL     1      13.398  -0.819  -3.184  1.00  0.00    -0.744 OA
ENDBRANCH  80  81
ENDBRANCH  52  75
BRANCH  64  85
ATOM     85  C   UNL     1      18.567   8.747  -6.856  1.00  0.00    -0.014 A 
ATOM     86  C   UNL     1      18.907   8.053  -8.029  1.00  0.00     0.010 A 
ATOM     87  C   UNL     1      19.565   9.465  -6.169  1.00  0.00     0.010 A 
ATOM     88  C   UNL     1      20.223   8.075  -8.503  1.00  0.00     0.020 A 
ATOM     89  C   UNL     1      20.873   9.513  -6.655  1.00  0.00     0.020 A 
ATOM     90  C   UNL     1      21.195   8.814  -7.819  1.00  0.00     0.054 A 
BRANCH  90  91
ATOM     91  S   UNL     1      22.871   8.903  -8.508  1.00  0.00     0.124 S 
ATOM     92  O   UNL     1      23.373   7.554  -8.265  1.00  0.00    -0.237 OA
ATOM     93  O   UNL     1      22.622   9.238  -9.908  1.00  0.00    -0.237 OA
ATOM     94  O   UNL     1      23.513   9.957  -7.726  1.00  0.00    -0.744 OA
ENDBRANCH  90  91
ENDBRANCH  64  85
ENDBRANCH  38  39
ENDBRANCH  31  33
ENDBRANCH  30  31
ENDBRANCH  29  30
ENDBRANCH  28  29
ENDBRANCH  27  28
ENDBRANCH  26  27
ENDBRANCH  25  26
ENDBRANCH   1  25
TORSDOF 26
