REMARK SMILES O=C(OCCOCCOCCOCCOC(=O)[C@@H](Cc1ccc(O)cc1)Nc1c2ccccc2nc2ccccc12)c1ccc(-c2c3nc(c(-c4ccc(S(=O)(=O)[O-])cc4)c4ccc([nH]4)c(-c4ccc(S(=O)(=O)[O-])cc4)c4nc(c(-c5ccc(S(=O)(=O)[O-])cc5)c5ccc2[nH]5)C=C4)C=C3)cc1
REMARK SMILES IDX 9 1 8 2 7 3 6 4 5 5 4 6 3 7 2 8 1 9 42 10 43 11 101 12 44 13
REMARK SMILES IDX 100 14 45 15 46 16 47 17 94 18 48 19 99 20 93 21 95 22 49 23
REMARK SMILES IDX 98 24 92 25 91 26 50 28 80 29 61 30 79 31 62 32 65 33 78 34
REMARK SMILES IDX 96 35 63 36 64 37 77 39 97 40 66 41 51 42 52 43 60 44 53 45
REMARK SMILES IDX 59 46 54 47 55 48 56 49 57 50 58 51 81 52 82 53 90 54 83 55
REMARK SMILES IDX 89 56 84 57 85 58 86 59 87 60 88 61 67 62 68 63 76 64 69 65
REMARK SMILES IDX 75 66 70 67 71 68 72 69 73 70 74 71 10 72 11 73 12 74 13 75
REMARK SMILES IDX 14 76 15 77 16 78 17 79 18 80 19 81 20 82 21 83 26 84 22 85
REMARK SMILES IDX 25 86 23 87 24 88 27 90 28 92 29 93 41 94 30 95 34 96 36 97
REMARK SMILES IDX 40 98 31 99 33 100 35 101 37 102 39 103 32 104 38 105
REMARK H PARENT 95 27 65 38 24 89 27 91
REMARK Flexibility Score: inf
ROOT
ATOM      1  O   UNL     1       3.423  -3.221   1.734  1.00  0.00    -0.377 OA
ENDROOT
BRANCH   1   2
ATOM      2  C   UNL     1       2.424  -2.596   0.935  1.00  0.00     0.188 C 
BRANCH   2   3
ATOM      3  C   UNL     1       2.644  -1.113   0.767  1.00  0.00     0.188 C 
BRANCH   3   4
ATOM      4  O   UNL     1       3.973  -0.856   0.334  1.00  0.00    -0.376 OA
BRANCH   4   5
ATOM      5  C   UNL     1       4.719   0.033   1.160  1.00  0.00     0.202 C 
BRANCH   5   6
ATOM      6  C   UNL     1       4.317   1.501   1.019  1.00  0.00     0.261 C 
BRANCH   6   7
ATOM      7  O   UNL     1       2.944   1.704   0.643  1.00  0.00    -0.460 OA
BRANCH   7   8
ATOM      8  C   UNL     1       2.381   1.742  -0.591  1.00  0.00     0.338 C 
ATOM      9  O   UNL     1       1.191   2.053  -0.662  1.00  0.00    -0.246 OA
BRANCH   8  10
ATOM     10  C   UNL     1       3.072   1.369  -1.869  1.00  0.00     0.060 A 
ATOM     11  C   UNL     1       4.261   0.651  -1.962  1.00  0.00     0.016 A 
ATOM     12  C   UNL     1       2.424   1.695  -3.075  1.00  0.00     0.016 A 
ATOM     13  C   UNL     1       4.773   0.210  -3.165  1.00  0.00     0.010 A 
ATOM     14  C   UNL     1       2.966   1.321  -4.311  1.00  0.00     0.010 A 
ATOM     15  C   UNL     1       4.152   0.582  -4.345  1.00  0.00    -0.014 A 
BRANCH  15  16
ATOM     16  C   UNL     1       4.968   0.420  -5.553  1.00  0.00     0.031 A 
ATOM     17  C   UNL     1       5.773   1.611  -5.978  1.00  0.00     0.074 A 
ATOM     18  C   UNL     1       5.165  -0.805  -6.067  1.00  0.00     0.049 A 
ATOM     19  N   UNL     1       6.564   1.751  -7.002  1.00  0.00    -0.248 NA
ATOM     20  C   UNL     1       5.700   2.800  -5.105  1.00  0.00     0.031 C 
ATOM     21  C   UNL     1       4.593  -2.048  -5.537  1.00  0.00     0.029 A 
ATOM     22  N   UNL     1       5.938  -1.215  -7.116  1.00  0.00    -0.354 N 
ATOM     23  C   UNL     1       7.046   3.052  -6.920  1.00  0.00     0.074 A 
ATOM     24  C   UNL     1       6.476   3.659  -5.743  1.00  0.00     0.031 C 
ATOM     25  C   UNL     1       5.038  -3.082  -6.269  1.00  0.00     0.029 A 
ATOM     26  C   UNL     1       5.859  -2.566  -7.358  1.00  0.00     0.049 A 
ATOM     27  H   UNL     1       6.498  -0.603  -7.647  1.00  0.00     0.167 HD
ATOM     28  C   UNL     1       7.877   3.681  -7.779  1.00  0.00     0.031 A 
ATOM     29  C   UNL     1       6.360  -3.278  -8.384  1.00  0.00     0.031 A 
ATOM     30  C   UNL     1       8.397   3.034  -8.949  1.00  0.00     0.049 A 
ATOM     31  C   UNL     1       7.149  -2.520  -9.419  1.00  0.00     0.074 A 
ATOM     32  C   UNL     1       9.158   3.565  -9.969  1.00  0.00     0.029 A 
ATOM     33  N   UNL     1       8.194   1.690  -9.245  1.00  0.00    -0.354 N 
ATOM     34  N   UNL     1       7.506  -1.254  -9.415  1.00  0.00    -0.248 NA
ATOM     35  C   UNL     1       7.587  -3.270 -10.600  1.00  0.00     0.031 C 
ATOM     36  C   UNL     1       9.362   2.555 -10.916  1.00  0.00     0.029 A 
ATOM     37  C   UNL     1       8.793   1.377 -10.447  1.00  0.00     0.049 A 
ATOM     38  H   UNL     1       7.696   1.056  -8.681  1.00  0.00     0.167 HD
ATOM     39  C   UNL     1       8.230  -1.059 -10.583  1.00  0.00     0.074 A 
ATOM     40  C   UNL     1       8.274  -2.345 -11.257  1.00  0.00     0.031 C 
ATOM     41  C   UNL     1       8.806   0.072 -11.064  1.00  0.00     0.031 A 
BRANCH  28  42
ATOM     42  C   UNL     1       8.142   5.140  -7.532  1.00  0.00    -0.014 A 
ATOM     43  C   UNL     1       8.937   5.583  -6.460  1.00  0.00     0.010 A 
ATOM     44  C   UNL     1       7.529   6.092  -8.367  1.00  0.00     0.010 A 
ATOM     45  C   UNL     1       9.081   6.951  -6.205  1.00  0.00     0.020 A 
ATOM     46  C   UNL     1       7.693   7.459  -8.133  1.00  0.00     0.020 A 
ATOM     47  C   UNL     1       8.455   7.880  -7.043  1.00  0.00     0.054 A 
BRANCH  47  48
ATOM     48  S   UNL     1       8.667   9.648  -6.693  1.00  0.00     0.124 S 
ATOM     49  O   UNL     1       7.867   9.816  -5.484  1.00  0.00    -0.237 OA
ATOM     50  O   UNL     1      10.109   9.768  -6.516  1.00  0.00    -0.237 OA
ATOM     51  O   UNL     1       8.131  10.303  -7.889  1.00  0.00    -0.744 OA
ENDBRANCH  47  48
ENDBRANCH  28  42
BRANCH  29  52
ATOM     52  C   UNL     1       6.051  -4.729  -8.526  1.00  0.00    -0.014 A 
ATOM     53  C   UNL     1       7.066  -5.700  -8.501  1.00  0.00     0.010 A 
ATOM     54  C   UNL     1       4.717  -5.151  -8.701  1.00  0.00     0.010 A 
ATOM     55  C   UNL     1       6.758  -7.056  -8.669  1.00  0.00     0.020 A 
ATOM     56  C   UNL     1       4.401  -6.506  -8.837  1.00  0.00     0.020 A 
ATOM     57  C   UNL     1       5.427  -7.450  -8.836  1.00  0.00     0.054 A 
BRANCH  57  58
ATOM     58  S   UNL     1       5.049  -9.214  -9.030  1.00  0.00     0.124 S 
ATOM     59  O   UNL     1       5.573  -9.493 -10.363  1.00  0.00    -0.237 OA
ATOM     60  O   UNL     1       5.783  -9.817  -7.921  1.00  0.00    -0.237 OA
ATOM     61  O   UNL     1       3.593  -9.269  -8.907  1.00  0.00    -0.744 OA
ENDBRANCH  57  58
ENDBRANCH  29  52
BRANCH  41  62
ATOM     62  C   UNL     1       9.567  -0.052 -12.351  1.00  0.00    -0.014 A 
ATOM     63  C   UNL     1       8.902  -0.210 -13.578  1.00  0.00     0.010 A 
ATOM     64  C   UNL     1      10.968   0.074 -12.329  1.00  0.00     0.010 A 
ATOM     65  C   UNL     1       9.632  -0.266 -14.765  1.00  0.00     0.020 A 
ATOM     66  C   UNL     1      11.697   0.054 -13.516  1.00  0.00     0.020 A 
ATOM     67  C   UNL     1      11.024  -0.128 -14.726  1.00  0.00     0.054 A 
BRANCH  67  68
ATOM     68  S   UNL     1      11.942  -0.141 -16.287  1.00  0.00     0.124 S 
ATOM     69  O   UNL     1      11.873  -1.550 -16.666  1.00  0.00    -0.237 OA
ATOM     70  O   UNL     1      11.167   0.774 -17.120  1.00  0.00    -0.237 OA
ATOM     71  O   UNL     1      13.270   0.339 -15.911  1.00  0.00    -0.744 OA
ENDBRANCH  67  68
ENDBRANCH  41  62
ENDBRANCH  15  16
ENDBRANCH   8  10
ENDBRANCH   7   8
ENDBRANCH   6   7
ENDBRANCH   5   6
ENDBRANCH   4   5
ENDBRANCH   3   4
ENDBRANCH   2   3
ENDBRANCH   1   2
BRANCH   1  72
ATOM     72  C   UNL     1       4.775  -3.266   1.294  1.00  0.00     0.188 C 
BRANCH  72  73
ATOM     73  C   UNL     1       5.109  -3.872  -0.067  1.00  0.00     0.188 C 
BRANCH  73  74
ATOM     74  O   UNL     1       4.001  -3.920  -0.935  1.00  0.00    -0.376 OA
BRANCH  74  75
ATOM     75  C   UNL     1       3.462  -5.207  -1.187  1.00  0.00     0.202 C 
BRANCH  75  76
ATOM     76  C   UNL     1       2.893  -6.090  -0.041  1.00  0.00     0.261 C 
BRANCH  76  77
ATOM     77  O   UNL     1       3.099  -5.695   1.333  1.00  0.00    -0.462 OA
BRANCH  77  78
ATOM     78  C   UNL     1       4.129  -6.270   1.994  1.00  0.00     0.328 C 
ATOM     79  O   UNL     1       4.869  -7.094   1.455  1.00  0.00    -0.250 OA
BRANCH  78  80
ATOM     80  C   UNL     1       4.377  -5.804   3.468  1.00  0.00     0.194 C 
BRANCH  80  81
ATOM     81  C   UNL     1       3.671  -4.636   4.204  1.00  0.00     0.072 C 
BRANCH  81  82
ATOM     82  C   UNL     1       2.189  -4.378   4.133  1.00  0.00    -0.045 A 
ATOM     83  C   UNL     1       1.745  -3.044   4.248  1.00  0.00     0.007 A 
ATOM     84  C   UNL     1       1.240  -5.390   3.987  1.00  0.00     0.007 A 
ATOM     85  C   UNL     1       0.398  -2.717   4.111  1.00  0.00     0.046 A 
ATOM     86  C   UNL     1      -0.113  -5.066   3.868  1.00  0.00     0.046 A 
ATOM     87  C   UNL     1      -0.519  -3.736   3.902  1.00  0.00     0.115 A 
BRANCH  87  88
ATOM     88  O   UNL     1      -1.841  -3.464   3.708  1.00  0.00    -0.508 OA
ATOM     89  H   UNL     1      -2.144  -2.578   3.726  1.00  0.00     0.293 HD
ENDBRANCH  87  88
ENDBRANCH  81  82
ENDBRANCH  80  81
BRANCH  80  90
ATOM     90  N   UNL     1       4.358  -6.949   4.389  1.00  0.00    -0.371 N 
ATOM     91  H   UNL     1       3.514  -7.193   4.833  1.00  0.00     0.161 HD
BRANCH  90  92
ATOM     92  C   UNL     1       5.510  -7.704   4.651  1.00  0.00     0.054 A 
ATOM     93  C   UNL     1       6.674  -7.152   5.272  1.00  0.00     0.024 A 
ATOM     94  C   UNL     1       5.499  -9.072   4.279  1.00  0.00     0.024 A 
ATOM     95  C   UNL     1       6.887  -5.778   5.588  1.00  0.00     0.012 A 
ATOM     96  C   UNL     1       7.689  -8.061   5.626  1.00  0.00     0.073 A 
ATOM     97  C   UNL     1       6.560  -9.873   4.721  1.00  0.00     0.073 A 
ATOM     98  C   UNL     1       4.487  -9.658   3.473  1.00  0.00     0.012 A 
ATOM     99  C   UNL     1       8.065  -5.320   6.177  1.00  0.00     0.001 A 
ATOM    100  C   UNL     1       8.836  -7.588   6.256  1.00  0.00     0.029 A 
ATOM    101  N   UNL     1       7.608  -9.381   5.400  1.00  0.00    -0.248 NA
ATOM    102  C   UNL     1       6.524 -11.233   4.437  1.00  0.00     0.029 A 
ATOM    103  C   UNL     1       4.495 -11.012   3.162  1.00  0.00     0.001 A 
ATOM    104  C   UNL     1       9.043  -6.234   6.523  1.00  0.00     0.002 A 
ATOM    105  C   UNL     1       5.505 -11.810   3.672  1.00  0.00     0.002 A 
ENDBRANCH  90  92
ENDBRANCH  80  90
ENDBRANCH  78  80
ENDBRANCH  77  78
ENDBRANCH  76  77
ENDBRANCH  75  76
ENDBRANCH  74  75
ENDBRANCH  73  74
ENDBRANCH  72  73
ENDBRANCH   1  72
TORSDOF 28
