REMARK SMILES C[C@@H](NC(=O)/C(=C/c1ccc(Cl)cc1)NC(=O)c1ccc(C(C)(C)C)cc1)C(=O)OCCOCCOCCOCCOC(=O)c1ccc(-c2c3nc(c(-c4ccc(S(=O)(=O)[O-])cc4)c4ccc([nH]4)c(-c4ccc(S(=O)(=O)[O-])cc4)c4nc(c(-c5ccc(S(=O)(=O)[O-])cc5)c5ccc2[nH]5)C=C4)C=C3)cc1
REMARK SMILES IDX 35 1 34 2 33 3 32 4 31 5 30 6 28 7 29 8 2 9 1 10 3 11 4 12
REMARK SMILES IDX 5 14 6 15 7 16 15 17 16 18 17 20 18 21 19 22 27 23 20 24
REMARK SMILES IDX 26 25 21 26 22 27 23 28 24 29 25 30 8 31 9 32 14 33 10 34
REMARK SMILES IDX 13 35 11 36 12 37 36 38 37 39 38 40 39 41 40 42 41 43 42 44
REMARK SMILES IDX 43 45 44 46 45 47 46 48 104 49 47 50 103 51 48 52 49 53
REMARK SMILES IDX 50 54 97 55 51 56 102 57 96 58 98 59 52 60 101 61 95 62
REMARK SMILES IDX 94 63 53 65 83 66 64 67 82 68 65 69 68 70 81 71 99 72 66 73
REMARK SMILES IDX 67 74 80 76 100 77 69 78 54 79 55 80 63 81 56 82 62 83 57 84
REMARK SMILES IDX 58 85 59 86 60 87 61 88 84 89 85 90 93 91 86 92 92 93 87 94
REMARK SMILES IDX 88 95 89 96 90 97 91 98 70 99 71 100 79 101 72 102 78 103
REMARK SMILES IDX 73 104 74 105 75 106 76 107 77 108
REMARK H PARENT 3 13 15 19 98 64 68 75
REMARK Flexibility Score: inf
ROOT
ATOM      1  C   UNL     1      -1.305  -1.311   1.450  1.00  0.00     0.188 C 
ENDROOT
BRANCH   1   2
ATOM      2  C   UNL     1      -2.343  -0.439   2.166  1.00  0.00     0.188 C 
BRANCH   2   3
ATOM      3  O   UNL     1      -3.420   0.196   1.508  1.00  0.00    -0.376 OA
BRANCH   3   4
ATOM      4  C   UNL     1      -3.563   0.416   0.126  1.00  0.00     0.202 C 
BRANCH   4   5
ATOM      5  C   UNL     1      -2.490   0.860  -0.874  1.00  0.00     0.261 C 
BRANCH   5   6
ATOM      6  O   UNL     1      -1.103   0.814  -0.580  1.00  0.00    -0.462 OA
BRANCH   6   7
ATOM      7  C   UNL     1      -0.634   1.613   0.396  1.00  0.00     0.328 C 
ATOM      8  O   UNL     1      -1.238   1.980   1.392  1.00  0.00    -0.250 OA
BRANCH   7   9
ATOM      9  C   UNL     1       0.684   2.228   0.011  1.00  0.00     0.189 C 
ATOM     10  C   UNL     1       1.555   1.228  -0.758  1.00  0.00     0.043 C 
BRANCH   9  11
ATOM     11  N   UNL     1       0.392   3.473  -0.721  1.00  0.00    -0.338 N 
ATOM     12  C   UNL     1      -0.365   4.502  -0.176  1.00  0.00     0.268 C 
ATOM     13  H   UNL     1       0.747   3.580  -1.633  1.00  0.00     0.164 HD
ATOM     14  O   UNL     1       0.178   5.419   0.431  1.00  0.00    -0.268 OA
BRANCH  12  15
ATOM     15  C   UNL     1      -1.866   4.507  -0.459  1.00  0.00     0.107 C 
ATOM     16  C   UNL     1      -2.681   4.161   0.564  1.00  0.00     0.040 C 
BRANCH  15  17
ATOM     17  N   UNL     1      -2.394   4.928  -1.656  1.00  0.00    -0.317 N 
ATOM     18  C   UNL     1      -1.894   5.396  -2.836  1.00  0.00     0.255 C 
ATOM     19  H   UNL     1      -3.377   4.880  -1.664  1.00  0.00     0.170 HD
ATOM     20  O   UNL     1      -2.667   5.795  -3.702  1.00  0.00    -0.269 OA
BRANCH  18  21
ATOM     21  C   UNL     1      -0.462   5.516  -3.053  1.00  0.00     0.040 A 
ATOM     22  C   UNL     1       0.135   6.738  -2.769  1.00  0.00     0.014 A 
ATOM     23  C   UNL     1       0.276   4.438  -3.530  1.00  0.00     0.014 A 
ATOM     24  C   UNL     1       1.514   6.853  -2.880  1.00  0.00     0.005 A 
ATOM     25  C   UNL     1       1.664   4.557  -3.619  1.00  0.00     0.005 A 
ATOM     26  C   UNL     1       2.313   5.755  -3.259  1.00  0.00    -0.043 A 
BRANCH  26  27
ATOM     27  C   UNL     1       3.840   5.911  -3.301  1.00  0.00    -0.013 C 
ATOM     28  C   UNL     1       4.200   6.791  -4.511  1.00  0.00     0.016 C 
ATOM     29  C   UNL     1       4.351   6.579  -2.003  1.00  0.00     0.016 C 
ATOM     30  C   UNL     1       4.591   4.569  -3.430  1.00  0.00     0.016 C 
ENDBRANCH  26  27
ENDBRANCH  18  21
ENDBRANCH  15  17
BRANCH  16  31
ATOM     31  C   UNL     1      -4.136   3.802   0.637  1.00  0.00    -0.023 A 
ATOM     32  C   UNL     1      -5.002   3.630  -0.461  1.00  0.00     0.010 A 
ATOM     33  C   UNL     1      -4.618   3.367   1.891  1.00  0.00     0.010 A 
ATOM     34  C   UNL     1      -6.276   3.051  -0.318  1.00  0.00     0.021 A 
ATOM     35  C   UNL     1      -5.878   2.762   2.033  1.00  0.00     0.021 A 
ATOM     36  C   UNL     1      -6.700   2.601   0.925  1.00  0.00     0.041 A 
ATOM     37  Cl  UNL     1      -8.195   1.764   1.070  1.00  0.00    -0.084 Cl
ENDBRANCH  16  31
ENDBRANCH  12  15
ENDBRANCH   9  11
ENDBRANCH   7   9
ENDBRANCH   6   7
ENDBRANCH   5   6
ENDBRANCH   4   5
ENDBRANCH   3   4
ENDBRANCH   2   3
ENDBRANCH   1   2
BRANCH   1  38
ATOM     38  O   UNL     1      -1.581  -1.687   0.118  1.00  0.00    -0.377 OA
BRANCH  38  39
ATOM     39  C   UNL     1      -2.689  -2.522  -0.174  1.00  0.00     0.188 C 
BRANCH  39  40
ATOM     40  C   UNL     1      -3.675  -2.916   0.939  1.00  0.00     0.188 C 
BRANCH  40  41
ATOM     41  O   UNL     1      -3.041  -3.249   2.162  1.00  0.00    -0.376 OA
BRANCH  41  42
ATOM     42  C   UNL     1      -2.680  -4.598   2.393  1.00  0.00     0.202 C 
BRANCH  42  43
ATOM     43  C   UNL     1      -1.736  -5.272   1.386  1.00  0.00     0.261 C 
BRANCH  43  44
ATOM     44  O   UNL     1      -2.187  -5.426   0.024  1.00  0.00    -0.460 OA
BRANCH  44  45
ATOM     45  C   UNL     1      -3.447  -5.856  -0.236  1.00  0.00     0.338 C 
ATOM     46  O   UNL     1      -4.237  -6.301   0.558  1.00  0.00    -0.246 OA
BRANCH  45  47
ATOM     47  C   UNL     1      -3.782  -5.439  -1.632  1.00  0.00     0.060 A 
ATOM     48  C   UNL     1      -4.973  -4.734  -1.867  1.00  0.00     0.016 A 
ATOM     49  C   UNL     1      -2.916  -5.708  -2.695  1.00  0.00     0.016 A 
ATOM     50  C   UNL     1      -5.329  -4.350  -3.165  1.00  0.00     0.010 A 
ATOM     51  C   UNL     1      -3.285  -5.351  -3.998  1.00  0.00     0.010 A 
ATOM     52  C   UNL     1      -4.516  -4.713  -4.245  1.00  0.00    -0.014 A 
BRANCH  52  53
ATOM     53  C   UNL     1      -5.068  -4.702  -5.627  1.00  0.00     0.031 A 
ATOM     54  C   UNL     1      -5.650  -5.992  -6.149  1.00  0.00     0.074 A 
ATOM     55  C   UNL     1      -5.066  -3.606  -6.407  1.00  0.00     0.049 A 
ATOM     56  N   UNL     1      -6.105  -6.280  -7.340  1.00  0.00    -0.248 NA
ATOM     57  C   UNL     1      -5.719  -7.110  -5.192  1.00  0.00     0.031 C 
ATOM     58  C   UNL     1      -4.593  -2.280  -6.015  1.00  0.00     0.029 A 
ATOM     59  N   UNL     1      -5.470  -3.446  -7.712  1.00  0.00    -0.354 N 
ATOM     60  C   UNL     1      -6.492  -7.614  -7.282  1.00  0.00     0.074 A 
ATOM     61  C   UNL     1      -6.197  -8.085  -5.947  1.00  0.00     0.031 C 
ATOM     62  C   UNL     1      -4.714  -1.447  -7.065  1.00  0.00     0.029 A 
ATOM     63  C   UNL     1      -5.237  -2.187  -8.214  1.00  0.00     0.049 A 
ATOM     64  H   UNL     1      -5.888  -4.166  -8.238  1.00  0.00     0.167 HD
ATOM     65  C   UNL     1      -7.044  -8.384  -8.249  1.00  0.00     0.031 A 
ATOM     66  C   UNL     1      -5.395  -1.699  -9.463  1.00  0.00     0.031 A 
ATOM     67  C   UNL     1      -7.326  -7.923  -9.581  1.00  0.00     0.049 A 
ATOM     68  C   UNL     1      -5.935  -2.595 -10.552  1.00  0.00     0.074 A 
ATOM     69  C   UNL     1      -7.899  -8.623 -10.628  1.00  0.00     0.029 A 
ATOM     70  N   UNL     1      -7.046  -6.651 -10.054  1.00  0.00    -0.354 N 
ATOM     71  N   UNL     1      -6.316  -3.849 -10.477  1.00  0.00    -0.248 NA
ATOM     72  C   UNL     1      -6.072  -2.008 -11.894  1.00  0.00     0.031 C 
ATOM     73  C   UNL     1      -7.903  -7.795 -11.754  1.00  0.00     0.029 A 
ATOM     74  C   UNL     1      -7.403  -6.555 -11.388  1.00  0.00     0.049 A 
ATOM     75  H   UNL     1      -6.652  -5.923  -9.521  1.00  0.00     0.167 HD
ATOM     76  C   UNL     1      -6.765  -4.189 -11.752  1.00  0.00     0.074 A 
ATOM     77  C   UNL     1      -6.619  -3.006 -12.574  1.00  0.00     0.031 C 
ATOM     78  C   UNL     1      -7.257  -5.371 -12.198  1.00  0.00     0.031 A 
BRANCH  65  79
ATOM     79  C   UNL     1      -7.331  -9.823  -7.910  1.00  0.00    -0.014 A 
ATOM     80  C   UNL     1      -8.351 -10.178  -7.008  1.00  0.00     0.010 A 
ATOM     81  C   UNL     1      -6.577 -10.840  -8.524  1.00  0.00     0.010 A 
ATOM     82  C   UNL     1      -8.581 -11.520  -6.693  1.00  0.00     0.020 A 
ATOM     83  C   UNL     1      -6.826 -12.185  -8.237  1.00  0.00     0.020 A 
ATOM     84  C   UNL     1      -7.815 -12.515  -7.309  1.00  0.00     0.054 A 
BRANCH  84  85
ATOM     85  S   UNL     1      -8.146 -14.248  -6.894  1.00  0.00     0.124 S 
ATOM     86  O   UNL     1      -7.631 -14.335  -5.529  1.00  0.00    -0.237 OA
ATOM     87  O   UNL     1      -9.598 -14.336  -7.023  1.00  0.00    -0.237 OA
ATOM     88  O   UNL     1      -7.387 -14.996  -7.893  1.00  0.00    -0.744 OA
ENDBRANCH  84  85
ENDBRANCH  65  79
BRANCH  66  89
ATOM     89  C   UNL     1      -5.002  -0.293  -9.769  1.00  0.00    -0.014 A 
ATOM     90  C   UNL     1      -5.970   0.673 -10.100  1.00  0.00     0.010 A 
ATOM     91  C   UNL     1      -3.646   0.084  -9.744  1.00  0.00     0.010 A 
ATOM     92  C   UNL     1      -5.588   1.982 -10.412  1.00  0.00     0.020 A 
ATOM     93  C   UNL     1      -3.264   1.398 -10.025  1.00  0.00     0.020 A 
ATOM     94  C   UNL     1      -4.237   2.338 -10.368  1.00  0.00     0.054 A 
BRANCH  94  95
ATOM     95  S   UNL     1      -3.771   4.055 -10.724  1.00  0.00     0.124 S 
ATOM     96  O   UNL     1      -3.991   4.137 -12.165  1.00  0.00    -0.237 OA
ATOM     97  O   UNL     1      -4.707   4.811  -9.897  1.00  0.00    -0.237 OA
ATOM     98  O   UNL     1      -2.374   4.123 -10.300  1.00  0.00    -0.744 OA
ENDBRANCH  94  95
ENDBRANCH  66  89
BRANCH  78  99
ATOM     99  C   UNL     1      -7.721  -5.448 -13.631  1.00  0.00    -0.014 A 
ATOM    100  C   UNL     1      -6.810  -5.442 -14.701  1.00  0.00     0.010 A 
ATOM    101  C   UNL     1      -9.094  -5.608 -13.904  1.00  0.00     0.010 A 
ATOM    102  C   UNL     1      -7.265  -5.568 -16.018  1.00  0.00     0.020 A 
ATOM    103  C   UNL     1      -9.549  -5.766 -15.216  1.00  0.00     0.020 A 
ATOM    104  C   UNL     1      -8.632  -5.732 -16.267  1.00  0.00     0.054 A 
BRANCH 104 105
ATOM    105  S   UNL     1      -9.189  -5.947 -17.980  1.00  0.00     0.124 S 
ATOM    106  O   UNL     1      -9.002  -4.608 -18.531  1.00  0.00    -0.237 OA
ATOM    107  O   UNL     1      -8.276  -6.969 -18.487  1.00  0.00    -0.237 OA
ATOM    108  O   UNL     1     -10.579  -6.375 -17.842  1.00  0.00    -0.744 OA
ENDBRANCH 104 105
ENDBRANCH  78  99
ENDBRANCH  52  53
ENDBRANCH  45  47
ENDBRANCH  44  45
ENDBRANCH  43  44
ENDBRANCH  42  43
ENDBRANCH  41  42
ENDBRANCH  40  41
ENDBRANCH  39  40
ENDBRANCH  38  39
ENDBRANCH   1  38
TORSDOF 29
