REMARK SMILES Cc1cc(C(=O)OCCOCCOCCOCCOC(=O)c2ccc(-c3c4nc(c(-c5ccc(S(=O)(=O)[O-])cc5)c5ccc([nH]5)c(-c5ccc(S(=O)(=O)[O-])cc5)c5nc(c(-c6ccc(S(=O)(=O)[O-])cc6)c6ccc3[nH]6)C=C5)C=C4)cc2)c(C#Cc2ccccc2)s1
REMARK SMILES IDX 14 1 13 2 12 3 11 4 10 5 9 6 8 7 7 8 5 9 6 10 4 11 1 12 2 13
REMARK SMILES IDX 3 14 91 15 82 16 83 17 84 18 85 19 86 20 90 21 87 22 89 23
REMARK SMILES IDX 88 24 15 25 16 26 17 27 18 28 19 29 20 30 21 31 22 32 23 33
REMARK SMILES IDX 81 34 24 35 80 36 25 37 26 38 27 39 74 40 28 41 79 42 73 43
REMARK SMILES IDX 75 44 29 45 78 46 72 47 71 48 30 50 60 51 41 52 59 53 42 54
REMARK SMILES IDX 45 55 58 56 76 57 43 58 44 59 57 61 77 62 46 63 31 64 32 65
REMARK SMILES IDX 40 66 33 67 39 68 34 69 35 70 36 71 37 72 38 73 61 74 62 75
REMARK SMILES IDX 70 76 63 77 69 78 64 79 65 80 66 81 67 82 68 83 47 84 48 85
REMARK SMILES IDX 56 86 49 87 55 88 50 89 51 90 52 91 53 92 54 93
REMARK H PARENT 75 49 45 60
REMARK Flexibility Score: inf
ROOT
ATOM      1  C   UNL     1      -3.987  -1.559  -4.747  1.00  0.00     0.188 C 
ENDROOT
BRANCH   1   2
ATOM      2  O   UNL     1      -3.642  -0.498  -3.874  1.00  0.00    -0.377 OA
BRANCH   2   3
ATOM      3  C   UNL     1      -2.443   0.179  -4.214  1.00  0.00     0.188 C 
BRANCH   3   4
ATOM      4  C   UNL     1      -2.284   0.606  -5.684  1.00  0.00     0.188 C 
BRANCH   4   5
ATOM      5  O   UNL     1      -2.405  -0.469  -6.610  1.00  0.00    -0.376 OA
BRANCH   5   6
ATOM      6  C   UNL     1      -1.238  -1.016  -7.202  1.00  0.00     0.202 C 
BRANCH   6   7
ATOM      7  C   UNL     1      -0.419  -1.969  -6.325  1.00  0.00     0.261 C 
BRANCH   7   8
ATOM      8  O   UNL     1       0.065  -1.452  -5.081  1.00  0.00    -0.460 OA
BRANCH   8   9
ATOM      9  C   UNL     1       0.804  -0.306  -5.105  1.00  0.00     0.340 C 
ATOM     10  O   UNL     1       1.092   0.311  -6.123  1.00  0.00    -0.246 OA
BRANCH   9  11
ATOM     11  C   UNL     1       0.925   0.243  -3.751  1.00  0.00     0.086 A 
ATOM     12  C   UNL     1       1.047  -0.221   0.020  1.00  0.00     0.056 C 
ATOM     13  C   UNL     1       0.993   0.230  -1.398  1.00  0.00     0.004 A 
ATOM     14  C   UNL     1       1.050  -0.536  -2.543  1.00  0.00     0.032 A 
ATOM     15  S   UNL     1       0.847   1.890  -1.766  1.00  0.00    -0.131 S 
ATOM     16  C   UNL     1       0.775   1.587  -3.447  1.00  0.00     0.092 A 
BRANCH  16  17
ATOM     17  C   UNL     1       0.470   2.635  -4.372  1.00  0.00    -0.050 C 
ATOM     18  C   UNL     1       0.158   3.484  -5.159  1.00  0.00    -0.061 C 
BRANCH  18  19
ATOM     19  C   UNL     1      -0.199   4.487  -6.114  1.00  0.00     0.025 A 
ATOM     20  C   UNL     1      -0.014   4.250  -7.478  1.00  0.00     0.017 A 
ATOM     21  C   UNL     1      -0.693   5.718  -5.681  1.00  0.00     0.017 A 
ATOM     22  C   UNL     1      -0.281   5.261  -8.403  1.00  0.00     0.001 A 
ATOM     23  C   UNL     1      -0.959   6.729  -6.606  1.00  0.00     0.001 A 
ATOM     24  C   UNL     1      -0.741   6.504  -7.966  1.00  0.00     0.000 A 
ENDBRANCH  18  19
ENDBRANCH  16  17
ENDBRANCH   9  11
ENDBRANCH   8   9
ENDBRANCH   7   8
ENDBRANCH   6   7
ENDBRANCH   5   6
ENDBRANCH   4   5
ENDBRANCH   3   4
ENDBRANCH   2   3
ENDBRANCH   1   2
BRANCH   1  25
ATOM     25  C   UNL     1      -5.001  -1.121  -5.826  1.00  0.00     0.188 C 
BRANCH  25  26
ATOM     26  O   UNL     1      -5.863  -0.009  -5.605  1.00  0.00    -0.376 OA
BRANCH  26  27
ATOM     27  C   UNL     1      -6.279   0.293  -4.285  1.00  0.00     0.202 C 
BRANCH  27  28
ATOM     28  C   UNL     1      -6.946  -0.794  -3.411  1.00  0.00     0.261 C 
BRANCH  28  29
ATOM     29  O   UNL     1      -6.602  -2.148  -3.734  1.00  0.00    -0.460 OA
BRANCH  29  30
ATOM     30  C   UNL     1      -7.524  -2.931  -4.350  1.00  0.00     0.338 C 
ATOM     31  O   UNL     1      -8.722  -2.733  -4.426  1.00  0.00    -0.246 OA
BRANCH  30  32
ATOM     32  C   UNL     1      -6.762  -3.905  -5.185  1.00  0.00     0.060 A 
ATOM     33  C   UNL     1      -5.620  -4.542  -4.691  1.00  0.00     0.016 A 
ATOM     34  C   UNL     1      -7.010  -3.880  -6.569  1.00  0.00     0.016 A 
ATOM     35  C   UNL     1      -4.669  -5.023  -5.593  1.00  0.00     0.010 A 
ATOM     36  C   UNL     1      -6.048  -4.359  -7.468  1.00  0.00     0.010 A 
ATOM     37  C   UNL     1      -4.853  -4.895  -6.987  1.00  0.00    -0.014 A 
BRANCH  37  38
ATOM     38  C   UNL     1      -3.857  -5.549  -7.855  1.00  0.00     0.031 A 
ATOM     39  C   UNL     1      -3.749  -7.013  -7.590  1.00  0.00     0.074 A 
ATOM     40  C   UNL     1      -3.168  -5.072  -8.915  1.00  0.00     0.049 A 
ATOM     41  N   UNL     1      -2.732  -7.683  -7.157  1.00  0.00    -0.248 NA
ATOM     42  C   UNL     1      -4.987  -7.796  -7.723  1.00  0.00     0.031 C 
ATOM     43  C   UNL     1      -3.335  -3.812  -9.638  1.00  0.00     0.029 A 
ATOM     44  N   UNL     1      -2.193  -5.713  -9.639  1.00  0.00    -0.354 N 
ATOM     45  C   UNL     1      -3.156  -9.006  -7.079  1.00  0.00     0.074 A 
ATOM     46  C   UNL     1      -4.578  -8.996  -7.320  1.00  0.00     0.031 C 
ATOM     47  C   UNL     1      -2.658  -3.880 -10.812  1.00  0.00     0.029 A 
ATOM     48  C   UNL     1      -1.897  -5.120 -10.860  1.00  0.00     0.049 A 
ATOM     49  H   UNL     1      -1.740  -6.526  -9.318  1.00  0.00     0.167 HD
ATOM     50  C   UNL     1      -2.303 -10.058  -6.953  1.00  0.00     0.031 A 
ATOM     51  C   UNL     1      -1.140  -5.650 -11.856  1.00  0.00     0.031 A 
ATOM     52  C   UNL     1      -0.987  -9.655  -6.544  1.00  0.00     0.049 A 
ATOM     53  C   UNL     1      -0.291  -6.721 -11.280  1.00  0.00     0.074 A 
ATOM     54  C   UNL     1      -0.473  -9.023  -5.430  1.00  0.00     0.029 A 
ATOM     55  N   UNL     1      -0.003  -9.596  -7.500  1.00  0.00    -0.354 N 
ATOM     56  N   UNL     1       0.702  -6.520 -10.464  1.00  0.00    -0.248 NA
ATOM     57  C   UNL     1      -0.757  -8.094 -11.373  1.00  0.00     0.031 C 
ATOM     58  C   UNL     1       0.584  -8.207  -5.923  1.00  0.00     0.029 A 
ATOM     59  C   UNL     1       0.683  -8.423  -7.300  1.00  0.00     0.049 A 
ATOM     60  H   UNL     1       0.177 -10.268  -8.197  1.00  0.00     0.167 HD
ATOM     61  C   UNL     1       0.721  -7.637  -9.643  1.00  0.00     0.074 A 
ATOM     62  C   UNL     1      -0.124  -8.615 -10.321  1.00  0.00     0.031 C 
ATOM     63  C   UNL     1       1.198  -7.578  -8.364  1.00  0.00     0.031 A 
BRANCH  50  64
ATOM     64  C   UNL     1      -2.620 -11.444  -7.446  1.00  0.00    -0.014 A 
ATOM     65  C   UNL     1      -3.619 -11.693  -8.410  1.00  0.00     0.010 A 
ATOM     66  C   UNL     1      -1.772 -12.517  -7.111  1.00  0.00     0.010 A 
ATOM     67  C   UNL     1      -3.807 -12.954  -8.975  1.00  0.00     0.020 A 
ATOM     68  C   UNL     1      -1.919 -13.777  -7.712  1.00  0.00     0.020 A 
ATOM     69  C   UNL     1      -2.946 -13.988  -8.631  1.00  0.00     0.054 A 
BRANCH  69  70
ATOM     70  S   UNL     1      -3.149 -15.576  -9.473  1.00  0.00     0.124 S 
ATOM     71  O   UNL     1      -4.396 -16.067  -8.892  1.00  0.00    -0.237 OA
ATOM     72  O   UNL     1      -3.221 -15.179 -10.877  1.00  0.00    -0.237 OA
ATOM     73  O   UNL     1      -1.949 -16.319  -9.098  1.00  0.00    -0.744 OA
ENDBRANCH  69  70
ENDBRANCH  50  64
BRANCH  51  74
ATOM     74  C   UNL     1      -1.351  -5.573 -13.328  1.00  0.00    -0.014 A 
ATOM     75  C   UNL     1      -2.652  -5.404 -13.836  1.00  0.00     0.010 A 
ATOM     76  C   UNL     1      -0.350  -6.020 -14.219  1.00  0.00     0.010 A 
ATOM     77  C   UNL     1      -2.970  -5.764 -15.151  1.00  0.00     0.020 A 
ATOM     78  C   UNL     1      -0.663  -6.387 -15.539  1.00  0.00     0.020 A 
ATOM     79  C   UNL     1      -1.984  -6.297 -15.980  1.00  0.00     0.054 A 
BRANCH  79  80
ATOM     80  S   UNL     1      -2.488  -6.967 -17.591  1.00  0.00     0.124 S 
ATOM     81  O   UNL     1      -3.291  -8.122 -17.200  1.00  0.00    -0.237 OA
ATOM     82  O   UNL     1      -3.233  -5.855 -18.176  1.00  0.00    -0.237 OA
ATOM     83  O   UNL     1      -1.222  -7.279 -18.250  1.00  0.00    -0.744 OA
ENDBRANCH  79  80
ENDBRANCH  51  74
BRANCH  63  84
ATOM     84  C   UNL     1       2.056  -6.403  -7.933  1.00  0.00    -0.014 A 
ATOM     85  C   UNL     1       3.184  -6.681  -7.134  1.00  0.00     0.010 A 
ATOM     86  C   UNL     1       1.710  -5.055  -8.134  1.00  0.00     0.010 A 
ATOM     87  C   UNL     1       3.888  -5.661  -6.488  1.00  0.00     0.020 A 
ATOM     88  C   UNL     1       2.458  -4.024  -7.545  1.00  0.00     0.020 A 
ATOM     89  C   UNL     1       3.502  -4.336  -6.677  1.00  0.00     0.054 A 
BRANCH  89  90
ATOM     90  S   UNL     1       4.325  -3.045  -5.708  1.00  0.00     0.124 S 
ATOM     91  O   UNL     1       3.915  -3.373  -4.343  1.00  0.00    -0.237 OA
ATOM     92  O   UNL     1       5.736  -3.268  -6.011  1.00  0.00    -0.237 OA
ATOM     93  O   UNL     1       3.763  -1.802  -6.229  1.00  0.00    -0.744 OA
ENDBRANCH  89  90
ENDBRANCH  63  84
ENDBRANCH  37  38
ENDBRANCH  30  32
ENDBRANCH  29  30
ENDBRANCH  28  29
ENDBRANCH  27  28
ENDBRANCH  26  27
ENDBRANCH  25  26
ENDBRANCH   1  25
TORSDOF 25
