REMARK SMILES Cc1cccc(-c2cc(C(=O)OCCOCCOCCOCCOC(=O)c3ccc(-c4c5nc(c(-c6ccc(S(=O)(=O)[O-])cc6)c6ccc([nH]6)c(-c6ccc(S(=O)(=O)[O-])cc6)c6nc(c(-c7ccc(S(=O)(=O)[O-])cc7)c7ccc4[nH]7)C=C6)C=C5)cc3)ccn2)c1
REMARK SMILES IDX 19 1 18 2 17 3 16 4 15 5 14 6 13 7 12 8 10 9 11 10 9 11 7 12
REMARK SMILES IDX 8 13 89 14 88 15 87 16 6 17 1 18 2 19 3 20 90 21 4 22 5 23
REMARK SMILES IDX 20 24 21 25 22 26 23 27 24 28 25 29 26 30 27 31 28 32 86 33
REMARK SMILES IDX 29 34 85 35 30 36 31 37 32 38 79 39 33 40 84 41 78 42 80 43
REMARK SMILES IDX 34 44 83 45 77 46 76 47 35 49 65 50 46 51 64 52 47 53 50 54
REMARK SMILES IDX 63 55 81 56 48 57 49 58 62 60 82 61 51 62 36 63 37 64 45 65
REMARK SMILES IDX 38 66 44 67 39 68 40 69 41 70 42 71 43 72 66 73 67 74 75 75
REMARK SMILES IDX 68 76 74 77 69 78 70 79 71 80 72 81 73 82 52 83 53 84 61 85
REMARK SMILES IDX 54 86 60 87 55 88 56 89 57 90 58 91 59 92
REMARK H PARENT 80 48 50 59
REMARK Flexibility Score: inf
ROOT
ATOM      1  C   UNL     1      -5.194   2.038  -4.685  1.00  0.00     0.188 C 
ENDROOT
BRANCH   1   2
ATOM      2  O   UNL     1      -4.768   2.469  -3.394  1.00  0.00    -0.377 OA
BRANCH   2   3
ATOM      3  C   UNL     1      -5.676   3.105  -2.518  1.00  0.00     0.188 C 
BRANCH   3   4
ATOM      4  C   UNL     1      -5.871   4.625  -2.581  1.00  0.00     0.188 C 
BRANCH   4   5
ATOM      5  O   UNL     1      -4.774   5.485  -2.678  1.00  0.00    -0.376 OA
BRANCH   5   6
ATOM      6  C   UNL     1      -3.864   5.448  -3.760  1.00  0.00     0.202 C 
BRANCH   6   7
ATOM      7  C   UNL     1      -2.771   4.408  -3.676  1.00  0.00     0.261 C 
BRANCH   7   8
ATOM      8  O   UNL     1      -2.184   4.243  -2.384  1.00  0.00    -0.460 OA
BRANCH   8   9
ATOM      9  C   UNL     1      -2.509   4.998  -1.313  1.00  0.00     0.338 C 
ATOM     10  O   UNL     1      -2.867   6.155  -1.201  1.00  0.00    -0.246 OA
BRANCH   9  11
ATOM     11  C   UNL     1      -2.494   4.085  -0.176  1.00  0.00     0.063 A 
ATOM     12  C   UNL     1      -1.915   1.990   0.764  1.00  0.00     0.071 A 
ATOM     13  C   UNL     1      -1.807   2.889  -0.271  1.00  0.00     0.044 A 
ATOM     14  N   UNL     1      -2.667   2.224   1.865  1.00  0.00    -0.256 NA
ATOM     15  C   UNL     1      -3.304   3.423   1.931  1.00  0.00     0.112 A 
ATOM     16  C   UNL     1      -3.247   4.386   0.947  1.00  0.00     0.036 A 
BRANCH  12  17
ATOM     17  C   UNL     1      -1.165   0.747   0.650  1.00  0.00     0.000 A 
ATOM     18  C   UNL     1       2.478  -0.212   0.081  1.00  0.00     0.044 C 
ATOM     19  C   UNL     1       0.991  -0.320   0.222  1.00  0.00    -0.050 A 
ATOM     20  C   UNL     1       0.329  -1.536   0.026  1.00  0.00     0.003 A 
ATOM     21  C   UNL     1       0.237   0.807   0.550  1.00  0.00     0.013 A 
ATOM     22  C   UNL     1      -1.063  -1.613   0.132  1.00  0.00     0.001 A 
ATOM     23  C   UNL     1      -1.809  -0.475   0.438  1.00  0.00     0.010 A 
ENDBRANCH  12  17
ENDBRANCH   9  11
ENDBRANCH   8   9
ENDBRANCH   7   8
ENDBRANCH   6   7
ENDBRANCH   5   6
ENDBRANCH   4   5
ENDBRANCH   3   4
ENDBRANCH   2   3
ENDBRANCH   1   2
BRANCH   1  24
ATOM     24  C   UNL     1      -5.247   3.106  -5.782  1.00  0.00     0.188 C 
BRANCH  24  25
ATOM     25  O   UNL     1      -6.014   4.231  -5.382  1.00  0.00    -0.376 OA
BRANCH  25  26
ATOM     26  C   UNL     1      -7.385   4.263  -5.722  1.00  0.00     0.202 C 
BRANCH  26  27
ATOM     27  C   UNL     1      -7.585   4.661  -7.180  1.00  0.00     0.261 C 
BRANCH  27  28
ATOM     28  O   UNL     1      -6.916   5.918  -7.388  1.00  0.00    -0.460 OA
BRANCH  28  29
ATOM     29  C   UNL     1      -5.779   5.861  -8.134  1.00  0.00     0.338 C 
ATOM     30  O   UNL     1      -5.627   5.158  -9.122  1.00  0.00    -0.246 OA
BRANCH  29  31
ATOM     31  C   UNL     1      -4.727   6.702  -7.496  1.00  0.00     0.060 A 
ATOM     32  C   UNL     1      -3.376   6.551  -7.849  1.00  0.00     0.016 A 
ATOM     33  C   UNL     1      -5.057   7.521  -6.419  1.00  0.00     0.016 A 
ATOM     34  C   UNL     1      -2.357   7.155  -7.087  1.00  0.00     0.010 A 
ATOM     35  C   UNL     1      -4.048   8.076  -5.647  1.00  0.00     0.010 A 
ATOM     36  C   UNL     1      -2.683   7.899  -5.950  1.00  0.00    -0.014 A 
BRANCH  36  37
ATOM     37  C   UNL     1      -1.739   8.329  -4.888  1.00  0.00     0.031 A 
ATOM     38  C   UNL     1      -1.907   9.634  -4.175  1.00  0.00     0.074 A 
ATOM     39  C   UNL     1      -1.068   7.367  -4.212  1.00  0.00     0.049 A 
ATOM     40  N   UNL     1      -1.217  10.010  -3.147  1.00  0.00    -0.248 NA
ATOM     41  C   UNL     1      -2.877  10.654  -4.565  1.00  0.00     0.031 C 
ATOM     42  C   UNL     1      -0.830   7.361  -2.772  1.00  0.00     0.029 A 
ATOM     43  N   UNL     1      -0.548   6.154  -4.609  1.00  0.00    -0.354 N 
ATOM     44  C   UNL     1      -1.965  10.953  -2.480  1.00  0.00     0.074 A 
ATOM     45  C   UNL     1      -2.855  11.460  -3.498  1.00  0.00     0.031 C 
ATOM     46  C   UNL     1      -0.072   6.319  -2.423  1.00  0.00     0.029 A 
ATOM     47  C   UNL     1       0.303   5.639  -3.638  1.00  0.00     0.049 A 
ATOM     48  H   UNL     1      -0.751   5.713  -5.465  1.00  0.00     0.167 HD
ATOM     49  C   UNL     1      -1.865  11.063  -1.117  1.00  0.00     0.031 A 
ATOM     50  C   UNL     1       1.507   5.056  -3.840  1.00  0.00     0.031 A 
ATOM     51  C   UNL     1      -0.813  10.176  -0.549  1.00  0.00     0.049 A 
ATOM     52  C   UNL     1       2.492   5.994  -3.180  1.00  0.00     0.074 A 
ATOM     53  C   UNL     1      -0.792   9.197   0.434  1.00  0.00     0.029 A 
ATOM     54  N   UNL     1       0.438  10.080  -1.183  1.00  0.00    -0.354 N 
ATOM     55  N   UNL     1       2.198   7.265  -3.014  1.00  0.00    -0.248 NA
ATOM     56  C   UNL     1       3.688   5.604  -2.435  1.00  0.00     0.031 C 
ATOM     57  C   UNL     1       0.442   8.474   0.325  1.00  0.00     0.029 A 
ATOM     58  C   UNL     1       1.192   9.014  -0.714  1.00  0.00     0.049 A 
ATOM     59  H   UNL     1       0.746  10.700  -1.883  1.00  0.00     0.167 HD
ATOM     60  C   UNL     1       2.918   7.746  -1.966  1.00  0.00     0.074 A 
ATOM     61  C   UNL     1       3.931   6.723  -1.721  1.00  0.00     0.031 C 
ATOM     62  C   UNL     1       2.569   8.798  -1.168  1.00  0.00     0.031 A 
BRANCH  49  63
ATOM     63  C   UNL     1      -2.853  11.870  -0.253  1.00  0.00    -0.014 A 
ATOM     64  C   UNL     1      -2.699  11.950   1.149  1.00  0.00     0.010 A 
ATOM     65  C   UNL     1      -3.971  12.570  -0.758  1.00  0.00     0.010 A 
ATOM     66  C   UNL     1      -3.567  12.711   1.969  1.00  0.00     0.020 A 
ATOM     67  C   UNL     1      -4.825  13.357   0.034  1.00  0.00     0.020 A 
ATOM     68  C   UNL     1      -4.614  13.433   1.400  1.00  0.00     0.054 A 
BRANCH  68  69
ATOM     69  S   UNL     1      -5.673  14.486   2.432  1.00  0.00     0.124 S 
ATOM     70  O   UNL     1      -6.314  13.520   3.321  1.00  0.00    -0.237 OA
ATOM     71  O   UNL     1      -4.710  15.383   3.063  1.00  0.00    -0.237 OA
ATOM     72  O   UNL     1      -6.571  15.127   1.471  1.00  0.00    -0.744 OA
ENDBRANCH  68  69
ENDBRANCH  49  63
BRANCH  50  73
ATOM     73  C   UNL     1       1.513   4.140  -5.011  1.00  0.00    -0.014 A 
ATOM     74  C   UNL     1       0.919   2.873  -4.758  1.00  0.00     0.010 A 
ATOM     75  C   UNL     1       1.431   4.654  -6.319  1.00  0.00     0.010 A 
ATOM     76  C   UNL     1       0.096   2.249  -5.708  1.00  0.00     0.020 A 
ATOM     77  C   UNL     1       0.581   4.042  -7.263  1.00  0.00     0.020 A 
ATOM     78  C   UNL     1      -0.117   2.871  -6.935  1.00  0.00     0.054 A 
BRANCH  78  79
ATOM     79  S   UNL     1      -1.489   2.313  -8.003  1.00  0.00     0.124 S 
ATOM     80  O   UNL     1      -0.791   1.537  -9.021  1.00  0.00    -0.237 OA
ATOM     81  O   UNL     1      -2.346   1.546  -7.100  1.00  0.00    -0.237 OA
ATOM     82  O   UNL     1      -2.066   3.576  -8.454  1.00  0.00    -0.744 OA
ENDBRANCH  78  79
ENDBRANCH  50  73
BRANCH  62  83
ATOM     83  C   UNL     1       3.624   9.802  -0.816  1.00  0.00    -0.014 A 
ATOM     84  C   UNL     1       4.873   9.825  -1.462  1.00  0.00     0.010 A 
ATOM     85  C   UNL     1       3.301  10.877   0.038  1.00  0.00     0.010 A 
ATOM     86  C   UNL     1       5.788  10.844  -1.213  1.00  0.00     0.020 A 
ATOM     87  C   UNL     1       4.193  11.924   0.257  1.00  0.00     0.020 A 
ATOM     88  C   UNL     1       5.445  11.880  -0.346  1.00  0.00     0.054 A 
BRANCH  88  89
ATOM     89  S   UNL     1       6.655  13.177  -0.026  1.00  0.00     0.124 S 
ATOM     90  O   UNL     1       7.523  12.531   0.955  1.00  0.00    -0.237 OA
ATOM     91  O   UNL     1       7.252  13.397  -1.342  1.00  0.00    -0.237 OA
ATOM     92  O   UNL     1       5.850  14.285   0.481  1.00  0.00    -0.744 OA
ENDBRANCH  88  89
ENDBRANCH  62  83
ENDBRANCH  36  37
ENDBRANCH  29  31
ENDBRANCH  28  29
ENDBRANCH  27  28
ENDBRANCH  26  27
ENDBRANCH  25  26
ENDBRANCH  24  25
ENDBRANCH   1  24
TORSDOF 24
