REMARK SMILES C[C@@H](C(=O)OCCOCCOCCOCCOC(=O)c1ccc(-c2c3nc(c(-c4ccc(S(=O)(=O)[O-])cc4)c4ccc([nH]4)c(-c4ccc(S(=O)(=O)[O-])cc4)c4nc(c(-c5ccc(S(=O)(=O)[O-])cc5)c5ccc2[nH]5)C=C4)C=C3)cc1)N1C(=O)CSc2cccn2-c2ccccc21
REMARK SMILES IDX 10 1 9 2 8 3 7 4 6 5 5 6 3 7 4 8 2 9 1 10 80 11 81 12 82 13
REMARK SMILES IDX 95 15 90 16 94 17 91 18 93 19 92 20 89 21 85 22 88 23 86 24
REMARK SMILES IDX 87 25 84 26 83 27 11 29 12 30 13 31 14 32 15 33 16 34 17 35
REMARK SMILES IDX 18 36 19 37 20 38 21 39 79 40 22 41 78 42 23 43 24 44 25 45
REMARK SMILES IDX 72 46 26 47 77 48 71 49 73 50 27 51 76 52 70 53 69 54 28 56
REMARK SMILES IDX 58 57 39 58 57 59 40 60 43 61 56 62 74 63 41 64 42 65 55 67
REMARK SMILES IDX 75 68 44 69 29 70 30 71 38 72 31 73 37 74 32 75 33 76 34 77
REMARK SMILES IDX 35 78 36 79 59 80 60 81 68 82 61 83 67 84 62 85 63 86 64 87
REMARK SMILES IDX 65 88 66 89 45 90 46 91 54 92 47 93 53 94 48 95 49 96 50 97
REMARK SMILES IDX 51 98 52 99
REMARK H PARENT 73 55 43 66
REMARK Flexibility Score: 80.00
ROOT
ATOM      1  C   UNL     1       1.129   1.480  -2.014  1.00  0.00     0.188 C 
ENDROOT
BRANCH   1   2
ATOM      2  C   UNL     1       0.168   2.691  -1.942  1.00  0.00     0.188 C 
BRANCH   2   3
ATOM      3  O   UNL     1       0.709   3.982  -1.712  1.00  0.00    -0.376 OA
BRANCH   3   4
ATOM      4  C   UNL     1       1.683   4.094  -0.690  1.00  0.00     0.202 C 
BRANCH   4   5
ATOM      5  C   UNL     1       1.517   3.391   0.686  1.00  0.00     0.261 C 
BRANCH   5   6
ATOM      6  O   UNL     1       0.937   2.062   0.772  1.00  0.00    -0.462 OA
BRANCH   6   7
ATOM      7  C   UNL     1      -0.324   1.906   1.278  1.00  0.00     0.329 C 
ATOM      8  O   UNL     1      -1.041   2.846   1.615  1.00  0.00    -0.250 OA
BRANCH   7   9
ATOM      9  C   UNL     1      -0.776   0.403   1.438  1.00  0.00     0.197 C 
ATOM     10  C   UNL     1       0.216  -0.649   0.931  1.00  0.00     0.044 C 
BRANCH   9  11
ATOM     11  N   UNL     1      -2.180   0.179   0.949  1.00  0.00    -0.296 N 
BRANCH  11  12
ATOM     12  C   UNL     1      -2.467   0.541  -0.360  1.00  0.00     0.238 CG0
ATOM     13  O   UNL     1      -1.596   0.719  -1.206  1.00  0.00    -0.274 OA
ATOM     14  G   UNL     1      -3.925   0.662  -0.720  1.00  0.00     0.000 G0
ENDBRANCH  11  12
BRANCH  11  15
ATOM     15  C   UNL     1      -2.938  -0.903   1.523  1.00  0.00     0.069 A 
ATOM     16  C   UNL     1      -2.881  -2.239   1.048  1.00  0.00     0.070 A 
ATOM     17  C   UNL     1      -3.832  -0.618   2.557  1.00  0.00     0.028 A 
ATOM     18  C   UNL     1      -3.432  -3.288   1.797  1.00  0.00     0.029 A 
ATOM     19  C   UNL     1      -4.562  -1.651   3.158  1.00  0.00     0.002 A 
ATOM     20  C   UNL     1      -4.303  -2.984   2.837  1.00  0.00     0.002 A 
BRANCH  16  21
ATOM     21  N   UNL     1      -2.596  -2.536  -0.316  1.00  0.00    -0.310 N 
ATOM     22  C   UNL     1      -3.168  -1.920  -1.425  1.00  0.00     0.080 A 
ATOM     23  C   UNL     1      -1.938  -3.655  -0.798  1.00  0.00     0.092 A 
ATOM     24  C   UNL     1      -2.534  -2.378  -2.555  1.00  0.00     0.035 A 
ATOM     25  C   UNL     1      -1.798  -3.519  -2.166  1.00  0.00     0.021 A 
BRANCH  22  26
ATOM     26  S   UNL     1      -4.585  -0.896  -1.345  1.00  0.00    -0.098 SA
BRANCH  26  27
ATOM     27  C   UNL     1      -3.925   0.662  -0.720  1.00  0.00     0.177 CG0
ATOM     28  G   UNL     1      -2.467   0.541  -0.360  1.00  0.00     0.000 G0
ENDBRANCH  26  27
ENDBRANCH  22  26
ENDBRANCH  16  21
ENDBRANCH  11  15
ENDBRANCH   9  11
ENDBRANCH   7   9
ENDBRANCH   6   7
ENDBRANCH   5   6
ENDBRANCH   4   5
ENDBRANCH   3   4
ENDBRANCH   2   3
ENDBRANCH   1   2
BRANCH   1  29
ATOM     29  O   UNL     1       2.497   1.846  -2.074  1.00  0.00    -0.377 OA
BRANCH  29  30
ATOM     30  C   UNL     1       3.067   1.941  -3.371  1.00  0.00     0.188 C 
BRANCH  30  31
ATOM     31  C   UNL     1       2.217   2.580  -4.486  1.00  0.00     0.188 C 
BRANCH  31  32
ATOM     32  O   UNL     1       0.910   2.035  -4.611  1.00  0.00    -0.376 OA
BRANCH  32  33
ATOM     33  C   UNL     1       0.634   1.022  -5.562  1.00  0.00     0.202 C 
BRANCH  33  34
ATOM     34  C   UNL     1       1.307  -0.350  -5.395  1.00  0.00     0.261 C 
BRANCH  34  35
ATOM     35  O   UNL     1       2.738  -0.355  -5.332  1.00  0.00    -0.460 OA
BRANCH  35  36
ATOM     36  C   UNL     1       3.408   0.152  -6.392  1.00  0.00     0.338 C 
ATOM     37  O   UNL     1       2.937   0.565  -7.426  1.00  0.00    -0.246 OA
BRANCH  36  38
ATOM     38  C   UNL     1       4.825   0.295  -5.986  1.00  0.00     0.060 A 
ATOM     39  C   UNL     1       5.415   1.564  -6.044  1.00  0.00     0.016 A 
ATOM     40  C   UNL     1       5.558  -0.809  -5.544  1.00  0.00     0.016 A 
ATOM     41  C   UNL     1       6.756   1.724  -5.699  1.00  0.00     0.010 A 
ATOM     42  C   UNL     1       6.907  -0.650  -5.219  1.00  0.00     0.010 A 
ATOM     43  C   UNL     1       7.521   0.610  -5.331  1.00  0.00    -0.014 A 
BRANCH  43  44
ATOM     44  C   UNL     1       8.998   0.725  -5.258  1.00  0.00     0.031 A 
ATOM     45  C   UNL     1       9.806   0.266  -6.442  1.00  0.00     0.074 A 
ATOM     46  C   UNL     1       9.609   1.246  -4.180  1.00  0.00     0.049 A 
ATOM     47  N   UNL     1      11.104   0.223  -6.595  1.00  0.00    -0.248 NA
ATOM     48  C   UNL     1       9.046  -0.211  -7.611  1.00  0.00     0.031 C 
ATOM     49  C   UNL     1       8.935   1.770  -2.993  1.00  0.00     0.029 A 
ATOM     50  N   UNL     1      10.945   1.412  -3.909  1.00  0.00    -0.354 N 
ATOM     51  C   UNL     1      11.316  -0.290  -7.869  1.00  0.00     0.074 A 
ATOM     52  C   UNL     1      10.016  -0.577  -8.434  1.00  0.00     0.031 C 
ATOM     53  C   UNL     1       9.863   2.190  -2.115  1.00  0.00     0.029 A 
ATOM     54  C   UNL     1      11.194   1.929  -2.660  1.00  0.00     0.049 A 
ATOM     55  H   UNL     1      11.657   1.182  -4.549  1.00  0.00     0.167 HD
ATOM     56  C   UNL     1      12.488  -0.499  -8.514  1.00  0.00     0.031 A 
ATOM     57  C   UNL     1      12.363   2.142  -2.021  1.00  0.00     0.031 A 
ATOM     58  C   UNL     1      13.779  -0.231  -7.940  1.00  0.00     0.049 A 
ATOM     59  C   UNL     1      13.657   1.820  -2.726  1.00  0.00     0.074 A 
ATOM     60  C   UNL     1      15.027  -0.404  -8.512  1.00  0.00     0.029 A 
ATOM     61  N   UNL     1      13.990   0.258  -6.659  1.00  0.00    -0.354 N 
ATOM     62  N   UNL     1      13.844   1.353  -3.938  1.00  0.00    -0.248 NA
ATOM     63  C   UNL     1      14.900   2.064  -1.979  1.00  0.00     0.031 C 
ATOM     64  C   UNL     1      15.993  -0.083  -7.554  1.00  0.00     0.029 A 
ATOM     65  C   UNL     1      15.348   0.365  -6.412  1.00  0.00     0.049 A 
ATOM     66  H   UNL     1      13.279   0.494  -6.020  1.00  0.00     0.167 HD
ATOM     67  C   UNL     1      15.223   1.278  -4.109  1.00  0.00     0.074 A 
ATOM     68  C   UNL     1      15.822   1.762  -2.883  1.00  0.00     0.031 C 
ATOM     69  C   UNL     1      15.931   0.850  -5.185  1.00  0.00     0.031 A 
BRANCH  56  70
ATOM     70  C   UNL     1      12.425  -1.081  -9.903  1.00  0.00    -0.014 A 
ATOM     71  C   UNL     1      11.924  -0.336 -10.986  1.00  0.00     0.010 A 
ATOM     72  C   UNL     1      12.908  -2.382 -10.133  1.00  0.00     0.010 A 
ATOM     73  C   UNL     1      11.874  -0.895 -12.266  1.00  0.00     0.020 A 
ATOM     74  C   UNL     1      12.889  -2.933 -11.417  1.00  0.00     0.020 A 
ATOM     75  C   UNL     1      12.358  -2.191 -12.473  1.00  0.00     0.054 A 
BRANCH  75  76
ATOM     76  S   UNL     1      12.306  -2.879 -14.151  1.00  0.00     0.124 S 
ATOM     77  O   UNL     1      10.873  -3.083 -14.349  1.00  0.00    -0.237 OA
ATOM     78  O   UNL     1      12.905  -1.814 -14.950  1.00  0.00    -0.237 OA
ATOM     79  O   UNL     1      13.100  -4.102 -14.050  1.00  0.00    -0.744 OA
ENDBRANCH  75  76
ENDBRANCH  56  70
BRANCH  57  80
ATOM     80  C   UNL     1      12.365   2.660  -0.624  1.00  0.00    -0.014 A 
ATOM     81  C   UNL     1      12.869   3.939  -0.326  1.00  0.00     0.010 A 
ATOM     82  C   UNL     1      11.865   1.865   0.425  1.00  0.00     0.010 A 
ATOM     83  C   UNL     1      12.890   4.404   0.993  1.00  0.00     0.020 A 
ATOM     84  C   UNL     1      11.854   2.339   1.740  1.00  0.00     0.020 A 
ATOM     85  C   UNL     1      12.378   3.602   2.017  1.00  0.00     0.054 A 
BRANCH  85  86
ATOM     86  S   UNL     1      12.369   4.248   3.713  1.00  0.00     0.124 S 
ATOM     87  O   UNL     1      13.788   4.226   4.054  1.00  0.00    -0.237 OA
ATOM     88  O   UNL     1      11.779   5.572   3.541  1.00  0.00    -0.237 OA
ATOM     89  O   UNL     1      11.535   3.292   4.439  1.00  0.00    -0.744 OA
ENDBRANCH  85  86
ENDBRANCH  57  80
BRANCH  69  90
ATOM     90  C   UNL     1      17.435   0.926  -5.110  1.00  0.00    -0.014 A 
ATOM     91  C   UNL     1      18.174   0.070  -4.274  1.00  0.00     0.010 A 
ATOM     92  C   UNL     1      18.123   1.831  -5.941  1.00  0.00     0.010 A 
ATOM     93  C   UNL     1      19.570   0.142  -4.246  1.00  0.00     0.020 A 
ATOM     94  C   UNL     1      19.519   1.882  -5.941  1.00  0.00     0.020 A 
ATOM     95  C   UNL     1      20.234   1.046  -5.081  1.00  0.00     0.054 A 
BRANCH  95  96
ATOM     96  S   UNL     1      22.047   1.087  -5.057  1.00  0.00     0.124 S 
ATOM     97  O   UNL     1      22.321   1.694  -3.758  1.00  0.00    -0.237 OA
ATOM     98  O   UNL     1      22.400  -0.326  -5.178  1.00  0.00    -0.237 OA
ATOM     99  O   UNL     1      22.392   1.910  -6.214  1.00  0.00    -0.744 OA
ENDBRANCH  95  96
ENDBRANCH  69  90
ENDBRANCH  43  44
ENDBRANCH  36  38
ENDBRANCH  35  36
ENDBRANCH  34  35
ENDBRANCH  33  34
ENDBRANCH  32  33
ENDBRANCH  31  32
ENDBRANCH  30  31
ENDBRANCH  29  30
ENDBRANCH   1  29
TORSDOF 24
