REMARK SMILES O=C(CS[C@H](C(=O)Nc1ccc(C(F)(F)F)cc1)c1ccccc1)OCCOCCOCCOCCOC(=O)c1ccc(-c2c3nc(c(-c4ccc(S(=O)(=O)[O-])cc4)c4ccc([nH]4)c(-c4ccc(S(=O)(=O)[O-])cc4)c4nc(c(-c5ccc(S(=O)(=O)[O-])cc5)c5ccc2[nH]5)C=C4)C=C3)cc1
REMARK SMILES IDX 30 1 29 2 28 3 27 4 26 5 25 6 2 7 1 8 3 9 4 10 5 11 19 12
REMARK SMILES IDX 20 13 24 14 21 15 23 16 22 17 6 18 7 19 8 20 9 22 10 23
REMARK SMILES IDX 18 24 11 25 17 26 12 27 13 28 14 29 15 30 16 31 31 32 32 33
REMARK SMILES IDX 33 34 34 35 35 36 36 37 37 38 38 39 39 40 40 41 41 42 99 43
REMARK SMILES IDX 42 44 98 45 43 46 44 47 45 48 92 49 46 50 97 51 91 52 93 53
REMARK SMILES IDX 47 54 96 55 90 56 89 57 48 59 78 60 59 61 77 62 60 63 63 64
REMARK SMILES IDX 76 65 94 66 61 67 62 68 75 70 95 71 64 72 49 73 50 74 58 75
REMARK SMILES IDX 51 76 57 77 52 78 53 79 54 80 55 81 56 82 79 83 80 84 88 85
REMARK SMILES IDX 81 86 87 87 82 88 83 89 84 90 85 91 86 92 65 93 66 94 74 95
REMARK SMILES IDX 67 96 73 97 68 98 69 99 70 100 71 101 72 102
REMARK H PARENT 8 21 93 58 63 69
REMARK Flexibility Score: inf
ROOT
ATOM      1  C   UNL     1      -0.131   1.391  -0.898  1.00  0.00     0.188 C 
ENDROOT
BRANCH   1   2
ATOM      2  C   UNL     1       0.069   2.427   0.215  1.00  0.00     0.188 C 
BRANCH   2   3
ATOM      3  O   UNL     1       1.369   2.608   0.755  1.00  0.00    -0.376 OA
BRANCH   3   4
ATOM      4  C   UNL     1       2.114   1.478   1.184  1.00  0.00     0.202 C 
BRANCH   4   5
ATOM      5  C   UNL     1       1.372   0.252   1.708  1.00  0.00     0.261 C 
BRANCH   5   6
ATOM      6  O   UNL     1       0.148   0.523   2.397  1.00  0.00    -0.463 OA
BRANCH   6   7
ATOM      7  C   UNL     1       0.051   0.980   3.661  1.00  0.00     0.316 C 
ATOM      8  O   UNL     1      -1.063   1.093   4.169  1.00  0.00    -0.251 OA
BRANCH   7   9
ATOM      9  C   UNL     1       1.308   1.346   4.408  1.00  0.00     0.193 C 
BRANCH   9  10
ATOM     10  S   UNL     1       1.905   0.077   5.585  1.00  0.00    -0.132 SA
BRANCH  10  11
ATOM     11  C   UNL     1       3.038  -1.064   4.574  1.00  0.00     0.166 C 
BRANCH  11  12
ATOM     12  C   UNL     1       2.298  -2.321   4.114  1.00  0.00    -0.026 A 
ATOM     13  C   UNL     1       0.950  -2.344   3.715  1.00  0.00     0.005 A 
ATOM     14  C   UNL     1       2.957  -3.562   4.135  1.00  0.00     0.005 A 
ATOM     15  C   UNL     1       0.336  -3.493   3.210  1.00  0.00     0.000 A 
ATOM     16  C   UNL     1       2.342  -4.724   3.646  1.00  0.00     0.000 A 
ATOM     17  C   UNL     1       1.044  -4.681   3.149  1.00  0.00     0.000 A 
ENDBRANCH  11  12
BRANCH  11  18
ATOM     18  C   UNL     1       4.004  -0.246   3.652  1.00  0.00     0.242 C 
ATOM     19  O   UNL     1       4.216   0.958   3.897  1.00  0.00    -0.273 OA
ATOM     20  N   UNL     1       4.809  -0.701   2.647  1.00  0.00    -0.325 N 
ATOM     21  H   UNL     1       5.335   0.011   2.215  1.00  0.00     0.169 HD
BRANCH  20  22
ATOM     22  C   UNL     1       5.040  -1.964   2.108  1.00  0.00     0.041 A 
ATOM     23  C   UNL     1       6.345  -2.459   2.171  1.00  0.00     0.027 A 
ATOM     24  C   UNL     1       4.058  -2.711   1.469  1.00  0.00     0.027 A 
ATOM     25  C   UNL     1       6.600  -3.793   1.851  1.00  0.00     0.015 A 
ATOM     26  C   UNL     1       4.319  -4.042   1.119  1.00  0.00     0.015 A 
ATOM     27  C   UNL     1       5.560  -4.622   1.413  1.00  0.00     0.056 A 
BRANCH  27  28
ATOM     28  C   UNL     1       5.751  -6.122   1.351  1.00  0.00     0.416 C 
ATOM     29  F   UNL     1       6.325  -6.539   0.195  1.00  0.00    -0.166 F 
ATOM     30  F   UNL     1       6.561  -6.566   2.357  1.00  0.00    -0.166 F 
ATOM     31  F   UNL     1       4.585  -6.803   1.484  1.00  0.00    -0.166 F 
ENDBRANCH  27  28
ENDBRANCH  20  22
ENDBRANCH  11  18
ENDBRANCH  10  11
ENDBRANCH   9  10
ENDBRANCH   7   9
ENDBRANCH   6   7
ENDBRANCH   5   6
ENDBRANCH   4   5
ENDBRANCH   3   4
ENDBRANCH   2   3
ENDBRANCH   1   2
BRANCH   1  32
ATOM     32  O   UNL     1       0.964   0.510  -1.068  1.00  0.00    -0.377 OA
BRANCH  32  33
ATOM     33  C   UNL     1       1.746   0.723  -2.229  1.00  0.00     0.188 C 
BRANCH  33  34
ATOM     34  C   UNL     1       2.703   1.932  -2.211  1.00  0.00     0.188 C 
BRANCH  34  35
ATOM     35  O   UNL     1       2.196   3.250  -2.137  1.00  0.00    -0.376 OA
BRANCH  35  36
ATOM     36  C   UNL     1       1.205   3.739  -3.018  1.00  0.00     0.202 C 
BRANCH  36  37
ATOM     37  C   UNL     1       1.117   3.360  -4.506  1.00  0.00     0.261 C 
BRANCH  37  38
ATOM     38  O   UNL     1       1.424   2.002  -4.839  1.00  0.00    -0.460 OA
BRANCH  38  39
ATOM     39  C   UNL     1       2.646   1.793  -5.391  1.00  0.00     0.338 C 
ATOM     40  O   UNL     1       3.467   2.647  -5.686  1.00  0.00    -0.246 OA
BRANCH  39  41
ATOM     41  C   UNL     1       2.955   0.343  -5.351  1.00  0.00     0.060 A 
ATOM     42  C   UNL     1       4.169  -0.058  -4.772  1.00  0.00     0.016 A 
ATOM     43  C   UNL     1       2.066  -0.612  -5.848  1.00  0.00     0.016 A 
ATOM     44  C   UNL     1       4.510  -1.409  -4.712  1.00  0.00     0.010 A 
ATOM     45  C   UNL     1       2.426  -1.964  -5.822  1.00  0.00     0.010 A 
ATOM     46  C   UNL     1       3.662  -2.365  -5.282  1.00  0.00    -0.014 A 
BRANCH  46  47
ATOM     47  C   UNL     1       4.166  -3.738  -5.525  1.00  0.00     0.031 A 
ATOM     48  C   UNL     1       4.830  -4.018  -6.848  1.00  0.00     0.074 A 
ATOM     49  C   UNL     1       4.046  -4.714  -4.606  1.00  0.00     0.049 A 
ATOM     50  N   UNL     1       5.282  -5.146  -7.327  1.00  0.00    -0.248 NA
ATOM     51  C   UNL     1       5.006  -2.866  -7.751  1.00  0.00     0.031 C 
ATOM     52  C   UNL     1       3.474  -4.561  -3.270  1.00  0.00     0.029 A 
ATOM     53  N   UNL     1       4.393  -6.042  -4.674  1.00  0.00    -0.354 N 
ATOM     54  C   UNL     1       5.785  -4.845  -8.587  1.00  0.00     0.074 A 
ATOM     55  C   UNL     1       5.573  -3.432  -8.806  1.00  0.00     0.031 C 
ATOM     56  C   UNL     1       3.483  -5.757  -2.653  1.00  0.00     0.029 A 
ATOM     57  C   UNL     1       4.032  -6.764  -3.561  1.00  0.00     0.049 A 
ATOM     58  H   UNL     1       4.856  -6.439  -5.447  1.00  0.00     0.167 HD
ATOM     59  C   UNL     1       6.369  -5.671  -9.485  1.00  0.00     0.031 A 
ATOM     60  C   UNL     1       4.103  -8.090  -3.321  1.00  0.00     0.031 A 
ATOM     61  C   UNL     1       6.563  -7.080  -9.277  1.00  0.00     0.049 A 
ATOM     62  C   UNL     1       4.673  -9.005  -4.377  1.00  0.00     0.074 A 
ATOM     63  C   UNL     1       7.162  -7.997 -10.122  1.00  0.00     0.029 A 
ATOM     64  N   UNL     1       6.150  -7.777  -8.153  1.00  0.00    -0.354 N 
ATOM     65  N   UNL     1       5.175  -8.701  -5.551  1.00  0.00    -0.248 NA
ATOM     66  C   UNL     1       4.682 -10.445  -4.077  1.00  0.00     0.031 C 
ATOM     67  C   UNL     1       7.055  -9.262  -9.536  1.00  0.00     0.029 A 
ATOM     68  C   UNL     1       6.446  -9.121  -8.299  1.00  0.00     0.049 A 
ATOM     69  H   UNL     1       5.712  -7.377  -7.368  1.00  0.00     0.167 HD
ATOM     70  C   UNL     1       5.578  -9.908  -6.117  1.00  0.00     0.074 A 
ATOM     71  C   UNL     1       5.279 -10.944  -5.151  1.00  0.00     0.031 C 
ATOM     72  C   UNL     1       6.142 -10.140  -7.328  1.00  0.00     0.031 A 
BRANCH  59  73
ATOM     73  C   UNL     1       6.806  -5.082 -10.797  1.00  0.00    -0.014 A 
ATOM     74  C   UNL     1       7.946  -4.264 -10.884  1.00  0.00     0.010 A 
ATOM     75  C   UNL     1       6.101  -5.407 -11.970  1.00  0.00     0.010 A 
ATOM     76  C   UNL     1       8.365  -3.769 -12.122  1.00  0.00     0.020 A 
ATOM     77  C   UNL     1       6.530  -4.933 -13.212  1.00  0.00     0.020 A 
ATOM     78  C   UNL     1       7.656  -4.110 -13.279  1.00  0.00     0.054 A 
BRANCH  78  79
ATOM     79  S   UNL     1       8.256  -3.499 -14.877  1.00  0.00     0.124 S 
ATOM     80  O   UNL     1       7.926  -2.078 -14.800  1.00  0.00    -0.237 OA
ATOM     81  O   UNL     1       9.681  -3.817 -14.825  1.00  0.00    -0.237 OA
ATOM     82  O   UNL     1       7.485  -4.265 -15.854  1.00  0.00    -0.744 OA
ENDBRANCH  78  79
ENDBRANCH  59  73
BRANCH  60  83
ATOM     83  C   UNL     1       3.566  -8.655  -2.050  1.00  0.00    -0.014 A 
ATOM     84  C   UNL     1       4.420  -9.245  -1.102  1.00  0.00     0.010 A 
ATOM     85  C   UNL     1       2.179  -8.649  -1.808  1.00  0.00     0.010 A 
ATOM     86  C   UNL     1       3.896  -9.844   0.049  1.00  0.00     0.020 A 
ATOM     87  C   UNL     1       1.655  -9.219  -0.645  1.00  0.00     0.020 A 
ATOM     88  C   UNL     1       2.516  -9.829   0.269  1.00  0.00     0.054 A 
BRANCH  88  89
ATOM     89  S   UNL     1       1.854 -10.590   1.777  1.00  0.00     0.124 S 
ATOM     90  O   UNL     1       1.946 -12.012   1.464  1.00  0.00    -0.237 OA
ATOM     91  O   UNL     1       2.769 -10.106   2.807  1.00  0.00    -0.237 OA
ATOM     92  O   UNL     1       0.497 -10.051   1.860  1.00  0.00    -0.744 OA
ENDBRANCH  88  89
ENDBRANCH  60  83
BRANCH  72  93
ATOM     93  C   UNL     1       6.499 -11.562  -7.675  1.00  0.00    -0.014 A 
ATOM     94  C   UNL     1       5.505 -12.506  -7.986  1.00  0.00     0.010 A 
ATOM     95  C   UNL     1       7.852 -11.939  -7.758  1.00  0.00     0.010 A 
ATOM     96  C   UNL     1       5.857 -13.810  -8.347  1.00  0.00     0.020 A 
ATOM     97  C   UNL     1       8.209 -13.233  -8.146  1.00  0.00     0.020 A 
ATOM     98  C   UNL     1       7.207 -14.165  -8.425  1.00  0.00     0.054 A 
BRANCH  98  99
ATOM     99  S   UNL     1       7.639 -15.849  -8.943  1.00  0.00     0.124 S 
ATOM    100  O   UNL     1       7.293 -16.629  -7.757  1.00  0.00    -0.237 OA
ATOM    101  O   UNL     1       6.779 -16.058 -10.105  1.00  0.00    -0.237 OA
ATOM    102  O   UNL     1       9.067 -15.766  -9.239  1.00  0.00    -0.744 OA
ENDBRANCH  98  99
ENDBRANCH  72  93
ENDBRANCH  46  47
ENDBRANCH  39  41
ENDBRANCH  38  39
ENDBRANCH  37  38
ENDBRANCH  36  37
ENDBRANCH  35  36
ENDBRANCH  34  35
ENDBRANCH  33  34
ENDBRANCH  32  33
ENDBRANCH   1  32
TORSDOF 29
