REMARK SMILES Cc1ccccc1NC(=O)C[NH+]1CCC(CC(=O)OCCOCCOCCOCCOC(=O)c2ccc(-c3c4nc(c(-c5ccc(S(=O)(=O)[O-])cc5)c5ccc([nH]5)c(-c5ccc(S(=O)(=O)[O-])cc5)c5nc(c(-c6ccc(S(=O)(=O)[O-])cc6)c6ccc3[nH]6)C=C5)C=C4)cc2)CC1
REMARK SMILES IDX 24 1 23 2 22 3 21 4 20 5 19 6 17 7 18 8 16 9 15 10 12 11
REMARK SMILES IDX 13 12 95 13 14 15 94 16 11 17 9 18 8 19 10 21 7 22 1 23 2 24
REMARK SMILES IDX 3 25 4 26 6 27 5 28 25 29 26 30 27 31 28 32 29 33 30 34
REMARK SMILES IDX 31 35 32 36 33 37 34 38 35 39 93 40 36 41 92 42 37 43 38 44
REMARK SMILES IDX 39 45 86 46 40 47 91 48 85 49 87 50 41 51 90 52 84 53 83 54
REMARK SMILES IDX 42 56 72 57 53 58 71 59 54 60 57 61 70 62 88 63 55 64 56 65
REMARK SMILES IDX 69 67 89 68 58 69 43 70 44 71 52 72 45 73 51 74 46 75 47 76
REMARK SMILES IDX 48 77 49 78 50 79 73 80 74 81 82 82 75 83 81 84 76 85 77 86
REMARK SMILES IDX 78 87 79 88 80 89 59 90 60 91 68 92 61 93 67 94 62 95 63 96
REMARK SMILES IDX 64 97 65 98 66 99
REMARK H PARENT 12 14 8 20 87 55 57 66
REMARK Flexibility Score: inf
ROOT
ATOM      1  C   UNL     1       1.821   3.223  -3.891  1.00  0.00     0.188 C 
ENDROOT
BRANCH   1   2
ATOM      2  C   UNL     1       1.687   3.490  -5.457  1.00  0.00     0.188 C 
BRANCH   2   3
ATOM      3  O   UNL     1       0.717   4.240  -6.358  1.00  0.00    -0.376 OA
BRANCH   3   4
ATOM      4  C   UNL     1      -0.045   3.768  -7.764  1.00  0.00     0.202 C 
BRANCH   4   5
ATOM      5  C   UNL     1      -1.150   2.376  -8.376  1.00  0.00     0.261 C 
BRANCH   5   6
ATOM      6  O   UNL     1      -1.434   0.630  -7.836  1.00  0.00    -0.463 OA
BRANCH   6   7
ATOM      7  C   UNL     1      -0.968  -0.492  -6.819  1.00  0.00     0.306 C 
ATOM      8  O   UNL     1      -0.228  -1.403  -7.218  1.00  0.00    -0.252 OA
BRANCH   7   9
ATOM      9  C   UNL     1      -1.576  -0.676  -5.131  1.00  0.00     0.126 C 
BRANCH   9  10
ATOM     10  C   UNL     1      -1.290   0.002  -3.585  1.00  0.00     0.011 C 
ATOM     11  N   UNL     1      -1.957   1.793  -1.110  1.00  0.00    -0.327 N 
ATOM     12  C   UNL     1      -0.882   2.122  -2.019  1.00  0.00     0.262 C 
ATOM     13  C   UNL     1      -2.165   0.342  -1.113  1.00  0.00     0.262 C 
ATOM     14  H   UNL     1      -2.862   2.147  -1.421  1.00  0.00     0.348 HD
ATOM     15  C   UNL     1      -1.187   1.504  -3.371  1.00  0.00     0.066 C 
ATOM     16  C   UNL     1      -2.393  -0.334  -2.528  1.00  0.00     0.066 C 
BRANCH  11  17
ATOM     17  C   UNL     1      -1.837   2.533   0.180  1.00  0.00     0.363 C 
BRANCH  17  18
ATOM     18  C   UNL     1      -0.409   2.918   0.668  1.00  0.00     0.279 C 
ATOM     19  N   UNL     1       0.527   1.974   1.007  1.00  0.00    -0.321 N 
ATOM     20  H   UNL     1       1.449   2.296   1.127  1.00  0.00     0.170 HD
ATOM     21  O   UNL     1      -0.063   4.104   0.742  1.00  0.00    -0.268 OA
BRANCH  19  22
ATOM     22  C   UNL     1       0.316   0.608   1.199  1.00  0.00     0.044 A 
ATOM     23  C   UNL     1       2.490  -0.002  -0.033  1.00  0.00     0.046 C 
ATOM     24  C   UNL     1       1.181  -0.338   0.628  1.00  0.00    -0.027 A 
ATOM     25  C   UNL     1       0.765  -1.682   0.613  1.00  0.00     0.005 A 
ATOM     26  C   UNL     1      -0.444  -2.073   1.196  1.00  0.00     0.000 A 
ATOM     27  C   UNL     1      -0.824   0.189   1.898  1.00  0.00     0.026 A 
ATOM     28  C   UNL     1      -1.219  -1.143   1.877  1.00  0.00     0.002 A 
ENDBRANCH  19  22
ENDBRANCH  17  18
ENDBRANCH  11  17
ENDBRANCH   9  10
ENDBRANCH   7   9
ENDBRANCH   6   7
ENDBRANCH   5   6
ENDBRANCH   4   5
ENDBRANCH   3   4
ENDBRANCH   2   3
ENDBRANCH   1   2
BRANCH   1  29
ATOM     29  O   UNL     1       2.322   4.143  -2.950  1.00  0.00    -0.377 OA
BRANCH  29  30
ATOM     30  C   UNL     1       3.000   5.206  -3.574  1.00  0.00     0.188 C 
BRANCH  30  31
ATOM     31  C   UNL     1       4.383   4.822  -4.119  1.00  0.00     0.188 C 
BRANCH  31  32
ATOM     32  O   UNL     1       4.449   3.479  -4.608  1.00  0.00    -0.376 OA
BRANCH  32  33
ATOM     33  C   UNL     1       5.343   2.598  -3.944  1.00  0.00     0.202 C 
BRANCH  33  34
ATOM     34  C   UNL     1       6.759   2.766  -4.500  1.00  0.00     0.261 C 
BRANCH  34  35
ATOM     35  O   UNL     1       6.836   2.274  -5.857  1.00  0.00    -0.460 OA
BRANCH  35  36
ATOM     36  C   UNL     1       6.320   3.123  -6.793  1.00  0.00     0.338 C 
ATOM     37  O   UNL     1       6.767   4.222  -7.050  1.00  0.00    -0.246 OA
BRANCH  36  38
ATOM     38  C   UNL     1       5.038   2.551  -7.316  1.00  0.00     0.060 A 
ATOM     39  C   UNL     1       4.152   3.385  -7.978  1.00  0.00     0.016 A 
ATOM     40  C   UNL     1       4.598   1.282  -6.921  1.00  0.00     0.016 A 
ATOM     41  C   UNL     1       2.805   2.995  -8.094  1.00  0.00     0.010 A 
ATOM     42  C   UNL     1       3.228   0.981  -6.880  1.00  0.00     0.010 A 
ATOM     43  C   UNL     1       2.272   1.879  -7.381  1.00  0.00    -0.014 A 
BRANCH  43  44
ATOM     44  C   UNL     1       0.694   1.451  -7.186  1.00  0.00     0.031 A 
ATOM     45  C   UNL     1       0.750   0.528  -8.730  1.00  0.00     0.074 A 
ATOM     46  C   UNL     1      -0.587   1.934  -6.222  1.00  0.00     0.049 A 
ATOM     47  N   UNL     1      -0.201   0.438  -9.621  1.00  0.00    -0.248 NA
ATOM     48  C   UNL     1       1.964  -0.051  -9.376  1.00  0.00     0.031 C 
ATOM     49  C   UNL     1      -2.220   1.480  -6.063  1.00  0.00     0.029 A 
ATOM     50  N   UNL     1      -1.008   3.208  -5.509  1.00  0.00    -0.354 N 
ATOM     51  C   UNL     1       0.042  -0.584 -10.473  1.00  0.00     0.074 A 
ATOM     52  C   UNL     1       1.474  -0.665 -10.465  1.00  0.00     0.031 C 
ATOM     53  C   UNL     1      -3.086   2.335  -5.549  1.00  0.00     0.029 A 
ATOM     54  C   UNL     1      -2.398   3.545  -5.595  1.00  0.00     0.049 A 
ATOM     55  H   UNL     1      -0.365   3.769  -5.017  1.00  0.00     0.167 HD
ATOM     56  C   UNL     1      -0.995  -1.354 -10.921  1.00  0.00     0.031 A 
ATOM     57  C   UNL     1      -3.027   4.627  -6.138  1.00  0.00     0.031 A 
ATOM     58  C   UNL     1      -2.319  -0.978 -10.322  1.00  0.00     0.049 A 
ATOM     59  C   UNL     1      -3.957   4.190  -7.340  1.00  0.00     0.074 A 
ATOM     60  C   UNL     1      -3.156  -1.591  -9.397  1.00  0.00     0.029 A 
ATOM     61  N   UNL     1      -2.832   0.328 -10.429  1.00  0.00    -0.354 N 
ATOM     62  N   UNL     1      -4.040   2.949  -7.797  1.00  0.00    -0.248 NA
ATOM     63  C   UNL     1      -4.802   5.067  -8.146  1.00  0.00     0.031 C 
ATOM     64  C   UNL     1      -4.162  -0.657  -8.972  1.00  0.00     0.029 A 
ATOM     65  C   UNL     1      -3.970   0.548  -9.631  1.00  0.00     0.049 A 
ATOM     66  H   UNL     1      -2.433   1.019 -11.006  1.00  0.00     0.167 HD
ATOM     67  C   UNL     1      -4.734   2.869  -8.973  1.00  0.00     0.074 A 
ATOM     68  C   UNL     1      -5.271   4.225  -9.096  1.00  0.00     0.031 C 
ATOM     69  C   UNL     1      -4.795   1.769  -9.808  1.00  0.00     0.031 A 
BRANCH  56  70
ATOM     70  C   UNL     1      -0.669  -2.671 -11.623  1.00  0.00    -0.014 A 
ATOM     71  C   UNL     1      -1.466  -3.820 -11.464  1.00  0.00     0.010 A 
ATOM     72  C   UNL     1       0.483  -2.836 -12.428  1.00  0.00     0.010 A 
ATOM     73  C   UNL     1      -1.075  -5.077 -11.976  1.00  0.00     0.020 A 
ATOM     74  C   UNL     1       0.915  -4.088 -12.895  1.00  0.00     0.020 A 
ATOM     75  C   UNL     1       0.133  -5.210 -12.660  1.00  0.00     0.054 A 
BRANCH  75  76
ATOM     76  S   UNL     1       0.671  -6.845 -13.244  1.00  0.00     0.124 S 
ATOM     77  O   UNL     1       0.623  -7.654 -12.029  1.00  0.00    -0.237 OA
ATOM     78  O   UNL     1      -0.334  -7.164 -14.254  1.00  0.00    -0.237 OA
ATOM     79  O   UNL     1       2.016  -6.604 -13.765  1.00  0.00    -0.744 OA
ENDBRANCH  75  76
ENDBRANCH  56  70
BRANCH  57  80
ATOM     80  C   UNL     1      -2.334   5.899  -5.787  1.00  0.00    -0.014 A 
ATOM     81  C   UNL     1      -2.071   6.079  -4.397  1.00  0.00     0.010 A 
ATOM     82  C   UNL     1      -1.622   6.693  -6.690  1.00  0.00     0.010 A 
ATOM     83  C   UNL     1      -1.001   6.854  -3.940  1.00  0.00     0.020 A 
ATOM     84  C   UNL     1      -0.544   7.481  -6.232  1.00  0.00     0.020 A 
ATOM     85  C   UNL     1      -0.214   7.523  -4.870  1.00  0.00     0.054 A 
BRANCH  85  86
ATOM     86  S   UNL     1       1.317   8.358  -4.345  1.00  0.00     0.124 S 
ATOM     87  O   UNL     1       1.006   9.763  -4.584  1.00  0.00    -0.237 OA
ATOM     88  O   UNL     1       1.458   7.985  -2.940  1.00  0.00    -0.237 OA
ATOM     89  O   UNL     1       2.327   7.784  -5.232  1.00  0.00    -0.744 OA
ENDBRANCH  85  86
ENDBRANCH  57  80
BRANCH  69  90
ATOM     90  C   UNL     1      -5.746   1.745 -10.983  1.00  0.00    -0.014 A 
ATOM     91  C   UNL     1      -7.057   2.241 -10.894  1.00  0.00     0.010 A 
ATOM     92  C   UNL     1      -5.382   1.085 -12.177  1.00  0.00     0.010 A 
ATOM     93  C   UNL     1      -7.914   2.208 -12.000  1.00  0.00     0.020 A 
ATOM     94  C   UNL     1      -6.239   1.016 -13.274  1.00  0.00     0.020 A 
ATOM     95  C   UNL     1      -7.484   1.624 -13.194  1.00  0.00     0.054 A 
BRANCH  95  96
ATOM     96  S   UNL     1      -8.564   1.662 -14.643  1.00  0.00     0.124 S 
ATOM     97  O   UNL     1      -9.882   1.390 -14.073  1.00  0.00    -0.237 OA
ATOM     98  O   UNL     1      -8.358   3.025 -15.127  1.00  0.00    -0.237 OA
ATOM     99  O   UNL     1      -8.032   0.607 -15.501  1.00  0.00    -0.744 OA
ENDBRANCH  95  96
ENDBRANCH  69  90
ENDBRANCH  43  44
ENDBRANCH  36  38
ENDBRANCH  35  36
ENDBRANCH  34  35
ENDBRANCH  33  34
ENDBRANCH  32  33
ENDBRANCH  31  32
ENDBRANCH  30  31
ENDBRANCH  29  30
ENDBRANCH   1  29
TORSDOF 27
