REMARK SMILES NC(=O)c1c(-c2ccc(Cl)cc2)csc1NC(=O)[C@H]1[C@@H](C(=O)OCCOCCOCCOCCOC(=O)c2ccc(-c3c4nc(c(-c5ccc(S(=O)(=O)[O-])cc5)c5ccc([nH]5)c(-c5ccc(S(=O)(=O)[O-])cc5)c5nc(c(-c6ccc(S(=O)(=O)[O-])cc6)c6ccc3[nH]6)C=C5)C=C4)cc2)[C@@H]2CC[C@H]1O2
REMARK SMILES IDX 29 1 28 2 27 3 26 4 25 5 24 6 23 7 21 8 22 9 20 10 19 11
REMARK SMILES IDX 101 12 98 13 100 14 102 15 99 16 17 17 16 18 18 20 15 21
REMARK SMILES IDX 4 22 5 23 13 24 14 25 2 26 1 27 3 30 6 31 7 32 12 33 8 34
REMARK SMILES IDX 11 35 9 36 10 37 30 38 31 39 32 40 33 41 34 42 35 43 36 44
REMARK SMILES IDX 37 45 38 46 39 47 97 48 40 49 96 50 41 51 42 52 43 53 90 54
REMARK SMILES IDX 44 55 95 56 89 57 91 58 45 59 94 60 88 61 87 62 46 64 76 65
REMARK SMILES IDX 57 66 75 67 58 68 61 69 74 70 92 71 59 72 60 73 73 75 93 76
REMARK SMILES IDX 62 77 47 78 48 79 56 80 49 81 55 82 50 83 51 84 52 85 53 86
REMARK SMILES IDX 54 87 77 88 78 89 86 90 79 91 85 92 80 93 81 94 82 95 83 96
REMARK SMILES IDX 84 97 63 98 64 99 72 100 65 101 71 102 66 103 67 104 68 105
REMARK SMILES IDX 69 106 70 107
REMARK H PARENT 16 19 1 28 1 29 91 63 61 74
REMARK Flexibility Score: inf
ROOT
ATOM      1  O   UNL     1       0.060   9.635   4.462  1.00  0.00    -0.377 OA
ENDROOT
BRANCH   1   2
ATOM      2  C   UNL     1      -0.947   8.701   4.789  1.00  0.00     0.188 C 
BRANCH   2   3
ATOM      3  C   UNL     1      -1.093   8.256   6.256  1.00  0.00     0.188 C 
BRANCH   3   4
ATOM      4  O   UNL     1      -0.253   8.948   7.174  1.00  0.00    -0.376 OA
BRANCH   4   5
ATOM      5  C   UNL     1       0.745   8.163   7.819  1.00  0.00     0.202 C 
BRANCH   5   6
ATOM      6  C   UNL     1       1.985   7.919   6.950  1.00  0.00     0.261 C 
BRANCH   6   7
ATOM      7  O   UNL     1       1.710   7.194   5.742  1.00  0.00    -0.463 OA
BRANCH   7   8
ATOM      8  C   UNL     1       1.275   5.913   5.884  1.00  0.00     0.312 C 
ATOM      9  O   UNL     1       1.109   5.367   6.965  1.00  0.00    -0.252 OA
BRANCH   8  10
ATOM     10  C   UNL     1       0.746   5.408   4.556  1.00  0.00     0.143 C 
ATOM     11  C   UNL     1       0.507   3.904   4.397  1.00  0.00     0.124 C 
ATOM     12  C   UNL     1       1.489   3.540   3.279  1.00  0.00     0.132 C 
ATOM     13  C   UNL     1       1.692   5.699   3.390  1.00  0.00     0.133 C 
ATOM     14  C   UNL     1       0.906   3.974   1.934  1.00  0.00     0.035 C 
ATOM     15  O   UNL     1       2.533   4.527   3.425  1.00  0.00    -0.373 OA
ATOM     16  C   UNL     1       0.967   5.501   2.050  1.00  0.00     0.036 C 
BRANCH  11  17
ATOM     17  C   UNL     1       0.717   3.056   5.635  1.00  0.00     0.231 C 
ATOM     18  N   UNL     1      -0.387   2.740   6.389  1.00  0.00    -0.317 N 
ATOM     19  H   UNL     1      -0.398   3.076   7.314  1.00  0.00     0.170 HD
ATOM     20  O   UNL     1       1.837   2.759   6.050  1.00  0.00    -0.274 OA
BRANCH  18  21
ATOM     21  C   UNL     1      -1.491   1.997   5.984  1.00  0.00     0.108 A 
ATOM     22  C   UNL     1      -2.439   1.406   6.815  1.00  0.00     0.082 A 
ATOM     23  C   UNL     1      -3.311   0.533   6.054  1.00  0.00     0.007 A 
ATOM     24  C   UNL     1      -3.058   0.607   4.699  1.00  0.00     0.076 A 
ATOM     25  S   UNL     1      -1.697   1.554   4.355  1.00  0.00    -0.125 S 
BRANCH  22  26
ATOM     26  C   UNL     1      -2.431   1.623   8.258  1.00  0.00     0.252 C 
ATOM     27  N   UNL     1      -2.655   0.529   9.036  1.00  0.00    -0.365 N 
ATOM     28  H   UNL     1      -2.661   0.615  10.017  1.00  0.00     0.159 HD
ATOM     29  H   UNL     1      -2.810  -0.349   8.618  1.00  0.00     0.159 HD
ATOM     30  O   UNL     1      -2.181   2.709   8.774  1.00  0.00    -0.269 OA
ENDBRANCH  22  26
BRANCH  23  31
ATOM     31  C   UNL     1      -4.318  -0.405   6.528  1.00  0.00    -0.017 A 
ATOM     32  C   UNL     1      -4.145  -1.772   6.254  1.00  0.00     0.010 A 
ATOM     33  C   UNL     1      -5.425   0.017   7.269  1.00  0.00     0.010 A 
ATOM     34  C   UNL     1      -5.068  -2.708   6.715  1.00  0.00     0.021 A 
ATOM     35  C   UNL     1      -6.349  -0.925   7.733  1.00  0.00     0.021 A 
ATOM     36  C   UNL     1      -6.167  -2.281   7.455  1.00  0.00     0.041 A 
ATOM     37  Cl  UNL     1      -7.301  -3.437   8.033  1.00  0.00    -0.084 Cl
ENDBRANCH  23  31
ENDBRANCH  18  21
ENDBRANCH  11  17
ENDBRANCH   8  10
ENDBRANCH   7   8
ENDBRANCH   6   7
ENDBRANCH   5   6
ENDBRANCH   4   5
ENDBRANCH   3   4
ENDBRANCH   2   3
ENDBRANCH   1   2
BRANCH   1  38
ATOM     38  C   UNL     1       0.141  10.853   5.190  1.00  0.00     0.188 C 
BRANCH  38  39
ATOM     39  C   UNL     1      -1.088  11.438   5.920  1.00  0.00     0.188 C 
BRANCH  39  40
ATOM     40  O   UNL     1      -2.349  10.934   5.495  1.00  0.00    -0.376 OA
BRANCH  40  41
ATOM     41  C   UNL     1      -3.164  11.834   4.756  1.00  0.00     0.202 C 
BRANCH  41  42
ATOM     42  C   UNL     1      -2.749  11.969   3.288  1.00  0.00     0.261 C 
BRANCH  42  43
ATOM     43  O   UNL     1      -1.451  12.543   3.082  1.00  0.00    -0.460 OA
BRANCH  43  44
ATOM     44  C   UNL     1      -1.248  13.793   3.554  1.00  0.00     0.338 C 
ATOM     45  O   UNL     1      -2.051  14.514   4.116  1.00  0.00    -0.246 OA
BRANCH  44  46
ATOM     46  C   UNL     1       0.192  14.073   3.429  1.00  0.00     0.060 A 
ATOM     47  C   UNL     1       0.926  14.409   4.575  1.00  0.00     0.016 A 
ATOM     48  C   UNL     1       0.812  13.971   2.183  1.00  0.00     0.016 A 
ATOM     49  C   UNL     1       2.291  14.672   4.469  1.00  0.00     0.010 A 
ATOM     50  C   UNL     1       2.168  14.261   2.073  1.00  0.00     0.010 A 
ATOM     51  C   UNL     1       2.903  14.644   3.209  1.00  0.00    -0.014 A 
BRANCH  51  52
ATOM     52  C   UNL     1       4.236  15.249   3.003  1.00  0.00     0.031 A 
ATOM     53  C   UNL     1       4.283  16.704   2.633  1.00  0.00     0.074 A 
ATOM     54  C   UNL     1       5.358  14.513   3.052  1.00  0.00     0.049 A 
ATOM     55  N   UNL     1       5.295  17.425   2.233  1.00  0.00    -0.248 NA
ATOM     56  C   UNL     1       3.008  17.439   2.712  1.00  0.00     0.031 C 
ATOM     57  C   UNL     1       5.434  13.103   3.431  1.00  0.00     0.029 A 
ATOM     58  N   UNL     1       6.652  14.853   2.746  1.00  0.00    -0.354 N 
ATOM     59  C   UNL     1       4.776  18.691   1.990  1.00  0.00     0.074 A 
ATOM     60  C   UNL     1       3.361  18.639   2.281  1.00  0.00     0.031 C 
ATOM     61  C   UNL     1       6.707  12.689   3.304  1.00  0.00     0.029 A 
ATOM     62  C   UNL     1       7.523  13.792   2.797  1.00  0.00     0.049 A 
ATOM     63  H   UNL     1       6.928  15.769   2.513  1.00  0.00     0.167 HD
ATOM     64  C   UNL     1       5.419  19.796   1.549  1.00  0.00     0.031 A 
ATOM     65  C   UNL     1       8.819  13.716   2.435  1.00  0.00     0.031 A 
ATOM     66  C   UNL     1       6.817  19.830   1.228  1.00  0.00     0.049 A 
ATOM     67  C   UNL     1       9.506  14.942   1.889  1.00  0.00     0.074 A 
ATOM     68  C   UNL     1       7.572  20.899   0.782  1.00  0.00     0.029 A 
ATOM     69  N   UNL     1       7.668  18.738   1.304  1.00  0.00    -0.354 N 
ATOM     70  N   UNL     1       9.014  16.142   1.692  1.00  0.00    -0.248 NA
ATOM     71  C   UNL     1      10.922  14.804   1.516  1.00  0.00     0.031 C 
ATOM     72  C   UNL     1       8.871  20.441   0.543  1.00  0.00     0.029 A 
ATOM     73  C   UNL     1       8.937  19.100   0.893  1.00  0.00     0.049 A 
ATOM     74  H   UNL     1       7.407  17.838   1.607  1.00  0.00     0.167 HD
ATOM     75  C   UNL     1      10.066  16.909   1.200  1.00  0.00     0.074 A 
ATOM     76  C   UNL     1      11.221  16.038   1.129  1.00  0.00     0.031 C 
ATOM     77  C   UNL     1      10.076  18.218   0.845  1.00  0.00     0.031 A 
BRANCH  64  78
ATOM     78  C   UNL     1       4.590  21.031   1.338  1.00  0.00    -0.014 A 
ATOM     79  C   UNL     1       4.088  21.766   2.426  1.00  0.00     0.010 A 
ATOM     80  C   UNL     1       4.299  21.454   0.029  1.00  0.00     0.010 A 
ATOM     81  C   UNL     1       3.269  22.877   2.209  1.00  0.00     0.020 A 
ATOM     82  C   UNL     1       3.501  22.579  -0.193  1.00  0.00     0.020 A 
ATOM     83  C   UNL     1       2.974  23.270   0.900  1.00  0.00     0.054 A 
BRANCH  83  84
ATOM     84  S   UNL     1       1.904  24.712   0.642  1.00  0.00     0.124 S 
ATOM     85  O   UNL     1       0.585  24.167   0.954  1.00  0.00    -0.237 OA
ATOM     86  O   UNL     1       2.427  25.678   1.605  1.00  0.00    -0.237 OA
ATOM     87  O   UNL     1       2.120  25.057  -0.761  1.00  0.00    -0.744 OA
ENDBRANCH  83  84
ENDBRANCH  64  78
BRANCH  65  88
ATOM     88  C   UNL     1       9.543  12.421   2.551  1.00  0.00    -0.014 A 
ATOM     89  C   UNL     1      10.518  12.234   3.546  1.00  0.00     0.010 A 
ATOM     90  C   UNL     1       9.243  11.357   1.680  1.00  0.00     0.010 A 
ATOM     91  C   UNL     1      11.184  11.010   3.663  1.00  0.00     0.020 A 
ATOM     92  C   UNL     1       9.890  10.125   1.809  1.00  0.00     0.020 A 
ATOM     93  C   UNL     1      10.863   9.961   2.796  1.00  0.00     0.054 A 
BRANCH  93  94
ATOM     94  S   UNL     1      11.693   8.362   3.010  1.00  0.00     0.124 S 
ATOM     95  O   UNL     1      13.023   8.636   2.475  1.00  0.00    -0.237 OA
ATOM     96  O   UNL     1      11.623   8.161   4.456  1.00  0.00    -0.237 OA
ATOM     97  O   UNL     1      10.876   7.444   2.220  1.00  0.00    -0.744 OA
ENDBRANCH  93  94
ENDBRANCH  65  88
BRANCH  77  98
ATOM     98  C   UNL     1      11.380  18.816   0.392  1.00  0.00    -0.014 A 
ATOM     99  C   UNL     1      11.879  18.582  -0.900  1.00  0.00     0.010 A 
ATOM    100  C   UNL     1      12.047  19.723   1.236  1.00  0.00     0.010 A 
ATOM    101  C   UNL     1      13.030  19.244  -1.340  1.00  0.00     0.020 A 
ATOM    102  C   UNL     1      13.184  20.402   0.792  1.00  0.00     0.020 A 
ATOM    103  C   UNL     1      13.671  20.155  -0.493  1.00  0.00     0.054 A 
BRANCH 103 104
ATOM    104  S   UNL     1      15.107  21.071  -1.118  1.00  0.00     0.124 S 
ATOM    105  O   UNL     1      16.156  20.057  -1.076  1.00  0.00    -0.237 OA
ATOM    106  O   UNL     1      14.675  21.474  -2.454  1.00  0.00    -0.237 OA
ATOM    107  O   UNL     1      15.260  22.167  -0.164  1.00  0.00    -0.744 OA
ENDBRANCH 103 104
ENDBRANCH  77  98
ENDBRANCH  51  52
ENDBRANCH  44  46
ENDBRANCH  43  44
ENDBRANCH  42  43
ENDBRANCH  41  42
ENDBRANCH  40  41
ENDBRANCH  39  40
ENDBRANCH  38  39
ENDBRANCH   1  38
TORSDOF 27
