REMARK SMILES CCSc1nc(CC(=O)N[C@@H](C(=O)OCCOCCOCCOCCOC(=O)c2ccc(-c3c4nc(c(-c5ccc(S(=O)(=O)[O-])cc5)c5ccc([nH]5)c(-c5ccc(S(=O)(=O)[O-])cc5)c5nc(c(-c6ccc(S(=O)(=O)[O-])cc6)c6ccc3[nH]6)C=C5)C=C4)cc2)C2=C(C)N=N[C@@H]2C)cs1
REMARK SMILES IDX 19 1 18 2 17 3 16 4 15 5 14 6 12 7 13 8 11 9 10 10 8 11 9 12
REMARK SMILES IDX 7 14 6 15 4 16 5 17 97 18 96 19 3 20 2 21 1 22 89 23 90 24
REMARK SMILES IDX 94 25 91 26 92 27 93 28 95 29 20 30 21 31 22 32 23 33 24 34
REMARK SMILES IDX 25 35 26 36 27 37 28 38 29 39 30 40 88 41 31 42 87 43 32 44
REMARK SMILES IDX 33 45 34 46 81 47 35 48 86 49 80 50 82 51 36 52 85 53 79 54
REMARK SMILES IDX 78 55 37 57 67 58 48 59 66 60 49 61 52 62 65 63 83 64 50 65
REMARK SMILES IDX 51 66 64 68 84 69 53 70 38 71 39 72 47 73 40 74 46 75 41 76
REMARK SMILES IDX 42 77 43 78 44 79 45 80 68 81 69 82 77 83 70 84 76 85 71 86
REMARK SMILES IDX 72 87 73 88 74 89 75 90 54 91 55 92 63 93 56 94 62 95 57 96
REMARK SMILES IDX 58 97 59 98 60 99 61 100
REMARK H PARENT 10 13 82 56 52 67
REMARK Flexibility Score: inf
ROOT
ATOM      1  C   UNL     1       5.524  -2.441  -6.233  1.00  0.00     0.188 C 
ENDROOT
BRANCH   1   2
ATOM      2  C   UNL     1       4.253  -2.825  -7.022  1.00  0.00     0.188 C 
BRANCH   2   3
ATOM      3  O   UNL     1       3.160  -1.929  -7.137  1.00  0.00    -0.376 OA
BRANCH   3   4
ATOM      4  C   UNL     1       2.849  -1.086  -6.042  1.00  0.00     0.202 C 
BRANCH   4   5
ATOM      5  C   UNL     1       2.709  -1.679  -4.626  1.00  0.00     0.261 C 
BRANCH   5   6
ATOM      6  O   UNL     1       3.656  -2.695  -4.226  1.00  0.00    -0.461 OA
BRANCH   6   7
ATOM      7  C   UNL     1       3.218  -3.985  -4.170  1.00  0.00     0.333 C 
ATOM      8  O   UNL     1       2.067  -4.322  -4.432  1.00  0.00    -0.249 OA
BRANCH   7   9
ATOM      9  C   UNL     1       4.334  -5.020  -3.750  1.00  0.00     0.223 C 
BRANCH   9  10
ATOM     10  N   UNL     1       5.749  -4.649  -3.637  1.00  0.00    -0.339 N 
ATOM     11  C   UNL     1       6.487  -4.286  -2.551  1.00  0.00     0.226 C 
ATOM     12  O   UNL     1       7.698  -4.117  -2.712  1.00  0.00    -0.275 OA
ATOM     13  H   UNL     1       6.247  -4.664  -4.486  1.00  0.00     0.164 HD
BRANCH  11  14
ATOM     14  C   UNL     1       5.858  -4.160  -1.183  1.00  0.00     0.157 C 
BRANCH  14  15
ATOM     15  C   UNL     1       4.919  -3.014  -1.127  1.00  0.00     0.062 A 
ATOM     16  C   UNL     1       2.870  -2.170  -1.052  1.00  0.00     0.150 A 
ATOM     17  N   UNL     1       3.564  -3.287  -1.058  1.00  0.00    -0.234 NA
ATOM     18  S   UNL     1       3.811  -0.737  -1.106  1.00  0.00    -0.116 S 
ATOM     19  C   UNL     1       5.239  -1.671  -1.167  1.00  0.00     0.092 A 
BRANCH  16  20
ATOM     20  S   UNL     1       1.123  -2.295  -1.053  1.00  0.00    -0.096 SA
BRANCH  20  21
ATOM     21  C   UNL     1       0.525  -0.591  -1.150  1.00  0.00     0.074 C 
ATOM     22  C   UNL     1       0.617   0.111   0.193  1.00  0.00     0.016 C 
ENDBRANCH  20  21
ENDBRANCH  16  20
ENDBRANCH  14  15
ENDBRANCH  11  14
ENDBRANCH   9  10
BRANCH   9  23
ATOM     23  C   UNL     1       4.319  -6.265  -4.600  1.00  0.00     0.012 C 
ATOM     24  C   UNL     1       4.558  -7.522  -4.209  1.00  0.00     0.064 C 
ATOM     25  C   UNL     1       3.953  -6.391  -6.046  1.00  0.00     0.156 C 
ATOM     26  C   UNL     1       5.086  -7.993  -2.902  1.00  0.00     0.069 C 
ATOM     27  N   UNL     1       4.255  -8.445  -5.177  1.00  0.00    -0.160 NA
ATOM     28  N   UNL     1       3.802  -7.866  -6.201  1.00  0.00    -0.181 NA
ATOM     29  C   UNL     1       5.059  -5.990  -7.032  1.00  0.00     0.040 C 
ENDBRANCH   9  23
ENDBRANCH   7   9
ENDBRANCH   6   7
ENDBRANCH   5   6
ENDBRANCH   4   5
ENDBRANCH   3   4
ENDBRANCH   2   3
ENDBRANCH   1   2
BRANCH   1  30
ATOM     30  O   UNL     1       5.558  -1.099  -5.797  1.00  0.00    -0.377 OA
BRANCH  30  31
ATOM     31  C   UNL     1       6.322  -0.232  -6.619  1.00  0.00     0.188 C 
BRANCH  31  32
ATOM     32  C   UNL     1       6.093  -0.374  -8.136  1.00  0.00     0.188 C 
BRANCH  32  33
ATOM     33  O   UNL     1       6.323  -1.695  -8.622  1.00  0.00    -0.376 OA
BRANCH  33  34
ATOM     34  C   UNL     1       7.569  -2.034  -9.208  1.00  0.00     0.202 C 
BRANCH  34  35
ATOM     35  C   UNL     1       8.827  -2.046  -8.322  1.00  0.00     0.261 C 
BRANCH  35  36
ATOM     36  O   UNL     1       9.117  -0.850  -7.589  1.00  0.00    -0.460 OA
BRANCH  36  37
ATOM     37  C   UNL     1       9.260   0.294  -8.289  1.00  0.00     0.338 C 
ATOM     38  O   UNL     1       9.248   0.411  -9.504  1.00  0.00    -0.246 OA
BRANCH  37  39
ATOM     39  C   UNL     1       9.185   1.420  -7.333  1.00  0.00     0.060 A 
ATOM     40  C   UNL     1       8.236   2.424  -7.563  1.00  0.00     0.016 A 
ATOM     41  C   UNL     1      10.017   1.478  -6.210  1.00  0.00     0.016 A 
ATOM     42  C   UNL     1       8.151   3.516  -6.705  1.00  0.00     0.010 A 
ATOM     43  C   UNL     1       9.956   2.593  -5.368  1.00  0.00     0.010 A 
ATOM     44  C   UNL     1       9.057   3.638  -5.646  1.00  0.00    -0.014 A 
BRANCH  44  45
ATOM     45  C   UNL     1       9.243   4.979  -5.042  1.00  0.00     0.031 A 
ATOM     46  C   UNL     1      10.343   5.845  -5.600  1.00  0.00     0.074 A 
ATOM     47  C   UNL     1       8.407   5.457  -4.104  1.00  0.00     0.049 A 
ATOM     48  N   UNL     1      10.672   7.071  -5.290  1.00  0.00    -0.248 NA
ATOM     49  C   UNL     1      11.178   5.247  -6.656  1.00  0.00     0.031 C 
ATOM     50  C   UNL     1       7.270   4.737  -3.533  1.00  0.00     0.029 A 
ATOM     51  N   UNL     1       8.383   6.678  -3.478  1.00  0.00    -0.354 N 
ATOM     52  C   UNL     1      11.752   7.386  -6.108  1.00  0.00     0.074 A 
ATOM     53  C   UNL     1      12.047   6.214  -6.899  1.00  0.00     0.031 C 
ATOM     54  C   UNL     1       6.657   5.534  -2.639  1.00  0.00     0.029 A 
ATOM     55  C   UNL     1       7.373   6.806  -2.555  1.00  0.00     0.049 A 
ATOM     56  H   UNL     1       9.030   7.395  -3.672  1.00  0.00     0.167 HD
ATOM     57  C   UNL     1      12.433   8.552  -6.202  1.00  0.00     0.031 A 
ATOM     58  C   UNL     1       7.072   7.831  -1.732  1.00  0.00     0.031 A 
ATOM     59  C   UNL     1      12.147   9.712  -5.404  1.00  0.00     0.049 A 
ATOM     60  C   UNL     1       7.897   9.092  -1.797  1.00  0.00     0.074 A 
ATOM     61  C   UNL     1      12.775  10.944  -5.421  1.00  0.00     0.029 A 
ATOM     62  N   UNL     1      11.153   9.781  -4.439  1.00  0.00    -0.354 N 
ATOM     63  N   UNL     1       8.905   9.382  -2.587  1.00  0.00    -0.248 NA
ATOM     64  C   UNL     1       7.532  10.171  -0.868  1.00  0.00     0.031 C 
ATOM     65  C   UNL     1      12.205  11.736  -4.420  1.00  0.00     0.029 A 
ATOM     66  C   UNL     1      11.170  11.026  -3.833  1.00  0.00     0.049 A 
ATOM     67  H   UNL     1      10.529   9.053  -4.217  1.00  0.00     0.167 HD
ATOM     68  C   UNL     1       9.271  10.689  -2.272  1.00  0.00     0.074 A 
ATOM     69  C   UNL     1       8.364  11.135  -1.234  1.00  0.00     0.031 C 
ATOM     70  C   UNL     1      10.263  11.452  -2.796  1.00  0.00     0.031 A 
BRANCH  57  71
ATOM     71  C   UNL     1      13.582   8.608  -7.174  1.00  0.00    -0.014 A 
ATOM     72  C   UNL     1      13.370   8.586  -8.565  1.00  0.00     0.010 A 
ATOM     73  C   UNL     1      14.897   8.706  -6.685  1.00  0.00     0.010 A 
ATOM     74  C   UNL     1      14.454   8.623  -9.447  1.00  0.00     0.020 A 
ATOM     75  C   UNL     1      15.982   8.776  -7.563  1.00  0.00     0.020 A 
ATOM     76  C   UNL     1      15.753   8.719  -8.939  1.00  0.00     0.054 A 
BRANCH  76  77
ATOM     77  S   UNL     1      17.139   8.795 -10.106  1.00  0.00     0.124 S 
ATOM     78  O   UNL     1      17.159   7.436 -10.640  1.00  0.00    -0.237 OA
ATOM     79  O   UNL     1      16.710   9.831 -11.043  1.00  0.00    -0.237 OA
ATOM     80  O   UNL     1      18.281   9.151  -9.268  1.00  0.00    -0.744 OA
ENDBRANCH  76  77
ENDBRANCH  57  71
BRANCH  58  81
ATOM     81  C   UNL     1       5.948   7.705  -0.762  1.00  0.00    -0.014 A 
ATOM     82  C   UNL     1       4.792   8.496  -0.884  1.00  0.00     0.010 A 
ATOM     83  C   UNL     1       6.039   6.795   0.308  1.00  0.00     0.010 A 
ATOM     84  C   UNL     1       3.759   8.393   0.054  1.00  0.00     0.020 A 
ATOM     85  C   UNL     1       4.996   6.666   1.229  1.00  0.00     0.020 A 
ATOM     86  C   UNL     1       3.866   7.474   1.102  1.00  0.00     0.054 A 
BRANCH  86  87
ATOM     87  S   UNL     1       2.491   7.319   2.275  1.00  0.00     0.124 S 
ATOM     88  O   UNL     1       2.586   8.568   3.024  1.00  0.00    -0.237 OA
ATOM     89  O   UNL     1       1.336   7.197   1.389  1.00  0.00    -0.237 OA
ATOM     90  O   UNL     1       2.818   6.110   3.028  1.00  0.00    -0.744 OA
ENDBRANCH  86  87
ENDBRANCH  58  81
BRANCH  70  91
ATOM     91  C   UNL     1      10.394  12.866  -2.289  1.00  0.00    -0.014 A 
ATOM     92  C   UNL     1      10.825  13.143  -0.979  1.00  0.00     0.010 A 
ATOM     93  C   UNL     1      10.115  13.939  -3.156  1.00  0.00     0.010 A 
ATOM     94  C   UNL     1      10.923  14.463  -0.531  1.00  0.00     0.020 A 
ATOM     95  C   UNL     1      10.246  15.261  -2.724  1.00  0.00     0.020 A 
ATOM     96  C   UNL     1      10.629  15.514  -1.406  1.00  0.00     0.054 A 
BRANCH  96  97
ATOM     97  S   UNL     1      10.776  17.218  -0.805  1.00  0.00     0.124 S 
ATOM     98  O   UNL     1       9.626  17.325   0.088  1.00  0.00    -0.237 OA
ATOM     99  O   UNL     1      12.082  17.215  -0.150  1.00  0.00    -0.237 OA
ATOM    100  O   UNL     1      10.698  18.024  -2.021  1.00  0.00    -0.744 OA
ENDBRANCH  96  97
ENDBRANCH  70  91
ENDBRANCH  44  45
ENDBRANCH  37  39
ENDBRANCH  36  37
ENDBRANCH  35  36
ENDBRANCH  34  35
ENDBRANCH  33  34
ENDBRANCH  32  33
ENDBRANCH  31  32
ENDBRANCH  30  31
ENDBRANCH   1  30
TORSDOF 29
