REMARK SMILES Cn1cc(C(=O)NCCc2ccccc2)c(C(=O)OCCOCCOCCOCCOC(=O)c2ccc(-c3c4nc(c(-c5ccc(S(=O)(=O)[O-])cc5)c5ccc([nH]5)c(-c5ccc(S(=O)(=O)[O-])cc5)c5nc(c(-c6ccc(S(=O)(=O)[O-])cc6)c6ccc3[nH]6)C=C5)C=C4)cc2)n1
REMARK SMILES IDX 24 1 23 2 22 3 21 4 20 5 19 6 17 7 18 8 16 9 1 10 2 11 3 12
REMARK SMILES IDX 94 13 4 14 5 15 6 16 7 17 8 19 9 20 10 21 11 22 15 23 12 24
REMARK SMILES IDX 14 25 13 26 25 27 26 28 27 29 28 30 29 31 30 32 31 33 32 34
REMARK SMILES IDX 33 35 34 36 35 37 93 38 36 39 92 40 37 41 38 42 39 43 86 44
REMARK SMILES IDX 40 45 91 46 85 47 87 48 41 49 90 50 84 51 83 52 42 54 72 55
REMARK SMILES IDX 53 56 71 57 54 58 57 59 70 60 88 61 55 62 56 63 69 65 89 66
REMARK SMILES IDX 58 67 43 68 44 69 52 70 45 71 51 72 46 73 47 74 48 75 49 76
REMARK SMILES IDX 50 77 73 78 74 79 82 80 75 81 81 82 76 83 77 84 78 85 79 86
REMARK SMILES IDX 80 87 59 88 60 89 68 90 61 91 67 92 62 93 63 94 64 95 65 96
REMARK SMILES IDX 66 97
REMARK H PARENT 7 18 87 53 57 64
REMARK Flexibility Score: inf
ROOT
ATOM      1  C   UNL     1       2.422   1.678  -1.878  1.00  0.00     0.188 C 
ENDROOT
BRANCH   1   2
ATOM      2  C   UNL     1       2.502   3.093  -1.275  1.00  0.00     0.188 C 
BRANCH   2   3
ATOM      3  O   UNL     1       3.829   3.471  -0.886  1.00  0.00    -0.376 OA
BRANCH   3   4
ATOM      4  C   UNL     1       4.075   3.542   0.518  1.00  0.00     0.202 C 
BRANCH   4   5
ATOM      5  C   UNL     1       4.496   2.196   1.111  1.00  0.00     0.261 C 
BRANCH   5   6
ATOM      6  O   UNL     1       3.476   1.206   0.956  1.00  0.00    -0.458 OA
BRANCH   6   7
ATOM      7  C   UNL     1       2.373   1.283   1.744  1.00  0.00     0.359 C 
ATOM      8  O   UNL     1       2.242   2.093   2.658  1.00  0.00    -0.244 OA
BRANCH   7   9
ATOM      9  C   UNL     1       1.286   0.437   1.215  1.00  0.00     0.183 A 
ATOM     10  C   UNL     1      -2.008   0.236   0.044  1.00  0.00     0.173 C 
ATOM     11  N   UNL     1      -0.628   0.007   0.402  1.00  0.00    -0.274 N 
ATOM     12  C   UNL     1       0.119  -1.090   0.103  1.00  0.00     0.123 A 
ATOM     13  N   UNL     1       0.047   0.953   1.061  1.00  0.00    -0.165 NA
ATOM     14  C   UNL     1       1.358  -0.907   0.693  1.00  0.00     0.092 A 
BRANCH  14  15
ATOM     15  C   UNL     1       2.515  -1.792   0.741  1.00  0.00     0.255 C 
ATOM     16  O   UNL     1       3.632  -1.378   1.041  1.00  0.00    -0.269 OA
ATOM     17  N   UNL     1       2.425  -3.135   0.506  1.00  0.00    -0.352 N 
ATOM     18  H   UNL     1       3.302  -3.582   0.489  1.00  0.00     0.163 HD
BRANCH  17  19
ATOM     19  C   UNL     1       1.319  -4.049   0.276  1.00  0.00     0.121 C 
BRANCH  19  20
ATOM     20  C   UNL     1       1.317  -4.601  -1.155  1.00  0.00     0.057 C 
BRANCH  20  21
ATOM     21  C   UNL     1       2.367  -5.674  -1.336  1.00  0.00    -0.046 A 
ATOM     22  C   UNL     1       2.026  -7.027  -1.189  1.00  0.00     0.004 A 
ATOM     23  C   UNL     1       3.706  -5.334  -1.574  1.00  0.00     0.004 A 
ATOM     24  C   UNL     1       3.009  -8.016  -1.257  1.00  0.00     0.000 A 
ATOM     25  C   UNL     1       4.688  -6.323  -1.628  1.00  0.00     0.000 A 
ATOM     26  C   UNL     1       4.341  -7.663  -1.466  1.00  0.00     0.000 A 
ENDBRANCH  20  21
ENDBRANCH  19  20
ENDBRANCH  17  19
ENDBRANCH  14  15
ENDBRANCH   7   9
ENDBRANCH   6   7
ENDBRANCH   5   6
ENDBRANCH   4   5
ENDBRANCH   3   4
ENDBRANCH   2   3
ENDBRANCH   1   2
BRANCH   1  27
ATOM     27  O   UNL     1       3.080   1.439  -3.117  1.00  0.00    -0.377 OA
BRANCH  27  28
ATOM     28  C   UNL     1       4.435   1.877  -3.176  1.00  0.00     0.188 C 
BRANCH  28  29
ATOM     29  C   UNL     1       4.541   3.276  -3.808  1.00  0.00     0.188 C 
BRANCH  29  30
ATOM     30  O   UNL     1       3.282   3.770  -4.272  1.00  0.00    -0.376 OA
BRANCH  30  31
ATOM     31  C   UNL     1       2.999   3.561  -5.654  1.00  0.00     0.202 C 
BRANCH  31  32
ATOM     32  C   UNL     1       2.839   2.104  -6.119  1.00  0.00     0.261 C 
BRANCH  32  33
ATOM     33  O   UNL     1       4.034   1.304  -6.074  1.00  0.00    -0.460 OA
BRANCH  33  34
ATOM     34  C   UNL     1       5.100   1.736  -6.780  1.00  0.00     0.338 C 
ATOM     35  O   UNL     1       5.154   2.699  -7.524  1.00  0.00    -0.246 OA
BRANCH  34  36
ATOM     36  C   UNL     1       6.269   0.936  -6.367  1.00  0.00     0.060 A 
ATOM     37  C   UNL     1       7.399   1.600  -5.873  1.00  0.00     0.016 A 
ATOM     38  C   UNL     1       6.252  -0.457  -6.476  1.00  0.00     0.016 A 
ATOM     39  C   UNL     1       8.536   0.869  -5.524  1.00  0.00     0.010 A 
ATOM     40  C   UNL     1       7.397  -1.184  -6.144  1.00  0.00     0.010 A 
ATOM     41  C   UNL     1       8.553  -0.521  -5.699  1.00  0.00    -0.014 A 
BRANCH  41  42
ATOM     42  C   UNL     1       9.834  -1.262  -5.612  1.00  0.00     0.031 A 
ATOM     43  C   UNL     1      10.630  -1.452  -6.874  1.00  0.00     0.074 A 
ATOM     44  C   UNL     1      10.279  -1.759  -4.444  1.00  0.00     0.049 A 
ATOM     45  N   UNL     1      11.758  -2.087  -7.053  1.00  0.00    -0.248 NA
ATOM     46  C   UNL     1      10.078  -0.846  -8.098  1.00  0.00     0.031 C 
ATOM     47  C   UNL     1       9.614  -1.617  -3.150  1.00  0.00     0.029 A 
ATOM     48  N   UNL     1      11.403  -2.497  -4.167  1.00  0.00    -0.354 N 
ATOM     49  C   UNL     1      12.052  -1.958  -8.405  1.00  0.00     0.074 A 
ATOM     50  C   UNL     1      10.973  -1.204  -9.006  1.00  0.00     0.031 C 
ATOM     51  C   UNL     1      10.338  -2.260  -2.216  1.00  0.00     0.029 A 
ATOM     52  C   UNL     1      11.504  -2.876  -2.850  1.00  0.00     0.049 A 
ATOM     53  H   UNL     1      12.075  -2.732  -4.848  1.00  0.00     0.167 HD
ATOM     54  C   UNL     1      13.124  -2.421  -9.088  1.00  0.00     0.031 A 
ATOM     55  C   UNL     1      12.423  -3.645  -2.233  1.00  0.00     0.031 A 
ATOM     56  C   UNL     1      14.185  -3.190  -8.500  1.00  0.00     0.049 A 
ATOM     57  C   UNL     1      13.573  -4.207  -3.029  1.00  0.00     0.074 A 
ATOM     58  C   UNL     1      15.319  -3.698  -9.108  1.00  0.00     0.029 A 
ATOM     59  N   UNL     1      14.238  -3.571  -7.168  1.00  0.00    -0.354 N 
ATOM     60  N   UNL     1      13.855  -4.045  -4.301  1.00  0.00    -0.248 NA
ATOM     61  C   UNL     1      14.534  -5.052  -2.304  1.00  0.00     0.031 C 
ATOM     62  C   UNL     1      16.037  -4.425  -8.152  1.00  0.00     0.029 A 
ATOM     63  C   UNL     1      15.373  -4.328  -6.940  1.00  0.00     0.049 A 
ATOM     64  H   UNL     1      13.567  -3.338  -6.487  1.00  0.00     0.167 HD
ATOM     65  C   UNL     1      15.038  -4.744  -4.519  1.00  0.00     0.074 A 
ATOM     66  C   UNL     1      15.424  -5.323  -3.249  1.00  0.00     0.031 C 
ATOM     67  C   UNL     1      15.744  -4.891  -5.668  1.00  0.00     0.031 A 
BRANCH  54  68
ATOM     68  C   UNL     1      13.183  -2.127 -10.560  1.00  0.00    -0.014 A 
ATOM     69  C   UNL     1      13.505  -0.841 -11.028  1.00  0.00     0.010 A 
ATOM     70  C   UNL     1      12.943  -3.157 -11.487  1.00  0.00     0.010 A 
ATOM     71  C   UNL     1      13.557  -0.582 -12.400  1.00  0.00     0.020 A 
ATOM     72  C   UNL     1      13.014  -2.906 -12.860  1.00  0.00     0.020 A 
ATOM     73  C   UNL     1      13.307  -1.616 -13.307  1.00  0.00     0.054 A 
BRANCH  73  74
ATOM     74  S   UNL     1      13.407  -1.262 -15.083  1.00  0.00     0.124 S 
ATOM     75  O   UNL     1      12.163  -0.531 -15.314  1.00  0.00    -0.237 OA
ATOM     76  O   UNL     1      14.629  -0.469 -15.185  1.00  0.00    -0.237 OA
ATOM     77  O   UNL     1      13.474  -2.585 -15.697  1.00  0.00    -0.744 OA
ENDBRANCH  73  74
ENDBRANCH  54  68
BRANCH  55  78
ATOM     78  C   UNL     1      12.290  -3.954  -0.784  1.00  0.00    -0.014 A 
ATOM     79  C   UNL     1      13.180  -3.400   0.153  1.00  0.00     0.010 A 
ATOM     80  C   UNL     1      11.286  -4.832  -0.336  1.00  0.00     0.010 A 
ATOM     81  C   UNL     1      13.085  -3.736   1.506  1.00  0.00     0.020 A 
ATOM     82  C   UNL     1      11.172  -5.152   1.019  1.00  0.00     0.020 A 
ATOM     83  C   UNL     1      12.083  -4.614   1.931  1.00  0.00     0.054 A 
BRANCH  83  84
ATOM     84  S   UNL     1      11.955  -5.018   3.695  1.00  0.00     0.124 S 
ATOM     85  O   UNL     1      13.039  -5.981   3.864  1.00  0.00    -0.237 OA
ATOM     86  O   UNL     1      12.155  -3.720   4.335  1.00  0.00    -0.237 OA
ATOM     87  O   UNL     1      10.606  -5.564   3.821  1.00  0.00    -0.744 OA
ENDBRANCH  83  84
ENDBRANCH  55  78
BRANCH  67  88
ATOM     88  C   UNL     1      17.025  -5.678  -5.602  1.00  0.00    -0.014 A 
ATOM     89  C   UNL     1      17.014  -7.080  -5.513  1.00  0.00     0.010 A 
ATOM     90  C   UNL     1      18.256  -5.004  -5.700  1.00  0.00     0.010 A 
ATOM     91  C   UNL     1      18.215  -7.795  -5.499  1.00  0.00     0.020 A 
ATOM     92  C   UNL     1      19.458  -5.717  -5.709  1.00  0.00     0.020 A 
ATOM     93  C   UNL     1      19.430  -7.109  -5.595  1.00  0.00     0.054 A 
BRANCH  93  94
ATOM     94  S   UNL     1      20.974  -8.059  -5.627  1.00  0.00     0.124 S 
ATOM     95  O   UNL     1      21.146  -8.406  -4.219  1.00  0.00    -0.237 OA
ATOM     96  O   UNL     1      20.651  -9.174  -6.514  1.00  0.00    -0.237 OA
ATOM     97  O   UNL     1      21.952  -7.112  -6.160  1.00  0.00    -0.744 OA
ENDBRANCH  93  94
ENDBRANCH  67  88
ENDBRANCH  41  42
ENDBRANCH  34  36
ENDBRANCH  33  34
ENDBRANCH  32  33
ENDBRANCH  31  32
ENDBRANCH  30  31
ENDBRANCH  29  30
ENDBRANCH  28  29
ENDBRANCH  27  28
ENDBRANCH   1  27
TORSDOF 27
