REMARK SMILES O=C(OCCOCCOCCOCCOC(=O)[C@@H]1[C@@H](C(=O)Nc2ccc(F)c(F)c2)[C@H]2CC[C@@H]1O2)c1ccc(-c2c3nc(c(-c4ccc(S(=O)(=O)[O-])cc4)c4ccc([nH]4)c(-c4ccc(S(=O)(=O)[O-])cc4)c4nc(c(-c5ccc(S(=O)(=O)[O-])cc5)c5ccc2[nH]5)C=C4)C=C3)cc1
REMARK SMILES IDX 8 1 7 2 6 3 5 4 4 5 3 6 2 7 1 8 36 9 37 10 95 11 38 12 94 13
REMARK SMILES IDX 39 14 40 15 41 16 88 17 42 18 93 19 87 20 89 21 43 22 92 23
REMARK SMILES IDX 86 24 85 25 44 27 74 28 55 29 73 30 56 31 59 32 72 33 90 34
REMARK SMILES IDX 57 35 58 36 71 38 91 39 60 40 45 41 46 42 54 43 47 44 53 45
REMARK SMILES IDX 48 46 49 47 50 48 51 49 52 50 75 51 76 52 84 53 77 54 83 55
REMARK SMILES IDX 78 56 79 57 80 58 81 59 82 60 61 61 62 62 70 63 63 64 69 65
REMARK SMILES IDX 64 66 65 67 66 68 67 69 68 70 9 71 10 72 11 73 12 74 13 75
REMARK SMILES IDX 14 76 15 77 16 78 17 79 18 80 19 81 34 82 31 83 33 84 35 85
REMARK SMILES IDX 32 86 20 87 21 88 22 89 23 91 24 92 30 93 25 94 28 95 26 96
REMARK SMILES IDX 29 97 27 98
REMARK H PARENT 89 26 59 37 22 90
REMARK Flexibility Score: inf
ROOT
ATOM      1  C   UNL     1       2.904  -2.261   0.692  1.00  0.00     0.188 C 
ENDROOT
BRANCH   1   2
ATOM      2  C   UNL     1       3.184  -0.781   0.790  1.00  0.00     0.188 C 
BRANCH   2   3
ATOM      3  O   UNL     1       4.528  -0.582   0.404  1.00  0.00    -0.376 OA
BRANCH   3   4
ATOM      4  C   UNL     1       5.180   0.642   0.652  1.00  0.00     0.202 C 
BRANCH   4   5
ATOM      5  C   UNL     1       4.352   1.921   0.675  1.00  0.00     0.261 C 
BRANCH   5   6
ATOM      6  O   UNL     1       2.996   1.915   0.162  1.00  0.00    -0.460 OA
BRANCH   6   7
ATOM      7  C   UNL     1       2.396   1.907  -1.048  1.00  0.00     0.338 C 
ATOM      8  O   UNL     1       1.220   2.266  -1.112  1.00  0.00    -0.246 OA
BRANCH   7   9
ATOM      9  C   UNL     1       3.016   1.395  -2.301  1.00  0.00     0.060 A 
ATOM     10  C   UNL     1       4.070   0.499  -2.326  1.00  0.00     0.016 A 
ATOM     11  C   UNL     1       2.426   1.720  -3.533  1.00  0.00     0.016 A 
ATOM     12  C   UNL     1       4.620   0.014  -3.491  1.00  0.00     0.010 A 
ATOM     13  C   UNL     1       2.947   1.217  -4.734  1.00  0.00     0.010 A 
ATOM     14  C   UNL     1       4.077   0.392  -4.704  1.00  0.00    -0.014 A 
BRANCH  14  15
ATOM     15  C   UNL     1       4.908   0.096  -5.877  1.00  0.00     0.031 A 
ATOM     16  C   UNL     1       5.764   1.216  -6.386  1.00  0.00     0.074 A 
ATOM     17  C   UNL     1       5.093  -1.181  -6.259  1.00  0.00     0.049 A 
ATOM     18  N   UNL     1       6.573   1.241  -7.405  1.00  0.00    -0.248 NA
ATOM     19  C   UNL     1       5.731   2.475  -5.613  1.00  0.00     0.031 C 
ATOM     20  C   UNL     1       4.488  -2.354  -5.614  1.00  0.00     0.029 A 
ATOM     21  N   UNL     1       5.892  -1.714  -7.230  1.00  0.00    -0.354 N 
ATOM     22  C   UNL     1       7.104   2.525  -7.424  1.00  0.00     0.074 A 
ATOM     23  C   UNL     1       6.550   3.247  -6.306  1.00  0.00     0.031 C 
ATOM     24  C   UNL     1       4.962  -3.468  -6.196  1.00  0.00     0.029 A 
ATOM     25  C   UNL     1       5.822  -3.086  -7.307  1.00  0.00     0.049 A 
ATOM     26  H   UNL     1       6.463  -1.169  -7.819  1.00  0.00     0.167 HD
ATOM     27  C   UNL     1       7.960   3.051  -8.326  1.00  0.00     0.031 A 
ATOM     28  C   UNL     1       6.357  -3.918  -8.220  1.00  0.00     0.031 A 
ATOM     29  C   UNL     1       8.457   2.288  -9.435  1.00  0.00     0.049 A 
ATOM     30  C   UNL     1       7.163  -3.283  -9.320  1.00  0.00     0.074 A 
ATOM     31  C   UNL     1       9.199   2.707 -10.519  1.00  0.00     0.029 A 
ATOM     32  N   UNL     1       8.245   0.922  -9.586  1.00  0.00    -0.354 N 
ATOM     33  N   UNL     1       7.531  -2.026  -9.447  1.00  0.00    -0.248 NA
ATOM     34  C   UNL     1       7.599  -4.154 -10.415  1.00  0.00     0.031 C 
ATOM     35  C   UNL     1       9.391   1.599 -11.354  1.00  0.00     0.029 A 
ATOM     36  C   UNL     1       8.825   0.480 -10.756  1.00  0.00     0.049 A 
ATOM     37  H   UNL     1       7.754   0.353  -8.950  1.00  0.00     0.167 HD
ATOM     38  C   UNL     1       8.250  -1.956 -10.630  1.00  0.00     0.074 A 
ATOM     39  C   UNL     1       8.284  -3.305 -11.169  1.00  0.00     0.031 C 
ATOM     40  C   UNL     1       8.826  -0.883 -11.230  1.00  0.00     0.031 A 
BRANCH  27  41
ATOM     41  C   UNL     1       8.265   4.517  -8.200  1.00  0.00    -0.014 A 
ATOM     42  C   UNL     1       9.094   5.021  -7.182  1.00  0.00     0.010 A 
ATOM     43  C   UNL     1       7.637   5.420  -9.078  1.00  0.00     0.010 A 
ATOM     44  C   UNL     1       9.253   6.402  -7.018  1.00  0.00     0.020 A 
ATOM     45  C   UNL     1       7.811   6.798  -8.932  1.00  0.00     0.020 A 
ATOM     46  C   UNL     1       8.603   7.282  -7.890  1.00  0.00     0.054 A 
BRANCH  46  47
ATOM     47  S   UNL     1       8.811   9.068  -7.647  1.00  0.00     0.124 S 
ATOM     48  O   UNL     1       8.016   9.304  -6.445  1.00  0.00    -0.237 OA
ATOM     49  O   UNL     1      10.256   9.202  -7.480  1.00  0.00    -0.237 OA
ATOM     50  O   UNL     1       8.273   9.650  -8.874  1.00  0.00    -0.744 OA
ENDBRANCH  46  47
ENDBRANCH  27  41
BRANCH  28  51
ATOM     51  C   UNL     1       6.056  -5.379  -8.194  1.00  0.00    -0.014 A 
ATOM     52  C   UNL     1       7.073  -6.336  -8.039  1.00  0.00     0.010 A 
ATOM     53  C   UNL     1       4.727  -5.827  -8.340  1.00  0.00     0.010 A 
ATOM     54  C   UNL     1       6.770  -7.705  -8.047  1.00  0.00     0.020 A 
ATOM     55  C   UNL     1       4.416  -7.190  -8.317  1.00  0.00     0.020 A 
ATOM     56  C   UNL     1       5.443  -8.123  -8.186  1.00  0.00     0.054 A 
BRANCH  56  57
ATOM     57  S   UNL     1       5.073  -9.900  -8.178  1.00  0.00     0.124 S 
ATOM     58  O   UNL     1       5.582 -10.328  -9.461  1.00  0.00    -0.237 OA
ATOM     59  O   UNL     1       5.815 -10.369  -7.002  1.00  0.00    -0.237 OA
ATOM     60  O   UNL     1       3.612  -9.943  -8.028  1.00  0.00    -0.744 OA
ENDBRANCH  56  57
ENDBRANCH  28  51
BRANCH  40  61
ATOM     61  C   UNL     1       9.568  -1.144 -12.505  1.00  0.00    -0.014 A 
ATOM     62  C   UNL     1       8.882  -1.379 -13.708  1.00  0.00     0.010 A 
ATOM     63  C   UNL     1      10.972  -1.065 -12.505  1.00  0.00     0.010 A 
ATOM     64  C   UNL     1       9.595  -1.551 -14.894  1.00  0.00     0.020 A 
ATOM     65  C   UNL     1      11.684  -1.206 -13.693  1.00  0.00     0.020 A 
ATOM     66  C   UNL     1      10.991  -1.458 -14.879  1.00  0.00     0.054 A 
BRANCH  66  67
ATOM     67  S   UNL     1      11.889  -1.614 -16.443  1.00  0.00     0.124 S 
ATOM     68  O   UNL     1      11.811  -3.050 -16.695  1.00  0.00    -0.237 OA
ATOM     69  O   UNL     1      11.108  -0.773 -17.346  1.00  0.00    -0.237 OA
ATOM     70  O   UNL     1      13.223  -1.108 -16.128  1.00  0.00    -0.744 OA
ENDBRANCH  66  67
ENDBRANCH  40  61
ENDBRANCH  14  15
ENDBRANCH   7   9
ENDBRANCH   6   7
ENDBRANCH   5   6
ENDBRANCH   4   5
ENDBRANCH   3   4
ENDBRANCH   2   3
ENDBRANCH   1   2
BRANCH   1  71
ATOM     71  O   UNL     1       3.768  -3.024   1.509  1.00  0.00    -0.377 OA
BRANCH  71  72
ATOM     72  C   UNL     1       5.133  -3.144   1.115  1.00  0.00     0.188 C 
BRANCH  72  73
ATOM     73  C   UNL     1       5.483  -4.005  -0.095  1.00  0.00     0.188 C 
BRANCH  73  74
ATOM     74  O   UNL     1       4.434  -4.251  -1.000  1.00  0.00    -0.376 OA
BRANCH  74  75
ATOM     75  C   UNL     1       3.468  -5.245  -0.668  1.00  0.00     0.202 C 
BRANCH  75  76
ATOM     76  C   UNL     1       3.594  -6.168   0.568  1.00  0.00     0.261 C 
BRANCH  76  77
ATOM     77  O   UNL     1       3.796  -5.534   1.859  1.00  0.00    -0.463 OA
BRANCH  77  78
ATOM     78  C   UNL     1       4.452  -6.284   2.780  1.00  0.00     0.312 C 
ATOM     79  O   UNL     1       4.736  -7.466   2.587  1.00  0.00    -0.252 OA
BRANCH  78  80
ATOM     80  C   UNL     1       4.829  -5.619   4.112  1.00  0.00     0.143 C 
ATOM     81  C   UNL     1       4.605  -4.125   4.394  1.00  0.00     0.124 C 
ATOM     82  C   UNL     1       6.367  -5.712   4.183  1.00  0.00     0.133 C 
ATOM     83  C   UNL     1       6.054  -3.603   4.588  1.00  0.00     0.132 C 
ATOM     84  C   UNL     1       6.859  -5.581   5.622  1.00  0.00     0.036 C 
ATOM     85  O   UNL     1       6.772  -4.432   3.638  1.00  0.00    -0.373 OA
ATOM     86  C   UNL     1       6.787  -4.071   5.844  1.00  0.00     0.035 C 
BRANCH  81  87
ATOM     87  C   UNL     1       3.742  -3.749   5.595  1.00  0.00     0.231 C 
ATOM     88  O   UNL     1       4.028  -4.069   6.748  1.00  0.00    -0.274 OA
ATOM     89  N   UNL     1       2.708  -2.865   5.393  1.00  0.00    -0.326 N 
ATOM     90  H   UNL     1       2.650  -2.119   6.033  1.00  0.00     0.169 HD
BRANCH  89  91
ATOM     91  C   UNL     1       1.722  -2.890   4.390  1.00  0.00     0.044 A 
ATOM     92  C   UNL     1       1.405  -4.064   3.697  1.00  0.00     0.029 A 
ATOM     93  C   UNL     1       0.956  -1.739   4.176  1.00  0.00     0.068 A 
ATOM     94  C   UNL     1       0.345  -4.088   2.786  1.00  0.00     0.044 A 
ATOM     95  C   UNL     1      -0.085  -1.764   3.248  1.00  0.00     0.160 A 
ATOM     96  C   UNL     1      -0.394  -2.932   2.563  1.00  0.00     0.158 A 
ATOM     97  F   UNL     1      -0.788  -0.646   3.022  1.00  0.00    -0.204 F 
ATOM     98  F   UNL     1      -1.396  -2.953   1.675  1.00  0.00    -0.204 F 
ENDBRANCH  89  91
ENDBRANCH  81  87
ENDBRANCH  78  80
ENDBRANCH  77  78
ENDBRANCH  76  77
ENDBRANCH  75  76
ENDBRANCH  74  75
ENDBRANCH  73  74
ENDBRANCH  72  73
ENDBRANCH  71  72
ENDBRANCH   1  71
TORSDOF 25
