REMARK SMILES C[C@@H](C(=O)OCCOCCOCCOCCOC(=O)c1ccc(-c2c3nc(c(-c4ccc(S(=O)(=O)[O-])cc4)c4ccc([nH]4)c(-c4ccc(S(=O)(=O)[O-])cc4)c4nc(c(-c5ccc(S(=O)(=O)[O-])cc5)c5ccc2[nH]5)C=C4)C=C3)cc1)c1ccc(-c2ccc3[nH]ccc3c2)cc1
REMARK SMILES IDX 12 1 11 2 10 3 9 4 8 5 7 6 6 7 5 8 3 9 4 10 2 11 1 12 80 13
REMARK SMILES IDX 81 14 94 15 82 16 93 17 83 18 84 19 85 20 92 21 86 22 91 23
REMARK SMILES IDX 87 24 90 25 88 26 89 27 13 29 14 30 15 31 16 32 17 33 18 34
REMARK SMILES IDX 19 35 20 36 21 37 79 38 22 39 78 40 23 41 24 42 25 43 72 44
REMARK SMILES IDX 26 45 77 46 71 47 73 48 27 49 76 50 70 51 69 52 28 54 58 55
REMARK SMILES IDX 39 56 57 57 40 58 43 59 56 60 74 61 41 62 42 63 55 65 75 66
REMARK SMILES IDX 44 67 29 68 30 69 38 70 31 71 37 72 32 73 33 74 34 75 35 76
REMARK SMILES IDX 36 77 59 78 60 79 68 80 61 81 67 82 62 83 63 84 64 85 65 86
REMARK SMILES IDX 66 87 45 88 46 89 54 90 47 91 53 92 48 93 49 94 50 95 51 96
REMARK SMILES IDX 52 97
REMARK H PARENT 88 28 73 53 43 64
REMARK Flexibility Score: inf
ROOT
ATOM      1  C   UNL     1       3.149  -3.889  -1.598  1.00  0.00     0.188 C 
ENDROOT
BRANCH   1   2
ATOM      2  O   UNL     1       2.636  -2.574  -1.724  1.00  0.00    -0.377 OA
BRANCH   2   3
ATOM      3  C   UNL     1       1.250  -2.416  -1.519  1.00  0.00     0.188 C 
BRANCH   3   4
ATOM      4  C   UNL     1       0.395  -2.477  -2.800  1.00  0.00     0.188 C 
BRANCH   4   5
ATOM      5  O   UNL     1       1.008  -2.759  -4.047  1.00  0.00    -0.376 OA
BRANCH   5   6
ATOM      6  C   UNL     1       2.228  -2.120  -4.397  1.00  0.00     0.202 C 
BRANCH   6   7
ATOM      7  C   UNL     1       2.494  -0.625  -4.114  1.00  0.00     0.261 C 
BRANCH   7   8
ATOM      8  O   UNL     1       2.055  -0.087  -2.851  1.00  0.00    -0.463 OA
BRANCH   8   9
ATOM      9  C   UNL     1       0.977   0.739  -2.875  1.00  0.00     0.313 C 
ATOM     10  O   UNL     1       0.374   1.036  -3.903  1.00  0.00    -0.252 OA
BRANCH   9  11
ATOM     11  C   UNL     1       0.568   1.284  -1.490  1.00  0.00     0.126 C 
ATOM     12  C   UNL     1       1.399   0.902  -0.260  1.00  0.00     0.025 C 
BRANCH  11  13
ATOM     13  C   UNL     1      -0.934   1.106  -1.254  1.00  0.00    -0.034 A 
ATOM     14  C   UNL     1      -1.777   2.209  -1.414  1.00  0.00     0.005 A 
ATOM     15  C   UNL     1      -1.528  -0.138  -0.981  1.00  0.00     0.005 A 
ATOM     16  C   UNL     1      -3.164   2.057  -1.378  1.00  0.00     0.009 A 
ATOM     17  C   UNL     1      -2.918  -0.298  -0.975  1.00  0.00     0.009 A 
ATOM     18  C   UNL     1      -3.753   0.797  -1.200  1.00  0.00    -0.018 A 
BRANCH  18  19
ATOM     19  C   UNL     1      -5.206   0.648  -1.297  1.00  0.00    -0.018 A 
ATOM     20  C   UNL     1      -5.847   0.870  -2.526  1.00  0.00     0.011 A 
ATOM     21  C   UNL     1      -5.978   0.343  -0.163  1.00  0.00     0.019 A 
ATOM     22  C   UNL     1      -7.236   0.804  -2.659  1.00  0.00     0.027 A 
ATOM     23  C   UNL     1      -7.383   0.339  -0.258  1.00  0.00    -0.000 A 
ATOM     24  C   UNL     1      -7.976   0.552  -1.502  1.00  0.00     0.045 A 
ATOM     25  C   UNL     1      -8.437   0.204   0.688  1.00  0.00     0.028 A 
ATOM     26  N   UNL     1      -9.337   0.473  -1.321  1.00  0.00    -0.361 N 
ATOM     27  C   UNL     1      -9.628   0.335   0.011  1.00  0.00     0.083 A 
ATOM     28  H   UNL     1     -10.006   0.510  -2.042  1.00  0.00     0.166 HD
ENDBRANCH  18  19
ENDBRANCH  11  13
ENDBRANCH   9  11
ENDBRANCH   8   9
ENDBRANCH   7   8
ENDBRANCH   6   7
ENDBRANCH   5   6
ENDBRANCH   4   5
ENDBRANCH   3   4
ENDBRANCH   2   3
ENDBRANCH   1   2
BRANCH   1  29
ATOM     29  C   UNL     1       2.251  -5.069  -2.018  1.00  0.00     0.188 C 
BRANCH  29  30
ATOM     30  O   UNL     1       0.945  -5.044  -1.450  1.00  0.00    -0.376 OA
BRANCH  30  31
ATOM     31  C   UNL     1       0.682  -5.835  -0.300  1.00  0.00     0.202 C 
BRANCH  31  32
ATOM     32  C   UNL     1       1.330  -5.393   1.022  1.00  0.00     0.261 C 
BRANCH  32  33
ATOM     33  O   UNL     1       2.763  -5.330   1.042  1.00  0.00    -0.460 OA
BRANCH  33  34
ATOM     34  C   UNL     1       3.449  -6.451   0.734  1.00  0.00     0.338 C 
ATOM     35  O   UNL     1       2.983  -7.553   0.499  1.00  0.00    -0.246 OA
BRANCH  34  36
ATOM     36  C   UNL     1       4.859  -6.067   0.517  1.00  0.00     0.060 A 
ATOM     37  C   UNL     1       5.444  -6.316  -0.732  1.00  0.00     0.016 A 
ATOM     38  C   UNL     1       5.590  -5.438   1.528  1.00  0.00     0.016 A 
ATOM     39  C   UNL     1       6.774  -5.967  -0.963  1.00  0.00     0.010 A 
ATOM     40  C   UNL     1       6.931  -5.115   1.304  1.00  0.00     0.010 A 
ATOM     41  C   UNL     1       7.537  -5.410   0.070  1.00  0.00    -0.014 A 
BRANCH  41  42
ATOM     42  C   UNL     1       9.013  -5.345  -0.063  1.00  0.00     0.031 A 
ATOM     43  C   UNL     1       9.824  -6.461   0.541  1.00  0.00     0.074 A 
ATOM     44  C   UNL     1       9.620  -4.341  -0.719  1.00  0.00     0.049 A 
ATOM     45  N   UNL     1      11.121  -6.610   0.593  1.00  0.00    -0.248 NA
ATOM     46  C   UNL     1       9.065  -7.554   1.173  1.00  0.00     0.031 C 
ATOM     47  C   UNL     1       8.943  -3.235  -1.394  1.00  0.00     0.029 A 
ATOM     48  N   UNL     1      10.956  -4.091  -0.919  1.00  0.00    -0.354 N 
ATOM     49  C   UNL     1      11.334  -7.803   1.274  1.00  0.00     0.074 A 
ATOM     50  C   UNL     1      10.036  -8.324   1.639  1.00  0.00     0.031 C 
ATOM     51  C   UNL     1       9.870  -2.420  -1.930  1.00  0.00     0.029 A 
ATOM     52  C   UNL     1      11.203  -2.925  -1.603  1.00  0.00     0.049 A 
ATOM     53  H   UNL     1      11.669  -4.691  -0.602  1.00  0.00     0.167 HD
ATOM     54  C   UNL     1      12.507  -8.412   1.569  1.00  0.00     0.031 A 
ATOM     55  C   UNL     1      12.371  -2.325  -1.909  1.00  0.00     0.031 A 
ATOM     56  C   UNL     1      13.796  -7.881   1.218  1.00  0.00     0.049 A 
ATOM     57  C   UNL     1      13.666  -2.979  -1.494  1.00  0.00     0.074 A 
ATOM     58  C   UNL     1      15.044  -8.428   1.456  1.00  0.00     0.029 A 
ATOM     59  N   UNL     1      14.005  -6.675   0.565  1.00  0.00    -0.354 N 
ATOM     60  N   UNL     1      13.854  -4.120  -0.873  1.00  0.00    -0.248 NA
ATOM     61  C   UNL     1      14.908  -2.266  -1.829  1.00  0.00     0.031 C 
ATOM     62  C   UNL     1      16.009  -7.521   1.011  1.00  0.00     0.029 A 
ATOM     63  C   UNL     1      15.362  -6.444   0.424  1.00  0.00     0.049 A 
ATOM     64  H   UNL     1      13.293  -6.073   0.249  1.00  0.00     0.167 HD
ATOM     65  C   UNL     1      15.234  -4.277  -0.775  1.00  0.00     0.074 A 
ATOM     66  C   UNL     1      15.831  -3.121  -1.411  1.00  0.00     0.031 C 
ATOM     67  C   UNL     1      15.943  -5.288  -0.213  1.00  0.00     0.031 A 
BRANCH  54  68
ATOM     68  C   UNL     1      12.447  -9.697   2.353  1.00  0.00    -0.014 A 
ATOM     69  C   UNL     1      11.948 -10.883   1.784  1.00  0.00     0.010 A 
ATOM     70  C   UNL     1      12.932  -9.723   3.673  1.00  0.00     0.010 A 
ATOM     71  C   UNL     1      11.900 -12.061   2.535  1.00  0.00     0.020 A 
ATOM     72  C   UNL     1      12.915 -10.906   4.416  1.00  0.00     0.020 A 
ATOM     73  C   UNL     1      12.384 -12.065   3.847  1.00  0.00     0.054 A 
BRANCH  73  74
ATOM     74  S   UNL     1      12.335 -13.614   4.787  1.00  0.00     0.124 S 
ATOM     75  O   UNL     1      10.903 -13.774   5.028  1.00  0.00    -0.237 OA
ATOM     76  O   UNL     1      12.925 -14.571   3.856  1.00  0.00    -0.237 OA
ATOM     77  O   UNL     1      13.136 -13.327   5.974  1.00  0.00    -0.744 OA
ENDBRANCH  73  74
ENDBRANCH  54  68
BRANCH  55  78
ATOM     78  C   UNL     1      12.377  -1.022  -2.632  1.00  0.00    -0.014 A 
ATOM     79  C   UNL     1      12.879  -0.928  -3.943  1.00  0.00     0.010 A 
ATOM     80  C   UNL     1      11.888   0.140  -2.007  1.00  0.00     0.010 A 
ATOM     81  C   UNL     1      12.908   0.303  -4.606  1.00  0.00     0.020 A 
ATOM     82  C   UNL     1      11.885   1.367  -2.678  1.00  0.00     0.020 A 
ATOM     83  C   UNL     1      12.406   1.442  -3.971  1.00  0.00     0.054 A 
BRANCH  83  84
ATOM     84  S   UNL     1      12.405   3.017  -4.872  1.00  0.00     0.124 S 
ATOM     85  O   UNL     1      13.826   3.348  -4.908  1.00  0.00    -0.237 OA
ATOM     86  O   UNL     1      11.808   2.645  -6.152  1.00  0.00    -0.237 OA
ATOM     87  O   UNL     1      11.580   3.888  -4.037  1.00  0.00    -0.744 OA
ENDBRANCH  83  84
ENDBRANCH  55  78
BRANCH  67  88
ATOM     88  C   UNL     1      17.447  -5.221  -0.298  1.00  0.00    -0.014 A 
ATOM     89  C   UNL     1      18.185  -4.285   0.447  1.00  0.00     0.010 A 
ATOM     90  C   UNL     1      18.136  -6.159  -1.091  1.00  0.00     0.010 A 
ATOM     91  C   UNL     1      19.581  -4.266   0.374  1.00  0.00     0.020 A 
ATOM     92  C   UNL     1      19.532  -6.165  -1.141  1.00  0.00     0.020 A 
ATOM     93  C   UNL     1      20.246  -5.208  -0.419  1.00  0.00     0.054 A 
BRANCH  93  94
ATOM     94  S   UNL     1      22.059  -5.190  -0.461  1.00  0.00     0.124 S 
ATOM     95  O   UNL     1      22.333  -3.981  -1.233  1.00  0.00    -0.237 OA
ATOM     96  O   UNL     1      22.411  -5.125   0.955  1.00  0.00    -0.237 OA
ATOM     97  O   UNL     1      22.404  -6.444  -1.126  1.00  0.00    -0.744 OA
ENDBRANCH  93  94
ENDBRANCH  67  88
ENDBRANCH  41  42
ENDBRANCH  34  36
ENDBRANCH  33  34
ENDBRANCH  32  33
ENDBRANCH  31  32
ENDBRANCH  30  31
ENDBRANCH  29  30
ENDBRANCH   1  29
TORSDOF 25
