REMARK SMILES O=C(OCCOCCOCCOCCOC(=O)[C@H]1CC2=c3ccccc3=N[C@H]2[C@@H](c2ccccc2)[NH2+]1)c1ccc(-c2c3nc(c(-c4ccc(S(=O)(=O)[O-])cc4)c4ccc([nH]4)c(-c4ccc(S(=O)(=O)[O-])cc4)c4nc(c(-c5ccc(S(=O)(=O)[O-])cc5)c5ccc2[nH]5)C=C4)C=C3)cc1
REMARK SMILES IDX 8 1 7 2 6 3 5 4 4 5 3 6 2 7 1 8 37 9 38 10 96 11 39 12 95 13
REMARK SMILES IDX 40 14 41 15 42 16 89 17 43 18 94 19 88 20 90 21 44 22 93 23
REMARK SMILES IDX 87 24 86 25 45 27 75 28 56 29 74 30 57 31 60 32 73 33 91 34
REMARK SMILES IDX 58 35 59 36 72 38 92 39 61 40 46 41 47 42 55 43 48 44 54 45
REMARK SMILES IDX 49 46 50 47 51 48 52 49 53 50 76 51 77 52 85 53 78 54 84 55
REMARK SMILES IDX 79 56 80 57 81 58 82 59 83 60 62 61 63 62 71 63 64 64 70 65
REMARK SMILES IDX 65 66 66 67 67 68 68 69 69 70 9 71 10 72 11 73 12 74 13 75
REMARK SMILES IDX 14 76 15 77 16 78 17 79 18 80 19 81 36 82 20 83 29 84 21 87
REMARK SMILES IDX 28 88 22 89 26 90 27 91 23 92 25 93 24 94 30 95 31 96 35 97
REMARK SMILES IDX 32 98 34 99 33 100
REMARK H PARENT 90 26 60 37 36 85 36 86
REMARK Flexibility Score: inf
ROOT
ATOM      1  C   UNL     1       2.665   0.970  -2.546  1.00  0.00     0.188 C 
ENDROOT
BRANCH   1   2
ATOM      2  C   UNL     1       2.918   0.886  -1.045  1.00  0.00     0.188 C 
BRANCH   2   3
ATOM      3  O   UNL     1       4.123   0.227  -0.675  1.00  0.00    -0.376 OA
BRANCH   3   4
ATOM      4  C   UNL     1       4.294  -1.096  -1.156  1.00  0.00     0.202 C 
BRANCH   4   5
ATOM      5  C   UNL     1       4.345  -2.073   0.008  1.00  0.00     0.261 C 
BRANCH   5   6
ATOM      6  O   UNL     1       3.084  -2.143   0.702  1.00  0.00    -0.460 OA
BRANCH   6   7
ATOM      7  C   UNL     1       2.502  -1.315   1.598  1.00  0.00     0.338 C 
ATOM      8  O   UNL     1       1.343  -1.585   1.924  1.00  0.00    -0.246 OA
BRANCH   7   9
ATOM      9  C   UNL     1       3.117  -0.083   2.210  1.00  0.00     0.060 A 
ATOM     10  C   UNL     1       2.252   0.715   2.988  1.00  0.00     0.016 A 
ATOM     11  C   UNL     1       4.441   0.350   2.088  1.00  0.00     0.016 A 
ATOM     12  C   UNL     1       2.693   1.887   3.612  1.00  0.00     0.010 A 
ATOM     13  C   UNL     1       4.885   1.538   2.683  1.00  0.00     0.010 A 
ATOM     14  C   UNL     1       4.021   2.299   3.470  1.00  0.00    -0.014 A 
BRANCH  14  15
ATOM     15  C   UNL     1       4.570   3.361   4.338  1.00  0.00     0.031 A 
ATOM     16  C   UNL     1       4.739   4.771   3.867  1.00  0.00     0.074 A 
ATOM     17  C   UNL     1       4.942   2.989   5.578  1.00  0.00     0.049 A 
ATOM     18  N   UNL     1       5.073   5.823   4.566  1.00  0.00    -0.248 NA
ATOM     19  C   UNL     1       4.514   5.041   2.438  1.00  0.00     0.031 C 
ATOM     20  C   UNL     1       4.853   1.619   6.094  1.00  0.00     0.029 A 
ATOM     21  N   UNL     1       5.447   3.708   6.628  1.00  0.00    -0.354 N 
ATOM     22  C   UNL     1       5.074   6.889   3.675  1.00  0.00     0.074 A 
ATOM     23  C   UNL     1       4.750   6.348   2.372  1.00  0.00     0.031 C 
ATOM     24  C   UNL     1       5.251   1.604   7.372  1.00  0.00     0.029 A 
ATOM     25  C   UNL     1       5.636   2.955   7.764  1.00  0.00     0.049 A 
ATOM     26  H   UNL     1       5.654   4.669   6.576  1.00  0.00     0.167 HD
ATOM     27  C   UNL     1       5.313   8.195   3.944  1.00  0.00     0.031 A 
ATOM     28  C   UNL     1       6.039   3.315   8.997  1.00  0.00     0.031 A 
ATOM     29  C   UNL     1       5.663   8.687   5.257  1.00  0.00     0.049 A 
ATOM     30  C   UNL     1       6.286   4.771   9.266  1.00  0.00     0.074 A 
ATOM     31  C   UNL     1       5.877   9.996   5.654  1.00  0.00     0.029 A 
ATOM     32  N   UNL     1       5.857   7.895   6.382  1.00  0.00    -0.354 N 
ATOM     33  N   UNL     1       6.183   5.785   8.439  1.00  0.00    -0.248 NA
ATOM     34  C   UNL     1       6.667   5.141  10.633  1.00  0.00     0.031 C 
ATOM     35  C   UNL     1       6.274   9.988   6.992  1.00  0.00     0.029 A 
ATOM     36  C   UNL     1       6.217   8.685   7.461  1.00  0.00     0.049 A 
ATOM     37  H   UNL     1       5.754   6.916   6.408  1.00  0.00     0.167 HD
ATOM     38  C   UNL     1       6.447   6.918   9.195  1.00  0.00     0.074 A 
ATOM     39  C   UNL     1       6.705   6.464  10.548  1.00  0.00     0.031 C 
ATOM     40  C   UNL     1       6.468   8.216   8.804  1.00  0.00     0.031 A 
BRANCH  27  41
ATOM     41  C   UNL     1       5.186   9.213   2.835  1.00  0.00    -0.014 A 
ATOM     42  C   UNL     1       6.305   9.974   2.445  1.00  0.00     0.010 A 
ATOM     43  C   UNL     1       3.923   9.550   2.314  1.00  0.00     0.010 A 
ATOM     44  C   UNL     1       6.158  11.084   1.606  1.00  0.00     0.020 A 
ATOM     45  C   UNL     1       3.776  10.642   1.450  1.00  0.00     0.020 A 
ATOM     46  C   UNL     1       4.889  11.421   1.128  1.00  0.00     0.054 A 
BRANCH  46  47
ATOM     47  S   UNL     1       4.705  12.912   0.109  1.00  0.00     0.124 S 
ATOM     48  O   UNL     1       4.897  13.980   1.085  1.00  0.00    -0.237 OA
ATOM     49  O   UNL     1       5.772  12.757  -0.877  1.00  0.00    -0.237 OA
ATOM     50  O   UNL     1       3.351  12.794  -0.430  1.00  0.00    -0.744 OA
ENDBRANCH  46  47
ENDBRANCH  27  41
BRANCH  28  51
ATOM     51  C   UNL     1       6.108   2.281  10.066  1.00  0.00    -0.014 A 
ATOM     52  C   UNL     1       7.045   1.234   9.991  1.00  0.00     0.010 A 
ATOM     53  C   UNL     1       5.158   2.273  11.103  1.00  0.00     0.010 A 
ATOM     54  C   UNL     1       6.998   0.172  10.898  1.00  0.00     0.020 A 
ATOM     55  C   UNL     1       5.130   1.229  12.034  1.00  0.00     0.020 A 
ATOM     56  C   UNL     1       6.032   0.171  11.907  1.00  0.00     0.054 A 
BRANCH  56  57
ATOM     57  S   UNL     1       5.959  -1.243  13.042  1.00  0.00     0.124 S 
ATOM     58  O   UNL     1       5.373  -2.277  12.194  1.00  0.00    -0.237 OA
ATOM     59  O   UNL     1       7.362  -1.440  13.395  1.00  0.00    -0.237 OA
ATOM     60  O   UNL     1       5.107  -0.767  14.128  1.00  0.00    -0.744 OA
ENDBRANCH  56  57
ENDBRANCH  28  51
BRANCH  40  61
ATOM     61  C   UNL     1       6.761   9.261   9.850  1.00  0.00    -0.014 A 
ATOM     62  C   UNL     1       5.766  10.198  10.189  1.00  0.00     0.010 A 
ATOM     63  C   UNL     1       8.044   9.393  10.409  1.00  0.00     0.010 A 
ATOM     64  C   UNL     1       6.056  11.265  11.041  1.00  0.00     0.020 A 
ATOM     65  C   UNL     1       8.328  10.439  11.291  1.00  0.00     0.020 A 
ATOM     66  C   UNL     1       7.338  11.382  11.581  1.00  0.00     0.054 A 
BRANCH  66  67
ATOM     67  S   UNL     1       7.702  12.785  12.671  1.00  0.00     0.124 S 
ATOM     68  O   UNL     1       7.837  13.885  11.721  1.00  0.00    -0.237 OA
ATOM     69  O   UNL     1       6.523  12.837  13.533  1.00  0.00    -0.237 OA
ATOM     70  O   UNL     1       8.937  12.385  13.343  1.00  0.00    -0.744 OA
ENDBRANCH  66  67
ENDBRANCH  40  61
ENDBRANCH  14  15
ENDBRANCH   7   9
ENDBRANCH   6   7
ENDBRANCH   5   6
ENDBRANCH   4   5
ENDBRANCH   3   4
ENDBRANCH   2   3
ENDBRANCH   1   2
BRANCH   1  71
ATOM     71  O   UNL     1       3.793   0.968  -3.408  1.00  0.00    -0.377 OA
BRANCH  71  72
ATOM     72  C   UNL     1       4.966   1.702  -3.068  1.00  0.00     0.188 C 
BRANCH  72  73
ATOM     73  C   UNL     1       4.959   3.221  -3.244  1.00  0.00     0.188 C 
BRANCH  73  74
ATOM     74  O   UNL     1       4.146   3.915  -2.313  1.00  0.00    -0.376 OA
BRANCH  74  75
ATOM     75  C   UNL     1       2.855   4.385  -2.706  1.00  0.00     0.202 C 
BRANCH  75  76
ATOM     76  C   UNL     1       2.481   4.481  -4.198  1.00  0.00     0.261 C 
BRANCH  76  77
ATOM     77  O   UNL     1       2.448   3.171  -4.796  1.00  0.00    -0.459 OA
BRANCH  77  78
ATOM     78  C   UNL     1       2.649   3.123  -6.146  1.00  0.00     0.365 C 
ATOM     79  O   UNL     1       2.359   4.026  -6.927  1.00  0.00    -0.245 OA
BRANCH  78  80
ATOM     80  C   UNL     1       3.530   1.914  -6.505  1.00  0.00     0.298 C 
ATOM     81  C   UNL     1       2.879   0.757  -7.319  1.00  0.00     0.111 C 
ATOM     82  N   UNL     1       4.840   2.447  -7.017  1.00  0.00    -0.326 N 
ATOM     83  C   UNL     1       3.906  -0.351  -7.461  1.00  0.00    -0.024 C 
ATOM     84  C   UNL     1       5.577   1.484  -7.902  1.00  0.00     0.243 C 
ATOM     85  H   UNL     1       5.433   2.668  -6.217  1.00  0.00     0.347 HD
ATOM     86  H   UNL     1       4.629   3.270  -7.582  1.00  0.00     0.347 HD
ATOM     87  C   UNL     1       3.908  -1.632  -7.823  1.00  0.00     0.002 A 
ATOM     88  C   UNL     1       5.328   0.098  -7.235  1.00  0.00     0.196 C 
ATOM     89  C   UNL     1       2.991  -2.583  -8.368  1.00  0.00     0.010 A 
ATOM     90  C   UNL     1       5.340  -1.998  -7.680  1.00  0.00     0.066 A 
ATOM     91  N   UNL     1       6.212  -1.039  -7.580  1.00  0.00    -0.270 NA
ATOM     92  C   UNL     1       3.392  -3.863  -8.488  1.00  0.00     0.001 A 
ATOM     93  C   UNL     1       5.644  -3.444  -7.626  1.00  0.00     0.028 A 
ATOM     94  C   UNL     1       4.676  -4.308  -7.968  1.00  0.00     0.002 A 
BRANCH  84  95
ATOM     95  C   UNL     1       5.189   1.774  -9.369  1.00  0.00     0.012 A 
ATOM     96  C   UNL     1       4.707   0.819 -10.274  1.00  0.00     0.010 A 
ATOM     97  C   UNL     1       5.248   3.111  -9.827  1.00  0.00     0.010 A 
ATOM     98  C   UNL     1       4.169   1.201 -11.512  1.00  0.00     0.001 A 
ATOM     99  C   UNL     1       4.709   3.495 -11.056  1.00  0.00     0.001 A 
ATOM    100  C   UNL     1       4.145   2.540 -11.891  1.00  0.00     0.000 A 
ENDBRANCH  84  95
ENDBRANCH  78  80
ENDBRANCH  77  78
ENDBRANCH  76  77
ENDBRANCH  75  76
ENDBRANCH  74  75
ENDBRANCH  73  74
ENDBRANCH  72  73
ENDBRANCH  71  72
ENDBRANCH   1  71
TORSDOF 24
