REMARK SMILES NS(=O)(=O)c1ccc(-c2cc(Cl)cc3c2O[C@@H](C(F)(F)F)C(C(=O)OCCOCCOCCOCCOC(=O)c2ccc(-c4c5nc(c(-c6ccc(S(=O)(=O)[O-])cc6)c6ccc([nH]6)c(-c6ccc(S(=O)(=O)[O-])cc6)c6nc(c(-c7ccc(S(=O)(=O)[O-])cc7)c7ccc4[nH]7)C=C6)C=C5)cc2)=C3)cc1
REMARK SMILES IDX 31 1 30 2 29 3 28 4 27 5 26 6 25 7 23 8 24 9 22 10 9 11
REMARK SMILES IDX 10 12 15 13 11 14 14 15 16 16 12 17 13 18 100 19 17 20 8 21
REMARK SMILES IDX 5 22 6 23 102 24 7 25 101 26 2 27 3 28 4 29 1 30 18 33 19 34
REMARK SMILES IDX 20 35 21 36 32 37 33 38 34 39 35 40 36 41 37 42 38 43 39 44
REMARK SMILES IDX 40 45 41 46 99 47 42 48 98 49 43 50 44 51 45 52 92 53 46 54
REMARK SMILES IDX 97 55 91 56 93 57 47 58 96 59 90 60 89 61 48 63 78 64 59 65
REMARK SMILES IDX 77 66 60 67 63 68 76 69 94 70 61 71 62 72 75 74 95 75 64 76
REMARK SMILES IDX 49 77 50 78 58 79 51 80 57 81 52 82 53 83 54 84 55 85 56 86
REMARK SMILES IDX 79 87 80 88 88 89 81 90 87 91 82 92 83 93 84 94 85 95 86 96
REMARK SMILES IDX 65 97 66 98 74 99 67 100 73 101 68 102 69 103 70 104 71 105
REMARK SMILES IDX 72 106
REMARK H PARENT 1 31 1 32 93 62 63 73
REMARK Flexibility Score: inf
ROOT
ATOM      1  O   UNL     1       2.216 -13.086   3.798  1.00  0.00    -0.377 OA
ENDROOT
BRANCH   1   2
ATOM      2  C   UNL     1       1.846 -11.724   3.731  1.00  0.00     0.188 C 
BRANCH   2   3
ATOM      3  C   UNL     1       2.354 -11.027   2.462  1.00  0.00     0.188 C 
BRANCH   3   4
ATOM      4  O   UNL     1       2.856 -11.912   1.469  1.00  0.00    -0.376 OA
BRANCH   4   5
ATOM      5  C   UNL     1       4.251 -12.212   1.466  1.00  0.00     0.202 C 
BRANCH   5   6
ATOM      6  C   UNL     1       4.950 -12.497   2.804  1.00  0.00     0.261 C 
BRANCH   6   7
ATOM      7  O   UNL     1       4.922 -11.336   3.665  1.00  0.00    -0.460 OA
BRANCH   7   8
ATOM      8  C   UNL     1       5.894 -10.434   3.464  1.00  0.00     0.338 C 
ATOM      9  O   UNL     1       6.850 -10.594   2.715  1.00  0.00    -0.246 OA
BRANCH   8  10
ATOM     10  C   UNL     1       5.608  -9.129   4.114  1.00  0.00     0.087 C 
ATOM     11  C   UNL     1       2.369  -7.067   2.524  1.00  0.00     0.026 A 
ATOM     12  C   UNL     1       2.223  -7.554   1.205  1.00  0.00     0.033 A 
ATOM     13  C   UNL     1       3.492  -7.556   3.225  1.00  0.00     0.135 A 
ATOM     14  C   UNL     1       3.298  -8.138   0.536  1.00  0.00     0.042 A 
ATOM     15  C   UNL     1       4.641  -7.907   2.500  1.00  0.00     0.019 A 
ATOM     16  O   UNL     1       3.353  -8.046   4.528  1.00  0.00    -0.475 OA
ATOM     17  Cl  UNL     1       3.100  -8.674  -1.083  1.00  0.00    -0.084 Cl
ATOM     18  C   UNL     1       4.543  -8.214   1.147  1.00  0.00     0.032 A 
ATOM     19  C   UNL     1       5.894  -8.137   3.249  1.00  0.00     0.027 C 
ATOM     20  C   UNL     1       4.522  -8.776   5.118  1.00  0.00     0.316 C 
BRANCH  11  21
ATOM     21  C   UNL     1       1.810  -5.676   2.715  1.00  0.00    -0.015 A 
ATOM     22  C   UNL     1       1.084  -2.954   2.257  1.00  0.00     0.082 A 
ATOM     23  C   UNL     1       0.173  -3.976   1.991  1.00  0.00     0.022 A 
ATOM     24  C   UNL     1       2.318  -3.264   2.828  1.00  0.00     0.022 A 
ATOM     25  C   UNL     1       0.531  -5.317   2.230  1.00  0.00     0.010 A 
ATOM     26  C   UNL     1       2.671  -4.608   3.054  1.00  0.00     0.010 A 
BRANCH  22  27
ATOM     27  S   UNL     1       0.661  -1.263   1.926  1.00  0.00     0.238 S 
ATOM     28  O   UNL     1       1.359  -0.407   2.855  1.00  0.00    -0.207 OA
ATOM     29  O   UNL     1      -0.764  -1.158   1.702  1.00  0.00    -0.207 OA
BRANCH  27  30
ATOM     30  N   UNL     1       1.367  -0.972   0.426  1.00  0.00    -0.225 NA
ATOM     31  H   UNL     1       1.179  -0.011   0.142  1.00  0.00     0.137 HD
ATOM     32  H   UNL     1       0.976  -1.614  -0.264  1.00  0.00     0.137 HD
ENDBRANCH  27  30
ENDBRANCH  22  27
ENDBRANCH  11  21
BRANCH  20  33
ATOM     33  C   UNL     1       4.186  -9.807   6.229  1.00  0.00     0.430 C 
ATOM     34  F   UNL     1       5.208  -9.847   7.127  1.00  0.00    -0.167 F 
ATOM     35  F   UNL     1       3.084  -9.433   6.924  1.00  0.00    -0.167 F 
ATOM     36  F   UNL     1       3.989 -11.069   5.829  1.00  0.00    -0.167 F 
ENDBRANCH  20  33
ENDBRANCH   8  10
ENDBRANCH   7   8
ENDBRANCH   6   7
ENDBRANCH   5   6
ENDBRANCH   4   5
ENDBRANCH   3   4
ENDBRANCH   2   3
ENDBRANCH   1   2
BRANCH   1  37
ATOM     37  C   UNL     1       1.413 -14.026   3.090  1.00  0.00     0.188 C 
BRANCH  37  38
ATOM     38  C   UNL     1       0.547 -13.602   1.881  1.00  0.00     0.188 C 
BRANCH  38  39
ATOM     39  O   UNL     1      -0.168 -12.380   2.056  1.00  0.00    -0.376 OA
BRANCH  39  40
ATOM     40  C   UNL     1      -1.567 -12.468   2.278  1.00  0.00     0.202 C 
BRANCH  40  41
ATOM     41  C   UNL     1      -1.958 -12.875   3.705  1.00  0.00     0.261 C 
BRANCH  41  42
ATOM     42  O   UNL     1      -1.519 -14.182   4.102  1.00  0.00    -0.460 OA
BRANCH  42  43
ATOM     43  C   UNL     1      -1.970 -15.224   3.369  1.00  0.00     0.338 C 
ATOM     44  O   UNL     1      -2.766 -15.183   2.448  1.00  0.00    -0.246 OA
BRANCH  43  45
ATOM     45  C   UNL     1      -1.177 -16.414   3.736  1.00  0.00     0.060 A 
ATOM     46  C   UNL     1      -0.516 -17.117   2.721  1.00  0.00     0.016 A 
ATOM     47  C   UNL     1      -1.069 -16.819   5.069  1.00  0.00     0.016 A 
ATOM     48  C   UNL     1       0.219 -18.259   3.034  1.00  0.00     0.010 A 
ATOM     49  C   UNL     1      -0.346 -17.973   5.378  1.00  0.00     0.010 A 
ATOM     50  C   UNL     1       0.270 -18.717   4.358  1.00  0.00    -0.014 A 
BRANCH  50  51
ATOM     51  C   UNL     1       0.795 -20.073   4.638  1.00  0.00     0.031 A 
ATOM     52  C   UNL     1      -0.185 -21.212   4.727  1.00  0.00     0.074 A 
ATOM     53  C   UNL     1       2.114 -20.299   4.775  1.00  0.00     0.049 A 
ATOM     54  N   UNL     1       0.038 -22.483   4.936  1.00  0.00    -0.248 NA
ATOM     55  C   UNL     1      -1.607 -20.869   4.555  1.00  0.00     0.031 C 
ATOM     56  C   UNL     1       3.163 -19.285   4.678  1.00  0.00     0.029 A 
ATOM     57  N   UNL     1       2.793 -21.465   5.026  1.00  0.00    -0.354 N 
ATOM     58  C   UNL     1      -1.212 -23.091   4.918  1.00  0.00     0.074 A 
ATOM     59  C   UNL     1      -2.191 -22.047   4.713  1.00  0.00     0.031 C 
ATOM     60  C   UNL     1       4.356 -19.876   4.868  1.00  0.00     0.029 A 
ATOM     61  C   UNL     1       4.154 -21.301   5.125  1.00  0.00     0.049 A 
ATOM     62  H   UNL     1       2.347 -22.337   5.125  1.00  0.00     0.167 HD
ATOM     63  C   UNL     1      -1.518 -24.403   5.051  1.00  0.00     0.031 A 
ATOM     64  C   UNL     1       5.122 -22.197   5.404  1.00  0.00     0.031 A 
ATOM     65  C   UNL     1      -0.546 -25.437   5.279  1.00  0.00     0.049 A 
ATOM     66  C   UNL     1       4.749 -23.642   5.623  1.00  0.00     0.074 A 
ATOM     67  C   UNL     1      -0.754 -26.798   5.416  1.00  0.00     0.029 A 
ATOM     68  N   UNL     1       0.817 -25.224   5.418  1.00  0.00    -0.354 N 
ATOM     69  N   UNL     1       3.567 -24.208   5.564  1.00  0.00    -0.248 NA
ATOM     70  C   UNL     1       5.845 -24.570   5.937  1.00  0.00     0.031 C 
ATOM     71  C   UNL     1       0.477 -27.401   5.697  1.00  0.00     0.029 A 
ATOM     72  C   UNL     1       1.460 -26.424   5.669  1.00  0.00     0.049 A 
ATOM     73  H   UNL     1       1.262 -24.349   5.347  1.00  0.00     0.167 HD
ATOM     74  C   UNL     1       3.781 -25.562   5.806  1.00  0.00     0.074 A 
ATOM     75  C   UNL     1       5.207 -25.731   5.996  1.00  0.00     0.031 C 
ATOM     76  C   UNL     1       2.880 -26.575   5.863  1.00  0.00     0.031 A 
BRANCH  63  77
ATOM     77  C   UNL     1      -2.973 -24.784   4.986  1.00  0.00    -0.014 A 
ATOM     78  C   UNL     1      -3.688 -24.729   3.776  1.00  0.00     0.010 A 
ATOM     79  C   UNL     1      -3.628 -25.228   6.149  1.00  0.00     0.010 A 
ATOM     80  C   UNL     1      -5.041 -25.077   3.738  1.00  0.00     0.020 A 
ATOM     81  C   UNL     1      -4.973 -25.603   6.109  1.00  0.00     0.020 A 
ATOM     82  C   UNL     1      -5.676 -25.509   4.906  1.00  0.00     0.054 A 
BRANCH  82  83
ATOM     83  S   UNL     1      -7.427 -25.975   4.823  1.00  0.00     0.124 S 
ATOM     84  O   UNL     1      -8.077 -24.675   4.670  1.00  0.00    -0.237 OA
ATOM     85  O   UNL     1      -7.472 -26.841   3.648  1.00  0.00    -0.237 OA
ATOM     86  O   UNL     1      -7.669 -26.645   6.098  1.00  0.00    -0.744 OA
ENDBRANCH  82  83
ENDBRANCH  63  77
BRANCH  64  87
ATOM     87  C   UNL     1       6.541 -21.755   5.502  1.00  0.00    -0.014 A 
ATOM     88  C   UNL     1       7.488 -22.152   4.542  1.00  0.00     0.010 A 
ATOM     89  C   UNL     1       6.954 -20.936   6.569  1.00  0.00     0.010 A 
ATOM     90  C   UNL     1       8.823 -21.751   4.655  1.00  0.00     0.020 A 
ATOM     91  C   UNL     1       8.281 -20.510   6.671  1.00  0.00     0.020 A 
ATOM     92  C   UNL     1       9.211 -20.930   5.718  1.00  0.00     0.054 A 
BRANCH  92  93
ATOM     93  S   UNL     1      10.937 -20.381   5.816  1.00  0.00     0.124 S 
ATOM     94  O   UNL     1      11.622 -21.601   6.230  1.00  0.00    -0.237 OA
ATOM     95  O   UNL     1      11.204 -19.937   4.450  1.00  0.00    -0.237 OA
ATOM     96  O   UNL     1      10.900 -19.313   6.813  1.00  0.00    -0.744 OA
ENDBRANCH  92  93
ENDBRANCH  64  87
BRANCH  76  97
ATOM     97  C   UNL     1       3.409 -27.964   6.111  1.00  0.00    -0.014 A 
ATOM     98  C   UNL     1       3.909 -28.343   7.370  1.00  0.00     0.010 A 
ATOM     99  C   UNL     1       3.358 -28.921   5.080  1.00  0.00     0.010 A 
ATOM    100  C   UNL     1       4.381 -29.642   7.582  1.00  0.00     0.020 A 
ATOM    101  C   UNL     1       3.801 -30.228   5.297  1.00  0.00     0.020 A 
ATOM    102  C   UNL     1       4.325 -30.576   6.543  1.00  0.00     0.054 A 
BRANCH 102 103
ATOM    103  S   UNL     1       4.914 -32.264   6.852  1.00  0.00     0.124 S 
ATOM    104  O   UNL     1       6.362 -32.080   6.880  1.00  0.00    -0.237 OA
ATOM    105  O   UNL     1       4.296 -32.589   8.136  1.00  0.00    -0.237 OA
ATOM    106  O   UNL     1       4.404 -33.023   5.713  1.00  0.00    -0.744 OA
ENDBRANCH 102 103
ENDBRANCH  76  97
ENDBRANCH  50  51
ENDBRANCH  43  45
ENDBRANCH  42  43
ENDBRANCH  41  42
ENDBRANCH  40  41
ENDBRANCH  39  40
ENDBRANCH  38  39
ENDBRANCH  37  38
ENDBRANCH   1  37
TORSDOF 27
