REMARK SMILES Cc1cc(C(=O)OCCOCCOCCOCCOC(=O)c2ccc(-c3c4nc(c(-c5ccc(S(=O)(=O)[O-])cc5)c5ccc([nH]5)c(-c5ccc(S(=O)(=O)[O-])cc5)c5nc(c(-c6ccc(S(=O)(=O)[O-])cc6)c6ccc3[nH]6)C=C5)C=C4)cc2)ccc1NC(=O)N1C[C@@H](C)[C@H](C)C1
REMARK SMILES IDX 14 1 13 2 12 3 11 4 10 5 9 6 8 7 7 8 5 9 6 10 4 11 1 12 2 13
REMARK SMILES IDX 3 14 84 15 83 16 82 17 85 18 86 19 87 21 88 22 89 23 94 24
REMARK SMILES IDX 90 25 92 26 91 27 93 28 15 29 16 30 17 31 18 32 19 33 20 34
REMARK SMILES IDX 21 35 22 36 23 37 81 38 24 39 80 40 25 41 26 42 27 43 74 44
REMARK SMILES IDX 28 45 79 46 73 47 75 48 29 49 78 50 72 51 71 52 30 54 60 55
REMARK SMILES IDX 41 56 59 57 42 58 45 59 58 60 76 61 43 62 44 63 57 65 77 66
REMARK SMILES IDX 46 67 31 68 32 69 40 70 33 71 39 72 34 73 35 74 36 75 37 76
REMARK SMILES IDX 38 77 61 78 62 79 70 80 63 81 69 82 64 83 65 84 66 85 67 86
REMARK SMILES IDX 68 87 47 88 48 89 56 90 49 91 55 92 50 93 51 94 52 95 53 96
REMARK SMILES IDX 54 97
REMARK H PARENT 85 20 75 53 45 64
REMARK Flexibility Score: inf
ROOT
ATOM      1  C   UNL     1      -2.900  -2.044  -3.108  1.00  0.00     0.188 C 
ENDROOT
BRANCH   1   2
ATOM      2  O   UNL     1      -1.858  -1.220  -2.562  1.00  0.00    -0.377 OA
BRANCH   2   3
ATOM      3  C   UNL     1      -0.526  -1.433  -3.005  1.00  0.00     0.188 C 
BRANCH   3   4
ATOM      4  C   UNL     1       0.404  -2.278  -2.122  1.00  0.00     0.188 C 
BRANCH   4   5
ATOM      5  O   UNL     1       0.208  -3.684  -2.063  1.00  0.00    -0.376 OA
BRANCH   5   6
ATOM      6  C   UNL     1      -0.668  -4.132  -1.027  1.00  0.00     0.202 C 
BRANCH   6   7
ATOM      7  C   UNL     1      -0.148  -4.022   0.406  1.00  0.00     0.261 C 
BRANCH   7   8
ATOM      8  O   UNL     1      -0.417  -2.702   0.872  1.00  0.00    -0.460 OA
BRANCH   8   9
ATOM      9  C   UNL     1       0.569  -2.127   1.581  1.00  0.00     0.338 C 
ATOM     10  O   UNL     1       1.436  -2.666   2.237  1.00  0.00    -0.246 OA
BRANCH   9  11
ATOM     11  C   UNL     1       0.620  -0.726   1.122  1.00  0.00     0.060 A 
ATOM     12  C   UNL     1       3.457   1.466  -0.007  1.00  0.00     0.046 C 
ATOM     13  C   UNL     1       2.051   1.086   0.371  1.00  0.00    -0.027 A 
ATOM     14  C   UNL     1       1.889  -0.174   0.963  1.00  0.00     0.021 A 
ATOM     15  C   UNL     1       0.902   1.820   0.017  1.00  0.00     0.045 A 
ATOM     16  C   UNL     1      -0.325   1.162  -0.025  1.00  0.00     0.027 A 
ATOM     17  C   UNL     1      -0.489  -0.076   0.581  1.00  0.00     0.018 A 
BRANCH  15  18
ATOM     18  N   UNL     1       1.015   3.188  -0.265  1.00  0.00    -0.308 N 
ATOM     19  C   UNL     1       0.119   4.187  -0.452  1.00  0.00     0.321 C 
ATOM     20  H   UNL     1       1.949   3.489  -0.346  1.00  0.00     0.171 HD
ATOM     21  O   UNL     1       0.559   5.238  -0.931  1.00  0.00    -0.248 OA
ATOM     22  N   UNL     1      -1.202   4.049  -0.135  1.00  0.00    -0.324 N 
ATOM     23  C   UNL     1      -2.182   4.843  -0.855  1.00  0.00     0.125 C 
ATOM     24  C   UNL     1      -1.746   3.626   1.161  1.00  0.00     0.125 C 
ATOM     25  C   UNL     1      -3.247   5.196   0.177  1.00  0.00     0.010 C 
ATOM     26  C   UNL     1      -3.243   3.960   1.087  1.00  0.00     0.010 C 
ATOM     27  C   UNL     1      -4.588   5.500  -0.467  1.00  0.00     0.010 C 
ATOM     28  C   UNL     1      -3.877   4.188   2.453  1.00  0.00     0.010 C 
ENDBRANCH  15  18
ENDBRANCH   9  11
ENDBRANCH   8   9
ENDBRANCH   7   8
ENDBRANCH   6   7
ENDBRANCH   5   6
ENDBRANCH   4   5
ENDBRANCH   3   4
ENDBRANCH   2   3
ENDBRANCH   1   2
BRANCH   1  29
ATOM     29  C   UNL     1      -2.735  -2.586  -4.526  1.00  0.00     0.188 C 
BRANCH  29  30
ATOM     30  O   UNL     1      -1.832  -3.698  -4.464  1.00  0.00    -0.376 OA
BRANCH  30  31
ATOM     31  C   UNL     1      -1.144  -3.996  -5.670  1.00  0.00     0.202 C 
BRANCH  31  32
ATOM     32  C   UNL     1      -2.054  -4.422  -6.825  1.00  0.00     0.261 C 
BRANCH  32  33
ATOM     33  O   UNL     1      -2.441  -5.808  -6.717  1.00  0.00    -0.460 OA
BRANCH  33  34
ATOM     34  C   UNL     1      -3.751  -6.033  -6.409  1.00  0.00     0.338 C 
ATOM     35  O   UNL     1      -4.609  -6.270  -7.242  1.00  0.00    -0.246 OA
BRANCH  34  36
ATOM     36  C   UNL     1      -3.947  -6.131  -4.940  1.00  0.00     0.060 A 
ATOM     37  C   UNL     1      -5.178  -5.849  -4.336  1.00  0.00     0.016 A 
ATOM     38  C   UNL     1      -2.854  -6.439  -4.144  1.00  0.00     0.016 A 
ATOM     39  C   UNL     1      -5.275  -5.732  -2.935  1.00  0.00     0.010 A 
ATOM     40  C   UNL     1      -2.946  -6.274  -2.777  1.00  0.00     0.010 A 
ATOM     41  C   UNL     1      -4.135  -5.881  -2.143  1.00  0.00    -0.014 A 
BRANCH  41  42
ATOM     42  C   UNL     1      -3.996  -5.499  -0.716  1.00  0.00     0.031 A 
ATOM     43  C   UNL     1      -3.264  -6.394   0.252  1.00  0.00     0.074 A 
ATOM     44  C   UNL     1      -4.150  -4.186  -0.395  1.00  0.00     0.049 A 
ATOM     45  N   UNL     1      -3.028  -6.102   1.489  1.00  0.00    -0.248 NA
ATOM     46  C   UNL     1      -2.712  -7.709  -0.091  1.00  0.00     0.031 C 
ATOM     47  C   UNL     1      -3.463  -3.466   0.681  1.00  0.00     0.029 A 
ATOM     48  N   UNL     1      -4.923  -3.182  -0.973  1.00  0.00    -0.354 N 
ATOM     49  C   UNL     1      -2.012  -6.919   1.944  1.00  0.00     0.074 A 
ATOM     50  C   UNL     1      -1.943  -7.980   0.972  1.00  0.00     0.031 C 
ATOM     51  C   UNL     1      -3.915  -2.208   0.767  1.00  0.00     0.029 A 
ATOM     52  C   UNL     1      -5.109  -2.157  -0.041  1.00  0.00     0.049 A 
ATOM     53  H   UNL     1      -5.281  -3.193  -1.891  1.00  0.00     0.167 HD
ATOM     54  C   UNL     1      -1.237  -6.516   2.997  1.00  0.00     0.031 A 
ATOM     55  C   UNL     1      -6.327  -1.801   0.464  1.00  0.00     0.031 A 
ATOM     56  C   UNL     1      -1.762  -5.299   3.643  1.00  0.00     0.049 A 
ATOM     57  C   UNL     1      -6.386  -2.124   1.948  1.00  0.00     0.074 A 
ATOM     58  C   UNL     1      -1.218  -4.071   3.978  1.00  0.00     0.029 A 
ATOM     59  N   UNL     1      -3.130  -5.190   3.904  1.00  0.00    -0.354 N 
ATOM     60  N   UNL     1      -5.604  -3.022   2.497  1.00  0.00    -0.248 NA
ATOM     61  C   UNL     1      -7.191  -1.426   2.947  1.00  0.00     0.031 C 
ATOM     62  C   UNL     1      -2.289  -3.187   4.297  1.00  0.00     0.029 A 
ATOM     63  C   UNL     1      -3.477  -3.901   4.244  1.00  0.00     0.049 A 
ATOM     64  H   UNL     1      -3.765  -5.941   3.852  1.00  0.00     0.167 HD
ATOM     65  C   UNL     1      -5.676  -2.936   3.853  1.00  0.00     0.074 A 
ATOM     66  C   UNL     1      -6.744  -1.980   4.093  1.00  0.00     0.031 C 
ATOM     67  C   UNL     1      -4.829  -3.594   4.696  1.00  0.00     0.031 A 
BRANCH  54  68
ATOM     68  C   UNL     1       0.141  -7.091   3.343  1.00  0.00    -0.014 A 
ATOM     69  C   UNL     1       0.799  -6.677   4.524  1.00  0.00     0.010 A 
ATOM     70  C   UNL     1       0.886  -7.956   2.511  1.00  0.00     0.010 A 
ATOM     71  C   UNL     1       2.105  -7.093   4.855  1.00  0.00     0.020 A 
ATOM     72  C   UNL     1       2.177  -8.414   2.849  1.00  0.00     0.020 A 
ATOM     73  C   UNL     1       2.787  -7.969   4.016  1.00  0.00     0.054 A 
BRANCH  73  74
ATOM     74  S   UNL     1       4.454  -8.532   4.471  1.00  0.00     0.124 S 
ATOM     75  O   UNL     1       5.256  -7.323   4.301  1.00  0.00    -0.237 OA
ATOM     76  O   UNL     1       4.278  -8.981   5.849  1.00  0.00    -0.237 OA
ATOM     77  O   UNL     1       4.734  -9.598   3.510  1.00  0.00    -0.744 OA
ENDBRANCH  73  74
ENDBRANCH  54  68
BRANCH  55  78
ATOM     78  C   UNL     1      -7.395  -1.714  -0.575  1.00  0.00    -0.014 A 
ATOM     79  C   UNL     1      -7.290  -0.573  -1.407  1.00  0.00     0.010 A 
ATOM     80  C   UNL     1      -7.939  -2.893  -1.124  1.00  0.00     0.010 A 
ATOM     81  C   UNL     1      -7.432  -0.688  -2.793  1.00  0.00     0.020 A 
ATOM     82  C   UNL     1      -8.082  -3.009  -2.521  1.00  0.00     0.020 A 
ATOM     83  C   UNL     1      -7.742  -1.929  -3.345  1.00  0.00     0.054 A 
BRANCH  83  84
ATOM     84  S   UNL     1      -7.382  -2.183  -5.116  1.00  0.00     0.124 S 
ATOM     85  O   UNL     1      -8.457  -1.442  -5.764  1.00  0.00    -0.237 OA
ATOM     86  O   UNL     1      -6.043  -1.607  -5.247  1.00  0.00    -0.237 OA
ATOM     87  O   UNL     1      -7.436  -3.634  -5.260  1.00  0.00    -0.744 OA
ENDBRANCH  83  84
ENDBRANCH  55  78
BRANCH  67  88
ATOM     88  C   UNL     1      -5.197  -4.003   6.096  1.00  0.00    -0.014 A 
ATOM     89  C   UNL     1      -6.531  -4.144   6.505  1.00  0.00     0.010 A 
ATOM     90  C   UNL     1      -4.193  -4.510   6.957  1.00  0.00     0.010 A 
ATOM     91  C   UNL     1      -6.848  -4.729   7.734  1.00  0.00     0.020 A 
ATOM     92  C   UNL     1      -4.501  -5.134   8.164  1.00  0.00     0.020 A 
ATOM     93  C   UNL     1      -5.831  -5.222   8.553  1.00  0.00     0.054 A 
BRANCH  93  94
ATOM     94  S   UNL     1      -6.274  -6.049  10.098  1.00  0.00     0.124 S 
ATOM     95  O   UNL     1      -6.482  -4.912  10.991  1.00  0.00    -0.237 OA
ATOM     96  O   UNL     1      -7.480  -6.790   9.735  1.00  0.00    -0.237 OA
ATOM     97  O   UNL     1      -5.108  -6.877  10.395  1.00  0.00    -0.744 OA
ENDBRANCH  93  94
ENDBRANCH  67  88
ENDBRANCH  41  42
ENDBRANCH  34  36
ENDBRANCH  33  34
ENDBRANCH  32  33
ENDBRANCH  31  32
ENDBRANCH  30  31
ENDBRANCH  29  30
ENDBRANCH   1  29
TORSDOF 24
