REMARK SMILES Cc1cc(C[N@@H+]2C[C@@H](C(=O)OCCOCCOCCOCCOC(=O)c3ccc(-c4c5nc(c(-c6ccc(S(=O)(=O)[O-])cc6)c6ccc([nH]6)c(-c6ccc(S(=O)(=O)[O-])cc6)c6nc(c(-c7ccc(S(=O)(=O)[O-])cc7)c7ccc4[nH]7)C=C6)C=C5)cc3)[C@H](C3CC3)C2)on1
REMARK SMILES IDX 18 1 17 2 16 3 15 4 14 5 13 6 12 7 11 8 9 9 10 10 8 11 6 12
REMARK SMILES IDX 7 13 90 14 86 16 5 17 4 18 1 19 2 20 3 21 92 22 91 23 87 24
REMARK SMILES IDX 88 25 89 26 19 27 20 28 21 29 22 30 23 31 24 32 25 33 26 34
REMARK SMILES IDX 27 35 85 36 28 37 84 38 29 39 30 40 31 41 78 42 32 43 83 44
REMARK SMILES IDX 77 45 79 46 33 47 82 48 76 49 75 50 34 52 64 53 45 54 63 55
REMARK SMILES IDX 46 56 49 57 62 58 80 59 47 60 48 61 61 63 81 64 50 65 35 66
REMARK SMILES IDX 36 67 44 68 37 69 43 70 38 71 39 72 40 73 41 74 42 75 65 76
REMARK SMILES IDX 66 77 74 78 67 79 73 80 68 81 69 82 70 83 71 84 72 85 51 86
REMARK SMILES IDX 52 87 60 88 53 89 59 90 54 91 55 92 56 93 57 94 58 95
REMARK H PARENT 6 15 79 51 49 62
REMARK Flexibility Score: inf
ROOT
ATOM      1  C   UNL     1      -6.600   2.577   4.540  1.00  0.00     0.188 C 
ENDROOT
BRANCH   1   2
ATOM      2  O   UNL     1      -5.605   2.520   3.532  1.00  0.00    -0.377 OA
BRANCH   2   3
ATOM      3  C   UNL     1      -4.468   1.757   3.879  1.00  0.00     0.188 C 
BRANCH   3   4
ATOM      4  C   UNL     1      -3.267   2.593   4.373  1.00  0.00     0.188 C 
BRANCH   4   5
ATOM      5  O   UNL     1      -3.219   4.006   4.224  1.00  0.00    -0.376 OA
BRANCH   5   6
ATOM      6  C   UNL     1      -3.896   4.627   3.144  1.00  0.00     0.202 C 
BRANCH   6   7
ATOM      7  C   UNL     1      -3.563   4.221   1.699  1.00  0.00     0.261 C 
BRANCH   7   8
ATOM      8  O   UNL     1      -3.360   2.819   1.459  1.00  0.00    -0.463 OA
BRANCH   8   9
ATOM      9  C   UNL     1      -2.071   2.391   1.457  1.00  0.00     0.315 C 
ATOM     10  O   UNL     1      -1.110   3.122   1.672  1.00  0.00    -0.252 OA
BRANCH   9  11
ATOM     11  C   UNL     1      -1.922   0.899   1.205  1.00  0.00     0.163 C 
ATOM     12  N   UNL     1      -2.925  -1.213   0.691  1.00  0.00    -0.328 N 
ATOM     13  C   UNL     1      -3.118   0.238   0.518  1.00  0.00     0.278 C 
ATOM     14  C   UNL     1      -2.216  -1.391   1.964  1.00  0.00     0.267 C 
ATOM     15  H   UNL     1      -3.824  -1.692   0.726  1.00  0.00     0.348 HD
ATOM     16  C   UNL     1      -1.687  -0.010   2.421  1.00  0.00     0.067 C 
BRANCH  12  17
ATOM     17  C   UNL     1      -2.270  -1.863  -0.463  1.00  0.00     0.341 C 
BRANCH  17  18
ATOM     18  C   UNL     1      -0.916  -1.346  -0.796  1.00  0.00     0.191 A 
ATOM     19  C   UNL     1       2.532  -0.179  -0.601  1.00  0.00     0.070 C 
ATOM     20  C   UNL     1       1.131  -0.548  -0.895  1.00  0.00     0.081 A 
ATOM     21  C   UNL     1       0.345  -1.554  -0.290  1.00  0.00     0.078 A 
ATOM     22  N   UNL     1       0.424   0.148  -1.792  1.00  0.00    -0.085 NA
ATOM     23  O   UNL     1      -0.860  -0.362  -1.736  1.00  0.00    -0.355 OA
ENDBRANCH  17  18
ENDBRANCH  12  17
BRANCH  16  24
ATOM     24  C   UNL     1      -0.288  -0.109   2.993  1.00  0.00    -0.001 C 
ATOM     25  C   UNL     1       0.889   0.731   2.562  1.00  0.00     0.004 C 
ATOM     26  C   UNL     1       0.241   0.993   3.886  1.00  0.00     0.004 C 
ENDBRANCH  16  24
ENDBRANCH   9  11
ENDBRANCH   8   9
ENDBRANCH   7   8
ENDBRANCH   6   7
ENDBRANCH   5   6
ENDBRANCH   4   5
ENDBRANCH   3   4
ENDBRANCH   2   3
ENDBRANCH   1   2
BRANCH   1  27
ATOM     27  C   UNL     1      -6.107   3.021   5.927  1.00  0.00     0.188 C 
BRANCH  27  28
ATOM     28  O   UNL     1      -5.137   2.127   6.473  1.00  0.00    -0.376 OA
BRANCH  28  29
ATOM     29  C   UNL     1      -5.543   1.236   7.499  1.00  0.00     0.202 C 
BRANCH  29  30
ATOM     30  C   UNL     1      -6.326  -0.002   7.039  1.00  0.00     0.261 C 
BRANCH  30  31
ATOM     31  O   UNL     1      -7.543   0.247   6.320  1.00  0.00    -0.460 OA
BRANCH  31  32
ATOM     32  C   UNL     1      -8.498   0.993   6.918  1.00  0.00     0.338 C 
ATOM     33  O   UNL     1      -8.481   1.426   8.056  1.00  0.00    -0.246 OA
BRANCH  32  34
ATOM     34  C   UNL     1      -9.459   1.399   5.865  1.00  0.00     0.060 A 
ATOM     35  C   UNL     1      -9.719   2.765   5.683  1.00  0.00     0.016 A 
ATOM     36  C   UNL     1     -10.022   0.455   5.002  1.00  0.00     0.016 A 
ATOM     37  C   UNL     1     -10.537   3.188   4.633  1.00  0.00     0.010 A 
ATOM     38  C   UNL     1     -10.871   0.877   3.975  1.00  0.00     0.010 A 
ATOM     39  C   UNL     1     -11.144   2.244   3.795  1.00  0.00    -0.014 A 
BRANCH  39  40
ATOM     40  C   UNL     1     -12.217   2.668   2.865  1.00  0.00     0.031 A 
ATOM     41  C   UNL     1     -13.635   2.627   3.363  1.00  0.00     0.074 A 
ATOM     42  C   UNL     1     -11.947   3.089   1.616  1.00  0.00     0.049 A 
ATOM     43  N   UNL     1     -14.744   2.911   2.733  1.00  0.00    -0.248 NA
ATOM     44  C   UNL     1     -13.825   2.210   4.763  1.00  0.00     0.031 C 
ATOM     45  C   UNL     1     -10.613   3.223   1.033  1.00  0.00     0.029 A 
ATOM     46  N   UNL     1     -12.796   3.478   0.608  1.00  0.00    -0.354 N 
ATOM     47  C   UNL     1     -15.762   2.708   3.657  1.00  0.00     0.074 A 
ATOM     48  C   UNL     1     -15.143   2.253   4.882  1.00  0.00     0.031 C 
ATOM     49  C   UNL     1     -10.734   3.651  -0.237  1.00  0.00     0.029 A 
ATOM     50  C   UNL     1     -12.153   3.789  -0.567  1.00  0.00     0.049 A 
ATOM     51  H   UNL     1     -13.773   3.528   0.717  1.00  0.00     0.167 HD
ATOM     52  C   UNL     1     -17.095   2.884   3.501  1.00  0.00     0.031 A 
ATOM     53  C   UNL     1     -12.654   4.122  -1.774  1.00  0.00     0.031 A 
ATOM     54  C   UNL     1     -17.712   3.303   2.272  1.00  0.00     0.049 A 
ATOM     55  C   UNL     1     -14.150   4.214  -1.952  1.00  0.00     0.074 A 
ATOM     56  C   UNL     1     -19.055   3.514   2.014  1.00  0.00     0.029 A 
ATOM     57  N   UNL     1     -17.031   3.557   1.092  1.00  0.00    -0.354 N 
ATOM     58  N   UNL     1     -15.100   4.048  -1.062  1.00  0.00    -0.248 NA
ATOM     59  C   UNL     1     -14.641   4.539  -3.300  1.00  0.00     0.031 C 
ATOM     60  C   UNL     1     -19.192   3.835   0.660  1.00  0.00     0.029 A 
ATOM     61  C   UNL     1     -17.929   3.889   0.091  1.00  0.00     0.049 A 
ATOM     62  H   UNL     1     -16.054   3.510   0.981  1.00  0.00     0.167 HD
ATOM     63  C   UNL     1     -16.297   4.271  -1.736  1.00  0.00     0.074 A 
ATOM     64  C   UNL     1     -15.951   4.601  -3.103  1.00  0.00     0.031 C 
ATOM     65  C   UNL     1     -17.569   4.208  -1.268  1.00  0.00     0.031 A 
BRANCH  52  66
ATOM     66  C   UNL     1     -17.975   2.578   4.681  1.00  0.00    -0.014 A 
ATOM     67  C   UNL     1     -17.997   3.415   5.812  1.00  0.00     0.010 A 
ATOM     68  C   UNL     1     -18.814   1.450   4.647  1.00  0.00     0.010 A 
ATOM     69  C   UNL     1     -18.817   3.110   6.900  1.00  0.00     0.020 A 
ATOM     70  C   UNL     1     -19.657   1.157   5.723  1.00  0.00     0.020 A 
ATOM     71  C   UNL     1     -19.642   1.982   6.849  1.00  0.00     0.054 A 
BRANCH  71  72
ATOM     72  S   UNL     1     -20.716   1.625   8.266  1.00  0.00     0.124 S 
ATOM     73  O   UNL     1     -19.752   1.179   9.270  1.00  0.00    -0.237 OA
ATOM     74  O   UNL     1     -21.341   2.919   8.527  1.00  0.00    -0.237 OA
ATOM     75  O   UNL     1     -21.617   0.590   7.767  1.00  0.00    -0.744 OA
ENDBRANCH  71  72
ENDBRANCH  52  66
BRANCH  53  76
ATOM     76  C   UNL     1     -11.739   4.360  -2.926  1.00  0.00    -0.014 A 
ATOM     77  C   UNL     1     -11.606   5.642  -3.489  1.00  0.00     0.010 A 
ATOM     78  C   UNL     1     -11.007   3.294  -3.481  1.00  0.00     0.010 A 
ATOM     79  C   UNL     1     -10.771   5.849  -4.592  1.00  0.00     0.020 A 
ATOM     80  C   UNL     1     -10.150   3.502  -4.566  1.00  0.00     0.020 A 
ATOM     81  C   UNL     1     -10.046   4.778  -5.122  1.00  0.00     0.054 A 
BRANCH  81  82
ATOM     82  S   UNL     1      -8.934   5.081  -6.524  1.00  0.00     0.124 S 
ATOM     83  O   UNL     1      -9.874   5.277  -7.622  1.00  0.00    -0.237 OA
ATOM     84  O   UNL     1      -8.204   6.271  -6.094  1.00  0.00    -0.237 OA
ATOM     85  O   UNL     1      -8.133   3.860  -6.594  1.00  0.00    -0.744 OA
ENDBRANCH  81  82
ENDBRANCH  53  76
BRANCH  65  86
ATOM     86  C   UNL     1     -18.685   4.524  -2.230  1.00  0.00    -0.014 A 
ATOM     87  C   UNL     1     -19.033   3.633  -3.260  1.00  0.00     0.010 A 
ATOM     88  C   UNL     1     -19.437   5.701  -2.060  1.00  0.00     0.010 A 
ATOM     89  C   UNL     1     -20.093   3.928  -4.122  1.00  0.00     0.020 A 
ATOM     90  C   UNL     1     -20.516   5.986  -2.901  1.00  0.00     0.020 A 
ATOM     91  C   UNL     1     -20.829   5.103  -3.936  1.00  0.00     0.054 A 
BRANCH  91  92
ATOM     92  S   UNL     1     -22.228   5.441  -5.040  1.00  0.00     0.124 S 
ATOM     93  O   UNL     1     -21.554   5.803  -6.284  1.00  0.00    -0.237 OA
ATOM     94  O   UNL     1     -22.938   4.164  -5.058  1.00  0.00    -0.237 OA
ATOM     95  O   UNL     1     -22.938   6.532  -4.377  1.00  0.00    -0.744 OA
ENDBRANCH  91  92
ENDBRANCH  65  86
ENDBRANCH  39  40
ENDBRANCH  32  34
ENDBRANCH  31  32
ENDBRANCH  30  31
ENDBRANCH  29  30
ENDBRANCH  28  29
ENDBRANCH  27  28
ENDBRANCH   1  27
TORSDOF 26
