REMARK SMILES C[C@@H]1CCC[N@@H+]([C@@H]2CCC[C@]([NH3+])(C(=O)OCCOCCOCCOCCOC(=O)c3ccc(-c4c5nc(c(-c6ccc(S(=O)(=O)[O-])cc6)c6ccc([nH]6)c(-c6ccc(S(=O)(=O)[O-])cc6)c6nc(c(-c7ccc(S(=O)(=O)[O-])cc7)c7ccc4[nH]7)C=C6)C=C5)cc3)C2)C1
REMARK SMILES IDX 22 1 21 2 20 3 19 4 18 5 17 6 16 7 15 8 13 9 14 10 11 11
REMARK SMILES IDX 7 12 8 13 90 14 9 15 10 16 6 17 1 18 2 19 3 20 91 21 4 22
REMARK SMILES IDX 5 23 12 25 23 29 24 30 25 31 26 32 27 33 28 34 29 35 30 36
REMARK SMILES IDX 31 37 89 38 32 39 88 40 33 41 34 42 35 43 82 44 36 45 87 46
REMARK SMILES IDX 81 47 83 48 37 49 86 50 80 51 79 52 38 54 68 55 49 56 67 57
REMARK SMILES IDX 50 58 53 59 66 60 84 61 51 62 52 63 65 65 85 66 54 67 39 68
REMARK SMILES IDX 40 69 48 70 41 71 47 72 42 73 43 74 44 75 45 76 46 77 69 78
REMARK SMILES IDX 70 79 78 80 71 81 77 82 72 83 73 84 74 85 75 86 76 87 55 88
REMARK SMILES IDX 56 89 64 90 57 91 63 92 58 93 59 94 60 95 61 96 62 97
REMARK H PARENT 6 24 12 26 12 27 12 28 83 53 53 64
REMARK Flexibility Score: inf
ROOT
ATOM      1  C   UNL     1       5.448   4.248  -6.100  1.00  0.00     0.188 C 
ENDROOT
BRANCH   1   2
ATOM      2  O   UNL     1       4.643   3.323  -5.374  1.00  0.00    -0.377 OA
BRANCH   2   3
ATOM      3  C   UNL     1       4.630   3.428  -3.967  1.00  0.00     0.188 C 
BRANCH   3   4
ATOM      4  C   UNL     1       5.652   2.540  -3.242  1.00  0.00     0.188 C 
BRANCH   4   5
ATOM      5  O   UNL     1       6.881   2.184  -3.853  1.00  0.00    -0.376 OA
BRANCH   5   6
ATOM      6  C   UNL     1       6.950   1.480  -5.087  1.00  0.00     0.202 C 
BRANCH   6   7
ATOM      7  C   UNL     1       5.950   0.403  -5.532  1.00  0.00     0.261 C 
BRANCH   7   8
ATOM      8  O   UNL     1       4.574   0.717  -5.324  1.00  0.00    -0.459 OA
BRANCH   8   9
ATOM      9  C   UNL     1       3.953   0.002  -4.352  1.00  0.00     0.368 C 
ATOM     10  O   UNL     1       4.492  -0.883  -3.694  1.00  0.00    -0.245 OA
BRANCH   9  11
ATOM     11  C   UNL     1       2.493   0.462  -4.115  1.00  0.00     0.198 C 
ATOM     12  C   UNL     1       0.889   0.816  -2.074  1.00  0.00     0.190 C 
ATOM     13  C   UNL     1      -0.056  -0.195  -2.753  1.00  0.00     0.065 C 
ATOM     14  C   UNL     1       2.334   0.702  -2.594  1.00  0.00     0.145 C 
ATOM     15  C   UNL     1       0.144  -0.403  -4.247  1.00  0.00     0.013 C 
ATOM     16  C   UNL     1       1.598  -0.688  -4.571  1.00  0.00     0.081 C 
BRANCH  12  17
ATOM     17  N   UNL     1       0.836   0.885  -0.583  1.00  0.00    -0.332 N 
ATOM     18  C   UNL     1      -2.646  -0.006   0.820  1.00  0.00     0.013 C 
ATOM     19  C   UNL     1      -1.313  -0.257   0.119  1.00  0.00     0.041 C 
ATOM     20  C   UNL     1      -0.513  -1.374   0.803  1.00  0.00     0.015 C 
ATOM     21  C   UNL     1      -0.505   1.050  -0.007  1.00  0.00     0.265 C 
ATOM     22  C   UNL     1       0.933  -1.466   0.314  1.00  0.00     0.062 C 
ATOM     23  C   UNL     1       1.592  -0.094   0.208  1.00  0.00     0.262 C 
ATOM     24  H   UNL     1       1.361   1.754  -0.486  1.00  0.00     0.348 HD
ENDBRANCH  12  17
BRANCH  11  25
ATOM     25  N   UNL     1       2.103   1.641  -4.929  1.00  0.00    -0.343 N 
ATOM     26  H   UNL     1       1.135   1.890  -4.726  1.00  0.00     0.345 HD
ATOM     27  H   UNL     1       2.195   1.416  -5.920  1.00  0.00     0.345 HD
ATOM     28  H   UNL     1       2.712   2.428  -4.702  1.00  0.00     0.345 HD
ENDBRANCH  11  25
ENDBRANCH   9  11
ENDBRANCH   8   9
ENDBRANCH   7   8
ENDBRANCH   6   7
ENDBRANCH   5   6
ENDBRANCH   4   5
ENDBRANCH   3   4
ENDBRANCH   2   3
ENDBRANCH   1   2
BRANCH   1  29
ATOM     29  C   UNL     1       6.633   4.956  -5.402  1.00  0.00     0.188 C 
BRANCH  29  30
ATOM     30  O   UNL     1       6.357   5.452  -4.101  1.00  0.00    -0.376 OA
BRANCH  30  31
ATOM     31  C   UNL     1       5.962   6.807  -3.951  1.00  0.00     0.202 C 
BRANCH  31  32
ATOM     32  C   UNL     1       4.662   7.264  -4.633  1.00  0.00     0.261 C 
BRANCH  32  33
ATOM     33  O   UNL     1       4.604   7.133  -6.062  1.00  0.00    -0.460 OA
BRANCH  33  34
ATOM     34  C   UNL     1       5.569   7.728  -6.795  1.00  0.00     0.338 C 
ATOM     35  O   UNL     1       6.470   8.439  -6.381  1.00  0.00    -0.246 OA
BRANCH  34  36
ATOM     36  C   UNL     1       5.479   7.200  -8.172  1.00  0.00     0.060 A 
ATOM     37  C   UNL     1       6.583   6.529  -8.715  1.00  0.00     0.016 A 
ATOM     38  C   UNL     1       4.314   7.367  -8.922  1.00  0.00     0.016 A 
ATOM     39  C   UNL     1       6.540   6.060 -10.028  1.00  0.00     0.010 A 
ATOM     40  C   UNL     1       4.281   6.918 -10.246  1.00  0.00     0.010 A 
ATOM     41  C   UNL     1       5.407   6.298 -10.816  1.00  0.00    -0.014 A 
BRANCH  41  42
ATOM     42  C   UNL     1       5.477   6.095 -12.284  1.00  0.00     0.031 A 
ATOM     43  C   UNL     1       5.742   7.296 -13.154  1.00  0.00     0.074 A 
ATOM     44  C   UNL     1       5.332   4.878 -12.836  1.00  0.00     0.049 A 
ATOM     45  N   UNL     1       5.795   7.381 -14.457  1.00  0.00    -0.248 NA
ATOM     46  C   UNL     1       5.975   8.572 -12.456  1.00  0.00     0.031 C 
ATOM     47  C   UNL     1       5.127   3.631 -12.099  1.00  0.00     0.029 A 
ATOM     48  N   UNL     1       5.329   4.495 -14.154  1.00  0.00    -0.354 N 
ATOM     49  C   UNL     1       6.054   8.718 -14.736  1.00  0.00     0.074 A 
ATOM     50  C   UNL     1       6.118   9.412 -13.469  1.00  0.00     0.031 C 
ATOM     51  C   UNL     1       5.009   2.621 -12.980  1.00  0.00     0.029 A 
ATOM     52  C   UNL     1       5.089   3.154 -14.339  1.00  0.00     0.049 A 
ATOM     53  H   UNL     1       5.485   5.122 -14.897  1.00  0.00     0.167 HD
ATOM     54  C   UNL     1       6.226   9.315 -15.939  1.00  0.00     0.031 A 
ATOM     55  C   UNL     1       4.926   2.445 -15.475  1.00  0.00     0.031 A 
ATOM     56  C   UNL     1       6.145   8.623 -17.198  1.00  0.00     0.049 A 
ATOM     57  C   UNL     1       5.035   3.147 -16.806  1.00  0.00     0.074 A 
ATOM     58  C   UNL     1       6.316   9.135 -18.472  1.00  0.00     0.029 A 
ATOM     59  N   UNL     1       5.859   7.274 -17.343  1.00  0.00    -0.354 N 
ATOM     60  N   UNL     1       5.301   4.408 -17.055  1.00  0.00    -0.248 NA
ATOM     61  C   UNL     1       4.829   2.328 -18.009  1.00  0.00     0.031 C 
ATOM     62  C   UNL     1       6.065   8.111 -19.390  1.00  0.00     0.029 A 
ATOM     63  C   UNL     1       5.817   6.943 -18.687  1.00  0.00     0.049 A 
ATOM     64  H   UNL     1       5.709   6.645 -16.601  1.00  0.00     0.167 HD
ATOM     65  C   UNL     1       5.328   4.524 -18.443  1.00  0.00     0.074 A 
ATOM     66  C   UNL     1       5.064   3.204 -18.976  1.00  0.00     0.031 C 
ATOM     67  C   UNL     1       5.554   5.623 -19.206  1.00  0.00     0.031 A 
BRANCH  54  68
ATOM     68  C   UNL     1       6.477  10.801 -15.950  1.00  0.00    -0.014 A 
ATOM     69  C   UNL     1       7.684  11.345 -15.476  1.00  0.00     0.010 A 
ATOM     70  C   UNL     1       5.499  11.664 -16.478  1.00  0.00     0.010 A 
ATOM     71  C   UNL     1       7.893  12.727 -15.495  1.00  0.00     0.020 A 
ATOM     72  C   UNL     1       5.717  13.043 -16.529  1.00  0.00     0.020 A 
ATOM     73  C   UNL     1       6.907  13.567 -16.021  1.00  0.00     0.054 A 
BRANCH  73  74
ATOM     74  S   UNL     1       7.216  15.354 -16.056  1.00  0.00     0.124 S 
ATOM     75  O   UNL     1       7.143  15.700 -14.639  1.00  0.00    -0.237 OA
ATOM     76  O   UNL     1       8.546  15.435 -16.654  1.00  0.00    -0.237 OA
ATOM     77  O   UNL     1       6.131  15.879 -16.882  1.00  0.00    -0.744 OA
ENDBRANCH  73  74
ENDBRANCH  54  68
BRANCH  55  78
ATOM     78  C   UNL     1       4.617   0.989 -15.408  1.00  0.00    -0.014 A 
ATOM     79  C   UNL     1       5.544   0.034 -15.864  1.00  0.00     0.010 A 
ATOM     80  C   UNL     1       3.384   0.548 -14.892  1.00  0.00     0.010 A 
ATOM     81  C   UNL     1       5.237  -1.330 -15.821  1.00  0.00     0.020 A 
ATOM     82  C   UNL     1       3.087  -0.816 -14.817  1.00  0.00     0.020 A 
ATOM     83  C   UNL     1       4.012  -1.746 -15.293  1.00  0.00     0.054 A 
BRANCH  83  84
ATOM     84  S   UNL     1       3.660  -3.524 -15.198  1.00  0.00     0.124 S 
ATOM     85  O   UNL     1       3.469  -3.871 -16.603  1.00  0.00    -0.237 OA
ATOM     86  O   UNL     1       4.872  -4.050 -14.575  1.00  0.00    -0.237 OA
ATOM     87  O   UNL     1       2.460  -3.592 -14.367  1.00  0.00    -0.744 OA
ENDBRANCH  83  84
ENDBRANCH  55  78
BRANCH  67  88
ATOM     88  C   UNL     1       5.575   5.446 -20.703  1.00  0.00    -0.014 A 
ATOM     89  C   UNL     1       4.401   5.179 -21.429  1.00  0.00     0.010 A 
ATOM     90  C   UNL     1       6.786   5.615 -21.401  1.00  0.00     0.010 A 
ATOM     91  C   UNL     1       4.443   5.052 -22.821  1.00  0.00     0.020 A 
ATOM     92  C   UNL     1       6.827   5.522 -22.795  1.00  0.00     0.020 A 
ATOM     93  C   UNL     1       5.656   5.227 -23.495  1.00  0.00     0.054 A 
BRANCH  93  94
ATOM     94  S   UNL     1       5.675   5.104 -25.305  1.00  0.00     0.124 S 
ATOM     95  O   UNL     1       5.475   3.672 -25.514  1.00  0.00    -0.237 OA
ATOM     96  O   UNL     1       4.556   5.958 -25.695  1.00  0.00    -0.237 OA
ATOM     97  O   UNL     1       6.995   5.608 -25.674  1.00  0.00    -0.744 OA
ENDBRANCH  93  94
ENDBRANCH  67  88
ENDBRANCH  41  42
ENDBRANCH  34  36
ENDBRANCH  33  34
ENDBRANCH  32  33
ENDBRANCH  31  32
ENDBRANCH  30  31
ENDBRANCH  29  30
ENDBRANCH   1  29
TORSDOF 25
