REMARK SMILES CC[C@@H](C)NC(=O)Cn1cccc1C(=O)OCCOCCOCCOCCOC(=O)c1ccc(-c2c3nc(c(-c4ccc(S(=O)(=O)[O-])cc4)c4ccc([nH]4)c(-c4ccc(S(=O)(=O)[O-])cc4)c4nc(c(-c5ccc(S(=O)(=O)[O-])cc5)c5ccc2[nH]5)C=C4)C=C3)cc1
REMARK SMILES IDX 21 1 20 2 19 3 18 4 17 5 16 6 14 7 15 8 13 9 9 10 10 11
REMARK SMILES IDX 11 12 12 13 8 14 6 15 5 16 7 18 3 19 4 20 2 21 1 22 22 23
REMARK SMILES IDX 23 24 24 25 25 26 26 27 27 28 28 29 29 30 30 31 31 32 32 33
REMARK SMILES IDX 90 34 33 35 89 36 34 37 35 38 36 39 83 40 37 41 88 42 82 43
REMARK SMILES IDX 84 44 38 45 87 46 81 47 80 48 39 50 69 51 50 52 68 53 51 54
REMARK SMILES IDX 54 55 67 56 85 57 52 58 53 59 66 61 86 62 55 63 40 64 41 65
REMARK SMILES IDX 49 66 42 67 48 68 43 69 44 70 45 71 46 72 47 73 70 74 71 75
REMARK SMILES IDX 79 76 72 77 78 78 73 79 74 80 75 81 76 82 77 83 56 84 57 85
REMARK SMILES IDX 65 86 58 87 64 88 59 89 60 90 61 91 62 92 63 93
REMARK H PARENT 5 17 84 49 54 60
REMARK Flexibility Score: inf
ROOT
ATOM      1  C   UNL     1       5.166   1.073  -1.605  1.00  0.00     0.188 C 
ENDROOT
BRANCH   1   2
ATOM      2  C   UNL     1       4.296  -0.194  -1.718  1.00  0.00     0.188 C 
BRANCH   2   3
ATOM      3  O   UNL     1       3.515  -0.228  -2.913  1.00  0.00    -0.376 OA
BRANCH   3   4
ATOM      4  C   UNL     1       2.134   0.066  -2.823  1.00  0.00     0.202 C 
BRANCH   4   5
ATOM      5  C   UNL     1       1.821   1.542  -2.572  1.00  0.00     0.261 C 
BRANCH   5   6
ATOM      6  O   UNL     1       2.304   2.110  -1.343  1.00  0.00    -0.459 OA
BRANCH   6   7
ATOM      7  C   UNL     1       2.134   1.427  -0.184  1.00  0.00     0.355 C 
ATOM      8  O   UNL     1       1.593   0.340  -0.088  1.00  0.00    -0.244 OA
BRANCH   7   9
ATOM      9  C   UNL     1       2.684   2.171   0.922  1.00  0.00     0.128 A 
ATOM     10  N   UNL     1       2.589   3.530   1.163  1.00  0.00    -0.333 N 
ATOM     11  C   UNL     1       3.268   3.829   2.323  1.00  0.00     0.087 A 
ATOM     12  C   UNL     1       3.744   2.659   2.866  1.00  0.00     0.020 A 
ATOM     13  C   UNL     1       3.357   1.616   2.002  1.00  0.00     0.035 A 
BRANCH  10  14
ATOM     14  C   UNL     1       1.922   4.539   0.347  1.00  0.00     0.222 C 
BRANCH  14  15
ATOM     15  C   UNL     1       0.587   5.011   0.900  1.00  0.00     0.240 C 
ATOM     16  N   UNL     1      -0.561   4.286   0.728  1.00  0.00    -0.352 N 
ATOM     17  H   UNL     1      -1.394   4.768   0.936  1.00  0.00     0.163 HD
ATOM     18  O   UNL     1       0.486   6.105   1.463  1.00  0.00    -0.273 OA
BRANCH  16  19
ATOM     19  C   UNL     1      -0.740   2.909   0.283  1.00  0.00     0.078 C 
ATOM     20  C   UNL     1      -1.663   2.830  -0.928  1.00  0.00     0.031 C 
BRANCH  19  21
ATOM     21  C   UNL     1      -1.208   2.038   1.461  1.00  0.00     0.021 C 
ATOM     22  C   UNL     1      -1.056   0.535   1.259  1.00  0.00     0.006 C 
ENDBRANCH  19  21
ENDBRANCH  16  19
ENDBRANCH  14  15
ENDBRANCH  10  14
ENDBRANCH   7   9
ENDBRANCH   6   7
ENDBRANCH   5   6
ENDBRANCH   4   5
ENDBRANCH   3   4
ENDBRANCH   2   3
ENDBRANCH   1   2
BRANCH   1  23
ATOM     23  O   UNL     1       6.108   1.333  -2.642  1.00  0.00    -0.377 OA
BRANCH  23  24
ATOM     24  C   UNL     1       5.638   1.202  -3.976  1.00  0.00     0.188 C 
BRANCH  24  25
ATOM     25  C   UNL     1       5.864  -0.206  -4.569  1.00  0.00     0.188 C 
BRANCH  25  26
ATOM     26  O   UNL     1       6.022  -1.244  -3.608  1.00  0.00    -0.376 OA
BRANCH  26  27
ATOM     27  C   UNL     1       7.331  -1.650  -3.226  1.00  0.00     0.202 C 
BRANCH  27  28
ATOM     28  C   UNL     1       8.259  -0.619  -2.558  1.00  0.00     0.261 C 
BRANCH  28  29
ATOM     29  O   UNL     1       8.573   0.529  -3.346  1.00  0.00    -0.460 OA
BRANCH  29  30
ATOM     30  C   UNL     1       9.022   0.267  -4.581  1.00  0.00     0.338 C 
ATOM     31  O   UNL     1       9.242  -0.814  -5.098  1.00  0.00    -0.246 OA
BRANCH  30  32
ATOM     32  C   UNL     1       9.167   1.514  -5.312  1.00  0.00     0.060 A 
ATOM     33  C   UNL     1       8.663   1.551  -6.618  1.00  0.00     0.016 A 
ATOM     34  C   UNL     1      10.085   2.438  -4.818  1.00  0.00     0.016 A 
ATOM     35  C   UNL     1       9.232   2.427  -7.512  1.00  0.00     0.010 A 
ATOM     36  C   UNL     1      10.697   3.270  -5.727  1.00  0.00     0.010 A 
ATOM     37  C   UNL     1      10.317   3.193  -7.076  1.00  0.00    -0.014 A 
BRANCH  37  38
ATOM     38  C   UNL     1      11.141   3.865  -8.081  1.00  0.00     0.031 A 
ATOM     39  C   UNL     1      10.731   5.298  -8.311  1.00  0.00     0.074 A 
ATOM     40  C   UNL     1      12.117   3.094  -8.647  1.00  0.00     0.049 A 
ATOM     41  N   UNL     1      10.985   6.050  -9.331  1.00  0.00    -0.248 NA
ATOM     42  C   UNL     1       9.854   5.982  -7.323  1.00  0.00     0.031 C 
ATOM     43  C   UNL     1      12.334   1.659  -8.340  1.00  0.00     0.029 A 
ATOM     44  N   UNL     1      13.112   3.331  -9.570  1.00  0.00    -0.354 N 
ATOM     45  C   UNL     1      10.466   7.320  -9.043  1.00  0.00     0.074 A 
ATOM     46  C   UNL     1       9.687   7.196  -7.849  1.00  0.00     0.031 C 
ATOM     47  C   UNL     1      13.330   1.151  -9.092  1.00  0.00     0.029 A 
ATOM     48  C   UNL     1      13.890   2.202  -9.918  1.00  0.00     0.049 A 
ATOM     49  H   UNL     1      13.270   4.221  -9.960  1.00  0.00     0.167 HD
ATOM     50  C   UNL     1      10.826   8.435  -9.732  1.00  0.00     0.031 A 
ATOM     51  C   UNL     1      14.914   2.099 -10.813  1.00  0.00     0.031 A 
ATOM     52  C   UNL     1      11.751   8.119 -10.769  1.00  0.00     0.049 A 
ATOM     53  C   UNL     1      15.247   3.466 -11.251  1.00  0.00     0.074 A 
ATOM     54  C   UNL     1      11.617   7.468 -11.968  1.00  0.00     0.029 A 
ATOM     55  N   UNL     1      13.086   8.178 -10.438  1.00  0.00    -0.354 N 
ATOM     56  N   UNL     1      15.789   4.378 -10.502  1.00  0.00    -0.248 NA
ATOM     57  C   UNL     1      14.914   3.882 -12.618  1.00  0.00     0.031 C 
ATOM     58  C   UNL     1      12.839   6.778 -12.122  1.00  0.00     0.029 A 
ATOM     59  C   UNL     1      13.707   7.136 -11.084  1.00  0.00     0.049 A 
ATOM     60  H   UNL     1      13.515   8.841  -9.850  1.00  0.00     0.167 HD
ATOM     61  C   UNL     1      15.477   5.540 -11.165  1.00  0.00     0.074 A 
ATOM     62  C   UNL     1      15.238   5.171 -12.544  1.00  0.00     0.031 C 
ATOM     63  C   UNL     1      14.887   6.552 -10.476  1.00  0.00     0.031 A 
BRANCH  50  64
ATOM     64  C   UNL     1      10.604   9.872  -9.397  1.00  0.00    -0.014 A 
ATOM     65  C   UNL     1      10.690  10.798 -10.461  1.00  0.00     0.010 A 
ATOM     66  C   UNL     1      10.647  10.363  -8.083  1.00  0.00     0.010 A 
ATOM     67  C   UNL     1      10.937  12.148 -10.227  1.00  0.00     0.020 A 
ATOM     68  C   UNL     1      10.860  11.726  -7.840  1.00  0.00     0.020 A 
ATOM     69  C   UNL     1      11.058  12.596  -8.914  1.00  0.00     0.054 A 
BRANCH  69  70
ATOM     70  S   UNL     1      11.569  14.311  -8.637  1.00  0.00     0.124 S 
ATOM     71  O   UNL     1      12.988  14.263  -8.976  1.00  0.00    -0.237 OA
ATOM     72  O   UNL     1      10.726  15.050  -9.574  1.00  0.00    -0.237 OA
ATOM     73  O   UNL     1      11.264  14.536  -7.226  1.00  0.00    -0.744 OA
ENDBRANCH  69  70
ENDBRANCH  50  64
BRANCH  51  74
ATOM     74  C   UNL     1      15.672   0.979 -11.479  1.00  0.00    -0.014 A 
ATOM     75  C   UNL     1      15.362  -0.384 -11.379  1.00  0.00     0.010 A 
ATOM     76  C   UNL     1      16.670   1.323 -12.432  1.00  0.00     0.010 A 
ATOM     77  C   UNL     1      15.916  -1.327 -12.272  1.00  0.00     0.020 A 
ATOM     78  C   UNL     1      17.181   0.411 -13.358  1.00  0.00     0.020 A 
ATOM     79  C   UNL     1      16.780  -0.913 -13.289  1.00  0.00     0.054 A 
BRANCH  79  80
ATOM     80  S   UNL     1      17.269  -2.045 -14.621  1.00  0.00     0.124 S 
ATOM     81  O   UNL     1      18.573  -2.515 -14.167  1.00  0.00    -0.237 OA
ATOM     82  O   UNL     1      16.202  -3.043 -14.619  1.00  0.00    -0.237 OA
ATOM     83  O   UNL     1      17.288  -1.177 -15.798  1.00  0.00    -0.744 OA
ENDBRANCH  79  80
ENDBRANCH  51  74
BRANCH  63  84
ATOM     84  C   UNL     1      15.230   6.604  -8.992  1.00  0.00    -0.014 A 
ATOM     85  C   UNL     1      16.572   6.718  -8.580  1.00  0.00     0.010 A 
ATOM     86  C   UNL     1      14.261   6.444  -7.982  1.00  0.00     0.010 A 
ATOM     87  C   UNL     1      16.933   6.656  -7.224  1.00  0.00     0.020 A 
ATOM     88  C   UNL     1      14.609   6.386  -6.621  1.00  0.00     0.020 A 
ATOM     89  C   UNL     1      15.948   6.488  -6.250  1.00  0.00     0.054 A 
BRANCH  89  90
ATOM     90  S   UNL     1      16.446   6.382  -4.505  1.00  0.00     0.124 S 
ATOM     91  O   UNL     1      17.360   5.243  -4.497  1.00  0.00    -0.237 OA
ATOM     92  O   UNL     1      17.068   7.683  -4.274  1.00  0.00    -0.237 OA
ATOM     93  O   UNL     1      15.187   6.163  -3.793  1.00  0.00    -0.744 OA
ENDBRANCH  89  90
ENDBRANCH  63  84
ENDBRANCH  37  38
ENDBRANCH  30  32
ENDBRANCH  29  30
ENDBRANCH  28  29
ENDBRANCH  27  28
ENDBRANCH  26  27
ENDBRANCH  25  26
ENDBRANCH  24  25
ENDBRANCH  23  24
ENDBRANCH   1  23
TORSDOF 27
