REMARK SMILES Cc1ccc(C[C@@H](Cc2cc(F)cc(Br)c2)C(=O)OCCOCCOCCOCCOC(=O)c2ccc(-c3c4nc(c(-c5ccc(S(=O)(=O)[O-])cc5)c5ccc([nH]5)c(-c5ccc(S(=O)(=O)[O-])cc5)c5nc(c(-c6ccc(S(=O)(=O)[O-])cc6)c6ccc3[nH]6)C=C5)C=C4)cc2)cc1
REMARK SMILES IDX 26 1 25 2 24 3 23 4 22 5 21 6 20 7 19 8 17 9 18 10 7 11 6 12
REMARK SMILES IDX 5 13 1 14 2 15 3 16 95 17 4 18 94 19 8 20 9 21 10 22 16 23
REMARK SMILES IDX 11 24 14 25 12 26 13 27 15 28 27 29 28 30 29 31 30 32 31 33
REMARK SMILES IDX 32 34 33 35 34 36 35 37 93 38 36 39 92 40 37 41 38 42 39 43
REMARK SMILES IDX 86 44 40 45 91 46 85 47 87 48 41 49 90 50 84 51 83 52 42 54
REMARK SMILES IDX 72 55 53 56 71 57 54 58 57 59 70 60 88 61 55 62 56 63 69 65
REMARK SMILES IDX 89 66 58 67 43 68 44 69 52 70 45 71 51 72 46 73 47 74 48 75
REMARK SMILES IDX 49 76 50 77 73 78 74 79 82 80 75 81 81 82 76 83 77 84 78 85
REMARK SMILES IDX 79 86 80 87 59 88 60 89 68 90 61 91 67 92 62 93 63 94 64 95
REMARK SMILES IDX 65 96 66 97
REMARK H PARENT 87 53 57 64
REMARK Flexibility Score: inf
ROOT
ATOM      1  C   UNL     1      -6.943   3.182  -0.741  1.00  0.00     0.188 C 
ENDROOT
BRANCH   1   2
ATOM      2  O   UNL     1      -5.623   2.933  -0.336  1.00  0.00    -0.377 OA
BRANCH   2   3
ATOM      3  C   UNL     1      -4.612   2.603  -1.256  1.00  0.00     0.188 C 
BRANCH   3   4
ATOM      4  C   UNL     1      -4.731   2.965  -2.738  1.00  0.00     0.188 C 
BRANCH   4   5
ATOM      5  O   UNL     1      -5.827   2.461  -3.489  1.00  0.00    -0.376 OA
BRANCH   5   6
ATOM      6  C   UNL     1      -6.197   1.109  -3.250  1.00  0.00     0.202 C 
BRANCH   6   7
ATOM      7  C   UNL     1      -5.187   0.037  -3.667  1.00  0.00     0.261 C 
BRANCH   7   8
ATOM      8  O   UNL     1      -4.161  -0.166  -2.652  1.00  0.00    -0.463 OA
BRANCH   8   9
ATOM      9  C   UNL     1      -2.981  -0.675  -3.082  1.00  0.00     0.309 C 
ATOM     10  O   UNL     1      -2.692  -0.798  -4.268  1.00  0.00    -0.252 OA
BRANCH   9  11
ATOM     11  C   UNL     1      -2.014  -1.121  -1.978  1.00  0.00     0.108 C 
BRANCH  11  12
ATOM     12  C   UNL     1      -2.407  -0.815  -0.502  1.00  0.00     0.051 C 
BRANCH  12  13
ATOM     13  C   UNL     1      -1.128  -0.403   0.212  1.00  0.00    -0.047 A 
ATOM     14  C   UNL     1       3.078   0.250   0.115  1.00  0.00     0.044 C 
ATOM     15  C   UNL     1       1.609   0.090   0.362  1.00  0.00    -0.051 A 
ATOM     16  C   UNL     1       1.100  -1.167   0.710  1.00  0.00     0.004 A 
ATOM     17  C   UNL     1       0.723   1.145   0.113  1.00  0.00     0.004 A 
ATOM     18  C   UNL     1      -0.270  -1.403   0.677  1.00  0.00     0.004 A 
ATOM     19  C   UNL     1      -0.648   0.905   0.052  1.00  0.00     0.004 A 
ENDBRANCH  12  13
ENDBRANCH  11  12
BRANCH  11  20
ATOM     20  C   UNL     1      -1.403  -2.570  -2.208  1.00  0.00     0.051 C 
BRANCH  20  21
ATOM     21  C   UNL     1      -2.310  -3.762  -2.064  1.00  0.00    -0.043 A 
ATOM     22  C   UNL     1      -2.060  -4.940  -1.337  1.00  0.00     0.043 A 
ATOM     23  C   UNL     1      -3.521  -3.670  -2.680  1.00  0.00     0.019 A 
ATOM     24  C   UNL     1      -3.094  -5.867  -1.090  1.00  0.00     0.124 A 
ATOM     25  C   UNL     1      -4.542  -4.403  -2.142  1.00  0.00     0.021 A 
ATOM     26  F   UNL     1      -2.844  -6.995  -0.414  1.00  0.00    -0.207 F 
ATOM     27  C   UNL     1      -4.390  -5.557  -1.414  1.00  0.00     0.055 A 
ATOM     28  Br  UNL     1      -5.941  -3.267  -1.877  1.00  0.00    -0.051 Br
ENDBRANCH  20  21
ENDBRANCH  11  20
ENDBRANCH   9  11
ENDBRANCH   8   9
ENDBRANCH   7   8
ENDBRANCH   6   7
ENDBRANCH   5   6
ENDBRANCH   4   5
ENDBRANCH   3   4
ENDBRANCH   2   3
ENDBRANCH   1   2
BRANCH   1  29
ATOM     29  C   UNL     1      -7.359   4.656  -0.689  1.00  0.00     0.188 C 
BRANCH  29  30
ATOM     30  O   UNL     1      -6.430   5.609  -0.213  1.00  0.00    -0.376 OA
BRANCH  30  31
ATOM     31  C   UNL     1      -5.792   5.287   1.021  1.00  0.00     0.202 C 
BRANCH  31  32
ATOM     32  C   UNL     1      -6.583   4.703   2.234  1.00  0.00     0.261 C 
BRANCH  32  33
ATOM     33  O   UNL     1      -7.636   3.737   1.978  1.00  0.00    -0.460 OA
BRANCH  33  34
ATOM     34  C   UNL     1      -8.913   3.978   2.441  1.00  0.00     0.338 C 
ATOM     35  O   UNL     1      -9.334   4.964   2.985  1.00  0.00    -0.246 OA
BRANCH  34  36
ATOM     36  C   UNL     1      -9.801   2.947   1.802  1.00  0.00     0.060 A 
ATOM     37  C   UNL     1     -10.036   1.679   2.327  1.00  0.00     0.016 A 
ATOM     38  C   UNL     1     -10.129   3.188   0.476  1.00  0.00     0.016 A 
ATOM     39  C   UNL     1     -10.254   0.604   1.446  1.00  0.00     0.010 A 
ATOM     40  C   UNL     1     -10.127   2.119  -0.403  1.00  0.00     0.010 A 
ATOM     41  C   UNL     1     -10.007   0.812   0.079  1.00  0.00    -0.014 A 
BRANCH  41  42
ATOM     42  C   UNL     1      -9.071  -0.063  -0.707  1.00  0.00     0.031 A 
ATOM     43  C   UNL     1      -9.222  -0.313  -2.179  1.00  0.00     0.074 A 
ATOM     44  C   UNL     1      -7.916  -0.343  -0.055  1.00  0.00     0.049 A 
ATOM     45  N   UNL     1      -8.536  -1.135  -2.912  1.00  0.00    -0.248 NA
ATOM     46  C   UNL     1     -10.246   0.379  -2.965  1.00  0.00     0.031 C 
ATOM     47  C   UNL     1      -6.613  -0.760  -0.505  1.00  0.00     0.029 A 
ATOM     48  N   UNL     1      -7.778  -0.455   1.316  1.00  0.00    -0.354 N 
ATOM     49  C   UNL     1      -8.944  -0.985  -4.238  1.00  0.00     0.074 A 
ATOM     50  C   UNL     1      -9.942   0.046  -4.222  1.00  0.00     0.031 C 
ATOM     51  C   UNL     1      -5.954  -1.395   0.471  1.00  0.00     0.029 A 
ATOM     52  C   UNL     1      -6.819  -1.415   1.584  1.00  0.00     0.049 A 
ATOM     53  H   UNL     1      -8.279   0.061   1.988  1.00  0.00     0.167 HD
ATOM     54  C   UNL     1      -8.496  -1.800  -5.237  1.00  0.00     0.031 A 
ATOM     55  C   UNL     1      -7.162  -2.519   2.262  1.00  0.00     0.031 A 
ATOM     56  C   UNL     1      -8.088  -3.106  -4.698  1.00  0.00     0.049 A 
ATOM     57  C   UNL     1      -7.674  -3.734   1.337  1.00  0.00     0.074 A 
ATOM     58  C   UNL     1      -7.051  -3.985  -4.929  1.00  0.00     0.029 A 
ATOM     59  N   UNL     1      -8.845  -3.679  -3.637  1.00  0.00    -0.354 N 
ATOM     60  N   UNL     1      -8.136  -3.685   0.074  1.00  0.00    -0.248 NA
ATOM     61  C   UNL     1      -7.553  -5.139   1.754  1.00  0.00     0.031 C 
ATOM     62  C   UNL     1      -7.136  -5.007  -3.953  1.00  0.00     0.029 A 
ATOM     63  C   UNL     1      -8.155  -4.707  -3.027  1.00  0.00     0.049 A 
ATOM     64  H   UNL     1      -9.745  -3.380  -3.372  1.00  0.00     0.167 HD
ATOM     65  C   UNL     1      -8.316  -4.995  -0.481  1.00  0.00     0.074 A 
ATOM     66  C   UNL     1      -7.938  -5.835   0.662  1.00  0.00     0.031 C 
ATOM     67  C   UNL     1      -8.566  -5.456  -1.800  1.00  0.00     0.031 A 
BRANCH  54  68
ATOM     68  C   UNL     1      -8.357  -1.373  -6.721  1.00  0.00    -0.014 A 
ATOM     69  C   UNL     1      -7.380  -1.977  -7.550  1.00  0.00     0.010 A 
ATOM     70  C   UNL     1      -9.079  -0.340  -7.359  1.00  0.00     0.010 A 
ATOM     71  C   UNL     1      -7.158  -1.621  -8.899  1.00  0.00     0.020 A 
ATOM     72  C   UNL     1      -8.873   0.035  -8.712  1.00  0.00     0.020 A 
ATOM     73  C   UNL     1      -7.920  -0.621  -9.482  1.00  0.00     0.054 A 
BRANCH  73  74
ATOM     74  S   UNL     1      -7.674  -0.230 -11.241  1.00  0.00     0.124 S 
ATOM     75  O   UNL     1      -6.281   0.207 -11.281  1.00  0.00    -0.237 OA
ATOM     76  O   UNL     1      -7.948  -1.510 -11.889  1.00  0.00    -0.237 OA
ATOM     77  O   UNL     1      -8.658   0.818 -11.505  1.00  0.00    -0.744 OA
ENDBRANCH  73  74
ENDBRANCH  54  68
BRANCH  55  78
ATOM     78  C   UNL     1      -7.051  -1.936   3.705  1.00  0.00    -0.014 A 
ATOM     79  C   UNL     1      -5.725  -1.474   4.054  1.00  0.00     0.010 A 
ATOM     80  C   UNL     1      -8.085  -1.087   4.203  1.00  0.00     0.010 A 
ATOM     81  C   UNL     1      -5.457  -0.182   4.600  1.00  0.00     0.020 A 
ATOM     82  C   UNL     1      -7.813   0.193   4.798  1.00  0.00     0.020 A 
ATOM     83  C   UNL     1      -6.505   0.660   4.949  1.00  0.00     0.054 A 
BRANCH  83  84
ATOM     84  S   UNL     1      -6.163   2.407   5.423  1.00  0.00     0.124 S 
ATOM     85  O   UNL     1      -5.936   2.305   6.860  1.00  0.00    -0.237 OA
ATOM     86  O   UNL     1      -4.983   2.750   4.631  1.00  0.00    -0.237 OA
ATOM     87  O   UNL     1      -7.386   3.101   5.031  1.00  0.00    -0.744 OA
ENDBRANCH  83  84
ENDBRANCH  55  78
BRANCH  67  88
ATOM     88  C   UNL     1      -8.995  -6.908  -2.209  1.00  0.00    -0.014 A 
ATOM     89  C   UNL     1      -9.470  -7.901  -1.350  1.00  0.00     0.010 A 
ATOM     90  C   UNL     1      -9.045  -7.252  -3.601  1.00  0.00     0.010 A 
ATOM     91  C   UNL     1      -9.905  -9.153  -1.846  1.00  0.00     0.020 A 
ATOM     92  C   UNL     1      -9.450  -8.484  -4.107  1.00  0.00     0.020 A 
ATOM     93  C   UNL     1      -9.893  -9.434  -3.218  1.00  0.00     0.054 A 
BRANCH  93  94
ATOM     94  S   UNL     1     -10.601 -10.974  -3.849  1.00  0.00     0.124 S 
ATOM     95  O   UNL     1      -9.625 -11.965  -3.407  1.00  0.00    -0.237 OA
ATOM     96  O   UNL     1     -11.896 -11.017  -3.176  1.00  0.00    -0.237 OA
ATOM     97  O   UNL     1     -10.666 -10.767  -5.295  1.00  0.00    -0.744 OA
ENDBRANCH  93  94
ENDBRANCH  67  88
ENDBRANCH  41  42
ENDBRANCH  34  36
ENDBRANCH  33  34
ENDBRANCH  32  33
ENDBRANCH  31  32
ENDBRANCH  30  31
ENDBRANCH  29  30
ENDBRANCH   1  29
TORSDOF 27
