REMARK SMILES CC(C)(C)OC(=O)N1CCC[C@H]1C(=O)N[C@@H](Cc1ccccc1)C(=O)OCCOCCOCCOCCOC(=O)c1ccc(-c2c3nc(c(-c4ccc(S(=O)(=O)[O-])cc4)c4ccc([nH]4)c(-c4ccc(S(=O)(=O)[O-])cc4)c4nc(c(-c5ccc(S(=O)(=O)[O-])cc5)c5ccc2[nH]5)C=C4)C=C3)cc1
REMARK SMILES IDX 31 1 30 2 29 3 28 4 27 5 26 6 24 7 25 8 16 9 15 10 13 11
REMARK SMILES IDX 14 12 12 14 8 15 9 16 10 17 11 18 6 19 7 20 5 21 2 22 1 23
REMARK SMILES IDX 3 24 4 25 17 26 18 27 19 28 23 29 20 30 22 31 21 32 32 33
REMARK SMILES IDX 33 34 34 35 35 36 36 37 37 38 38 39 39 40 40 41 41 42 42 43
REMARK SMILES IDX 100 44 43 45 99 46 44 47 45 48 46 49 93 50 47 51 98 52 92 53
REMARK SMILES IDX 94 54 48 55 97 56 91 57 90 58 49 60 79 61 60 62 78 63 61 64
REMARK SMILES IDX 64 65 77 66 95 67 62 68 63 69 76 71 96 72 65 73 50 74 51 75
REMARK SMILES IDX 59 76 52 77 58 78 53 79 54 80 55 81 56 82 57 83 80 84 81 85
REMARK SMILES IDX 89 86 82 87 88 88 83 89 84 90 85 91 86 92 87 93 66 94 67 95
REMARK SMILES IDX 75 96 68 97 74 98 69 99 70 100 71 101 72 102 73 103
REMARK H PARENT 15 13 94 59 64 70
REMARK Flexibility Score: inf
ROOT
ATOM      1  C   UNL     1      -3.014   4.465   3.997  1.00  0.00     0.188 C 
ENDROOT
BRANCH   1   2
ATOM      2  C   UNL     1      -3.830   3.160   4.069  1.00  0.00     0.188 C 
BRANCH   2   3
ATOM      3  O   UNL     1      -5.243   3.173   4.263  1.00  0.00    -0.376 OA
BRANCH   3   4
ATOM      4  C   UNL     1      -5.840   4.198   5.044  1.00  0.00     0.202 C 
BRANCH   4   5
ATOM      5  C   UNL     1      -5.359   4.399   6.488  1.00  0.00     0.261 C 
BRANCH   5   6
ATOM      6  O   UNL     1      -3.930   4.388   6.663  1.00  0.00    -0.462 OA
BRANCH   6   7
ATOM      7  C   UNL     1      -3.404   3.369   7.385  1.00  0.00     0.329 C 
ATOM      8  O   UNL     1      -4.057   2.466   7.900  1.00  0.00    -0.250 OA
BRANCH   7   9
ATOM      9  C   UNL     1      -1.889   3.527   7.650  1.00  0.00     0.196 C 
BRANCH   9  10
ATOM     10  N   UNL     1      -1.059   4.314   6.716  1.00  0.00    -0.341 N 
ATOM     11  C   UNL     1      -0.064   3.941   5.847  1.00  0.00     0.243 C 
ATOM     12  O   UNL     1       0.573   4.828   5.274  1.00  0.00    -0.273 OA
ATOM     13  H   UNL     1      -1.254   5.279   6.717  1.00  0.00     0.164 HD
BRANCH  11  14
ATOM     14  C   UNL     1       0.272   2.446   5.661  1.00  0.00     0.178 C 
ATOM     15  N   UNL     1       0.996   2.128   4.423  1.00  0.00    -0.296 N 
ATOM     16  C   UNL     1       2.342   1.675   4.687  1.00  0.00     0.124 C 
ATOM     17  C   UNL     1       2.236   1.082   6.078  1.00  0.00     0.024 C 
ATOM     18  C   UNL     1       1.222   1.986   6.776  1.00  0.00     0.037 C 
BRANCH  15  19
ATOM     19  C   UNL     1       0.365   2.123   3.198  1.00  0.00     0.410 C 
ATOM     20  O   UNL     1      -0.728   2.613   3.021  1.00  0.00    -0.224 OA
BRANCH  19  21
ATOM     21  O   UNL     1       1.080   1.440   2.257  1.00  0.00    -0.444 OA
BRANCH  21  22
ATOM     22  C   UNL     1       0.598   1.272   0.892  1.00  0.00     0.106 C 
ATOM     23  C   UNL     1       1.385   0.076   0.327  1.00  0.00     0.056 C 
ATOM     24  C   UNL     1       0.951   2.524   0.088  1.00  0.00     0.056 C 
ATOM     25  C   UNL     1      -0.894   0.929   0.777  1.00  0.00     0.056 C 
ENDBRANCH  21  22
ENDBRANCH  19  21
ENDBRANCH  15  19
ENDBRANCH  11  14
ENDBRANCH   9  10
BRANCH   9  26
ATOM     26  C   UNL     1      -1.747   4.092   9.083  1.00  0.00     0.072 C 
BRANCH  26  27
ATOM     27  C   UNL     1      -2.302   5.495   9.250  1.00  0.00    -0.045 A 
ATOM     28  C   UNL     1      -1.548   6.614   8.869  1.00  0.00     0.004 A 
ATOM     29  C   UNL     1      -3.604   5.692   9.735  1.00  0.00     0.004 A 
ATOM     30  C   UNL     1      -2.095   7.897   8.938  1.00  0.00     0.000 A 
ATOM     31  C   UNL     1      -4.144   6.978   9.816  1.00  0.00     0.000 A 
ATOM     32  C   UNL     1      -3.392   8.078   9.411  1.00  0.00     0.000 A 
ENDBRANCH  26  27
ENDBRANCH   9  26
ENDBRANCH   7   9
ENDBRANCH   6   7
ENDBRANCH   5   6
ENDBRANCH   4   5
ENDBRANCH   3   4
ENDBRANCH   2   3
ENDBRANCH   1   2
BRANCH   1  33
ATOM     33  O   UNL     1      -3.737   5.660   4.213  1.00  0.00    -0.377 OA
BRANCH  33  34
ATOM     34  C   UNL     1      -3.939   6.449   3.051  1.00  0.00     0.188 C 
BRANCH  34  35
ATOM     35  C   UNL     1      -4.519   5.694   1.841  1.00  0.00     0.188 C 
BRANCH  35  36
ATOM     36  O   UNL     1      -3.715   4.606   1.393  1.00  0.00    -0.376 OA
BRANCH  36  37
ATOM     37  C   UNL     1      -2.784   4.844   0.343  1.00  0.00     0.202 C 
BRANCH  37  38
ATOM     38  C   UNL     1      -1.574   5.742   0.657  1.00  0.00     0.261 C 
BRANCH  38  39
ATOM     39  O   UNL     1      -1.871   7.116   0.954  1.00  0.00    -0.460 OA
BRANCH  39  40
ATOM     40  C   UNL     1      -2.627   7.808   0.076  1.00  0.00     0.338 C 
ATOM     41  O   UNL     1      -2.996   7.447  -1.026  1.00  0.00    -0.246 OA
BRANCH  40  42
ATOM     42  C   UNL     1      -3.130   9.006   0.777  1.00  0.00     0.060 A 
ATOM     43  C   UNL     1      -4.515   9.205   0.848  1.00  0.00     0.016 A 
ATOM     44  C   UNL     1      -2.249   9.916   1.367  1.00  0.00     0.016 A 
ATOM     45  C   UNL     1      -5.024  10.337   1.478  1.00  0.00     0.010 A 
ATOM     46  C   UNL     1      -2.759  11.067   1.970  1.00  0.00     0.010 A 
ATOM     47  C   UNL     1      -4.145  11.298   1.993  1.00  0.00    -0.014 A 
BRANCH  47  48
ATOM     48  C   UNL     1      -4.665  12.643   2.327  1.00  0.00     0.031 A 
ATOM     49  C   UNL     1      -4.606  13.699   1.255  1.00  0.00     0.074 A 
ATOM     50  C   UNL     1      -5.218  12.908   3.523  1.00  0.00     0.049 A 
ATOM     51  N   UNL     1      -4.965  14.954   1.308  1.00  0.00    -0.248 NA
ATOM     52  C   UNL     1      -4.076  13.278  -0.055  1.00  0.00     0.031 C 
ATOM     53  C   UNL     1      -5.391  11.947   4.612  1.00  0.00     0.029 A 
ATOM     54  N   UNL     1      -5.739  14.076   4.019  1.00  0.00    -0.354 N 
ATOM     55  C   UNL     1      -4.712  15.469   0.041  1.00  0.00     0.074 A 
ATOM     56  C   UNL     1      -4.136  14.404  -0.748  1.00  0.00     0.031 C 
ATOM     57  C   UNL     1      -5.974  12.570   5.653  1.00  0.00     0.029 A 
ATOM     58  C   UNL     1      -6.181  13.977   5.317  1.00  0.00     0.049 A 
ATOM     59  H   UNL     1      -5.792  14.908   3.495  1.00  0.00     0.167 HD
ATOM     60  C   UNL     1      -4.949  16.715  -0.427  1.00  0.00     0.031 A 
ATOM     61  C   UNL     1      -6.675  14.924   6.140  1.00  0.00     0.031 A 
ATOM     62  C   UNL     1      -5.499  17.778   0.368  1.00  0.00     0.049 A 
ATOM     63  C   UNL     1      -6.819  16.337   5.627  1.00  0.00     0.074 A 
ATOM     64  C   UNL     1      -5.752  19.087  -0.001  1.00  0.00     0.029 A 
ATOM     65  N   UNL     1      -5.881  17.653   1.695  1.00  0.00    -0.354 N 
ATOM     66  N   UNL     1      -6.574  16.811   4.428  1.00  0.00    -0.248 NA
ATOM     67  C   UNL     1      -7.314  17.342   6.579  1.00  0.00     0.031 C 
ATOM     68  C   UNL     1      -6.242  19.767   1.118  1.00  0.00     0.029 A 
ATOM     69  C   UNL     1      -6.353  18.865   2.165  1.00  0.00     0.049 A 
ATOM     70  H   UNL     1      -5.825  16.824   2.223  1.00  0.00     0.167 HD
ATOM     71  C   UNL     1      -6.922  18.158   4.473  1.00  0.00     0.074 A 
ATOM     72  C   UNL     1      -7.406  18.419   5.812  1.00  0.00     0.031 C 
ATOM     73  C   UNL     1      -6.848  19.097   3.497  1.00  0.00     0.031 A 
BRANCH  60  74
ATOM     74  C   UNL     1      -4.598  17.000  -1.862  1.00  0.00    -0.014 A 
ATOM     75  C   UNL     1      -5.370  16.470  -2.912  1.00  0.00     0.010 A 
ATOM     76  C   UNL     1      -3.518  17.848  -2.164  1.00  0.00     0.010 A 
ATOM     77  C   UNL     1      -5.057  16.770  -4.240  1.00  0.00     0.020 A 
ATOM     78  C   UNL     1      -3.218  18.172  -3.490  1.00  0.00     0.020 A 
ATOM     79  C   UNL     1      -3.985  17.623  -4.520  1.00  0.00     0.054 A 
BRANCH  79  80
ATOM     80  S   UNL     1      -3.638  18.039  -6.251  1.00  0.00     0.124 S 
ATOM     81  O   UNL     1      -3.112  16.777  -6.765  1.00  0.00    -0.237 OA
ATOM     82  O   UNL     1      -4.954  18.422  -6.757  1.00  0.00    -0.237 OA
ATOM     83  O   UNL     1      -2.667  19.126  -6.160  1.00  0.00    -0.744 OA
ENDBRANCH  79  80
ENDBRANCH  60  74
BRANCH  61  84
ATOM     84  C   UNL     1      -7.039  14.595   7.548  1.00  0.00    -0.014 A 
ATOM     85  C   UNL     1      -8.371  14.688   7.988  1.00  0.00     0.010 A 
ATOM     86  C   UNL     1      -6.039  14.246   8.474  1.00  0.00     0.010 A 
ATOM     87  C   UNL     1      -8.690  14.482   9.335  1.00  0.00     0.020 A 
ATOM     88  C   UNL     1      -6.358  14.007   9.814  1.00  0.00     0.020 A 
ATOM     89  C   UNL     1      -7.679  14.149  10.240  1.00  0.00     0.054 A 
BRANCH  89  90
ATOM     90  S   UNL     1      -8.113  13.887  11.982  1.00  0.00     0.124 S 
ATOM     91  O   UNL     1      -8.354  15.250  12.443  1.00  0.00    -0.237 OA
ATOM     92  O   UNL     1      -9.293  13.031  11.889  1.00  0.00    -0.237 OA
ATOM     93  O   UNL     1      -6.925  13.239  12.535  1.00  0.00    -0.744 OA
ENDBRANCH  89  90
ENDBRANCH  61  84
BRANCH  73  94
ATOM     94  C   UNL     1      -7.354  20.479   3.819  1.00  0.00    -0.014 A 
ATOM     95  C   UNL     1      -6.647  21.336   4.679  1.00  0.00     0.010 A 
ATOM     96  C   UNL     1      -8.528  20.945   3.198  1.00  0.00     0.010 A 
ATOM     97  C   UNL     1      -7.124  22.624   4.940  1.00  0.00     0.020 A 
ATOM     98  C   UNL     1      -8.991  22.242   3.431  1.00  0.00     0.020 A 
ATOM     99  C   UNL     1      -8.293  23.069   4.313  1.00  0.00     0.054 A 
BRANCH  99 100
ATOM    100  S   UNL     1      -8.866  24.759   4.633  1.00  0.00     0.124 S 
ATOM    101  O   UNL     1      -9.380  24.653   5.996  1.00  0.00    -0.237 OA
ATOM    102  O   UNL     1      -7.644  25.546   4.482  1.00  0.00    -0.237 OA
ATOM    103  O   UNL     1      -9.876  24.985   3.603  1.00  0.00    -0.744 OA
ENDBRANCH  99 100
ENDBRANCH  73  94
ENDBRANCH  47  48
ENDBRANCH  40  42
ENDBRANCH  39  40
ENDBRANCH  38  39
ENDBRANCH  37  38
ENDBRANCH  36  37
ENDBRANCH  35  36
ENDBRANCH  34  35
ENDBRANCH  33  34
ENDBRANCH   1  33
TORSDOF 30
