REMARK SMILES O=C(OCCOCCOCCOCCOC(=O)[C@H]1CC=CC[C@H]1C(=O)N[C@@H]1CCN(c2cccc(Cl)c2)C1)c1ccc(-c2c3nc(c(-c4ccc(S(=O)(=O)[O-])cc4)c4ccc([nH]4)c(-c4ccc(S(=O)(=O)[O-])cc4)c4nc(c(-c5ccc(S(=O)(=O)[O-])cc5)c5ccc2[nH]5)C=C4)C=C3)cc1
REMARK SMILES IDX 9 1 8 2 7 3 6 4 5 5 4 6 3 7 2 8 1 9 39 10 40 11 98 12 41 13
REMARK SMILES IDX 97 14 42 15 43 16 44 17 91 18 45 19 96 20 90 21 92 22 46 23
REMARK SMILES IDX 95 24 89 25 88 26 47 28 77 29 58 30 76 31 59 32 62 33 75 34
REMARK SMILES IDX 93 35 60 36 61 37 74 39 94 40 63 41 48 42 49 43 57 44 50 45
REMARK SMILES IDX 56 46 51 47 52 48 53 49 54 50 55 51 78 52 79 53 87 54 80 55
REMARK SMILES IDX 86 56 81 57 82 58 83 59 84 60 85 61 64 62 65 63 73 64 66 65
REMARK SMILES IDX 72 66 67 67 68 68 69 69 70 70 71 71 10 72 11 73 12 74 13 75
REMARK SMILES IDX 14 76 15 77 16 78 17 79 18 80 19 81 23 82 20 83 22 84 21 85
REMARK SMILES IDX 24 86 25 87 26 88 27 90 28 91 38 92 29 93 30 94 31 95 32 96
REMARK SMILES IDX 37 97 33 98 35 99 34 100 36 101
REMARK H PARENT 92 27 62 38 26 89
REMARK Flexibility Score: inf
ROOT
ATOM      1  O   UNL     1       4.582   0.779   3.405  1.00  0.00    -0.377 OA
ENDROOT
BRANCH   1   2
ATOM      2  C   UNL     1       3.872  -0.352   2.915  1.00  0.00     0.188 C 
BRANCH   2   3
ATOM      3  C   UNL     1       3.952  -0.446   1.407  1.00  0.00     0.188 C 
BRANCH   3   4
ATOM      4  O   UNL     1       5.274  -0.226   0.915  1.00  0.00    -0.376 OA
BRANCH   4   5
ATOM      5  C   UNL     1       5.398   0.961   0.134  1.00  0.00     0.202 C 
BRANCH   5   6
ATOM      6  C   UNL     1       5.080   0.779  -1.358  1.00  0.00     0.261 C 
BRANCH   6   7
ATOM      7  O   UNL     1       3.809   0.147  -1.591  1.00  0.00    -0.460 OA
BRANCH   7   8
ATOM      8  C   UNL     1       3.795  -1.054  -2.240  1.00  0.00     0.338 C 
ATOM      9  O   UNL     1       3.202  -1.249  -3.282  1.00  0.00    -0.246 OA
BRANCH   8  10
ATOM     10  C   UNL     1       4.239  -2.165  -1.369  1.00  0.00     0.060 A 
ATOM     11  C   UNL     1       5.582  -2.307  -1.018  1.00  0.00     0.016 A 
ATOM     12  C   UNL     1       3.269  -3.023  -0.825  1.00  0.00     0.016 A 
ATOM     13  C   UNL     1       5.940  -3.210  -0.027  1.00  0.00     0.010 A 
ATOM     14  C   UNL     1       3.638  -3.974   0.135  1.00  0.00     0.010 A 
ATOM     15  C   UNL     1       4.977  -4.060   0.541  1.00  0.00    -0.014 A 
BRANCH  15  16
ATOM     16  C   UNL     1       5.511  -5.223   1.280  1.00  0.00     0.031 A 
ATOM     17  C   UNL     1       6.148  -6.272   0.417  1.00  0.00     0.074 A 
ATOM     18  C   UNL     1       5.606  -5.262   2.620  1.00  0.00     0.049 A 
ATOM     19  N   UNL     1       7.029  -7.176   0.734  1.00  0.00    -0.248 NA
ATOM     20  C   UNL     1       5.802  -6.230  -1.018  1.00  0.00     0.031 C 
ATOM     21  C   UNL     1       5.052  -4.279   3.547  1.00  0.00     0.029 A 
ATOM     22  N   UNL     1       6.245  -6.162   3.436  1.00  0.00    -0.354 N 
ATOM     23  C   UNL     1       7.418  -7.736  -0.475  1.00  0.00     0.074 A 
ATOM     24  C   UNL     1       6.649  -7.109  -1.523  1.00  0.00     0.031 C 
ATOM     25  C   UNL     1       5.382  -4.622   4.808  1.00  0.00     0.029 A 
ATOM     26  C   UNL     1       6.177  -5.846   4.774  1.00  0.00     0.049 A 
ATOM     27  H   UNL     1       6.709  -6.960   3.095  1.00  0.00     0.167 HD
ATOM     28  C   UNL     1       8.348  -8.690  -0.693  1.00  0.00     0.031 A 
ATOM     29  C   UNL     1       6.713  -6.481   5.837  1.00  0.00     0.031 A 
ATOM     30  C   UNL     1       8.977  -9.419   0.365  1.00  0.00     0.049 A 
ATOM     31  C   UNL     1       7.592  -7.682   5.578  1.00  0.00     0.074 A 
ATOM     32  C   UNL     1       9.812 -10.514   0.283  1.00  0.00     0.029 A 
ATOM     33  N   UNL     1       8.784  -9.148   1.712  1.00  0.00    -0.354 N 
ATOM     34  N   UNL     1       7.995  -8.174   4.428  1.00  0.00    -0.248 NA
ATOM     35  C   UNL     1       8.096  -8.406   6.753  1.00  0.00     0.031 C 
ATOM     36  C   UNL     1      10.079 -10.943   1.589  1.00  0.00     0.029 A 
ATOM     37  C   UNL     1       9.454 -10.079   2.478  1.00  0.00     0.049 A 
ATOM     38  H   UNL     1       8.248  -8.403   2.068  1.00  0.00     0.167 HD
ATOM     39  C   UNL     1       8.815  -9.253   4.742  1.00  0.00     0.074 A 
ATOM     40  C   UNL     1       8.865  -9.328   6.190  1.00  0.00     0.031 C 
ATOM     41  C   UNL     1       9.468 -10.110   3.918  1.00  0.00     0.031 A 
BRANCH  28  42
ATOM     42  C   UNL     1       8.644  -9.009  -2.125  1.00  0.00    -0.014 A 
ATOM     43  C   UNL     1       9.449  -8.145  -2.892  1.00  0.00     0.010 A 
ATOM     44  C   UNL     1       8.047 -10.123  -2.737  1.00  0.00     0.010 A 
ATOM     45  C   UNL     1       9.624  -8.373  -4.258  1.00  0.00     0.020 A 
ATOM     46  C   UNL     1       8.231 -10.361  -4.101  1.00  0.00     0.020 A 
ATOM     47  C   UNL     1       9.004  -9.474  -4.856  1.00  0.00     0.054 A 
BRANCH  47  48
ATOM     48  S   UNL     1       9.228  -9.737  -6.636  1.00  0.00     0.124 S 
ATOM     49  O   UNL     1       8.383  -8.689  -7.203  1.00  0.00    -0.237 OA
ATOM     50  O   UNL     1      10.665  -9.548  -6.811  1.00  0.00    -0.237 OA
ATOM     51  O   UNL     1       8.752 -11.102  -6.846  1.00  0.00    -0.744 OA
ENDBRANCH  47  48
ENDBRANCH  28  42
BRANCH  29  52
ATOM     52  C   UNL     1       6.424  -6.034   7.232  1.00  0.00    -0.014 A 
ATOM     53  C   UNL     1       7.437  -5.530   8.068  1.00  0.00     0.010 A 
ATOM     54  C   UNL     1       5.125  -6.177   7.756  1.00  0.00     0.010 A 
ATOM     55  C   UNL     1       7.166  -5.213   9.406  1.00  0.00     0.020 A 
ATOM     56  C   UNL     1       4.845  -5.841   9.085  1.00  0.00     0.020 A 
ATOM     57  C   UNL     1       5.872  -5.379   9.909  1.00  0.00     0.054 A 
BRANCH  57  58
ATOM     58  S   UNL     1       5.532  -4.964  11.645  1.00  0.00     0.124 S 
ATOM     59  O   UNL     1       6.076  -6.123  12.345  1.00  0.00    -0.237 OA
ATOM     60  O   UNL     1       6.266  -3.714  11.824  1.00  0.00    -0.237 OA
ATOM     61  O   UNL     1       4.077  -4.834  11.683  1.00  0.00    -0.744 OA
ENDBRANCH  57  58
ENDBRANCH  29  52
BRANCH  41  62
ATOM     62  C   UNL     1      10.293 -11.187   4.562  1.00  0.00    -0.014 A 
ATOM     63  C   UNL     1       9.681 -12.314   5.136  1.00  0.00     0.010 A 
ATOM     64  C   UNL     1      11.695 -11.109   4.509  1.00  0.00     0.010 A 
ATOM     65  C   UNL     1      10.463 -13.340   5.668  1.00  0.00     0.020 A 
ATOM     66  C   UNL     1      12.479 -12.144   5.019  1.00  0.00     0.020 A 
ATOM     67  C   UNL     1      11.857 -13.248   5.606  1.00  0.00     0.054 A 
BRANCH  67  68
ATOM     68  S   UNL     1      12.856 -14.620   6.243  1.00  0.00     0.124 S 
ATOM     69  O   UNL     1      12.828 -14.371   7.681  1.00  0.00    -0.237 OA
ATOM     70  O   UNL     1      12.114 -15.797   5.794  1.00  0.00    -0.237 OA
ATOM     71  O   UNL     1      14.153 -14.428   5.600  1.00  0.00    -0.744 OA
ENDBRANCH  67  68
ENDBRANCH  41  62
ENDBRANCH  15  16
ENDBRANCH   8  10
ENDBRANCH   7   8
ENDBRANCH   6   7
ENDBRANCH   5   6
ENDBRANCH   4   5
ENDBRANCH   3   4
ENDBRANCH   2   3
ENDBRANCH   1   2
BRANCH   1  72
ATOM     72  C   UNL     1       5.857   0.421   3.948  1.00  0.00     0.188 C 
BRANCH  72  73
ATOM     73  C   UNL     1       6.084   1.114   5.293  1.00  0.00     0.188 C 
BRANCH  73  74
ATOM     74  O   UNL     1       5.185   0.754   6.343  1.00  0.00    -0.376 OA
BRANCH  74  75
ATOM     75  C   UNL     1       3.798   1.020   6.145  1.00  0.00     0.202 C 
BRANCH  75  76
ATOM     76  C   UNL     1       3.393   2.496   6.018  1.00  0.00     0.261 C 
BRANCH  76  77
ATOM     77  O   UNL     1       4.037   3.191   4.930  1.00  0.00    -0.463 OA
BRANCH  77  78
ATOM     78  C   UNL     1       3.840   4.533   4.951  1.00  0.00     0.310 C 
ATOM     79  O   UNL     1       2.974   5.084   5.624  1.00  0.00    -0.252 OA
BRANCH  78  80
ATOM     80  C   UNL     1       4.833   5.319   4.117  1.00  0.00     0.115 C 
ATOM     81  C   UNL     1       6.294   4.872   4.304  1.00  0.00     0.043 C 
ATOM     82  C   UNL     1       4.462   5.660   2.666  1.00  0.00     0.096 C 
ATOM     83  C   UNL     1       6.875   4.093   3.167  1.00  0.00    -0.030 C 
ATOM     84  C   UNL     1       5.158   4.889   1.530  1.00  0.00     0.041 C 
ATOM     85  C   UNL     1       6.364   4.099   1.931  1.00  0.00    -0.030 C 
BRANCH  82  86
ATOM     86  C   UNL     1       3.005   6.028   2.371  1.00  0.00     0.224 C 
ATOM     87  O   UNL     1       2.738   7.227   2.198  1.00  0.00    -0.275 OA
ATOM     88  N   UNL     1       1.954   5.193   2.205  1.00  0.00    -0.351 N 
ATOM     89  H   UNL     1       1.214   5.639   1.734  1.00  0.00     0.163 HD
BRANCH  88  90
ATOM     90  C   UNL     1       1.615   3.797   2.538  1.00  0.00     0.103 C 
ATOM     91  C   UNL     1       2.554   2.778   1.944  1.00  0.00     0.048 C 
ATOM     92  C   UNL     1       0.266   3.326   1.878  1.00  0.00     0.141 C 
ATOM     93  C   UNL     1       2.119   2.770   0.481  1.00  0.00     0.119 C 
ATOM     94  N   UNL     1       0.655   2.696   0.592  1.00  0.00    -0.369 N 
BRANCH  94  95
ATOM     95  C   UNL     1       0.177   1.437   0.208  1.00  0.00     0.038 A 
ATOM     96  C   UNL     1       0.136   0.336   1.079  1.00  0.00     0.026 A 
ATOM     97  C   UNL     1      -0.107   1.206  -1.147  1.00  0.00     0.046 A 
ATOM     98  C   UNL     1      -0.145  -0.954   0.612  1.00  0.00     0.004 A 
ATOM     99  C   UNL     1      -0.410  -0.077  -1.610  1.00  0.00     0.043 A 
ATOM    100  C   UNL     1      -0.418  -1.161  -0.737  1.00  0.00     0.020 A 
ATOM    101  Cl  UNL     1      -0.761  -0.328  -3.276  1.00  0.00    -0.084 Cl
ENDBRANCH  94  95
ENDBRANCH  88  90
ENDBRANCH  82  86
ENDBRANCH  78  80
ENDBRANCH  77  78
ENDBRANCH  76  77
ENDBRANCH  75  76
ENDBRANCH  74  75
ENDBRANCH  73  74
ENDBRANCH  72  73
ENDBRANCH   1  72
TORSDOF 26
