REMARK SMILES Cc1cc(C(=O)OCCOCCOCCOCCOC(=O)c2ccc(-c3c4nc(c(-c5ccc(S(=O)(=O)[O-])cc5)c5ccc([nH]5)c(-c5ccc(S(=O)(=O)[O-])cc5)c5nc(c(-c6ccc(S(=O)(=O)[O-])cc6)c6ccc3[nH]6)C=C5)C=C4)cc2)ccc1NCCCC(=O)NC1CC1
REMARK SMILES IDX 11 1 10 2 9 3 8 4 7 5 5 6 6 7 4 8 1 9 2 10 3 11 84 12 83 13
REMARK SMILES IDX 82 14 85 15 86 17 87 18 88 19 89 20 90 21 91 22 92 24 93 25
REMARK SMILES IDX 94 26 12 27 13 28 14 29 15 30 16 31 17 32 18 33 19 34 20 35
REMARK SMILES IDX 21 36 22 37 23 38 81 39 24 40 80 41 25 42 26 43 27 44 74 45
REMARK SMILES IDX 28 46 79 47 73 48 75 49 29 50 78 51 72 52 71 53 30 55 60 56
REMARK SMILES IDX 41 57 59 58 42 59 45 60 58 61 76 62 43 63 44 64 57 66 77 67
REMARK SMILES IDX 46 68 31 69 32 70 40 71 33 72 39 73 34 74 35 75 36 76 37 77
REMARK SMILES IDX 38 78 61 79 62 80 70 81 63 82 69 83 64 84 65 85 66 86 67 87
REMARK SMILES IDX 68 88 47 89 48 90 56 91 49 92 55 93 50 94 51 95 52 96 53 97
REMARK SMILES IDX 54 98
REMARK H PARENT 85 16 91 23 75 54 45 65
REMARK Flexibility Score: inf
ROOT
ATOM      1  C   UNL     1       0.249  -2.164  -2.030  1.00  0.00     0.188 C 
ENDROOT
BRANCH   1   2
ATOM      2  O   UNL     1       0.196  -3.583  -2.104  1.00  0.00    -0.376 OA
BRANCH   2   3
ATOM      3  C   UNL     1      -0.723  -4.203  -1.206  1.00  0.00     0.202 C 
BRANCH   3   4
ATOM      4  C   UNL     1      -0.319  -4.219   0.263  1.00  0.00     0.261 C 
BRANCH   4   5
ATOM      5  O   UNL     1      -0.583  -2.935   0.814  1.00  0.00    -0.460 OA
BRANCH   5   6
ATOM      6  C   UNL     1       0.383  -2.485   1.625  1.00  0.00     0.338 C 
ATOM      7  O   UNL     1       1.242  -3.119   2.203  1.00  0.00    -0.246 OA
BRANCH   6   8
ATOM      8  C   UNL     1       0.470  -1.043   1.382  1.00  0.00     0.060 A 
ATOM      9  C   UNL     1       3.413   1.130   0.602  1.00  0.00     0.046 C 
ATOM     10  C   UNL     1       1.991   0.753   0.910  1.00  0.00    -0.027 A 
ATOM     11  C   UNL     1       1.764  -0.584   1.189  1.00  0.00     0.021 A 
ATOM     12  C   UNL     1       0.895   1.642   0.880  1.00  0.00     0.037 A 
ATOM     13  C   UNL     1      -0.406   1.135   0.876  1.00  0.00     0.027 A 
ATOM     14  C   UNL     1      -0.625  -0.210   1.152  1.00  0.00     0.018 A 
BRANCH  12  15
ATOM     15  N   UNL     1       1.165   2.990   0.898  1.00  0.00    -0.385 N 
ATOM     16  H   UNL     1       2.111   3.246   0.996  1.00  0.00     0.160 HD
BRANCH  15  17
ATOM     17  C   UNL     1       0.218   4.071   0.791  1.00  0.00     0.113 C 
BRANCH  17  18
ATOM     18  C   UNL     1       0.925   5.381   1.150  1.00  0.00     0.031 C 
BRANCH  18  19
ATOM     19  C   UNL     1       2.397   5.510   0.743  1.00  0.00     0.102 C 
BRANCH  19  20
ATOM     20  C   UNL     1       2.739   6.122  -0.594  1.00  0.00     0.220 C 
ATOM     21  O   UNL     1       3.295   7.226  -0.631  1.00  0.00    -0.275 OA
ATOM     22  N   UNL     1       2.556   5.477  -1.778  1.00  0.00    -0.353 N 
ATOM     23  H   UNL     1       3.053   5.875  -2.529  1.00  0.00     0.163 HD
BRANCH  22  24
ATOM     24  C   UNL     1       1.785   4.337  -2.138  1.00  0.00     0.082 C 
ATOM     25  C   UNL     1       2.146   3.641  -3.436  1.00  0.00     0.027 C 
ATOM     26  C   UNL     1       2.266   2.917  -2.138  1.00  0.00     0.027 C 
ENDBRANCH  22  24
ENDBRANCH  19  20
ENDBRANCH  18  19
ENDBRANCH  17  18
ENDBRANCH  15  17
ENDBRANCH  12  15
ENDBRANCH   6   8
ENDBRANCH   5   6
ENDBRANCH   4   5
ENDBRANCH   3   4
ENDBRANCH   2   3
ENDBRANCH   1   2
BRANCH   1  27
ATOM     27  C   UNL     1      -0.632  -1.365  -2.993  1.00  0.00     0.188 C 
BRANCH  27  28
ATOM     28  O   UNL     1      -1.986  -1.158  -2.614  1.00  0.00    -0.377 OA
BRANCH  28  29
ATOM     29  C   UNL     1      -2.992  -2.031  -3.145  1.00  0.00     0.188 C 
BRANCH  29  30
ATOM     30  C   UNL     1      -2.784  -2.594  -4.547  1.00  0.00     0.188 C 
BRANCH  30  31
ATOM     31  O   UNL     1      -1.871  -3.696  -4.447  1.00  0.00    -0.376 OA
BRANCH  31  32
ATOM     32  C   UNL     1      -1.150  -3.997  -5.634  1.00  0.00     0.202 C 
BRANCH  32  33
ATOM     33  C   UNL     1      -2.032  -4.425  -6.811  1.00  0.00     0.261 C 
BRANCH  33  34
ATOM     34  O   UNL     1      -2.443  -5.802  -6.689  1.00  0.00    -0.460 OA
BRANCH  34  35
ATOM     35  C   UNL     1      -3.762  -6.000  -6.400  1.00  0.00     0.338 C 
ATOM     36  O   UNL     1      -4.616  -6.194  -7.247  1.00  0.00    -0.246 OA
BRANCH  35  37
ATOM     37  C   UNL     1      -3.974  -6.125  -4.934  1.00  0.00     0.060 A 
ATOM     38  C   UNL     1      -5.208  -5.842  -4.336  1.00  0.00     0.016 A 
ATOM     39  C   UNL     1      -2.895  -6.465  -4.133  1.00  0.00     0.016 A 
ATOM     40  C   UNL     1      -5.318  -5.752  -2.933  1.00  0.00     0.010 A 
ATOM     41  C   UNL     1      -3.006  -6.343  -2.761  1.00  0.00     0.010 A 
ATOM     42  C   UNL     1      -4.191  -5.937  -2.130  1.00  0.00    -0.014 A 
BRANCH  42  43
ATOM     43  C   UNL     1      -4.057  -5.568  -0.697  1.00  0.00     0.031 A 
ATOM     44  C   UNL     1      -3.333  -6.471   0.276  1.00  0.00     0.074 A 
ATOM     45  C   UNL     1      -4.199  -4.253  -0.375  1.00  0.00     0.049 A 
ATOM     46  N   UNL     1      -3.122  -6.200   1.525  1.00  0.00    -0.248 NA
ATOM     47  C   UNL     1      -2.752  -7.772  -0.077  1.00  0.00     0.031 C 
ATOM     48  C   UNL     1      -3.521  -3.549   0.714  1.00  0.00     0.029 A 
ATOM     49  N   UNL     1      -4.949  -3.233  -0.957  1.00  0.00    -0.354 N 
ATOM     50  C   UNL     1      -2.074  -6.989   1.967  1.00  0.00     0.074 A 
ATOM     51  C   UNL     1      -1.982  -8.040   0.986  1.00  0.00     0.031 C 
ATOM     52  C   UNL     1      -3.954  -2.285   0.803  1.00  0.00     0.029 A 
ATOM     53  C   UNL     1      -5.132  -2.209  -0.024  1.00  0.00     0.049 A 
ATOM     54  H   UNL     1      -5.295  -3.234  -1.879  1.00  0.00     0.167 HD
ATOM     55  C   UNL     1      -1.286  -6.565   3.004  1.00  0.00     0.031 A 
ATOM     56  C   UNL     1      -6.348  -1.825   0.466  1.00  0.00     0.031 A 
ATOM     57  C   UNL     1      -1.810  -5.345   3.649  1.00  0.00     0.049 A 
ATOM     58  C   UNL     1      -6.423  -2.145   1.951  1.00  0.00     0.074 A 
ATOM     59  C   UNL     1      -1.256  -4.133   4.021  1.00  0.00     0.029 A 
ATOM     60  N   UNL     1      -3.179  -5.218   3.891  1.00  0.00    -0.354 N 
ATOM     61  N   UNL     1      -5.686  -3.082   2.498  1.00  0.00    -0.248 NA
ATOM     62  C   UNL     1      -7.174  -1.394   2.956  1.00  0.00     0.031 C 
ATOM     63  C   UNL     1      -2.317  -3.230   4.315  1.00  0.00     0.029 A 
ATOM     64  C   UNL     1      -3.513  -3.927   4.238  1.00  0.00     0.049 A 
ATOM     65  H   UNL     1      -3.825  -5.958   3.822  1.00  0.00     0.167 HD
ATOM     66  C   UNL     1      -5.715  -2.961   3.853  1.00  0.00     0.074 A 
ATOM     67  C   UNL     1      -6.733  -1.955   4.101  1.00  0.00     0.031 C 
ATOM     68  C   UNL     1      -4.859  -3.609   4.695  1.00  0.00     0.031 A 
BRANCH  55  69
ATOM     69  C   UNL     1       0.109  -7.121   3.338  1.00  0.00    -0.014 A 
ATOM     70  C   UNL     1       0.772  -6.698   4.515  1.00  0.00     0.010 A 
ATOM     71  C   UNL     1       0.861  -7.979   2.506  1.00  0.00     0.010 A 
ATOM     72  C   UNL     1       2.085  -7.097   4.840  1.00  0.00     0.020 A 
ATOM     73  C   UNL     1       2.160  -8.423   2.840  1.00  0.00     0.020 A 
ATOM     74  C   UNL     1       2.772  -7.970   4.003  1.00  0.00     0.054 A 
BRANCH  74  75
ATOM     75  S   UNL     1       4.442  -8.523   4.461  1.00  0.00     0.124 S 
ATOM     76  O   UNL     1       5.239  -7.311   4.290  1.00  0.00    -0.237 OA
ATOM     77  O   UNL     1       4.268  -8.970   5.841  1.00  0.00    -0.237 OA
ATOM     78  O   UNL     1       4.729  -9.590   3.503  1.00  0.00    -0.744 OA
ENDBRANCH  74  75
ENDBRANCH  55  69
BRANCH  56  79
ATOM     79  C   UNL     1      -7.401  -1.721  -0.586  1.00  0.00    -0.014 A 
ATOM     80  C   UNL     1      -7.275  -0.579  -1.413  1.00  0.00     0.010 A 
ATOM     81  C   UNL     1      -7.949  -2.892  -1.146  1.00  0.00     0.010 A 
ATOM     82  C   UNL     1      -7.406  -0.686  -2.801  1.00  0.00     0.020 A 
ATOM     83  C   UNL     1      -8.079  -3.002  -2.545  1.00  0.00     0.020 A 
ATOM     84  C   UNL     1      -7.725  -1.921  -3.362  1.00  0.00     0.054 A 
BRANCH  84  85
ATOM     85  S   UNL     1      -7.365  -2.167  -5.134  1.00  0.00     0.124 S 
ATOM     86  O   UNL     1      -8.444  -1.428  -5.778  1.00  0.00    -0.237 OA
ATOM     87  O   UNL     1      -6.029  -1.587  -5.266  1.00  0.00    -0.237 OA
ATOM     88  O   UNL     1      -7.415  -3.618  -5.283  1.00  0.00    -0.744 OA
ENDBRANCH  84  85
ENDBRANCH  56  79
BRANCH  68  89
ATOM     89  C   UNL     1      -5.215  -4.003   6.101  1.00  0.00    -0.014 A 
ATOM     90  C   UNL     1      -6.546  -4.132   6.521  1.00  0.00     0.010 A 
ATOM     91  C   UNL     1      -4.206  -4.519   6.953  1.00  0.00     0.010 A 
ATOM     92  C   UNL     1      -6.856  -4.721   7.749  1.00  0.00     0.020 A 
ATOM     93  C   UNL     1      -4.509  -5.145   8.161  1.00  0.00     0.020 A 
ATOM     94  C   UNL     1      -5.837  -5.226   8.559  1.00  0.00     0.054 A 
BRANCH  94  95
ATOM     95  S   UNL     1      -6.274  -6.054  10.103  1.00  0.00     0.124 S 
ATOM     96  O   UNL     1      -6.482  -4.918  10.998  1.00  0.00    -0.237 OA
ATOM     97  O   UNL     1      -7.481  -6.796   9.742  1.00  0.00    -0.237 OA
ATOM     98  O   UNL     1      -5.107  -6.881  10.397  1.00  0.00    -0.744 OA
ENDBRANCH  94  95
ENDBRANCH  68  89
ENDBRANCH  42  43
ENDBRANCH  35  37
ENDBRANCH  34  35
ENDBRANCH  33  34
ENDBRANCH  32  33
ENDBRANCH  31  32
ENDBRANCH  30  31
ENDBRANCH  29  30
ENDBRANCH  28  29
ENDBRANCH  27  28
ENDBRANCH   1  27
TORSDOF 29
