REMARK SMILES O=C(OCCOCCOCCOCCOC(=O)c1ccc([C@H]2Nc3ccc(Cl)cc3[C@@H]3C=CC[C@@H]23)cc1)c1ccc(-c2c3nc(c(-c4ccc(S(=O)(=O)[O-])cc4)c4ccc([nH]4)c(-c4ccc(S(=O)(=O)[O-])cc4)c4nc(c(-c5ccc(S(=O)(=O)[O-])cc5)c5ccc2[nH]5)C=C4)C=C3)cc1
REMARK SMILES IDX 8 1 7 2 6 3 5 4 4 5 3 6 2 7 1 8 38 9 39 10 97 11 40 12 96 13
REMARK SMILES IDX 41 14 42 15 43 16 90 17 44 18 95 19 89 20 91 21 45 22 94 23
REMARK SMILES IDX 88 24 87 25 46 27 76 28 57 29 75 30 58 31 61 32 74 33 92 34
REMARK SMILES IDX 59 35 60 36 73 38 93 39 62 40 47 41 48 42 56 43 49 44 55 45
REMARK SMILES IDX 50 46 51 47 52 48 53 49 54 50 77 51 78 52 86 53 79 54 85 55
REMARK SMILES IDX 80 56 81 57 82 58 83 59 84 60 63 61 64 62 72 63 65 64 71 65
REMARK SMILES IDX 66 66 67 67 68 68 69 69 70 70 9 71 10 72 11 73 12 74 13 75
REMARK SMILES IDX 14 76 15 77 16 78 17 79 18 80 19 81 37 82 20 83 36 84 21 85
REMARK SMILES IDX 22 86 23 87 35 88 24 89 31 91 34 92 25 93 30 94 32 95 33 96
REMARK SMILES IDX 26 97 29 98 27 99 28 100
REMARK H PARENT 91 26 61 37 23 90
REMARK Flexibility Score: inf
ROOT
ATOM      1  C   UNL     1       1.939  -1.730  -2.292  1.00  0.00     0.188 C 
ENDROOT
BRANCH   1   2
ATOM      2  C   UNL     1       2.411  -1.390  -0.879  1.00  0.00     0.188 C 
BRANCH   2   3
ATOM      3  O   UNL     1       3.742  -0.884  -0.878  1.00  0.00    -0.376 OA
BRANCH   3   4
ATOM      4  C   UNL     1       4.607  -1.279   0.182  1.00  0.00     0.202 C 
BRANCH   4   5
ATOM      5  C   UNL     1       4.222  -0.810   1.586  1.00  0.00     0.261 C 
BRANCH   5   6
ATOM      6  O   UNL     1       2.841  -0.446   1.732  1.00  0.00    -0.460 OA
BRANCH   6   7
ATOM      7  C   UNL     1       2.248   0.752   1.506  1.00  0.00     0.338 C 
ATOM      8  O   UNL     1       1.053   0.869   1.776  1.00  0.00    -0.246 OA
BRANCH   7   9
ATOM      9  C   UNL     1       2.950   1.941   0.940  1.00  0.00     0.060 A 
ATOM     10  C   UNL     1       4.026   1.892   0.057  1.00  0.00     0.016 A 
ATOM     11  C   UNL     1       2.420   3.203   1.249  1.00  0.00     0.016 A 
ATOM     12  C   UNL     1       4.632   3.033  -0.431  1.00  0.00     0.010 A 
ATOM     13  C   UNL     1       2.996   4.367   0.732  1.00  0.00     0.010 A 
ATOM     14  C   UNL     1       4.132   4.277  -0.080  1.00  0.00    -0.014 A 
BRANCH  14  15
ATOM     15  C   UNL     1       4.962   5.443  -0.408  1.00  0.00     0.031 A 
ATOM     16  C   UNL     1       5.737   6.065   0.712  1.00  0.00     0.074 A 
ATOM     17  C   UNL     1       5.139   5.802  -1.692  1.00  0.00     0.049 A 
ATOM     18  N   UNL     1       6.480   7.133   0.709  1.00  0.00    -0.248 NA
ATOM     19  C   UNL     1       5.674   5.377   2.017  1.00  0.00     0.031 C 
ATOM     20  C   UNL     1       4.557   5.117  -2.852  1.00  0.00     0.029 A 
ATOM     21  N   UNL     1       5.888   6.805  -2.240  1.00  0.00    -0.354 N 
ATOM     22  C   UNL     1       6.929   7.275   2.016  1.00  0.00     0.074 A 
ATOM     23  C   UNL     1       6.380   6.187   2.788  1.00  0.00     0.031 C 
ATOM     24  C   UNL     1       4.986   5.715  -3.975  1.00  0.00     0.029 A 
ATOM     25  C   UNL     1       5.796   6.870  -3.610  1.00  0.00     0.049 A 
ATOM     26  H   UNL     1       6.440   7.421  -1.706  1.00  0.00     0.167 HD
ATOM     27  C   UNL     1       7.723   8.246   2.518  1.00  0.00     0.031 A 
ATOM     28  C   UNL     1       6.277   7.798  -4.458  1.00  0.00     0.031 A 
ATOM     29  C   UNL     1       8.240   9.312   1.707  1.00  0.00     0.049 A 
ATOM     30  C   UNL     1       7.052   8.941  -3.858  1.00  0.00     0.074 A 
ATOM     31  C   UNL     1       8.993  10.404   2.087  1.00  0.00     0.029 A 
ATOM     32  N   UNL     1       8.049   9.407   0.333  1.00  0.00    -0.354 N 
ATOM     33  N   UNL     1       7.396   9.131  -2.603  1.00  0.00    -0.248 NA
ATOM     34  C   UNL     1       7.490   9.998  -4.774  1.00  0.00     0.031 C 
ATOM     35  C   UNL     1       9.205  11.192   0.951  1.00  0.00     0.029 A 
ATOM     36  C   UNL     1       8.649  10.553  -0.149  1.00  0.00     0.049 A 
ATOM     37  H   UNL     1       7.557   8.753  -0.216  1.00  0.00     0.167 HD
ATOM     38  C   UNL     1       8.111  10.320  -2.581  1.00  0.00     0.074 A 
ATOM     39  C   UNL     1       8.165  10.792  -3.953  1.00  0.00     0.031 C 
ATOM     40  C   UNL     1       8.674  10.970  -1.531  1.00  0.00     0.031 A 
BRANCH  27  41
ATOM     41  C   UNL     1       7.968   8.236   4.001  1.00  0.00    -0.014 A 
ATOM     42  C   UNL     1       8.764   7.253   4.618  1.00  0.00     0.010 A 
ATOM     43  C   UNL     1       7.349   9.213   4.802  1.00  0.00     0.010 A 
ATOM     44  C   UNL     1       8.899   7.223   6.010  1.00  0.00     0.020 A 
ATOM     45  C   UNL     1       7.506   9.205   6.190  1.00  0.00     0.020 A 
ATOM     46  C   UNL     1       8.267   8.199   6.787  1.00  0.00     0.054 A 
BRANCH  46  47
ATOM     47  S   UNL     1       8.468   8.144   8.589  1.00  0.00     0.124 S 
ATOM     48  O   UNL     1       7.673   6.972   8.946  1.00  0.00    -0.237 OA
ATOM     49  O   UNL     1       9.913   7.993   8.743  1.00  0.00    -0.237 OA
ATOM     50  O   UNL     1       7.926   9.424   9.038  1.00  0.00    -0.744 OA
ENDBRANCH  46  47
ENDBRANCH  27  41
BRANCH  28  51
ATOM     51  C   UNL     1       5.972   7.724  -5.915  1.00  0.00    -0.014 A 
ATOM     52  C   UNL     1       6.992   7.554  -6.866  1.00  0.00     0.010 A 
ATOM     53  C   UNL     1       4.639   7.823  -6.363  1.00  0.00     0.010 A 
ATOM     54  C   UNL     1       6.689   7.504  -8.232  1.00  0.00     0.020 A 
ATOM     55  C   UNL     1       4.328   7.740  -7.723  1.00  0.00     0.020 A 
ATOM     56  C   UNL     1       5.358   7.595  -8.652  1.00  0.00     0.054 A 
BRANCH  56  57
ATOM     57  S   UNL     1       4.987   7.498 -10.425  1.00  0.00     0.124 S 
ATOM     58  O   UNL     1       5.507   8.770 -10.915  1.00  0.00    -0.237 OA
ATOM     59  O   UNL     1       5.729   6.309 -10.837  1.00  0.00    -0.237 OA
ATOM     60  O   UNL     1       3.532   7.360 -10.464  1.00  0.00    -0.744 OA
ENDBRANCH  56  57
ENDBRANCH  28  51
BRANCH  40  61
ATOM     61  C   UNL     1       9.431  12.229  -1.840  1.00  0.00    -0.014 A 
ATOM     62  C   UNL     1       8.763  13.413  -2.196  1.00  0.00     0.010 A 
ATOM     63  C   UNL     1      10.830  12.237  -1.694  1.00  0.00     0.010 A 
ATOM     64  C   UNL     1       9.489  14.581  -2.429  1.00  0.00     0.020 A 
ATOM     65  C   UNL     1      11.554  13.411  -1.892  1.00  0.00     0.020 A 
ATOM     66  C   UNL     1      10.880  14.573  -2.271  1.00  0.00     0.054 A 
BRANCH  66  67
ATOM     67  S   UNL     1      11.792  16.117  -2.522  1.00  0.00     0.124 S 
ATOM     68  O   UNL     1      11.729  16.273  -3.973  1.00  0.00    -0.237 OA
ATOM     69  O   UNL     1      11.008  17.079  -1.751  1.00  0.00    -0.237 OA
ATOM     70  O   UNL     1      13.118  15.828  -1.983  1.00  0.00    -0.744 OA
ENDBRANCH  66  67
ENDBRANCH  40  61
ENDBRANCH  14  15
ENDBRANCH   7   9
ENDBRANCH   6   7
ENDBRANCH   5   6
ENDBRANCH   4   5
ENDBRANCH   3   4
ENDBRANCH   2   3
ENDBRANCH   1   2
BRANCH   1  71
ATOM     71  O   UNL     1       2.639  -2.792  -2.939  1.00  0.00    -0.377 OA
BRANCH  71  72
ATOM     72  C   UNL     1       4.064  -2.758  -2.864  1.00  0.00     0.188 C 
BRANCH  72  73
ATOM     73  C   UNL     1       4.811  -1.516  -3.411  1.00  0.00     0.188 C 
BRANCH  73  74
ATOM     74  O   UNL     1       3.954  -0.456  -3.792  1.00  0.00    -0.376 OA
BRANCH  74  75
ATOM     75  C   UNL     1       3.709  -0.311  -5.184  1.00  0.00     0.202 C 
BRANCH  75  76
ATOM     76  C   UNL     1       3.188  -1.524  -5.985  1.00  0.00     0.261 C 
BRANCH  76  77
ATOM     77  O   UNL     1       3.811  -2.805  -5.737  1.00  0.00    -0.460 OA
BRANCH  77  78
ATOM     78  C   UNL     1       5.019  -3.079  -6.298  1.00  0.00     0.338 C 
ATOM     79  O   UNL     1       5.645  -2.373  -7.049  1.00  0.00    -0.246 OA
BRANCH  78  80
ATOM     80  C   UNL     1       5.550  -4.327  -5.662  1.00  0.00     0.060 A 
ATOM     81  C   UNL     1       6.737  -4.269  -4.916  1.00  0.00     0.016 A 
ATOM     82  C   UNL     1       4.835  -5.523  -5.701  1.00  0.00     0.016 A 
ATOM     83  C   UNL     1       7.153  -5.366  -4.134  1.00  0.00     0.007 A 
ATOM     84  C   UNL     1       5.290  -6.633  -4.969  1.00  0.00     0.007 A 
ATOM     85  C   UNL     1       6.407  -6.555  -4.108  1.00  0.00    -0.025 A 
BRANCH  85  86
ATOM     86  C   UNL     1       6.627  -7.685  -3.088  1.00  0.00     0.114 C 
ATOM     87  N   UNL     1       8.006  -7.755  -2.521  1.00  0.00    -0.378 N 
ATOM     88  C   UNL     1       5.638  -7.608  -1.905  1.00  0.00     0.031 C 
ATOM     89  C   UNL     1       8.214  -7.754  -1.130  1.00  0.00     0.038 A 
ATOM     90  H   UNL     1       8.780  -7.803  -3.128  1.00  0.00     0.161 HD
ATOM     91  C   UNL     1       6.130  -6.465  -0.999  1.00  0.00     0.049 C 
ATOM     92  C   UNL     1       4.128  -7.450  -2.042  1.00  0.00     0.034 C 
ATOM     93  C   UNL     1       9.233  -8.504  -0.538  1.00  0.00     0.027 A 
ATOM     94  C   UNL     1       7.277  -7.106  -0.276  1.00  0.00    -0.016 A 
ATOM     95  C   UNL     1       4.887  -6.011  -0.325  1.00  0.00    -0.023 C 
ATOM     96  C   UNL     1       3.799  -6.490  -0.940  1.00  0.00    -0.030 C 
ATOM     97  C   UNL     1       9.309  -8.620   0.860  1.00  0.00     0.022 A 
ATOM     98  C   UNL     1       7.376  -7.189   1.116  1.00  0.00     0.027 A 
ATOM     99  C   UNL     1       8.386  -7.962   1.676  1.00  0.00     0.041 A 
ATOM    100  Cl  UNL     1       8.460  -8.155   3.386  1.00  0.00    -0.084 Cl
ENDBRANCH  85  86
ENDBRANCH  78  80
ENDBRANCH  77  78
ENDBRANCH  76  77
ENDBRANCH  75  76
ENDBRANCH  74  75
ENDBRANCH  73  74
ENDBRANCH  72  73
ENDBRANCH  71  72
ENDBRANCH   1  71
TORSDOF 24
