REMARK SMILES C[N@H+]1CCO[C@H](c2noc(-c3ccccc3C(=O)OCCOCCOCCOCCOC(=O)c3ccc(-c4c5nc(c(-c6ccc(S(=O)(=O)[O-])cc6)c6ccc([nH]6)c(-c6ccc(S(=O)(=O)[O-])cc6)c6nc(c(-c7ccc(S(=O)(=O)[O-])cc7)c7ccc4[nH]7)C=C6)C=C5)cc3)n2)C1
REMARK SMILES IDX 26 1 25 2 24 3 23 4 22 5 21 6 20 7 19 8 17 9 18 10 16 11
REMARK SMILES IDX 11 12 12 13 13 14 15 15 14 16 10 17 7 18 8 19 94 20 9 21
REMARK SMILES IDX 6 22 1 23 2 24 3 25 95 26 4 28 5 29 27 30 28 31 29 32 30 33
REMARK SMILES IDX 31 34 32 35 33 36 34 37 35 38 93 39 36 40 92 41 37 42 38 43
REMARK SMILES IDX 39 44 86 45 40 46 91 47 85 48 87 49 41 50 90 51 84 52 83 53
REMARK SMILES IDX 42 55 72 56 53 57 71 58 54 59 57 60 70 61 88 62 55 63 56 64
REMARK SMILES IDX 69 66 89 67 58 68 43 69 44 70 52 71 45 72 51 73 46 74 47 75
REMARK SMILES IDX 48 76 49 77 50 78 73 79 74 80 82 81 75 82 81 83 76 84 77 85
REMARK SMILES IDX 78 86 79 87 80 88 59 89 60 90 68 91 61 92 67 93 62 94 63 95
REMARK SMILES IDX 64 96 65 97 66 98
REMARK H PARENT 2 27 87 54 57 65
REMARK Flexibility Score: inf
ROOT
ATOM      1  C   UNL     1      -3.867   1.973  -4.638  1.00  0.00     0.188 C 
ENDROOT
BRANCH   1   2
ATOM      2  O   UNL     1      -3.704   0.576  -4.872  1.00  0.00    -0.377 OA
BRANCH   2   3
ATOM      3  C   UNL     1      -4.826  -0.255  -5.106  1.00  0.00     0.188 C 
BRANCH   3   4
ATOM      4  C   UNL     1      -5.898  -0.372  -4.000  1.00  0.00     0.188 C 
BRANCH   4   5
ATOM      5  O   UNL     1      -5.950   0.726  -3.110  1.00  0.00    -0.376 OA
BRANCH   5   6
ATOM      6  C   UNL     1      -5.339   0.639  -1.835  1.00  0.00     0.202 C 
BRANCH   6   7
ATOM      7  C   UNL     1      -3.978  -0.040  -1.628  1.00  0.00     0.261 C 
BRANCH   7   8
ATOM      8  O   UNL     1      -3.643  -1.056  -2.575  1.00  0.00    -0.460 OA
BRANCH   8   9
ATOM      9  C   UNL     1      -3.878  -2.345  -2.264  1.00  0.00     0.339 C 
ATOM     10  O   UNL     1      -4.428  -2.759  -1.258  1.00  0.00    -0.246 OA
BRANCH   9  11
ATOM     11  C   UNL     1      -3.603  -3.189  -3.464  1.00  0.00     0.072 A 
ATOM     12  C   UNL     1      -2.451  -3.080  -4.271  1.00  0.00     0.054 A 
ATOM     13  C   UNL     1      -2.320  -3.926  -5.387  1.00  0.00     0.015 A 
ATOM     14  C   UNL     1      -3.337  -4.821  -5.727  1.00  0.00     0.001 A 
ATOM     15  C   UNL     1      -4.627  -4.078  -3.828  1.00  0.00     0.016 A 
ATOM     16  C   UNL     1      -4.499  -4.879  -4.963  1.00  0.00     0.001 A 
BRANCH  12  17
ATOM     17  C   UNL     1      -1.426  -2.097  -3.990  1.00  0.00     0.258 A 
ATOM     18  C   UNL     1      -0.306  -0.541  -3.171  1.00  0.00     0.206 A 
ATOM     19  N   UNL     1      -0.159  -0.350  -4.492  1.00  0.00    -0.059 NA
ATOM     20  N   UNL     1      -0.990  -1.681  -2.830  1.00  0.00    -0.189 NA
ATOM     21  O   UNL     1      -0.933  -1.381  -5.045  1.00  0.00    -0.334 OA
BRANCH  18  22
ATOM     22  C   UNL     1       0.244   0.372  -2.123  1.00  0.00     0.245 C 
ATOM     23  C   UNL     1       1.670   0.420   0.691  1.00  0.00     0.332 C 
ATOM     24  N   UNL     1       0.271   0.761   0.412  1.00  0.00    -0.333 N 
ATOM     25  C   UNL     1       0.085   2.186   0.090  1.00  0.00     0.290 C 
ATOM     26  C   UNL     1      -0.244  -0.060  -0.706  1.00  0.00     0.303 C 
ATOM     27  H   UNL     1      -0.250   0.565   1.267  1.00  0.00     0.348 HD
ATOM     28  C   UNL     1       0.496   2.565  -1.335  1.00  0.00     0.222 C 
ATOM     29  O   UNL     1      -0.144   1.752  -2.327  1.00  0.00    -0.358 OA
ENDBRANCH  18  22
ENDBRANCH  12  17
ENDBRANCH   9  11
ENDBRANCH   8   9
ENDBRANCH   7   8
ENDBRANCH   6   7
ENDBRANCH   5   6
ENDBRANCH   4   5
ENDBRANCH   3   4
ENDBRANCH   2   3
ENDBRANCH   1   2
BRANCH   1  30
ATOM     30  C   UNL     1      -5.208   2.708  -4.872  1.00  0.00     0.188 C 
BRANCH  30  31
ATOM     31  O   UNL     1      -6.171   1.983  -5.617  1.00  0.00    -0.376 OA
BRANCH  31  32
ATOM     32  C   UNL     1      -6.400   2.351  -6.963  1.00  0.00     0.202 C 
BRANCH  32  33
ATOM     33  C   UNL     1      -5.218   2.266  -7.939  1.00  0.00     0.261 C 
BRANCH  33  34
ATOM     34  O   UNL     1      -4.023   2.958  -7.554  1.00  0.00    -0.460 OA
BRANCH  34  35
ATOM     35  C   UNL     1      -4.085   4.303  -7.481  1.00  0.00     0.338 C 
ATOM     36  O   UNL     1      -5.063   5.006  -7.700  1.00  0.00    -0.246 OA
BRANCH  35  37
ATOM     37  C   UNL     1      -2.807   4.789  -6.929  1.00  0.00     0.060 A 
ATOM     38  C   UNL     1      -2.799   5.462  -5.700  1.00  0.00     0.016 A 
ATOM     39  C   UNL     1      -1.618   4.588  -7.633  1.00  0.00     0.016 A 
ATOM     40  C   UNL     1      -1.601   5.971  -5.192  1.00  0.00     0.010 A 
ATOM     41  C   UNL     1      -0.425   5.115  -7.133  1.00  0.00     0.010 A 
ATOM     42  C   UNL     1      -0.415   5.840  -5.928  1.00  0.00    -0.014 A 
BRANCH  42  43
ATOM     43  C   UNL     1       0.793   6.606  -5.531  1.00  0.00     0.031 A 
ATOM     44  C   UNL     1       1.093   7.896  -6.238  1.00  0.00     0.074 A 
ATOM     45  C   UNL     1       1.618   6.174  -4.561  1.00  0.00     0.049 A 
ATOM     46  N   UNL     1       2.115   8.695  -6.087  1.00  0.00    -0.248 NA
ATOM     47  C   UNL     1       0.123   8.337  -7.254  1.00  0.00     0.031 C 
ATOM     48  C   UNL     1       1.436   4.945  -3.800  1.00  0.00     0.029 A 
ATOM     49  N   UNL     1       2.779   6.716  -4.057  1.00  0.00    -0.354 N 
ATOM     50  C   UNL     1       1.930   9.718  -7.006  1.00  0.00     0.074 A 
ATOM     51  C   UNL     1       0.702   9.435  -7.717  1.00  0.00     0.031 C 
ATOM     52  C   UNL     1       2.450   4.833  -2.926  1.00  0.00     0.029 A 
ATOM     53  C   UNL     1       3.367   5.949  -3.080  1.00  0.00     0.049 A 
ATOM     54  H   UNL     1       3.152   7.572  -4.367  1.00  0.00     0.167 HD
ATOM     55  C   UNL     1       2.719  10.791  -7.239  1.00  0.00     0.031 A 
ATOM     56  C   UNL     1       4.519   6.092  -2.394  1.00  0.00     0.031 A 
ATOM     57  C   UNL     1       3.942  11.068  -6.533  1.00  0.00     0.049 A 
ATOM     58  C   UNL     1       5.391   7.277  -2.694  1.00  0.00     0.074 A 
ATOM     59  C   UNL     1       4.787  12.153  -6.684  1.00  0.00     0.029 A 
ATOM     60  N   UNL     1       4.500  10.260  -5.555  1.00  0.00    -0.354 N 
ATOM     61  N   UNL     1       5.177   8.256  -3.539  1.00  0.00    -0.248 NA
ATOM     62  C   UNL     1       6.658   7.379  -1.958  1.00  0.00     0.031 C 
ATOM     63  C   UNL     1       5.891  11.967  -5.848  1.00  0.00     0.029 A 
ATOM     64  C   UNL     1       5.695  10.807  -5.118  1.00  0.00     0.049 A 
ATOM     65  H   UNL     1       4.105   9.422  -5.221  1.00  0.00     0.167 HD
ATOM     66  C   UNL     1       6.272   9.101  -3.420  1.00  0.00     0.074 A 
ATOM     67  C   UNL     1       7.132   8.535  -2.401  1.00  0.00     0.031 C 
ATOM     68  C   UNL     1       6.543  10.240  -4.101  1.00  0.00     0.031 A 
BRANCH  55  69
ATOM     69  C   UNL     1       2.311  11.734  -8.336  1.00  0.00    -0.014 A 
ATOM     70  C   UNL     1       1.220  12.606  -8.184  1.00  0.00     0.010 A 
ATOM     71  C   UNL     1       3.091  11.804  -9.505  1.00  0.00     0.010 A 
ATOM     72  C   UNL     1       0.913  13.530  -9.186  1.00  0.00     0.020 A 
ATOM     73  C   UNL     1       2.805  12.745 -10.495  1.00  0.00     0.020 A 
ATOM     74  C   UNL     1       1.714  13.600 -10.330  1.00  0.00     0.054 A 
BRANCH  74  75
ATOM     75  S   UNL     1       1.341  14.866 -11.574  1.00  0.00     0.124 S 
ATOM     76  O   UNL     1       0.090  14.371 -12.143  1.00  0.00    -0.237 OA
ATOM     77  O   UNL     1       1.229  16.078 -10.768  1.00  0.00    -0.237 OA
ATOM     78  O   UNL     1       2.493  14.822 -12.471  1.00  0.00    -0.744 OA
ENDBRANCH  74  75
ENDBRANCH  55  69
BRANCH  56  79
ATOM     79  C   UNL     1       4.946   5.073  -1.387  1.00  0.00    -0.014 A 
ATOM     80  C   UNL     1       5.077   5.408  -0.026  1.00  0.00     0.010 A 
ATOM     81  C   UNL     1       5.262   3.763  -1.794  1.00  0.00     0.010 A 
ATOM     82  C   UNL     1       5.550   4.467   0.896  1.00  0.00     0.020 A 
ATOM     83  C   UNL     1       5.694   2.808  -0.869  1.00  0.00     0.020 A 
ATOM     84  C   UNL     1       5.857   3.173   0.467  1.00  0.00     0.054 A 
BRANCH  84  85
ATOM     85  S   UNL     1       6.449   1.960   1.679  1.00  0.00     0.124 S 
ATOM     86  O   UNL     1       7.814   2.415   1.922  1.00  0.00    -0.237 OA
ATOM     87  O   UNL     1       5.511   2.139   2.785  1.00  0.00    -0.237 OA
ATOM     88  O   UNL     1       6.325   0.688   0.971  1.00  0.00    -0.744 OA
ENDBRANCH  84  85
ENDBRANCH  56  79
BRANCH  68  89
ATOM     89  C   UNL     1       7.800  10.980  -3.736  1.00  0.00    -0.014 A 
ATOM     90  C   UNL     1       9.071  10.468  -4.049  1.00  0.00     0.010 A 
ATOM     91  C   UNL     1       7.700  12.233  -3.104  1.00  0.00     0.010 A 
ATOM     92  C   UNL     1      10.222  11.180  -3.704  1.00  0.00     0.020 A 
ATOM     93  C   UNL     1       8.847  12.964  -2.789  1.00  0.00     0.020 A 
ATOM     94  C   UNL     1      10.102  12.425  -3.077  1.00  0.00     0.054 A 
BRANCH  94  95
ATOM     95  S   UNL     1      11.610  13.348  -2.678  1.00  0.00     0.124 S 
ATOM     96  O   UNL     1      12.159  12.569  -1.571  1.00  0.00    -0.237 OA
ATOM     97  O   UNL     1      12.364  13.283  -3.928  1.00  0.00    -0.237 OA
ATOM     98  O   UNL     1      11.120  14.677  -2.320  1.00  0.00    -0.744 OA
ENDBRANCH  94  95
ENDBRANCH  68  89
ENDBRANCH  42  43
ENDBRANCH  35  37
ENDBRANCH  34  35
ENDBRANCH  33  34
ENDBRANCH  32  33
ENDBRANCH  31  32
ENDBRANCH  30  31
ENDBRANCH   1  30
TORSDOF 25
