REMARK SMILES Cc1ccccc1NC(=O)CSc1nc(C(=O)OCCOCCOCCOCCOC(=O)c2ccc(-c3c4nc(c(-c5ccc(S(=O)(=O)[O-])cc5)c5ccc([nH]5)c(-c5ccc(S(=O)(=O)[O-])cc5)c5nc(c(-c6ccc(S(=O)(=O)[O-])cc6)c6ccc3[nH]6)C=C5)C=C4)cc2)c2ccccc2n1
REMARK SMILES IDX 23 1 22 2 21 3 20 4 19 5 18 6 16 7 17 8 15 9 13 10 14 11
REMARK SMILES IDX 99 12 98 13 93 14 97 15 94 16 96 17 95 18 12 19 11 20 9 21
REMARK SMILES IDX 8 22 10 24 7 25 1 26 2 27 3 28 4 29 6 30 5 31 24 32 25 33
REMARK SMILES IDX 26 34 27 35 28 36 29 37 30 38 31 39 32 40 33 41 34 42 92 43
REMARK SMILES IDX 35 44 91 45 36 46 37 47 38 48 85 49 39 50 90 51 84 52 86 53
REMARK SMILES IDX 40 54 89 55 83 56 82 57 41 59 71 60 52 61 70 62 53 63 56 64
REMARK SMILES IDX 69 65 87 66 54 67 55 68 68 70 88 71 57 72 42 73 43 74 51 75
REMARK SMILES IDX 44 76 50 77 45 78 46 79 47 80 48 81 49 82 72 83 73 84 81 85
REMARK SMILES IDX 74 86 80 87 75 88 76 89 77 90 78 91 79 92 58 93 59 94 67 95
REMARK SMILES IDX 60 96 66 97 61 98 62 99 63 100 64 101 65 102
REMARK H PARENT 8 23 86 58 56 69
REMARK Flexibility Score: inf
ROOT
ATOM      1  C   UNL     1      -3.958   4.887  -4.892  1.00  0.00     0.188 C 
ENDROOT
BRANCH   1   2
ATOM      2  C   UNL     1      -3.692   5.147  -3.406  1.00  0.00     0.188 C 
BRANCH   2   3
ATOM      3  O   UNL     1      -4.086   6.404  -2.873  1.00  0.00    -0.376 OA
BRANCH   3   4
ATOM      4  C   UNL     1      -3.130   7.461  -2.978  1.00  0.00     0.202 C 
BRANCH   4   5
ATOM      5  C   UNL     1      -1.761   7.161  -2.374  1.00  0.00     0.261 C 
BRANCH   5   6
ATOM      6  O   UNL     1      -1.009   6.351  -3.299  1.00  0.00    -0.458 OA
BRANCH   6   7
ATOM      7  C   UNL     1      -0.005   5.658  -2.723  1.00  0.00     0.357 C 
ATOM      8  O   UNL     1       0.522   5.895  -1.654  1.00  0.00    -0.244 OA
BRANCH   7   9
ATOM      9  C   UNL     1       0.025   4.288  -3.282  1.00  0.00     0.160 A 
ATOM     10  C   UNL     1      -0.628   2.295  -2.505  1.00  0.00     0.189 A 
ATOM     11  N   UNL     1      -0.039   3.435  -2.257  1.00  0.00    -0.215 NA
ATOM     12  N   UNL     1      -0.632   1.724  -3.711  1.00  0.00    -0.222 NA
ATOM     13  C   UNL     1      -0.273   2.502  -4.744  1.00  0.00     0.076 A 
ATOM     14  C   UNL     1      -0.094   3.881  -4.605  1.00  0.00     0.034 A 
ATOM     15  C   UNL     1      -0.166   1.950  -6.015  1.00  0.00     0.029 A 
ATOM     16  C   UNL     1      -0.065   4.691  -5.757  1.00  0.00     0.013 A 
ATOM     17  C   UNL     1      -0.012   2.747  -7.153  1.00  0.00     0.002 A 
ATOM     18  C   UNL     1      -0.026   4.128  -7.027  1.00  0.00     0.001 A 
BRANCH  10  19
ATOM     19  S   UNL     1      -1.975   1.984  -1.391  1.00  0.00    -0.076 SA
BRANCH  19  20
ATOM     20  C   UNL     1      -1.568   3.186  -0.027  1.00  0.00     0.178 C 
BRANCH  20  21
ATOM     21  C   UNL     1      -0.142   3.138   0.535  1.00  0.00     0.234 C 
ATOM     22  N   UNL     1       0.578   1.986   0.685  1.00  0.00    -0.325 N 
ATOM     23  H   UNL     1       1.540   2.119   0.849  1.00  0.00     0.169 HD
ATOM     24  O   UNL     1       0.418   4.176   0.907  1.00  0.00    -0.274 OA
BRANCH  22  25
ATOM     25  C   UNL     1       0.171   0.648   0.644  1.00  0.00     0.044 A 
ATOM     26  C   UNL     1       2.505  -0.119  -0.110  1.00  0.00     0.046 C 
ATOM     27  C   UNL     1       1.046  -0.346   0.178  1.00  0.00    -0.027 A 
ATOM     28  C   UNL     1       0.533  -1.639  -0.035  1.00  0.00     0.005 A 
ATOM     29  C   UNL     1      -0.805  -1.939   0.224  1.00  0.00     0.000 A 
ATOM     30  C   UNL     1      -1.127   0.295   1.035  1.00  0.00     0.026 A 
ATOM     31  C   UNL     1      -1.631  -0.977   0.784  1.00  0.00     0.002 A 
ENDBRANCH  22  25
ENDBRANCH  20  21
ENDBRANCH  19  20
ENDBRANCH  10  19
ENDBRANCH   7   9
ENDBRANCH   6   7
ENDBRANCH   5   6
ENDBRANCH   4   5
ENDBRANCH   3   4
ENDBRANCH   2   3
ENDBRANCH   1   2
BRANCH   1  32
ATOM     32  O   UNL     1      -3.125   5.553  -5.828  1.00  0.00    -0.377 OA
BRANCH  32  33
ATOM     33  C   UNL     1      -3.629   6.699  -6.531  1.00  0.00     0.188 C 
BRANCH  33  34
ATOM     34  C   UNL     1      -5.142   6.854  -6.694  1.00  0.00     0.188 C 
BRANCH  34  35
ATOM     35  O   UNL     1      -5.697   7.264  -5.439  1.00  0.00    -0.376 OA
BRANCH  35  36
ATOM     36  C   UNL     1      -7.037   6.859  -5.184  1.00  0.00     0.202 C 
BRANCH  36  37
ATOM     37  C   UNL     1      -8.069   7.383  -6.189  1.00  0.00     0.261 C 
BRANCH  37  38
ATOM     38  O   UNL     1      -8.434   8.754  -5.925  1.00  0.00    -0.460 OA
BRANCH  38  39
ATOM     39  C   UNL     1      -7.945   9.672  -6.810  1.00  0.00     0.338 C 
ATOM     40  O   UNL     1      -8.535  10.023  -7.812  1.00  0.00    -0.246 OA
BRANCH  39  41
ATOM     41  C   UNL     1      -6.657  10.238  -6.325  1.00  0.00     0.060 A 
ATOM     42  C   UNL     1      -5.730  10.814  -7.205  1.00  0.00     0.016 A 
ATOM     43  C   UNL     1      -6.311  10.051  -4.996  1.00  0.00     0.016 A 
ATOM     44  C   UNL     1      -4.409  11.065  -6.784  1.00  0.00     0.010 A 
ATOM     45  C   UNL     1      -4.994  10.205  -4.620  1.00  0.00     0.010 A 
ATOM     46  C   UNL     1      -4.013  10.703  -5.495  1.00  0.00    -0.014 A 
BRANCH  46  47
ATOM     47  C   UNL     1      -2.632  10.617  -4.968  1.00  0.00     0.031 A 
ATOM     48  C   UNL     1      -2.365  11.009  -3.526  1.00  0.00     0.074 A 
ATOM     49  C   UNL     1      -1.746   9.812  -5.606  1.00  0.00     0.049 A 
ATOM     50  N   UNL     1      -1.308  10.712  -2.844  1.00  0.00    -0.248 NA
ATOM     51  C   UNL     1      -3.315  11.771  -2.709  1.00  0.00     0.031 C 
ATOM     52  C   UNL     1      -0.749   8.992  -4.923  1.00  0.00     0.029 A 
ATOM     53  N   UNL     1      -1.567   9.425  -6.924  1.00  0.00    -0.354 N 
ATOM     54  C   UNL     1      -1.556  10.921  -1.501  1.00  0.00     0.074 A 
ATOM     55  C   UNL     1      -2.798  11.649  -1.479  1.00  0.00     0.031 C 
ATOM     56  C   UNL     1      -0.037   8.279  -5.796  1.00  0.00     0.029 A 
ATOM     57  C   UNL     1      -0.304   8.844  -7.084  1.00  0.00     0.049 A 
ATOM     58  H   UNL     1      -2.231   9.541  -7.642  1.00  0.00     0.167 HD
ATOM     59  C   UNL     1      -0.738  10.356  -0.559  1.00  0.00     0.031 A 
ATOM     60  C   UNL     1       0.723   9.397  -7.799  1.00  0.00     0.031 A 
ATOM     61  C   UNL     1       0.485   9.784  -1.157  1.00  0.00     0.049 A 
ATOM     62  C   UNL     1       1.902   9.786  -6.899  1.00  0.00     0.074 A 
ATOM     63  C   UNL     1       1.141   8.575  -1.032  1.00  0.00     0.029 A 
ATOM     64  N   UNL     1       1.169  10.470  -2.168  1.00  0.00    -0.354 N 
ATOM     65  N   UNL     1       1.753  10.091  -5.627  1.00  0.00    -0.248 NA
ATOM     66  C   UNL     1       3.315   9.713  -7.266  1.00  0.00     0.031 C 
ATOM     67  C   UNL     1       2.101   8.472  -2.076  1.00  0.00     0.029 A 
ATOM     68  C   UNL     1       2.131   9.678  -2.759  1.00  0.00     0.049 A 
ATOM     69  H   UNL     1       0.986  11.403  -2.425  1.00  0.00     0.167 HD
ATOM     70  C   UNL     1       2.970  10.132  -5.000  1.00  0.00     0.074 A 
ATOM     71  C   UNL     1       3.922   9.944  -6.083  1.00  0.00     0.031 C 
ATOM     72  C   UNL     1       3.142  10.241  -3.646  1.00  0.00     0.031 A 
BRANCH  59  73
ATOM     73  C   UNL     1      -1.106  10.138   0.922  1.00  0.00    -0.014 A 
ATOM     74  C   UNL     1      -0.193   9.496   1.795  1.00  0.00     0.010 A 
ATOM     75  C   UNL     1      -2.353  10.447   1.506  1.00  0.00     0.010 A 
ATOM     76  C   UNL     1      -0.501   9.164   3.131  1.00  0.00     0.020 A 
ATOM     77  C   UNL     1      -2.663  10.162   2.856  1.00  0.00     0.020 A 
ATOM     78  C   UNL     1      -1.739   9.506   3.660  1.00  0.00     0.054 A 
BRANCH  78  79
ATOM     79  S   UNL     1      -2.111   9.120   5.396  1.00  0.00     0.124 S 
ATOM     80  O   UNL     1      -2.218   7.663   5.384  1.00  0.00    -0.237 OA
ATOM     81  O   UNL     1      -0.954   9.661   6.104  1.00  0.00    -0.237 OA
ATOM     82  O   UNL     1      -3.367   9.826   5.646  1.00  0.00    -0.744 OA
ENDBRANCH  78  79
ENDBRANCH  59  73
BRANCH  60  83
ATOM     83  C   UNL     1       0.316   9.782  -9.187  1.00  0.00    -0.014 A 
ATOM     84  C   UNL     1       0.068   8.656 -10.012  1.00  0.00     0.010 A 
ATOM     85  C   UNL     1      -0.525  10.905  -9.329  1.00  0.00     0.010 A 
ATOM     86  C   UNL     1      -1.179   8.503 -10.630  1.00  0.00     0.020 A 
ATOM     87  C   UNL     1      -1.771  10.760  -9.968  1.00  0.00     0.020 A 
ATOM     88  C   UNL     1      -2.123   9.524 -10.521  1.00  0.00     0.054 A 
BRANCH  88  89
ATOM     89  S   UNL     1      -3.881   9.088 -10.763  1.00  0.00     0.124 S 
ATOM     90  O   UNL     1      -3.969   8.923 -12.208  1.00  0.00    -0.237 OA
ATOM     91  O   UNL     1      -4.006   7.864  -9.971  1.00  0.00    -0.237 OA
ATOM     92  O   UNL     1      -4.587  10.239 -10.210  1.00  0.00    -0.744 OA
ENDBRANCH  88  89
ENDBRANCH  60  83
BRANCH  72  93
ATOM     93  C   UNL     1       4.349  10.849  -2.957  1.00  0.00    -0.014 A 
ATOM     94  C   UNL     1       5.350  11.556  -3.631  1.00  0.00     0.010 A 
ATOM     95  C   UNL     1       4.370  10.915  -1.535  1.00  0.00     0.010 A 
ATOM     96  C   UNL     1       6.321  12.282  -2.928  1.00  0.00     0.020 A 
ATOM     97  C   UNL     1       5.308  11.665  -0.826  1.00  0.00     0.020 A 
ATOM     98  C   UNL     1       6.286  12.344  -1.534  1.00  0.00     0.054 A 
BRANCH  98  99
ATOM     99  S   UNL     1       7.472  13.401  -0.673  1.00  0.00     0.124 S 
ATOM    100  O   UNL     1       8.699  12.614  -0.767  1.00  0.00    -0.237 OA
ATOM    101  O   UNL     1       7.449  14.622  -1.477  1.00  0.00    -0.237 OA
ATOM    102  O   UNL     1       6.915  13.537   0.670  1.00  0.00    -0.744 OA
ENDBRANCH  98  99
ENDBRANCH  72  93
ENDBRANCH  46  47
ENDBRANCH  39  41
ENDBRANCH  38  39
ENDBRANCH  37  38
ENDBRANCH  36  37
ENDBRANCH  35  36
ENDBRANCH  34  35
ENDBRANCH  33  34
ENDBRANCH  32  33
ENDBRANCH   1  32
TORSDOF 27
