REMARK SMILES O=C(OCCOCCOCCOCCOC(=O)[C@@H]1CCCC[C@H]1C(=O)Nc1ccc(NC(=O)c2ccco2)cc1)c1ccc(-c2c3nc(c(-c4ccc(S(=O)(=O)[O-])cc4)c4ccc([nH]4)c(-c4ccc(S(=O)(=O)[O-])cc4)c4nc(c(-c5ccc(S(=O)(=O)[O-])cc5)c5ccc2[nH]5)C=C4)C=C3)cc1
REMARK SMILES IDX 10 1 9 2 8 3 7 4 6 5 5 6 4 7 3 8 2 9 1 10 41 11 42 12 100 13
REMARK SMILES IDX 43 14 99 15 44 16 45 17 46 18 93 19 47 20 98 21 92 22 94 23
REMARK SMILES IDX 48 24 97 25 91 26 90 27 49 29 79 30 60 31 78 32 61 33 64 34
REMARK SMILES IDX 77 35 95 36 62 37 63 38 76 40 96 41 65 42 50 43 51 44 59 45
REMARK SMILES IDX 52 46 58 47 53 48 54 49 55 50 56 51 57 52 80 53 81 54 89 55
REMARK SMILES IDX 82 56 88 57 83 58 84 59 85 60 86 61 87 62 66 63 67 64 75 65
REMARK SMILES IDX 68 66 74 67 69 68 70 69 71 70 72 71 73 72 11 73 12 74 13 75
REMARK SMILES IDX 14 76 15 77 16 78 17 79 18 80 19 81 23 82 20 83 22 84 21 85
REMARK SMILES IDX 24 86 25 87 26 88 27 90 28 91 40 92 29 93 39 94 30 95 31 96
REMARK SMILES IDX 32 97 33 99 34 100 35 101 38 102 36 103 37 104
REMARK H PARENT 94 28 64 39 26 89 31 98
REMARK Flexibility Score: inf
ROOT
ATOM      1  C   UNL     1       3.854  -2.552   2.261  1.00  0.00     0.188 C 
ENDROOT
BRANCH   1   2
ATOM      2  O   UNL     1       2.451  -2.376   2.468  1.00  0.00    -0.377 OA
BRANCH   2   3
ATOM      3  C   UNL     1       1.764  -1.677   1.427  1.00  0.00     0.188 C 
BRANCH   3   4
ATOM      4  C   UNL     1       2.165  -0.204   1.381  1.00  0.00     0.188 C 
BRANCH   4   5
ATOM      5  O   UNL     1       3.453  -0.117   0.770  1.00  0.00    -0.376 OA
BRANCH   5   6
ATOM      6  C   UNL     1       4.164   1.085   1.050  1.00  0.00     0.202 C 
BRANCH   6   7
ATOM      7  C   UNL     1       4.183   2.010  -0.167  1.00  0.00     0.261 C 
BRANCH   7   8
ATOM      8  O   UNL     1       2.870   2.130  -0.738  1.00  0.00    -0.460 OA
BRANCH   8   9
ATOM      9  C   UNL     1       2.289   1.349  -1.683  1.00  0.00     0.338 C 
ATOM     10  O   UNL     1       1.107   1.565  -1.954  1.00  0.00    -0.246 OA
BRANCH   9  11
ATOM     11  C   UNL     1       2.990   0.271  -2.461  1.00  0.00     0.060 A 
ATOM     12  C   UNL     1       4.114  -0.454  -2.051  1.00  0.00     0.016 A 
ATOM     13  C   UNL     1       2.413  -0.076  -3.698  1.00  0.00     0.016 A 
ATOM     14  C   UNL     1       4.674  -1.452  -2.846  1.00  0.00     0.010 A 
ATOM     15  C   UNL     1       2.964  -1.079  -4.503  1.00  0.00     0.010 A 
ATOM     16  C   UNL     1       4.114  -1.753  -4.083  1.00  0.00    -0.014 A 
BRANCH  16  17
ATOM     17  C   UNL     1       4.843  -2.656  -4.990  1.00  0.00     0.031 A 
ATOM     18  C   UNL     1       5.721  -2.036  -6.035  1.00  0.00     0.074 A 
ATOM     19  C   UNL     1       4.783  -3.989  -4.818  1.00  0.00     0.049 A 
ATOM     20  N   UNL     1       6.387  -2.608  -7.000  1.00  0.00    -0.248 NA
ATOM     21  C   UNL     1       5.881  -0.571  -5.974  1.00  0.00     0.031 C 
ATOM     22  C   UNL     1       4.055  -4.671  -3.747  1.00  0.00     0.029 A 
ATOM     23  N   UNL     1       5.352  -5.006  -5.538  1.00  0.00    -0.354 N 
ATOM     24  C   UNL     1       7.013  -1.573  -7.683  1.00  0.00     0.074 A 
ATOM     25  C   UNL     1       6.670  -0.340  -7.013  1.00  0.00     0.031 C 
ATOM     26  C   UNL     1       4.217  -5.999  -3.885  1.00  0.00     0.029 A 
ATOM     27  C   UNL     1       5.006  -6.258  -5.086  1.00  0.00     0.049 A 
ATOM     28  H   UNL     1       5.951  -4.855  -6.304  1.00  0.00     0.167 HD
ATOM     29  C   UNL     1       7.784  -1.650  -8.791  1.00  0.00     0.031 A 
ATOM     30  C   UNL     1       5.258  -7.468  -5.622  1.00  0.00     0.031 A 
ATOM     31  C   UNL     1       8.089  -2.888  -9.449  1.00  0.00     0.049 A 
ATOM     32  C   UNL     1       6.033  -7.521  -6.915  1.00  0.00     0.074 A 
ATOM     33  C   UNL     1       8.812  -3.097 -10.608  1.00  0.00     0.029 A 
ATOM     34  N   UNL     1       7.670  -4.133  -9.000  1.00  0.00    -0.354 N 
ATOM     35  N   UNL     1       6.590  -6.535  -7.580  1.00  0.00    -0.248 NA
ATOM     36  C   UNL     1       6.187  -8.839  -7.546  1.00  0.00     0.031 C 
ATOM     37  C   UNL     1       8.789  -4.468 -10.885  1.00  0.00     0.029 A 
ATOM     38  C   UNL     1       8.088  -5.115  -9.876  1.00  0.00     0.049 A 
ATOM     39  H   UNL     1       7.152  -4.292  -8.178  1.00  0.00     0.167 HD
ATOM     40  C   UNL     1       7.153  -7.111  -8.712  1.00  0.00     0.074 A 
ATOM     41  C   UNL     1       6.896  -8.536  -8.626  1.00  0.00     0.031 C 
ATOM     42  C   UNL     1       7.808  -6.522  -9.742  1.00  0.00     0.031 A 
BRANCH  29  43
ATOM     43  C   UNL     1       8.250  -0.357  -9.393  1.00  0.00    -0.014 A 
ATOM     44  C   UNL     1       9.312   0.376  -8.835  1.00  0.00     0.010 A 
ATOM     45  C   UNL     1       7.591   0.146 -10.530  1.00  0.00     0.010 A 
ATOM     46  C   UNL     1       9.682   1.608  -9.382  1.00  0.00     0.020 A 
ATOM     47  C   UNL     1       7.969   1.369 -11.089  1.00  0.00     0.020 A 
ATOM     48  C   UNL     1       9.001   2.101 -10.501  1.00  0.00     0.054 A 
BRANCH  48  49
ATOM     49  S   UNL     1       9.494   3.706 -11.189  1.00  0.00     0.124 S 
ATOM     50  O   UNL     1       8.935   4.636 -10.211  1.00  0.00    -0.237 OA
ATOM     51  O   UNL     1      10.952   3.615 -11.206  1.00  0.00    -0.237 OA
ATOM     52  O   UNL     1       8.859   3.729 -12.504  1.00  0.00    -0.744 OA
ENDBRANCH  48  49
ENDBRANCH  29  43
BRANCH  30  53
ATOM     53  C   UNL     1       4.687  -8.702  -5.011  1.00  0.00    -0.014 A 
ATOM     54  C   UNL     1       5.514  -9.692  -4.453  1.00  0.00     0.010 A 
ATOM     55  C   UNL     1       3.293  -8.902  -5.005  1.00  0.00     0.010 A 
ATOM     56  C   UNL     1       4.961 -10.863  -3.920  1.00  0.00     0.020 A 
ATOM     57  C   UNL     1       2.734 -10.056  -4.450  1.00  0.00     0.020 A 
ATOM     58  C   UNL     1       3.574 -11.039  -3.925  1.00  0.00     0.054 A 
BRANCH  58  59
ATOM     59  S   UNL     1       2.866 -12.548  -3.205  1.00  0.00     0.124 S 
ATOM     60  O   UNL     1       3.082 -13.522  -4.270  1.00  0.00    -0.237 OA
ATOM     61  O   UNL     1       3.671 -12.738  -2.001  1.00  0.00    -0.237 OA
ATOM     62  O   UNL     1       1.472 -12.185  -2.959  1.00  0.00    -0.744 OA
ENDBRANCH  58  59
ENDBRANCH  30  53
BRANCH  42  63
ATOM     63  C   UNL     1       8.286  -7.413 -10.851  1.00  0.00    -0.014 A 
ATOM     64  C   UNL     1       7.391  -7.864 -11.836  1.00  0.00     0.010 A 
ATOM     65  C   UNL     1       9.655  -7.709 -10.966  1.00  0.00     0.010 A 
ATOM     66  C   UNL     1       7.861  -8.602 -12.923  1.00  0.00     0.020 A 
ATOM     67  C   UNL     1      10.130  -8.431 -12.062  1.00  0.00     0.020 A 
ATOM     68  C   UNL     1       9.228  -8.876 -13.031  1.00  0.00     0.054 A 
BRANCH  68  69
ATOM     69  S   UNL     1       9.829  -9.756 -14.499  1.00  0.00     0.124 S 
ATOM     70  O   UNL     1       9.470 -11.137 -14.192  1.00  0.00    -0.237 OA
ATOM     71  O   UNL     1       9.070  -9.134 -15.582  1.00  0.00    -0.237 OA
ATOM     72  O   UNL     1      11.262  -9.470 -14.508  1.00  0.00    -0.744 OA
ENDBRANCH  68  69
ENDBRANCH  42  63
ENDBRANCH  16  17
ENDBRANCH   9  11
ENDBRANCH   8   9
ENDBRANCH   7   8
ENDBRANCH   6   7
ENDBRANCH   5   6
ENDBRANCH   4   5
ENDBRANCH   3   4
ENDBRANCH   2   3
ENDBRANCH   1   2
BRANCH   1  73
ATOM     73  C   UNL     1       4.265  -3.563   1.202  1.00  0.00     0.188 C 
BRANCH  73  74
ATOM     74  O   UNL     1       4.111  -4.918   1.620  1.00  0.00    -0.376 OA
BRANCH  74  75
ATOM     75  C   UNL     1       2.804  -5.292   2.048  1.00  0.00     0.202 C 
BRANCH  75  76
ATOM     76  C   UNL     1       2.825  -5.701   3.526  1.00  0.00     0.261 C 
BRANCH  76  77
ATOM     77  O   UNL     1       3.074  -4.604   4.445  1.00  0.00    -0.463 OA
BRANCH  77  78
ATOM     78  C   UNL     1       4.305  -4.578   5.022  1.00  0.00     0.309 C 
ATOM     79  O   UNL     1       5.210  -5.360   4.753  1.00  0.00    -0.252 OA
BRANCH  78  80
ATOM     80  C   UNL     1       4.443  -3.556   6.155  1.00  0.00     0.111 C 
ATOM     81  C   UNL     1       3.366  -3.859   7.217  1.00  0.00     0.016 C 
ATOM     82  C   UNL     1       4.475  -2.051   5.825  1.00  0.00     0.093 C 
ATOM     83  C   UNL     1       3.619  -3.056   8.489  1.00  0.00     0.001 C 
ATOM     84  C   UNL     1       4.661  -1.218   7.115  1.00  0.00     0.014 C 
ATOM     85  C   UNL     1       3.642  -1.563   8.196  1.00  0.00     0.001 C 
BRANCH  82  86
ATOM     86  C   UNL     1       5.370  -1.379   4.768  1.00  0.00     0.228 C 
ATOM     87  O   UNL     1       4.853  -0.464   4.097  1.00  0.00    -0.274 OA
ATOM     88  N   UNL     1       6.710  -1.458   4.598  1.00  0.00    -0.326 N 
ATOM     89  H   UNL     1       7.030  -0.928   3.833  1.00  0.00     0.169 HD
BRANCH  88  90
ATOM     90  C   UNL     1       7.739  -2.120   5.262  1.00  0.00     0.041 A 
ATOM     91  C   UNL     1       8.941  -1.438   5.425  1.00  0.00     0.028 A 
ATOM     92  C   UNL     1       7.661  -3.410   5.739  1.00  0.00     0.028 A 
ATOM     93  C   UNL     1       9.926  -1.950   6.273  1.00  0.00     0.028 A 
ATOM     94  C   UNL     1       8.617  -3.910   6.622  1.00  0.00     0.028 A 
ATOM     95  C   UNL     1       9.707  -3.126   6.985  1.00  0.00     0.041 A 
BRANCH  95  96
ATOM     96  N   UNL     1      10.478  -3.584   8.064  1.00  0.00    -0.319 N 
ATOM     97  C   UNL     1      11.414  -2.964   8.873  1.00  0.00     0.291 C 
ATOM     98  H   UNL     1      10.322  -4.529   8.290  1.00  0.00     0.170 HD
ATOM     99  O   UNL     1      11.908  -3.630   9.777  1.00  0.00    -0.265 OA
BRANCH  97 100
ATOM    100  C   UNL     1      11.734  -1.572   8.668  1.00  0.00     0.191 A 
ATOM    101  C   UNL     1      11.021  -0.405   8.878  1.00  0.00     0.056 A 
ATOM    102  O   UNL     1      12.954  -1.271   8.128  1.00  0.00    -0.459 OA
ATOM    103  C   UNL     1      11.829   0.654   8.390  1.00  0.00     0.043 A 
ATOM    104  C   UNL     1      12.996   0.073   7.951  1.00  0.00     0.196 A 
ENDBRANCH  97 100
ENDBRANCH  95  96
ENDBRANCH  88  90
ENDBRANCH  82  86
ENDBRANCH  78  80
ENDBRANCH  77  78
ENDBRANCH  76  77
ENDBRANCH  75  76
ENDBRANCH  74  75
ENDBRANCH  73  74
ENDBRANCH   1  73
TORSDOF 27
