REMARK SMILES Cc1ccc(-c2cc(Cl)cc3c2O[C@@H](C(F)(F)F)C(C(=O)OCCOCCOCCOCCOC(=O)c2ccc(-c4c5nc(c(-c6ccc(S(=O)(=O)[O-])cc6)c6ccc([nH]6)c(-c6ccc(S(=O)(=O)[O-])cc6)c6nc(c(-c7ccc(S(=O)(=O)[O-])cc7)c7ccc4[nH]7)C=C6)C=C5)cc2)=C3)cc1
REMARK SMILES IDX 29 1 28 2 27 3 26 4 25 5 24 6 23 7 22 8 20 9 21 10 19 11
REMARK SMILES IDX 6 12 7 13 12 14 8 15 11 16 13 17 9 18 10 19 97 20 14 21 5 22
REMARK SMILES IDX 1 23 2 24 3 25 99 26 4 27 98 28 15 29 16 30 17 31 18 32
REMARK SMILES IDX 30 33 31 34 32 35 33 36 34 37 35 38 36 39 37 40 38 41 96 42
REMARK SMILES IDX 39 43 95 44 40 45 41 46 42 47 89 48 43 49 94 50 88 51 90 52
REMARK SMILES IDX 44 53 93 54 87 55 86 56 45 58 75 59 56 60 74 61 57 62 60 63
REMARK SMILES IDX 73 64 91 65 58 66 59 67 72 69 92 70 61 71 46 72 47 73 55 74
REMARK SMILES IDX 48 75 54 76 49 77 50 78 51 79 52 80 53 81 76 82 77 83 85 84
REMARK SMILES IDX 78 85 84 86 79 87 80 88 81 89 82 90 83 91 62 92 63 93 71 94
REMARK SMILES IDX 64 95 70 96 65 97 66 98 67 99 68 100 69 101
REMARK H PARENT 90 57 60 68
REMARK Flexibility Score: inf
ROOT
ATOM      1  C   UNL     1      -2.086  -4.570   0.695  1.00  0.00     0.188 C 
ENDROOT
BRANCH   1   2
ATOM      2  O   UNL     1      -3.309  -4.628   1.399  1.00  0.00    -0.377 OA
BRANCH   2   3
ATOM      3  C   UNL     1      -4.116  -3.455   1.495  1.00  0.00     0.188 C 
BRANCH   3   4
ATOM      4  C   UNL     1      -3.393  -2.055   1.674  1.00  0.00     0.188 C 
BRANCH   4   5
ATOM      5  O   UNL     1      -2.451  -1.425   2.493  1.00  0.00    -0.376 OA
BRANCH   5   6
ATOM      6  C   UNL     1      -2.474  -0.849   3.781  1.00  0.00     0.202 C 
BRANCH   6   7
ATOM      7  C   UNL     1      -3.700  -0.486   4.495  1.00  0.00     0.261 C 
BRANCH   7   8
ATOM      8  O   UNL     1      -4.798   0.281   4.116  1.00  0.00    -0.460 OA
BRANCH   8   9
ATOM      9  C   UNL     1      -5.071   0.826   2.954  1.00  0.00     0.338 C 
ATOM     10  O   UNL     1      -4.361   1.211   2.059  1.00  0.00    -0.246 OA
BRANCH   9  11
ATOM     11  C   UNL     1      -6.562   0.606   2.936  1.00  0.00     0.087 C 
ATOM     12  C   UNL     1      -4.980  -0.575  -0.520  1.00  0.00     0.026 A 
ATOM     13  C   UNL     1      -5.464   0.058  -1.677  1.00  0.00     0.033 A 
ATOM     14  C   UNL     1      -5.930  -0.582   0.641  1.00  0.00     0.135 A 
ATOM     15  C   UNL     1      -6.654   0.784  -1.674  1.00  0.00     0.042 A 
ATOM     16  C   UNL     1      -6.932   0.414   0.662  1.00  0.00     0.019 A 
ATOM     17  O   UNL     1      -5.927  -1.420   1.870  1.00  0.00    -0.475 OA
ATOM     18  Cl  UNL     1      -7.127   1.628  -3.092  1.00  0.00    -0.084 Cl
ATOM     19  C   UNL     1      -7.361   1.004  -0.504  1.00  0.00     0.032 A 
ATOM     20  C   UNL     1      -7.343   1.046   1.942  1.00  0.00     0.027 C 
ATOM     21  C   UNL     1      -6.757  -0.890   3.018  1.00  0.00     0.316 C 
BRANCH  12  22
ATOM     22  C   UNL     1      -3.412  -0.469  -0.541  1.00  0.00    -0.015 A 
ATOM     23  C   UNL     1       1.212  -0.131   1.975  1.00  0.00     0.044 C 
ATOM     24  C   UNL     1      -0.556  -0.217   0.600  1.00  0.00    -0.051 A 
ATOM     25  C   UNL     1      -1.075  -1.321  -0.307  1.00  0.00     0.004 A 
ATOM     26  C   UNL     1      -1.430   0.838   0.067  1.00  0.00     0.004 A 
ATOM     27  C   UNL     1      -2.431  -1.390  -0.927  1.00  0.00     0.009 A 
ATOM     28  C   UNL     1      -2.803   0.741  -0.291  1.00  0.00     0.009 A 
ENDBRANCH  12  22
BRANCH  21  29
ATOM     29  C   UNL     1      -6.899  -1.344   4.545  1.00  0.00     0.430 C 
ATOM     30  F   UNL     1      -7.928  -0.602   5.080  1.00  0.00    -0.167 F 
ATOM     31  F   UNL     1      -7.292  -2.634   4.665  1.00  0.00    -0.167 F 
ATOM     32  F   UNL     1      -5.918  -1.185   5.438  1.00  0.00    -0.167 F 
ENDBRANCH  21  29
ENDBRANCH   9  11
ENDBRANCH   8   9
ENDBRANCH   7   8
ENDBRANCH   6   7
ENDBRANCH   5   6
ENDBRANCH   4   5
ENDBRANCH   3   4
ENDBRANCH   2   3
ENDBRANCH   1   2
BRANCH   1  33
ATOM     33  C   UNL     1      -1.829  -5.307  -0.641  1.00  0.00     0.188 C 
BRANCH  33  34
ATOM     34  O   UNL     1      -2.966  -5.580  -1.405  1.00  0.00    -0.376 OA
BRANCH  34  35
ATOM     35  C   UNL     1      -3.909  -6.217  -0.561  1.00  0.00     0.202 C 
BRANCH  35  36
ATOM     36  C   UNL     1      -3.401  -7.237   0.570  1.00  0.00     0.261 C 
BRANCH  36  37
ATOM     37  O   UNL     1      -1.888  -7.458   1.142  1.00  0.00    -0.460 OA
BRANCH  37  38
ATOM     38  C   UNL     1      -0.617  -7.535   1.632  1.00  0.00     0.338 C 
ATOM     39  O   UNL     1      -0.085  -8.579   2.004  1.00  0.00    -0.246 OA
BRANCH  38  40
ATOM     40  C   UNL     1       0.352  -6.425   1.846  1.00  0.00     0.060 A 
ATOM     41  C   UNL     1       0.916  -6.210   3.110  1.00  0.00     0.016 A 
ATOM     42  C   UNL     1       0.776  -5.560   0.866  1.00  0.00     0.016 A 
ATOM     43  C   UNL     1       1.189  -4.903   3.505  1.00  0.00     0.010 A 
ATOM     44  C   UNL     1       0.965  -4.248   1.270  1.00  0.00     0.010 A 
ATOM     45  C   UNL     1       0.802  -3.918   2.618  1.00  0.00    -0.014 A 
BRANCH  45  46
ATOM     46  C   UNL     1      -0.374  -2.979   2.856  1.00  0.00     0.031 A 
ATOM     47  C   UNL     1      -0.065  -1.528   1.939  1.00  0.00     0.074 A 
ATOM     48  C   UNL     1      -1.492  -3.542   3.597  1.00  0.00     0.049 A 
ATOM     49  N   UNL     1      -0.520  -0.070   2.577  1.00  0.00    -0.248 NA
ATOM     50  C   UNL     1       1.206  -1.079   0.373  1.00  0.00     0.031 C 
ATOM     51  C   UNL     1      -3.008  -3.317   3.838  1.00  0.00     0.029 A 
ATOM     52  N   UNL     1      -1.450  -4.501   4.627  1.00  0.00    -0.354 N 
ATOM     53  C   UNL     1       0.079   1.403   1.684  1.00  0.00     0.074 A 
ATOM     54  C   UNL     1       1.186   0.651   0.232  1.00  0.00     0.031 C 
ATOM     55  C   UNL     1      -3.506  -3.664   5.005  1.00  0.00     0.029 A 
ATOM     56  C   UNL     1      -2.297  -4.006   5.650  1.00  0.00     0.049 A 
ATOM     57  H   UNL     1      -0.938  -5.342   4.635  1.00  0.00     0.167 HD
ATOM     58  C   UNL     1      -0.504   2.602   2.097  1.00  0.00     0.031 A 
ATOM     59  C   UNL     1      -2.513  -4.239   6.938  1.00  0.00     0.031 A 
ATOM     60  C   UNL     1      -1.414   2.495   3.354  1.00  0.00     0.049 A 
ATOM     61  C   UNL     1      -2.675  -2.645   7.488  1.00  0.00     0.074 A 
ATOM     62  C   UNL     1      -2.741   2.859   3.561  1.00  0.00     0.029 A 
ATOM     63  N   UNL     1      -1.064   1.882   4.603  1.00  0.00    -0.354 N 
ATOM     64  N   UNL     1      -2.560  -1.529   6.721  1.00  0.00    -0.248 NA
ATOM     65  C   UNL     1      -2.688  -2.202   8.888  1.00  0.00     0.031 C 
ATOM     66  C   UNL     1      -3.180   2.468   4.871  1.00  0.00     0.029 A 
ATOM     67  C   UNL     1      -2.180   1.692   5.496  1.00  0.00     0.049 A 
ATOM     68  H   UNL     1      -0.144   1.614   4.830  1.00  0.00     0.167 HD
ATOM     69  C   UNL     1      -2.403  -0.291   7.437  1.00  0.00     0.074 A 
ATOM     70  C   UNL     1      -2.564  -0.846   8.812  1.00  0.00     0.031 C 
ATOM     71  C   UNL     1      -2.091   1.064   6.968  1.00  0.00     0.031 A 
BRANCH  58  72
ATOM     72  C   UNL     1      -0.641   3.806   1.091  1.00  0.00    -0.014 A 
ATOM     73  C   UNL     1      -1.665   4.764   1.272  1.00  0.00     0.010 A 
ATOM     74  C   UNL     1       0.052   3.927  -0.140  1.00  0.00     0.010 A 
ATOM     75  C   UNL     1      -2.062   5.684   0.282  1.00  0.00     0.020 A 
ATOM     76  C   UNL     1      -0.323   4.857  -1.146  1.00  0.00     0.020 A 
ATOM     77  C   UNL     1      -1.385   5.731  -0.927  1.00  0.00     0.054 A 
BRANCH  77  78
ATOM     78  S   UNL     1      -1.860   7.002  -2.135  1.00  0.00     0.124 S 
ATOM     79  O   UNL     1      -3.272   6.715  -2.377  1.00  0.00    -0.237 OA
ATOM     80  O   UNL     1      -1.590   8.237  -1.402  1.00  0.00    -0.237 OA
ATOM     81  O   UNL     1      -0.975   6.753  -3.271  1.00  0.00    -0.744 OA
ENDBRANCH  77  78
ENDBRANCH  58  72
BRANCH  59  82
ATOM     82  C   UNL     1      -2.817  -5.805   6.887  1.00  0.00    -0.014 A 
ATOM     83  C   UNL     1      -4.049  -6.362   6.404  1.00  0.00     0.010 A 
ATOM     84  C   UNL     1      -1.688  -6.587   6.423  1.00  0.00     0.010 A 
ATOM     85  C   UNL     1      -4.118  -7.466   5.465  1.00  0.00     0.020 A 
ATOM     86  C   UNL     1      -1.752  -7.658   5.431  1.00  0.00     0.020 A 
ATOM     87  C   UNL     1      -2.984  -8.114   4.966  1.00  0.00     0.054 A 
BRANCH  87  88
ATOM     88  S   UNL     1      -3.276  -9.554   3.797  1.00  0.00     0.124 S 
ATOM     89  O   UNL     1      -3.404 -10.667   4.731  1.00  0.00    -0.237 OA
ATOM     90  O   UNL     1      -4.509  -9.172   3.106  1.00  0.00    -0.237 OA
ATOM     91  O   UNL     1      -2.125  -9.650   2.925  1.00  0.00    -0.744 OA
ENDBRANCH  87  88
ENDBRANCH  59  82
BRANCH  71  92
ATOM     92  C   UNL     1      -1.597   2.210   7.889  1.00  0.00    -0.014 A 
ATOM     93  C   UNL     1      -1.132   2.039   9.188  1.00  0.00     0.010 A 
ATOM     94  C   UNL     1      -1.391   3.517   7.332  1.00  0.00     0.010 A 
ATOM     95  C   UNL     1      -0.528   3.093   9.887  1.00  0.00     0.020 A 
ATOM     96  C   UNL     1      -0.718   4.545   7.978  1.00  0.00     0.020 A 
ATOM     97  C   UNL     1      -0.316   4.330   9.276  1.00  0.00     0.054 A 
BRANCH  97  98
ATOM     98  S   UNL     1       0.481   5.646  10.203  1.00  0.00     0.124 S 
ATOM     99  O   UNL     1      -0.542   5.961  11.196  1.00  0.00    -0.237 OA
ATOM    100  O   UNL     1       1.678   4.984  10.715  1.00  0.00    -0.237 OA
ATOM    101  O   UNL     1       0.725   6.685   9.205  1.00  0.00    -0.744 OA
ENDBRANCH  97  98
ENDBRANCH  71  92
ENDBRANCH  45  46
ENDBRANCH  38  40
ENDBRANCH  37  38
ENDBRANCH  36  37
ENDBRANCH  35  36
ENDBRANCH  34  35
ENDBRANCH  33  34
ENDBRANCH   1  33
TORSDOF 25
