REMARK SMILES Cc1ccnc(C(=O)c2[nH]c3cc(Cl)c(F)cc3c2CC(=O)OCCOCCOCCOCCOC(=O)c2ccc(-c3c4nc(c(-c5ccc(S(=O)(=O)[O-])cc5)c5ccc([nH]5)c(-c5ccc(S(=O)(=O)[O-])cc5)c5nc(c(-c6ccc(S(=O)(=O)[O-])cc6)c6ccc3[nH]6)C=C5)C=C4)cc2)c1
REMARK SMILES IDX 29 1 28 2 27 3 26 4 25 5 24 6 23 7 21 8 22 9 20 10 19 11
REMARK SMILES IDX 9 12 10 13 11 14 18 16 12 17 17 18 13 19 15 20 14 21 16 22
REMARK SMILES IDX 7 23 8 24 6 25 1 26 2 27 3 28 98 29 4 30 5 31 30 32 31 33
REMARK SMILES IDX 32 34 33 35 34 36 35 37 36 38 37 39 38 40 39 41 97 42 40 43
REMARK SMILES IDX 96 44 41 45 42 46 43 47 90 48 44 49 95 50 89 51 91 52 45 53
REMARK SMILES IDX 94 54 88 55 87 56 46 58 76 59 57 60 75 61 58 62 61 63 74 64
REMARK SMILES IDX 92 65 59 66 60 67 73 69 93 70 62 71 47 72 48 73 56 74 49 75
REMARK SMILES IDX 55 76 50 77 51 78 52 79 53 80 54 81 77 82 78 83 86 84 79 85
REMARK SMILES IDX 85 86 80 87 81 88 82 89 83 90 84 91 63 92 64 93 72 94 65 95
REMARK SMILES IDX 71 96 66 97 67 98 68 99 69 100 70 101
REMARK H PARENT 10 15 91 57 61 68
REMARK Flexibility Score: inf
ROOT
ATOM      1  O   UNL     1      -1.484  -1.265   1.032  1.00  0.00    -0.377 OA
ENDROOT
BRANCH   1   2
ATOM      2  C   UNL     1      -1.351  -2.029  -0.158  1.00  0.00     0.188 C 
BRANCH   2   3
ATOM      3  C   UNL     1      -0.980  -1.130  -1.335  1.00  0.00     0.188 C 
BRANCH   3   4
ATOM      4  O   UNL     1      -2.010  -0.240  -1.673  1.00  0.00    -0.376 OA
BRANCH   4   5
ATOM      5  C   UNL     1      -2.546  -0.587  -2.939  1.00  0.00     0.202 C 
BRANCH   5   6
ATOM      6  C   UNL     1      -3.033  -2.051  -2.972  1.00  0.00     0.261 C 
BRANCH   6   7
ATOM      7  O   UNL     1      -1.993  -3.074  -2.806  1.00  0.00    -0.463 OA
BRANCH   7   8
ATOM      8  C   UNL     1      -1.037  -3.137  -3.769  1.00  0.00     0.310 C 
ATOM      9  O   UNL     1      -1.166  -2.654  -4.891  1.00  0.00    -0.252 OA
BRANCH   8  10
ATOM     10  C   UNL     1       0.311  -3.738  -3.331  1.00  0.00     0.161 C 
BRANCH  10  11
ATOM     11  C   UNL     1       0.716  -3.916  -1.854  1.00  0.00     0.000 A 
ATOM     12  C   UNL     1       1.685  -3.266  -1.008  1.00  0.00     0.093 A 
ATOM     13  N   UNL     1       1.846  -4.164   0.053  1.00  0.00    -0.351 N 
ATOM     14  C   UNL     1       0.951  -5.205   0.040  1.00  0.00     0.048 A 
ATOM     15  H   UNL     1       2.538  -4.059   0.746  1.00  0.00     0.167 HD
ATOM     16  C   UNL     1       0.195  -5.068  -1.117  1.00  0.00     0.007 A 
ATOM     17  C   UNL     1       0.780  -6.275   0.941  1.00  0.00     0.050 A 
ATOM     18  C   UNL     1      -0.806  -6.041  -1.376  1.00  0.00     0.051 A 
ATOM     19  C   UNL     1      -0.218  -7.218   0.662  1.00  0.00     0.078 A 
ATOM     20  C   UNL     1      -1.003  -7.096  -0.477  1.00  0.00     0.142 A 
ATOM     21  Cl  UNL     1      -0.450  -8.539   1.750  1.00  0.00    -0.081 Cl
ATOM     22  F   UNL     1      -1.952  -8.008  -0.745  1.00  0.00    -0.205 F 
BRANCH  12  23
ATOM     23  C   UNL     1       2.725  -2.163  -1.093  1.00  0.00     0.227 C 
ATOM     24  O   UNL     1       3.898  -2.520  -1.244  1.00  0.00    -0.285 OA
BRANCH  23  25
ATOM     25  C   UNL     1       2.549  -0.645  -0.762  1.00  0.00     0.113 A 
ATOM     26  C   UNL     1      -0.165   1.812   0.298  1.00  0.00     0.044 C 
ATOM     27  C   UNL     1       1.202   1.271  -0.031  1.00  0.00    -0.047 A 
ATOM     28  C   UNL     1       2.174   2.136  -0.468  1.00  0.00     0.023 A 
ATOM     29  C   UNL     1       1.497  -0.117  -0.048  1.00  0.00     0.036 A 
ATOM     30  C   UNL     1       3.318   1.559  -0.986  1.00  0.00     0.112 A 
ATOM     31  N   UNL     1       3.512   0.215  -1.189  1.00  0.00    -0.253 NA
ENDBRANCH  23  25
ENDBRANCH  12  23
ENDBRANCH  10  11
ENDBRANCH   8  10
ENDBRANCH   7   8
ENDBRANCH   6   7
ENDBRANCH   5   6
ENDBRANCH   4   5
ENDBRANCH   3   4
ENDBRANCH   2   3
ENDBRANCH   1   2
BRANCH   1  32
ATOM     32  C   UNL     1      -0.738  -1.784   2.128  1.00  0.00     0.188 C 
BRANCH  32  33
ATOM     33  C   UNL     1       0.127  -0.655   2.695  1.00  0.00     0.188 C 
BRANCH  33  34
ATOM     34  O   UNL     1       1.533  -0.876   2.682  1.00  0.00    -0.376 OA
BRANCH  34  35
ATOM     35  C   UNL     1       1.978  -2.027   3.387  1.00  0.00     0.202 C 
BRANCH  35  36
ATOM     36  C   UNL     1       1.614  -2.083   4.886  1.00  0.00     0.261 C 
BRANCH  36  37
ATOM     37  O   UNL     1       0.179  -2.059   5.115  1.00  0.00    -0.460 OA
BRANCH  37  38
ATOM     38  C   UNL     1      -0.283  -1.092   5.975  1.00  0.00     0.338 C 
ATOM     39  O   UNL     1       0.375  -0.559   6.859  1.00  0.00    -0.246 OA
BRANCH  38  40
ATOM     40  C   UNL     1      -1.559  -0.514   5.426  1.00  0.00     0.060 A 
ATOM     41  C   UNL     1      -2.540  -1.329   4.865  1.00  0.00     0.016 A 
ATOM     42  C   UNL     1      -1.572   0.870   5.139  1.00  0.00     0.016 A 
ATOM     43  C   UNL     1      -3.438  -0.782   3.932  1.00  0.00     0.010 A 
ATOM     44  C   UNL     1      -2.470   1.410   4.196  1.00  0.00     0.010 A 
ATOM     45  C   UNL     1      -3.393   0.582   3.553  1.00  0.00    -0.014 A 
BRANCH  45  46
ATOM     46  C   UNL     1      -4.546   1.112   2.776  1.00  0.00     0.031 A 
ATOM     47  C   UNL     1      -5.818   0.839   3.487  1.00  0.00     0.074 A 
ATOM     48  C   UNL     1      -4.643   1.864   1.653  1.00  0.00     0.049 A 
ATOM     49  N   UNL     1      -6.783   0.080   3.089  1.00  0.00    -0.248 NA
ATOM     50  C   UNL     1      -5.937   1.321   4.871  1.00  0.00     0.031 C 
ATOM     51  C   UNL     1      -3.570   2.423   0.849  1.00  0.00     0.029 A 
ATOM     52  N   UNL     1      -5.763   2.353   1.014  1.00  0.00    -0.354 N 
ATOM     53  C   UNL     1      -7.717   0.111   4.110  1.00  0.00     0.074 A 
ATOM     54  C   UNL     1      -7.077   0.742   5.238  1.00  0.00     0.031 C 
ATOM     55  C   UNL     1      -4.053   3.352  -0.009  1.00  0.00     0.029 A 
ATOM     56  C   UNL     1      -5.502   3.356   0.080  1.00  0.00     0.049 A 
ATOM     57  H   UNL     1      -6.671   2.022   1.202  1.00  0.00     0.167 HD
ATOM     58  C   UNL     1      -9.021  -0.204   3.908  1.00  0.00     0.031 A 
ATOM     59  C   UNL     1      -6.379   4.140  -0.603  1.00  0.00     0.031 A 
ATOM     60  C   UNL     1      -9.234  -0.928   2.688  1.00  0.00     0.049 A 
ATOM     61  C   UNL     1      -7.672   3.422  -0.652  1.00  0.00     0.074 A 
ATOM     62  C   UNL     1      -8.786  -2.139   2.202  1.00  0.00     0.029 A 
ATOM     63  N   UNL     1      -9.736  -0.241   1.610  1.00  0.00    -0.354 N 
ATOM     64  N   UNL     1      -7.884   2.345  -1.356  1.00  0.00    -0.248 NA
ATOM     65  C   UNL     1      -8.632   3.684   0.405  1.00  0.00     0.031 C 
ATOM     66  C   UNL     1      -8.620  -1.937   0.806  1.00  0.00     0.029 A 
ATOM     67  C   UNL     1      -9.042  -0.640   0.497  1.00  0.00     0.049 A 
ATOM     68  H   UNL     1     -10.465   0.421   1.633  1.00  0.00     0.167 HD
ATOM     69  C   UNL     1      -8.722   1.573  -0.566  1.00  0.00     0.074 A 
ATOM     70  C   UNL     1      -9.215   2.486   0.464  1.00  0.00     0.031 C 
ATOM     71  C   UNL     1      -8.742   0.209  -0.648  1.00  0.00     0.031 A 
BRANCH  58  72
ATOM     72  C   UNL     1     -10.124   0.433   4.697  1.00  0.00    -0.014 A 
ATOM     73  C   UNL     1      -9.946   1.652   5.385  1.00  0.00     0.010 A 
ATOM     74  C   UNL     1     -11.435  -0.062   4.588  1.00  0.00     0.010 A 
ATOM     75  C   UNL     1     -11.002   2.318   5.996  1.00  0.00     0.020 A 
ATOM     76  C   UNL     1     -12.515   0.629   5.152  1.00  0.00     0.020 A 
ATOM     77  C   UNL     1     -12.286   1.806   5.867  1.00  0.00     0.054 A 
BRANCH  77  78
ATOM     78  S   UNL     1     -13.642   2.758   6.585  1.00  0.00     0.124 S 
ATOM     79  O   UNL     1     -13.405   2.581   8.015  1.00  0.00    -0.237 OA
ATOM     80  O   UNL     1     -13.389   4.100   6.066  1.00  0.00    -0.237 OA
ATOM     81  O   UNL     1     -14.835   2.102   6.060  1.00  0.00    -0.744 OA
ENDBRANCH  77  78
ENDBRANCH  58  72
BRANCH  59  82
ATOM     82  C   UNL     1      -6.281   5.611  -0.850  1.00  0.00    -0.014 A 
ATOM     83  C   UNL     1      -5.489   6.411   0.000  1.00  0.00     0.010 A 
ATOM     84  C   UNL     1      -7.188   6.277  -1.703  1.00  0.00     0.010 A 
ATOM     85  C   UNL     1      -5.659   7.801   0.070  1.00  0.00     0.020 A 
ATOM     86  C   UNL     1      -7.364   7.674  -1.639  1.00  0.00     0.020 A 
ATOM     87  C   UNL     1      -6.627   8.420  -0.718  1.00  0.00     0.054 A 
BRANCH  87  88
ATOM     88  S   UNL     1      -6.970  10.183  -0.431  1.00  0.00     0.124 S 
ATOM     89  O   UNL     1      -7.560  10.164   0.905  1.00  0.00    -0.237 OA
ATOM     90  O   UNL     1      -5.641  10.784  -0.518  1.00  0.00    -0.237 OA
ATOM     91  O   UNL     1      -7.884  10.542  -1.512  1.00  0.00    -0.744 OA
ENDBRANCH  87  88
ENDBRANCH  59  82
BRANCH  71  92
ATOM     92  C   UNL     1      -8.176  -0.511  -1.862  1.00  0.00    -0.014 A 
ATOM     93  C   UNL     1      -8.912  -1.623  -2.325  1.00  0.00     0.010 A 
ATOM     94  C   UNL     1      -6.901  -0.299  -2.414  1.00  0.00     0.010 A 
ATOM     95  C   UNL     1      -8.353  -2.562  -3.190  1.00  0.00     0.020 A 
ATOM     96  C   UNL     1      -6.366  -1.203  -3.354  1.00  0.00     0.020 A 
ATOM     97  C   UNL     1      -7.067  -2.366  -3.681  1.00  0.00     0.054 A 
BRANCH  97  98
ATOM     98  S   UNL     1      -6.345  -3.732  -4.640  1.00  0.00     0.124 S 
ATOM     99  O   UNL     1      -6.393  -4.838  -3.685  1.00  0.00    -0.237 OA
ATOM    100  O   UNL     1      -7.252  -3.841  -5.778  1.00  0.00    -0.237 OA
ATOM    101  O   UNL     1      -5.003  -3.280  -4.978  1.00  0.00    -0.744 OA
ENDBRANCH  97  98
ENDBRANCH  71  92
ENDBRANCH  45  46
ENDBRANCH  38  40
ENDBRANCH  37  38
ENDBRANCH  36  37
ENDBRANCH  35  36
ENDBRANCH  34  35
ENDBRANCH  33  34
ENDBRANCH  32  33
ENDBRANCH   1  32
TORSDOF 26
