REMARK SMILES O=C1C[C@H](c2cn[nH]c2C(=O)OCCOCCOCCOCCOC(=O)c2ccc(-c3c4nc(c(-c5ccc(S(=O)(=O)[O-])cc5)c5ccc([nH]5)c(-c5ccc(S(=O)(=O)[O-])cc5)c5nc(c(-c6ccc(S(=O)(=O)[O-])cc6)c6ccc3[nH]6)C=C5)C=C4)cc2)c2c(-c3cccs3)n[nH]c2N1
REMARK SMILES IDX 19 1 18 2 17 3 16 4 15 5 14 6 13 7 12 8 10 9 11 10 9 11 5 12
REMARK SMILES IDX 6 13 7 14 8 15 4 17 1 18 2 19 3 20 97 21 96 22 87 24 95 25
REMARK SMILES IDX 88 26 94 27 89 29 90 30 93 31 91 32 92 33 20 34 21 35 22 36
REMARK SMILES IDX 23 37 24 38 25 39 26 40 27 41 28 42 86 43 29 44 85 45 30 46
REMARK SMILES IDX 31 47 32 48 79 49 33 50 84 51 78 52 80 53 34 54 83 55 77 56
REMARK SMILES IDX 76 57 35 59 65 60 46 61 64 62 47 63 50 64 63 65 81 66 48 67
REMARK SMILES IDX 49 68 62 70 82 71 51 72 36 73 37 74 45 75 38 76 44 77 39 78
REMARK SMILES IDX 40 79 41 80 42 81 43 82 66 83 67 84 75 85 68 86 74 87 69 88
REMARK SMILES IDX 70 89 71 90 72 91 73 92 52 93 53 94 61 95 54 96 60 97 55 98
REMARK SMILES IDX 56 99 57 100 58 101 59 102
REMARK H PARENT 8 16 97 23 95 28 80 58 50 69
REMARK Flexibility Score: inf
ROOT
ATOM      1  C   UNL     1       3.633  -3.242  -2.316  1.00  0.00     0.188 C 
ENDROOT
BRANCH   1   2
ATOM      2  O   UNL     1       3.089  -2.053  -2.840  1.00  0.00    -0.377 OA
BRANCH   2   3
ATOM      3  C   UNL     1       4.024  -1.030  -3.116  1.00  0.00     0.188 C 
BRANCH   3   4
ATOM      4  C   UNL     1       5.171  -1.329  -4.109  1.00  0.00     0.188 C 
BRANCH   4   5
ATOM      5  O   UNL     1       5.913  -2.523  -3.973  1.00  0.00    -0.376 OA
BRANCH   5   6
ATOM      6  C   UNL     1       6.864  -2.775  -2.959  1.00  0.00     0.202 C 
BRANCH   6   7
ATOM      7  C   UNL     1       7.383  -1.730  -1.969  1.00  0.00     0.261 C 
BRANCH   7   8
ATOM      8  O   UNL     1       6.519  -0.624  -1.711  1.00  0.00    -0.459 OA
BRANCH   8   9
ATOM      9  C   UNL     1       6.905   0.565  -2.229  1.00  0.00     0.356 C 
ATOM     10  O   UNL     1       7.916   0.724  -2.915  1.00  0.00    -0.244 OA
BRANCH   9  11
ATOM     11  C   UNL     1       5.893   1.580  -2.086  1.00  0.00     0.147 A 
ATOM     12  C   UNL     1       4.896   1.952  -1.173  1.00  0.00     0.013 A 
ATOM     13  C   UNL     1       4.340   3.125  -1.775  1.00  0.00     0.140 A 
ATOM     14  N   UNL     1       4.874   3.428  -2.951  1.00  0.00    -0.183 NA
ATOM     15  N   UNL     1       5.810   2.495  -3.109  1.00  0.00    -0.271 N 
ATOM     16  H   UNL     1       6.397   2.462  -3.898  1.00  0.00     0.190 HD
BRANCH  12  17
ATOM     17  C   UNL     1       4.438   1.477   0.206  1.00  0.00     0.069 C 
ATOM     18  O   UNL     1       1.152  -0.328   0.063  1.00  0.00    -0.275 OA
ATOM     19  C   UNL     1       2.339  -0.114   0.306  1.00  0.00     0.226 C 
ATOM     20  C   UNL     1       2.898   1.307   0.306  1.00  0.00     0.114 C 
ATOM     21  N   UNL     1       3.151  -1.144   0.707  1.00  0.00    -0.311 N 
ATOM     22  C   UNL     1       4.472  -0.906   0.948  1.00  0.00     0.132 A 
ATOM     23  H   UNL     1       2.782  -2.050   0.819  1.00  0.00     0.171 HD
ATOM     24  C   UNL     1       5.121   0.285   0.765  1.00  0.00     0.031 A 
ATOM     25  N   UNL     1       5.403  -1.808   1.361  1.00  0.00    -0.262 N 
ATOM     26  C   UNL     1       6.462   0.021   1.143  1.00  0.00     0.108 A 
ATOM     27  N   UNL     1       6.645  -1.281   1.425  1.00  0.00    -0.173 NA
ATOM     28  H   UNL     1       5.194  -2.742   1.588  1.00  0.00     0.192 HD
BRANCH  26  29
ATOM     29  C   UNL     1       7.590   1.000   1.044  1.00  0.00     0.055 A 
ATOM     30  C   UNL     1       8.794   0.717   0.434  1.00  0.00     0.022 A 
ATOM     31  S   UNL     1       7.500   2.627   1.550  1.00  0.00    -0.142 S 
ATOM     32  C   UNL     1       9.578   1.894   0.242  1.00  0.00     0.012 A 
ATOM     33  C   UNL     1       9.015   2.992   0.852  1.00  0.00     0.065 A 
ENDBRANCH  26  29
ENDBRANCH  12  17
ENDBRANCH   9  11
ENDBRANCH   8   9
ENDBRANCH   7   8
ENDBRANCH   6   7
ENDBRANCH   5   6
ENDBRANCH   4   5
ENDBRANCH   3   4
ENDBRANCH   2   3
ENDBRANCH   1   2
BRANCH   1  34
ATOM     34  C   UNL     1       3.680  -4.402  -3.326  1.00  0.00     0.188 C 
BRANCH  34  35
ATOM     35  O   UNL     1       3.376  -4.252  -4.710  1.00  0.00    -0.376 OA
BRANCH  35  36
ATOM     36  C   UNL     1       2.521  -3.257  -5.258  1.00  0.00     0.202 C 
BRANCH  36  37
ATOM     37  C   UNL     1       1.066  -3.064  -4.831  1.00  0.00     0.261 C 
BRANCH  37  38
ATOM     38  O   UNL     1       0.847  -3.279  -3.459  1.00  0.00    -0.460 OA
BRANCH  38  39
ATOM     39  C   UNL     1       0.760  -4.580  -3.140  1.00  0.00     0.338 C 
ATOM     40  O   UNL     1       0.819  -5.533  -3.899  1.00  0.00    -0.246 OA
BRANCH  39  41
ATOM     41  C   UNL     1       0.503  -4.682  -1.693  1.00  0.00     0.060 A 
ATOM     42  C   UNL     1       0.150  -5.973  -1.314  1.00  0.00     0.016 A 
ATOM     43  C   UNL     1       0.004  -3.536  -1.056  1.00  0.00     0.016 A 
ATOM     44  C   UNL     1      -1.062  -6.098  -0.698  1.00  0.00     0.010 A 
ATOM     45  C   UNL     1      -1.209  -3.660  -0.443  1.00  0.00     0.010 A 
ATOM     46  C   UNL     1      -1.776  -4.928  -0.412  1.00  0.00    -0.014 A 
BRANCH  46  47
ATOM     47  C   UNL     1      -3.159  -5.082  -0.051  1.00  0.00     0.031 A 
ATOM     48  C   UNL     1      -3.297  -5.533   1.341  1.00  0.00     0.074 A 
ATOM     49  C   UNL     1      -4.160  -4.779  -0.895  1.00  0.00     0.049 A 
ATOM     50  N   UNL     1      -3.598  -6.715   1.757  1.00  0.00    -0.248 NA
ATOM     51  C   UNL     1      -2.777  -4.630   2.381  1.00  0.00     0.031 C 
ATOM     52  C   UNL     1      -4.114  -4.051  -2.166  1.00  0.00     0.029 A 
ATOM     53  N   UNL     1      -5.486  -4.972  -0.708  1.00  0.00    -0.354 N 
ATOM     54  C   UNL     1      -3.519  -6.637   3.139  1.00  0.00     0.074 A 
ATOM     55  C   UNL     1      -2.780  -5.438   3.438  1.00  0.00     0.031 C 
ATOM     56  C   UNL     1      -5.367  -3.636  -2.478  1.00  0.00     0.029 A 
ATOM     57  C   UNL     1      -6.300  -4.187  -1.508  1.00  0.00     0.049 A 
ATOM     58  H   UNL     1      -5.843  -5.618  -0.056  1.00  0.00     0.167 HD
ATOM     59  C   UNL     1      -4.309  -7.399   3.941  1.00  0.00     0.031 A 
ATOM     60  C   UNL     1      -7.618  -3.941  -1.288  1.00  0.00     0.031 A 
ATOM     61  C   UNL     1      -4.924  -8.477   3.212  1.00  0.00     0.049 A 
ATOM     62  C   UNL     1      -8.101  -4.983  -0.337  1.00  0.00     0.074 A 
ATOM     63  C   UNL     1      -4.445  -9.580   2.535  1.00  0.00     0.029 A 
ATOM     64  N   UNL     1      -6.207  -8.269   2.756  1.00  0.00    -0.354 N 
ATOM     65  N   UNL     1      -8.161  -6.254  -0.633  1.00  0.00    -0.248 NA
ATOM     66  C   UNL     1      -8.032  -4.687   1.089  1.00  0.00     0.031 C 
ATOM     67  C   UNL     1      -5.284  -9.701   1.390  1.00  0.00     0.029 A 
ATOM     68  C   UNL     1      -6.268  -8.711   1.459  1.00  0.00     0.049 A 
ATOM     69  H   UNL     1      -6.948  -7.873   3.270  1.00  0.00     0.167 HD
ATOM     70  C   UNL     1      -7.727  -6.918   0.509  1.00  0.00     0.074 A 
ATOM     71  C   UNL     1      -7.736  -5.902   1.562  1.00  0.00     0.031 C 
ATOM     72  C   UNL     1      -7.127  -8.144   0.438  1.00  0.00     0.031 A 
BRANCH  59  73
ATOM     73  C   UNL     1      -4.840  -6.904   5.259  1.00  0.00    -0.014 A 
ATOM     74  C   UNL     1      -5.604  -7.780   6.050  1.00  0.00     0.010 A 
ATOM     75  C   UNL     1      -4.842  -5.541   5.625  1.00  0.00     0.010 A 
ATOM     76  C   UNL     1      -6.384  -7.300   7.109  1.00  0.00     0.020 A 
ATOM     77  C   UNL     1      -5.576  -5.059   6.705  1.00  0.00     0.020 A 
ATOM     78  C   UNL     1      -6.374  -5.939   7.418  1.00  0.00     0.054 A 
BRANCH  78  79
ATOM     79  S   UNL     1      -7.472  -5.309   8.706  1.00  0.00     0.124 S 
ATOM     80  O   UNL     1      -8.787  -5.547   8.120  1.00  0.00    -0.237 OA
ATOM     81  O   UNL     1      -7.120  -6.149   9.847  1.00  0.00    -0.237 OA
ATOM     82  O   UNL     1      -7.085  -3.905   8.830  1.00  0.00    -0.744 OA
ENDBRANCH  78  79
ENDBRANCH  59  73
BRANCH  60  83
ATOM     83  C   UNL     1      -8.332  -2.656  -1.515  1.00  0.00    -0.014 A 
ATOM     84  C   UNL     1      -9.738  -2.585  -1.534  1.00  0.00     0.010 A 
ATOM     85  C   UNL     1      -7.621  -1.438  -1.457  1.00  0.00     0.010 A 
ATOM     86  C   UNL     1     -10.403  -1.345  -1.462  1.00  0.00     0.020 A 
ATOM     87  C   UNL     1      -8.274  -0.202  -1.389  1.00  0.00     0.020 A 
ATOM     88  C   UNL     1      -9.665  -0.161  -1.375  1.00  0.00     0.054 A 
BRANCH  88  89
ATOM     89  S   UNL     1     -10.526   1.424  -1.135  1.00  0.00     0.124 S 
ATOM     90  O   UNL     1     -11.188   1.617  -2.422  1.00  0.00    -0.237 OA
ATOM     91  O   UNL     1     -11.409   1.139  -0.007  1.00  0.00    -0.237 OA
ATOM     92  O   UNL     1      -9.445   2.365  -0.847  1.00  0.00    -0.744 OA
ENDBRANCH  88  89
ENDBRANCH  60  83
BRANCH  72  93
ATOM     93  C   UNL     1      -7.161  -8.890  -0.878  1.00  0.00    -0.014 A 
ATOM     94  C   UNL     1      -6.509  -8.449  -2.047  1.00  0.00     0.010 A 
ATOM     95  C   UNL     1      -7.708 -10.185  -0.864  1.00  0.00     0.010 A 
ATOM     96  C   UNL     1      -6.414  -9.284  -3.173  1.00  0.00     0.020 A 
ATOM     97  C   UNL     1      -7.602 -11.026  -1.974  1.00  0.00     0.020 A 
ATOM     98  C   UNL     1      -6.960 -10.571  -3.126  1.00  0.00     0.054 A 
BRANCH  98  99
ATOM     99  S   UNL     1      -6.774 -11.681  -4.552  1.00  0.00     0.124 S 
ATOM    100  O   UNL     1      -7.646 -11.065  -5.548  1.00  0.00    -0.237 OA
ATOM    101  O   UNL     1      -5.343 -11.610  -4.837  1.00  0.00    -0.237 OA
ATOM    102  O   UNL     1      -7.231 -12.976  -4.047  1.00  0.00    -0.744 OA
ENDBRANCH  98  99
ENDBRANCH  72  93
ENDBRANCH  46  47
ENDBRANCH  39  41
ENDBRANCH  38  39
ENDBRANCH  37  38
ENDBRANCH  36  37
ENDBRANCH  35  36
ENDBRANCH  34  35
ENDBRANCH   1  34
TORSDOF 25
