REMARK SMILES C[N@@H+]1CCN(C(=O)c2cc(-n3cccn3)ccc2Cl)C[C@H]1C(=O)OCCOCCOCCOCCOC(=O)c1ccc(-c2c3nc(c(-c4ccc(S(=O)(=O)[O-])cc4)c4ccc([nH]4)c(-c4ccc(S(=O)(=O)[O-])cc4)c4nc(c(-c5ccc(S(=O)(=O)[O-])cc5)c5ccc2[nH]5)C=C4)C=C3)cc1
REMARK SMILES IDX 30 1 29 2 28 3 27 4 26 5 25 6 24 7 22 8 23 9 21 10 1 11 2 12
REMARK SMILES IDX 3 13 4 15 20 16 5 17 6 18 7 19 8 20 9 21 18 22 10 23 17 24
REMARK SMILES IDX 19 25 16 26 11 27 12 28 15 29 13 30 14 31 31 32 32 33 33 34
REMARK SMILES IDX 34 35 35 36 36 37 37 38 38 39 39 40 40 41 98 42 41 43 97 44
REMARK SMILES IDX 42 45 43 46 44 47 91 48 45 49 96 50 90 51 92 52 46 53 95 54
REMARK SMILES IDX 89 55 88 56 47 58 77 59 58 60 76 61 59 62 62 63 75 64 93 65
REMARK SMILES IDX 60 66 61 67 74 69 94 70 63 71 48 72 49 73 57 74 50 75 56 76
REMARK SMILES IDX 51 77 52 78 53 79 54 80 55 81 78 82 79 83 87 84 80 85 86 86
REMARK SMILES IDX 81 87 82 88 83 89 84 90 85 91 64 92 65 93 73 94 66 95 72 96
REMARK SMILES IDX 67 97 68 98 69 99 70 100 71 101
REMARK H PARENT 2 14 92 57 62 68
REMARK Flexibility Score: inf
ROOT
ATOM      1  O   UNL     1       3.429  -2.565  -0.554  1.00  0.00    -0.377 OA
ENDROOT
BRANCH   1   2
ATOM      2  C   UNL     1       3.683  -3.333   0.615  1.00  0.00     0.188 C 
BRANCH   2   3
ATOM      3  C   UNL     1       2.462  -4.177   0.954  1.00  0.00     0.188 C 
BRANCH   3   4
ATOM      4  O   UNL     1       2.171  -5.246   0.050  1.00  0.00    -0.376 OA
BRANCH   4   5
ATOM      5  C   UNL     1       2.172  -4.970  -1.350  1.00  0.00     0.202 C 
BRANCH   5   6
ATOM      6  C   UNL     1       0.985  -4.176  -1.923  1.00  0.00     0.261 C 
BRANCH   6   7
ATOM      7  O   UNL     1       0.869  -2.795  -1.516  1.00  0.00    -0.459 OA
BRANCH   7   8
ATOM      8  C   UNL     1      -0.013  -2.582  -0.516  1.00  0.00     0.366 C 
ATOM      9  O   UNL     1      -0.593  -3.501   0.073  1.00  0.00    -0.245 OA
BRANCH   8  10
ATOM     10  C   UNL     1      -0.363  -1.147  -0.159  1.00  0.00     0.314 C 
ATOM     11  C   UNL     1       1.799   0.027  -0.400  1.00  0.00     0.333 C 
ATOM     12  N   UNL     1       0.373   0.040  -0.712  1.00  0.00    -0.323 N 
ATOM     13  C   UNL     1      -0.228   1.270  -0.099  1.00  0.00     0.284 C 
ATOM     14  H   UNL     1       0.285   0.018  -1.727  1.00  0.00     0.348 HD
ATOM     15  C   UNL     1      -1.756   1.396  -0.308  1.00  0.00     0.181 C 
ATOM     16  C   UNL     1      -1.839  -1.027  -0.587  1.00  0.00     0.197 C 
ATOM     17  N   UNL     1      -2.438   0.149   0.032  1.00  0.00    -0.326 N 
BRANCH  17  18
ATOM     18  C   UNL     1      -3.464   0.121   0.960  1.00  0.00     0.255 C 
ATOM     19  O   UNL     1      -3.957   1.116   1.483  1.00  0.00    -0.269 OA
BRANCH  18  20
ATOM     20  C   UNL     1      -4.019  -1.192   1.338  1.00  0.00     0.060 A 
ATOM     21  C   UNL     1      -5.179  -1.624   0.682  1.00  0.00     0.043 A 
ATOM     22  C   UNL     1      -3.433  -1.974   2.340  1.00  0.00     0.053 A 
ATOM     23  C   UNL     1      -5.784  -2.827   1.070  1.00  0.00     0.065 A 
ATOM     24  C   UNL     1      -4.007  -3.203   2.677  1.00  0.00     0.023 A 
ATOM     25  Cl  UNL     1      -2.019  -1.484   3.198  1.00  0.00    -0.083 Cl
ATOM     26  C   UNL     1      -5.190  -3.622   2.061  1.00  0.00     0.030 A 
BRANCH  23  27
ATOM     27  N   UNL     1      -7.012  -3.215   0.475  1.00  0.00    -0.241 N 
ATOM     28  C   UNL     1      -7.963  -4.064   1.000  1.00  0.00     0.115 A 
ATOM     29  N   UNL     1      -7.400  -2.721  -0.726  1.00  0.00    -0.177 NA
ATOM     30  C   UNL     1      -8.986  -4.136   0.087  1.00  0.00     0.042 A 
ATOM     31  C   UNL     1      -8.568  -3.316  -0.972  1.00  0.00     0.135 A 
ENDBRANCH  23  27
ENDBRANCH  18  20
ENDBRANCH  17  18
ENDBRANCH   8  10
ENDBRANCH   7   8
ENDBRANCH   6   7
ENDBRANCH   5   6
ENDBRANCH   4   5
ENDBRANCH   3   4
ENDBRANCH   2   3
ENDBRANCH   1   2
BRANCH   1  32
ATOM     32  C   UNL     1       4.492  -2.306  -1.470  1.00  0.00     0.188 C 
BRANCH  32  33
ATOM     33  C   UNL     1       5.870  -2.850  -1.114  1.00  0.00     0.188 C 
BRANCH  33  34
ATOM     34  O   UNL     1       6.405  -2.447   0.152  1.00  0.00    -0.376 OA
BRANCH  34  35
ATOM     35  C   UNL     1       6.113  -1.139   0.646  1.00  0.00     0.202 C 
BRANCH  35  36
ATOM     36  C   UNL     1       7.008  -0.040   0.110  1.00  0.00     0.261 C 
BRANCH  36  37
ATOM     37  O   UNL     1       6.663   0.234  -1.241  1.00  0.00    -0.460 OA
BRANCH  37  38
ATOM     38  C   UNL     1       7.458  -0.365  -2.154  1.00  0.00     0.338 C 
ATOM     39  O   UNL     1       8.328  -1.190  -1.947  1.00  0.00    -0.246 OA
BRANCH  38  40
ATOM     40  C   UNL     1       7.215   0.264  -3.456  1.00  0.00     0.060 A 
ATOM     41  C   UNL     1       8.173  -0.014  -4.427  1.00  0.00     0.016 A 
ATOM     42  C   UNL     1       6.313   1.335  -3.576  1.00  0.00     0.016 A 
ATOM     43  C   UNL     1       8.421   0.951  -5.369  1.00  0.00     0.010 A 
ATOM     44  C   UNL     1       6.565   2.304  -4.520  1.00  0.00     0.010 A 
ATOM     45  C   UNL     1       7.684   2.142  -5.328  1.00  0.00    -0.014 A 
BRANCH  45  46
ATOM     46  C   UNL     1       8.181   3.214  -6.156  1.00  0.00     0.031 A 
ATOM     47  C   UNL     1       7.961   3.017  -7.593  1.00  0.00     0.074 A 
ATOM     48  C   UNL     1       8.845   4.276  -5.673  1.00  0.00     0.049 A 
ATOM     49  N   UNL     1       8.831   2.663  -8.475  1.00  0.00    -0.248 NA
ATOM     50  C   UNL     1       6.575   3.081  -8.068  1.00  0.00     0.031 C 
ATOM     51  C   UNL     1       8.908   4.765  -4.295  1.00  0.00     0.029 A 
ATOM     52  N   UNL     1       9.548   5.203  -6.376  1.00  0.00    -0.354 N 
ATOM     53  C   UNL     1       8.139   2.638  -9.674  1.00  0.00     0.074 A 
ATOM     54  C   UNL     1       6.736   2.745  -9.347  1.00  0.00     0.031 C 
ATOM     55  C   UNL     1       9.421   6.017  -4.302  1.00  0.00     0.029 A 
ATOM     56  C   UNL     1       9.849   6.343  -5.654  1.00  0.00     0.049 A 
ATOM     57  H   UNL     1       9.818   5.075  -7.314  1.00  0.00     0.167 HD
ATOM     58  C   UNL     1       8.769   2.761 -10.870  1.00  0.00     0.031 A 
ATOM     59  C   UNL     1      10.328   7.499  -6.168  1.00  0.00     0.031 A 
ATOM     60  C   UNL     1      10.192   2.585 -10.773  1.00  0.00     0.049 A 
ATOM     61  C   UNL     1      10.974   7.189  -7.469  1.00  0.00     0.074 A 
ATOM     62  C   UNL     1      11.026   1.544 -10.421  1.00  0.00     0.029 A 
ATOM     63  N   UNL     1      10.957   3.727 -10.734  1.00  0.00    -0.354 N 
ATOM     64  N   UNL     1      12.065   6.484  -7.588  1.00  0.00    -0.248 NA
ATOM     65  C   UNL     1      10.216   7.360  -8.700  1.00  0.00     0.031 C 
ATOM     66  C   UNL     1      12.161   2.152  -9.812  1.00  0.00     0.029 A 
ATOM     67  C   UNL     1      11.971   3.536  -9.828  1.00  0.00     0.049 A 
ATOM     68  H   UNL     1      10.805   4.541 -11.265  1.00  0.00     0.167 HD
ATOM     69  C   UNL     1      11.927   5.797  -8.785  1.00  0.00     0.074 A 
ATOM     70  C   UNL     1      10.843   6.477  -9.483  1.00  0.00     0.031 C 
ATOM     71  C   UNL     1      12.516   4.580  -8.978  1.00  0.00     0.031 A 
BRANCH  58  72
ATOM     72  C   UNL     1       8.114   3.420 -12.047  1.00  0.00    -0.014 A 
ATOM     73  C   UNL     1       8.690   3.294 -13.322  1.00  0.00     0.010 A 
ATOM     74  C   UNL     1       7.083   4.372 -11.887  1.00  0.00     0.010 A 
ATOM     75  C   UNL     1       8.268   4.107 -14.382  1.00  0.00     0.020 A 
ATOM     76  C   UNL     1       6.623   5.150 -12.945  1.00  0.00     0.020 A 
ATOM     77  C   UNL     1       7.244   5.036 -14.180  1.00  0.00     0.054 A 
BRANCH  77  78
ATOM     78  S   UNL     1       6.775   6.152 -15.523  1.00  0.00     0.124 S 
ATOM     79  O   UNL     1       7.936   7.032 -15.597  1.00  0.00    -0.237 OA
ATOM     80  O   UNL     1       6.600   5.234 -16.645  1.00  0.00    -0.237 OA
ATOM     81  O   UNL     1       5.545   6.773 -15.037  1.00  0.00    -0.744 OA
ENDBRANCH  77  78
ENDBRANCH  58  72
BRANCH  59  82
ATOM     82  C   UNL     1       9.935   8.868  -5.762  1.00  0.00    -0.014 A 
ATOM     83  C   UNL     1      10.641   9.989  -6.230  1.00  0.00     0.010 A 
ATOM     84  C   UNL     1       8.692   9.089  -5.130  1.00  0.00     0.010 A 
ATOM     85  C   UNL     1      10.092  11.277  -6.129  1.00  0.00     0.020 A 
ATOM     86  C   UNL     1       8.146  10.369  -5.012  1.00  0.00     0.020 A 
ATOM     87  C   UNL     1       8.838  11.455  -5.538  1.00  0.00     0.054 A 
BRANCH  87  88
ATOM     88  S   UNL     1       8.054  13.092  -5.579  1.00  0.00     0.124 S 
ATOM     89  O   UNL     1       8.860  13.845  -4.623  1.00  0.00    -0.237 OA
ATOM     90  O   UNL     1       8.205  13.479  -6.979  1.00  0.00    -0.237 OA
ATOM     91  O   UNL     1       6.679  12.826  -5.159  1.00  0.00    -0.744 OA
ENDBRANCH  87  88
ENDBRANCH  59  82
BRANCH  71  92
ATOM     92  C   UNL     1      13.650   4.184  -8.058  1.00  0.00    -0.014 A 
ATOM     93  C   UNL     1      13.512   4.053  -6.663  1.00  0.00     0.010 A 
ATOM     94  C   UNL     1      14.873   3.812  -8.647  1.00  0.00     0.010 A 
ATOM     95  C   UNL     1      14.579   3.594  -5.877  1.00  0.00     0.020 A 
ATOM     96  C   UNL     1      15.934   3.335  -7.871  1.00  0.00     0.020 A 
ATOM     97  C   UNL     1      15.785   3.238  -6.487  1.00  0.00     0.054 A 
BRANCH  97  98
ATOM     98  S   UNL     1      17.142   2.595  -5.467  1.00  0.00     0.124 S 
ATOM     99  O   UNL     1      17.580   3.783  -4.739  1.00  0.00    -0.237 OA
ATOM    100  O   UNL     1      16.485   1.569  -4.661  1.00  0.00    -0.237 OA
ATOM    101  O   UNL     1      18.100   2.082  -6.446  1.00  0.00    -0.744 OA
ENDBRANCH  97  98
ENDBRANCH  71  92
ENDBRANCH  45  46
ENDBRANCH  38  40
ENDBRANCH  37  38
ENDBRANCH  36  37
ENDBRANCH  35  36
ENDBRANCH  34  35
ENDBRANCH  33  34
ENDBRANCH  32  33
ENDBRANCH   1  32
TORSDOF 26
