REMARK SMILES O=C(NC1(C(=O)OCCOCCOCCOCCOC(=O)c2ccc(-c3c4nc(c(-c5ccc(S(=O)(=O)[O-])cc5)c5ccc([nH]5)c(-c5ccc(S(=O)(=O)[O-])cc5)c5nc(c(-c6ccc(S(=O)(=O)[O-])cc6)c6ccc3[nH]6)C=C5)C=C4)cc2)CC[NH2+]CC1)OCC1c2ccccc2-c2ccccc21
REMARK SMILES IDX 12 1 11 2 10 3 9 4 8 5 7 6 5 7 6 8 4 9 82 10 86 11 83 12
REMARK SMILES IDX 85 13 84 14 3 17 1 18 2 19 87 21 88 22 89 23 90 24 101 25
REMARK SMILES IDX 91 26 95 27 96 28 100 29 92 30 94 31 97 32 99 33 93 34 98 35
REMARK SMILES IDX 13 36 14 37 15 38 16 39 17 40 18 41 19 42 20 43 21 44 22 45
REMARK SMILES IDX 23 46 81 47 24 48 80 49 25 50 26 51 27 52 74 53 28 54 79 55
REMARK SMILES IDX 73 56 75 57 29 58 78 59 72 60 71 61 30 63 60 64 41 65 59 66
REMARK SMILES IDX 42 67 45 68 58 69 76 70 43 71 44 72 57 74 77 75 46 76 31 77
REMARK SMILES IDX 32 78 40 79 33 80 39 81 34 82 35 83 36 84 37 85 38 86 61 87
REMARK SMILES IDX 62 88 70 89 63 90 69 91 64 92 65 93 66 94 67 95 68 96 47 97
REMARK SMILES IDX 48 98 56 99 49 100 55 101 50 102 51 103 52 104 53 105 54 106
REMARK H PARENT 84 15 84 16 3 20 75 62 45 73
REMARK Flexibility Score: inf
ROOT
ATOM      1  C   UNL     1       5.654   0.258   0.678  1.00  0.00     0.188 C 
ENDROOT
BRANCH   1   2
ATOM      2  C   UNL     1       4.624  -1.105   1.682  1.00  0.00     0.188 C 
BRANCH   2   3
ATOM      3  O   UNL     1       5.096  -1.669   2.893  1.00  0.00    -0.376 OA
BRANCH   3   4
ATOM      4  C   UNL     1       5.583  -2.973   2.739  1.00  0.00     0.202 C 
BRANCH   4   5
ATOM      5  C   UNL     1       5.478  -3.596   1.254  1.00  0.00     0.261 C 
BRANCH   5   6
ATOM      6  O   UNL     1       5.504  -2.606   0.012  1.00  0.00    -0.461 OA
BRANCH   6   7
ATOM      7  C   UNL     1       4.390  -2.433  -0.801  1.00  0.00     0.332 C 
ATOM      8  O   UNL     1       3.502  -3.295  -0.768  1.00  0.00    -0.249 OA
BRANCH   7   9
ATOM      9  C   UNL     1       4.169  -1.061  -1.819  1.00  0.00     0.151 C 
ATOM     10  C   UNL     1       4.761   0.401  -1.999  1.00  0.00     0.102 C 
ATOM     11  C   UNL     1       4.632  -1.734  -3.129  1.00  0.00     0.102 C 
ATOM     12  C   UNL     1       4.495   1.128  -3.320  1.00  0.00     0.263 C 
ATOM     13  C   UNL     1       4.412  -0.955  -4.419  1.00  0.00     0.263 C 
ATOM     14  N   UNL     1       5.051   0.349  -4.397  1.00  0.00    -0.346 N 
ATOM     15  H   UNL     1       6.055   0.236  -4.254  1.00  0.00     0.346 HD
ATOM     16  H   UNL     1       4.891   0.826  -5.285  1.00  0.00     0.346 HD
BRANCH   9  17
ATOM     17  N   UNL     1       2.689  -0.770  -1.640  1.00  0.00    -0.305 N 
ATOM     18  O   UNL     1       1.058   0.475  -0.571  1.00  0.00    -0.225 OA
ATOM     19  C   UNL     1       2.172  -0.021  -0.577  1.00  0.00     0.408 C 
ATOM     20  H   UNL     1       2.059  -1.128  -2.307  1.00  0.00     0.168 HD
BRANCH  19  21
ATOM     21  O   UNL     1       3.099   0.130   0.378  1.00  0.00    -0.449 OA
BRANCH  21  22
ATOM     22  C   UNL     1       3.364   1.063   1.526  1.00  0.00     0.248 C 
BRANCH  22  23
ATOM     23  C   UNL     1       5.127   0.891   2.207  1.00  0.00     0.088 C 
ATOM     24  C   UNL     1       6.957  -0.201   1.800  1.00  0.00    -0.029 A 
ATOM     25  C   UNL     1       5.489   2.497   1.041  1.00  0.00    -0.029 A 
ATOM     26  C   UNL     1       7.642  -1.405   1.673  1.00  0.00     0.005 A 
ATOM     27  C   UNL     1       7.848   0.865   0.675  1.00  0.00    -0.014 A 
ATOM     28  C   UNL     1       6.906   2.252   0.192  1.00  0.00    -0.014 A 
ATOM     29  C   UNL     1       4.776   3.653   0.829  1.00  0.00     0.005 A 
ATOM     30  C   UNL     1       9.006  -1.512   1.206  1.00  0.00     0.000 A 
ATOM     31  C   UNL     1       9.167   0.714   0.281  1.00  0.00     0.009 A 
ATOM     32  C   UNL     1       7.291   3.136  -0.785  1.00  0.00     0.009 A 
ATOM     33  C   UNL     1       5.295   4.510  -0.165  1.00  0.00     0.000 A 
ATOM     34  C   UNL     1       9.770  -0.470   0.649  1.00  0.00     0.001 A 
ATOM     35  C   UNL     1       6.472   4.257  -0.948  1.00  0.00     0.001 A 
ENDBRANCH  22  23
ENDBRANCH  21  22
ENDBRANCH  19  21
ENDBRANCH   9  17
ENDBRANCH   7   9
ENDBRANCH   6   7
ENDBRANCH   5   6
ENDBRANCH   4   5
ENDBRANCH   3   4
ENDBRANCH   2   3
ENDBRANCH   1   2
BRANCH   1  36
ATOM     36  O   UNL     1       6.670   1.480   2.054  1.00  0.00    -0.377 OA
BRANCH  36  37
ATOM     37  C   UNL     1       7.110   1.018   3.604  1.00  0.00     0.188 C 
BRANCH  37  38
ATOM     38  C   UNL     1       6.564   1.894   4.713  1.00  0.00     0.188 C 
BRANCH  38  39
ATOM     39  O   UNL     1       5.198   2.155   4.982  1.00  0.00    -0.376 OA
BRANCH  39  40
ATOM     40  C   UNL     1       4.573   3.222   4.260  1.00  0.00     0.202 C 
BRANCH  40  41
ATOM     41  C   UNL     1       5.218   4.625   4.125  1.00  0.00     0.261 C 
BRANCH  41  42
ATOM     42  O   UNL     1       6.573   4.700   3.620  1.00  0.00    -0.460 OA
BRANCH  42  43
ATOM     43  C   UNL     1       7.541   4.745   4.586  1.00  0.00     0.338 C 
ATOM     44  O   UNL     1       7.333   4.836   5.788  1.00  0.00    -0.246 OA
BRANCH  43  45
ATOM     45  C   UNL     1       8.855   4.264   4.061  1.00  0.00     0.060 A 
ATOM     46  C   UNL     1       9.491   3.190   4.722  1.00  0.00     0.016 A 
ATOM     47  C   UNL     1       9.488   4.887   2.995  1.00  0.00     0.016 A 
ATOM     48  C   UNL     1      10.772   2.784   4.372  1.00  0.00     0.010 A 
ATOM     49  C   UNL     1      10.812   4.540   2.700  1.00  0.00     0.010 A 
ATOM     50  C   UNL     1      11.473   3.528   3.426  1.00  0.00    -0.014 A 
BRANCH  50  51
ATOM     51  C   UNL     1      12.949   3.416   3.406  1.00  0.00     0.031 A 
ATOM     52  C   UNL     1      13.745   4.438   4.169  1.00  0.00     0.074 A 
ATOM     53  C   UNL     1      13.565   2.389   2.799  1.00  0.00     0.049 A 
ATOM     54  N   UNL     1      15.041   4.561   4.280  1.00  0.00    -0.248 NA
ATOM     55  C   UNL     1      12.977   5.458   4.905  1.00  0.00     0.031 C 
ATOM     56  C   UNL     1      12.887   1.293   2.113  1.00  0.00     0.029 A 
ATOM     57  N   UNL     1      14.899   2.101   2.665  1.00  0.00    -0.354 N 
ATOM     58  C   UNL     1      15.245   5.679   5.081  1.00  0.00     0.074 A 
ATOM     59  C   UNL     1      13.941   6.218   5.400  1.00  0.00     0.031 C 
ATOM     60  C   UNL     1      13.812   0.458   1.610  1.00  0.00     0.029 A 
ATOM     61  C   UNL     1      15.144   0.982   1.905  1.00  0.00     0.049 A 
ATOM     62  H   UNL     1      15.613   2.643   3.072  1.00  0.00     0.167 HD
ATOM     63  C   UNL     1      16.415   6.204   5.513  1.00  0.00     0.031 A 
ATOM     64  C   UNL     1      16.308   0.461   1.472  1.00  0.00     0.031 A 
ATOM     65  C   UNL     1      17.705   5.670   5.165  1.00  0.00     0.049 A 
ATOM     66  C   UNL     1      17.599   1.127   1.872  1.00  0.00     0.074 A 
ATOM     67  C   UNL     1      18.954   6.127   5.547  1.00  0.00     0.029 A 
ATOM     68  N   UNL     1      17.915   4.572   4.343  1.00  0.00    -0.354 N 
ATOM     69  N   UNL     1      17.781   2.178   2.638  1.00  0.00    -0.248 NA
ATOM     70  C   UNL     1      18.840   0.534   1.360  1.00  0.00     0.031 C 
ATOM     71  C   UNL     1      19.917   5.362   4.884  1.00  0.00     0.029 A 
ATOM     72  C   UNL     1      19.273   4.362   4.172  1.00  0.00     0.049 A 
ATOM     73  H   UNL     1      17.204   4.024   3.940  1.00  0.00     0.167 HD
ATOM     74  C   UNL     1      19.158   2.347   2.728  1.00  0.00     0.074 A 
ATOM     75  C   UNL     1      19.760   1.281   1.954  1.00  0.00     0.031 C 
ATOM     76  C   UNL     1      19.861   3.297   3.396  1.00  0.00     0.031 A 
BRANCH  63  77
ATOM     77  C   UNL     1      16.352   7.449   6.362  1.00  0.00    -0.014 A 
ATOM     78  C   UNL     1      15.794   7.434   7.653  1.00  0.00     0.010 A 
ATOM     79  C   UNL     1      16.894   8.650   5.868  1.00  0.00     0.010 A 
ATOM     80  C   UNL     1      15.744   8.604   8.416  1.00  0.00     0.020 A 
ATOM     81  C   UNL     1      16.885   9.811   6.644  1.00  0.00     0.020 A 
ATOM     82  C   UNL     1      16.296   9.784   7.908  1.00  0.00     0.054 A 
BRANCH  82  83
ATOM     83  S   UNL     1      16.252  11.274   8.939  1.00  0.00     0.124 S 
ATOM     84  O   UNL     1      14.820  11.557   9.003  1.00  0.00    -0.237 OA
ATOM     85  O   UNL     1      16.857  10.812  10.186  1.00  0.00    -0.237 OA
ATOM     86  O   UNL     1      17.044  12.243   8.186  1.00  0.00    -0.744 OA
ENDBRANCH  82  83
ENDBRANCH  63  77
BRANCH  64  87
ATOM     87  C   UNL     1      16.305  -0.731   0.578  1.00  0.00    -0.014 A 
ATOM     88  C   UNL     1      16.873  -1.950   0.987  1.00  0.00     0.010 A 
ATOM     89  C   UNL     1      15.734  -0.643  -0.706  1.00  0.00     0.010 A 
ATOM     90  C   UNL     1      16.883  -3.051   0.125  1.00  0.00     0.020 A 
ATOM     91  C   UNL     1      15.705  -1.752  -1.554  1.00  0.00     0.020 A 
ATOM     92  C   UNL     1      16.288  -2.948  -1.135  1.00  0.00     0.054 A 
BRANCH  92  93
ATOM     93  S   UNL     1      16.253  -4.410  -2.207  1.00  0.00     0.124 S 
ATOM     94  O   UNL     1      17.667  -4.601  -2.512  1.00  0.00    -0.237 OA
ATOM     95  O   UNL     1      15.650  -5.416  -1.336  1.00  0.00    -0.237 OA
ATOM     96  O   UNL     1      15.420  -3.991  -3.332  1.00  0.00    -0.744 OA
ENDBRANCH  92  93
ENDBRANCH  64  87
BRANCH  76  97
ATOM     97  C   UNL     1      21.366   3.200   3.368  1.00  0.00    -0.014 A 
ATOM     98  C   UNL     1      22.101   3.402   2.186  1.00  0.00     0.010 A 
ATOM     99  C   UNL     1      22.061   2.958   4.569  1.00  0.00     0.010 A 
ATOM    100  C   UNL     1      23.496   3.323   2.199  1.00  0.00     0.020 A 
ATOM    101  C   UNL     1      23.456   2.925   4.595  1.00  0.00     0.020 A 
ATOM    102  C   UNL     1      24.165   3.093   3.405  1.00  0.00     0.054 A 
BRANCH 102 103
ATOM    103  S   UNL     1      25.977   3.050   3.401  1.00  0.00     0.124 S 
ATOM    104  O   UNL     1      26.253   1.841   2.630  1.00  0.00    -0.237 OA
ATOM    105  O   UNL     1      26.320   4.309   2.743  1.00  0.00    -0.237 OA
ATOM    106  O   UNL     1      26.328   2.977   4.817  1.00  0.00    -0.744 OA
ENDBRANCH 102 103
ENDBRANCH  76  97
ENDBRANCH  50  51
ENDBRANCH  43  45
ENDBRANCH  42  43
ENDBRANCH  41  42
ENDBRANCH  40  41
ENDBRANCH  39  40
ENDBRANCH  38  39
ENDBRANCH  37  38
ENDBRANCH  36  37
ENDBRANCH   1  36
TORSDOF 27
