REMARK SMILES C/C(=N\NC(N)=S)c1nnn(-c2ccc(C(=O)OCCOCCOCCOCCOC(=O)c3ccc(-c4c5nc(c(-c6ccc(S(=O)(=O)[O-])cc6)c6ccc([nH]6)c(-c6ccc(S(=O)(=O)[O-])cc6)c6nc(c(-c7ccc(S(=O)(=O)[O-])cc7)c7ccc4[nH]7)C=C6)C=C5)cc3)cc2)c1C
REMARK SMILES IDX 23 1 22 2 21 3 20 4 19 5 18 6 16 7 17 8 15 9 12 10 13 11
REMARK SMILES IDX 94 12 14 13 93 14 11 15 8 16 9 17 95 18 10 19 96 20 2 21
REMARK SMILES IDX 1 22 3 23 4 24 5 26 7 27 6 28 24 31 25 32 26 33 27 34 28 35
REMARK SMILES IDX 29 36 30 37 31 38 32 39 33 40 34 41 92 42 35 43 91 44 36 45
REMARK SMILES IDX 37 46 38 47 85 48 39 49 90 50 84 51 86 52 40 53 89 54 83 55
REMARK SMILES IDX 82 56 41 58 71 59 52 60 70 61 53 62 56 63 69 64 87 65 54 66
REMARK SMILES IDX 55 67 68 69 88 70 57 71 42 72 43 73 51 74 44 75 50 76 45 77
REMARK SMILES IDX 46 78 47 79 48 80 49 81 72 82 73 83 81 84 74 85 80 86 75 87
REMARK SMILES IDX 76 88 77 89 78 90 79 91 58 92 59 93 67 94 60 95 66 96 61 97
REMARK SMILES IDX 62 98 63 99 64 100 65 101
REMARK H PARENT 4 25 6 29 6 30 86 57 56 68
REMARK Flexibility Score: inf
ROOT
ATOM      1  C   UNL     1       6.756  -1.157   8.841  1.00  0.00     0.188 C 
ENDROOT
BRANCH   1   2
ATOM      2  C   UNL     1       7.004  -2.668   8.640  1.00  0.00     0.188 C 
BRANCH   2   3
ATOM      3  O   UNL     1       8.303  -3.228   8.752  1.00  0.00    -0.376 OA
BRANCH   3   4
ATOM      4  C   UNL     1       9.435  -2.724   8.067  1.00  0.00     0.202 C 
BRANCH   4   5
ATOM      5  C   UNL     1       9.404  -2.034   6.695  1.00  0.00     0.261 C 
BRANCH   5   6
ATOM      6  O   UNL     1       8.164  -1.483   6.274  1.00  0.00    -0.460 OA
BRANCH   6   7
ATOM      7  C   UNL     1       7.370  -2.308   5.559  1.00  0.00     0.338 C 
ATOM      8  O   UNL     1       7.616  -3.440   5.191  1.00  0.00    -0.246 OA
BRANCH   7   9
ATOM      9  C   UNL     1       6.048  -1.657   5.420  1.00  0.00     0.060 A 
ATOM     10  C   UNL     1       3.573  -0.550   4.906  1.00  0.00     0.067 A 
ATOM     11  C   UNL     1       3.641  -1.894   5.289  1.00  0.00     0.029 A 
ATOM     12  C   UNL     1       4.702   0.277   4.945  1.00  0.00     0.029 A 
ATOM     13  C   UNL     1       4.896  -2.453   5.518  1.00  0.00     0.018 A 
ATOM     14  C   UNL     1       5.946  -0.279   5.208  1.00  0.00     0.018 A 
BRANCH  10  15
ATOM     15  N   UNL     1       2.443  -0.114   4.187  1.00  0.00    -0.217 N 
ATOM     16  C   UNL     1       1.134   0.307   2.500  1.00  0.00     0.132 A 
ATOM     17  N   UNL     1       0.367  -0.101   3.559  1.00  0.00    -0.128 NA
ATOM     18  C   UNL     1       2.465   0.290   2.860  1.00  0.00     0.071 A 
ATOM     19  N   UNL     1       1.180  -0.423   4.557  1.00  0.00    -0.061 NA
ATOM     20  C   UNL     1       3.683   0.392   2.018  1.00  0.00     0.069 C 
BRANCH  16  21
ATOM     21  C   UNL     1       0.613   0.417   1.151  1.00  0.00     0.087 C 
ATOM     22  C   UNL     1       0.600  -0.865   0.363  1.00  0.00     0.071 C 
ATOM     23  N   UNL     1       0.222   1.602   0.790  1.00  0.00    -0.176 NA
BRANCH  23  24
ATOM     24  N   UNL     1      -0.342   1.856  -0.425  1.00  0.00    -0.254 N 
ATOM     25  H   UNL     1      -1.268   2.192  -0.397  1.00  0.00     0.193 HD
BRANCH  24  26
ATOM     26  C   UNL     1       0.194   1.712  -1.688  1.00  0.00     0.184 C 
ATOM     27  S   UNL     1       1.661   1.094  -2.168  1.00  0.00    -0.040 S 
BRANCH  26  28
ATOM     28  N   UNL     1      -0.660   2.166  -2.659  1.00  0.00    -0.375 N 
ATOM     29  H   UNL     1      -1.536   2.538  -2.409  1.00  0.00     0.159 HD
ATOM     30  H   UNL     1      -0.396   2.121  -3.606  1.00  0.00     0.159 HD
ENDBRANCH  26  28
ENDBRANCH  24  26
ENDBRANCH  23  24
ENDBRANCH  16  21
ENDBRANCH  10  15
ENDBRANCH   7   9
ENDBRANCH   6   7
ENDBRANCH   5   6
ENDBRANCH   4   5
ENDBRANCH   3   4
ENDBRANCH   2   3
ENDBRANCH   1   2
BRANCH   1  31
ATOM     31  O   UNL     1       7.926  -0.362   8.799  1.00  0.00    -0.377 OA
BRANCH  31  32
ATOM     32  C   UNL     1       8.598  -0.128  10.035  1.00  0.00     0.188 C 
BRANCH  32  33
ATOM     33  C   UNL     1       8.638  -1.229  11.129  1.00  0.00     0.188 C 
BRANCH  33  34
ATOM     34  O   UNL     1       7.489  -2.058  11.203  1.00  0.00    -0.376 OA
BRANCH  34  35
ATOM     35  C   UNL     1       6.506  -1.943  12.214  1.00  0.00     0.202 C 
BRANCH  35  36
ATOM     36  C   UNL     1       5.738  -0.634  12.339  1.00  0.00     0.261 C 
BRANCH  36  37
ATOM     37  O   UNL     1       6.537   0.512  12.139  1.00  0.00    -0.460 OA
BRANCH  37  38
ATOM     38  C   UNL     1       7.412   0.753  13.136  1.00  0.00     0.338 C 
ATOM     39  O   UNL     1       7.760  -0.011  14.013  1.00  0.00    -0.246 OA
BRANCH  38  40
ATOM     40  C   UNL     1       7.755   2.173  13.083  1.00  0.00     0.060 A 
ATOM     41  C   UNL     1       8.704   2.599  14.008  1.00  0.00     0.016 A 
ATOM     42  C   UNL     1       6.837   3.042  12.474  1.00  0.00     0.016 A 
ATOM     43  C   UNL     1       8.534   3.848  14.549  1.00  0.00     0.010 A 
ATOM     44  C   UNL     1       6.644   4.269  13.043  1.00  0.00     0.010 A 
ATOM     45  C   UNL     1       7.434   4.609  14.136  1.00  0.00    -0.014 A 
BRANCH  45  46
ATOM     46  C   UNL     1       7.210   5.880  14.776  1.00  0.00     0.031 A 
ATOM     47  C   UNL     1       8.155   6.887  14.264  1.00  0.00     0.074 A 
ATOM     48  C   UNL     1       6.203   6.101  15.640  1.00  0.00     0.049 A 
ATOM     49  N   UNL     1       9.243   7.281  14.836  1.00  0.00    -0.248 NA
ATOM     50  C   UNL     1       8.043   7.278  12.846  1.00  0.00     0.031 C 
ATOM     51  C   UNL     1       5.077   5.226  15.977  1.00  0.00     0.029 A 
ATOM     52  N   UNL     1       5.923   7.231  16.334  1.00  0.00    -0.354 N 
ATOM     53  C   UNL     1       9.788   8.202  13.956  1.00  0.00     0.074 A 
ATOM     54  C   UNL     1       9.191   7.932  12.675  1.00  0.00     0.031 C 
ATOM     55  C   UNL     1       4.123   5.956  16.605  1.00  0.00     0.029 A 
ATOM     56  C   UNL     1       4.625   7.303  16.826  1.00  0.00     0.049 A 
ATOM     57  H   UNL     1       6.586   7.944  16.478  1.00  0.00     0.167 HD
ATOM     58  C   UNL     1      10.374   9.337  14.425  1.00  0.00     0.031 A 
ATOM     59  C   UNL     1       4.009   8.420  17.300  1.00  0.00     0.031 A 
ATOM     60  C   UNL     1      10.671   9.229  15.834  1.00  0.00     0.049 A 
ATOM     61  C   UNL     1       5.079   9.399  17.629  1.00  0.00     0.074 A 
ATOM     62  C   UNL     1      11.409   8.357  16.609  1.00  0.00     0.029 A 
ATOM     63  N   UNL     1       9.811   9.875  16.692  1.00  0.00    -0.354 N 
ATOM     64  N   UNL     1       5.931   9.226  18.601  1.00  0.00    -0.248 NA
ATOM     65  C   UNL     1       5.507  10.319  16.586  1.00  0.00     0.031 C 
ATOM     66  C   UNL     1      10.661   8.203  17.812  1.00  0.00     0.029 A 
ATOM     67  C   UNL     1       9.550   9.047  17.750  1.00  0.00     0.049 A 
ATOM     68  H   UNL     1       9.445  10.780  16.566  1.00  0.00     0.167 HD
ATOM     69  C   UNL     1       7.150   9.636  18.080  1.00  0.00     0.074 A 
ATOM     70  C   UNL     1       6.811  10.387  16.870  1.00  0.00     0.031 C 
ATOM     71  C   UNL     1       8.321   9.080  18.514  1.00  0.00     0.031 A 
BRANCH  58  72
ATOM     72  C   UNL     1      10.206  10.675  13.744  1.00  0.00    -0.014 A 
ATOM     73  C   UNL     1      10.831  11.797  14.320  1.00  0.00     0.010 A 
ATOM     74  C   UNL     1       9.242  10.927  12.743  1.00  0.00     0.010 A 
ATOM     75  C   UNL     1      10.451  13.098  13.970  1.00  0.00     0.020 A 
ATOM     76  C   UNL     1       8.889  12.217  12.353  1.00  0.00     0.020 A 
ATOM     77  C   UNL     1       9.475  13.296  12.994  1.00  0.00     0.054 A 
BRANCH  77  78
ATOM     78  S   UNL     1       8.940  14.975  12.600  1.00  0.00     0.124 S 
ATOM     79  O   UNL     1       8.298  15.384  13.844  1.00  0.00    -0.237 OA
ATOM     80  O   UNL     1      10.207  15.632  12.290  1.00  0.00    -0.237 OA
ATOM     81  O   UNL     1       8.045  14.789  11.460  1.00  0.00    -0.744 OA
ENDBRANCH  77  78
ENDBRANCH  58  72
BRANCH  59  82
ATOM     82  C   UNL     1       2.585   8.832  17.168  1.00  0.00    -0.014 A 
ATOM     83  C   UNL     1       2.095   9.960  17.858  1.00  0.00     0.010 A 
ATOM     84  C   UNL     1       1.786   8.307  16.133  1.00  0.00     0.010 A 
ATOM     85  C   UNL     1       0.896  10.587  17.472  1.00  0.00     0.020 A 
ATOM     86  C   UNL     1       0.586   8.920  15.748  1.00  0.00     0.020 A 
ATOM     87  C   UNL     1       0.161  10.076  16.399  1.00  0.00     0.054 A 
BRANCH  87  88
ATOM     88  S   UNL     1      -1.272  11.003  15.769  1.00  0.00     0.124 S 
ATOM     89  O   UNL     1      -2.257  10.815  16.830  1.00  0.00    -0.237 OA
ATOM     90  O   UNL     1      -0.741  12.357  15.632  1.00  0.00    -0.237 OA
ATOM     91  O   UNL     1      -1.585  10.335  14.507  1.00  0.00    -0.744 OA
ENDBRANCH  87  88
ENDBRANCH  59  82
BRANCH  71  92
ATOM     92  C   UNL     1       8.306   8.285  19.799  1.00  0.00    -0.014 A 
ATOM     93  C   UNL     1       7.525   7.135  20.025  1.00  0.00     0.010 A 
ATOM     94  C   UNL     1       9.229   8.672  20.787  1.00  0.00     0.010 A 
ATOM     95  C   UNL     1       7.635   6.422  21.231  1.00  0.00     0.020 A 
ATOM     96  C   UNL     1       9.359   7.956  21.976  1.00  0.00     0.020 A 
ATOM     97  C   UNL     1       8.549   6.844  22.202  1.00  0.00     0.054 A 
BRANCH  97  98
ATOM     98  S   UNL     1       8.691   5.931  23.763  1.00  0.00     0.124 S 
ATOM     99  O   UNL     1       7.402   6.190  24.400  1.00  0.00    -0.237 OA
ATOM    100  O   UNL     1       8.909   4.557  23.317  1.00  0.00    -0.237 OA
ATOM    101  O   UNL     1       9.840   6.548  24.424  1.00  0.00    -0.744 OA
ENDBRANCH  97  98
ENDBRANCH  71  92
ENDBRANCH  45  46
ENDBRANCH  38  40
ENDBRANCH  37  38
ENDBRANCH  36  37
ENDBRANCH  35  36
ENDBRANCH  34  35
ENDBRANCH  33  34
ENDBRANCH  32  33
ENDBRANCH  31  32
ENDBRANCH   1  31
TORSDOF 28
