REMARK SMILES [NH3+][C@@H]1CCCCC[C@H]1C(=O)N1[C@@H](C2CC2)SC[C@H]1C(=O)OCCOCCOCCOCCOC(=O)c1ccc(-c2c3nc(c(-c4ccc(S(=O)(=O)[O-])cc4)c4ccc([nH]4)c(-c4ccc(S(=O)(=O)[O-])cc4)c4nc(c(-c5ccc(S(=O)(=O)[O-])cc5)c5ccc2[nH]5)C=C4)C=C3)cc1
REMARK SMILES IDX 26 1 25 2 24 3 23 4 22 5 21 6 19 7 20 8 18 9 11 10 12 11
REMARK SMILES IDX 16 12 17 13 9 14 10 15 8 16 2 17 1 18 3 22 4 23 7 25 6 26
REMARK SMILES IDX 5 27 13 29 14 30 15 31 27 32 28 33 29 34 30 35 31 36 32 37
REMARK SMILES IDX 33 38 34 39 35 40 36 41 37 42 95 43 38 44 94 45 39 46 40 47
REMARK SMILES IDX 41 48 88 49 42 50 93 51 87 52 89 53 43 54 92 55 86 56 85 57
REMARK SMILES IDX 44 59 74 60 55 61 73 62 56 63 59 64 72 65 90 66 57 67 58 68
REMARK SMILES IDX 71 70 91 71 60 72 45 73 46 74 54 75 47 76 53 77 48 78 49 79
REMARK SMILES IDX 50 80 51 81 52 82 75 83 76 84 84 85 77 86 83 87 78 88 79 89
REMARK SMILES IDX 80 90 81 91 82 92 61 93 62 94 70 95 63 96 69 97 64 98 65 99
REMARK SMILES IDX 66 100 67 101 68 102
REMARK H PARENT 1 19 1 20 1 21 89 58 59 69
REMARK Flexibility Score: 90.00
ROOT
ATOM      1  C   UNL     1       1.474   4.830   0.522  1.00  0.00     0.188 C 
ENDROOT
BRANCH   1   2
ATOM      2  C   UNL     1       0.836   5.994   1.319  1.00  0.00     0.188 C 
BRANCH   2   3
ATOM      3  O   UNL     1       1.490   7.258   1.439  1.00  0.00    -0.376 OA
BRANCH   3   4
ATOM      4  C   UNL     1       2.896   7.337   1.271  1.00  0.00     0.202 C 
BRANCH   4   5
ATOM      5  C   UNL     1       3.777   6.533   2.240  1.00  0.00     0.261 C 
BRANCH   5   6
ATOM      6  O   UNL     1       3.338   5.184   2.515  1.00  0.00    -0.462 OA
BRANCH   6   7
ATOM      7  C   UNL     1       2.733   4.959   3.703  1.00  0.00     0.329 C 
ATOM      8  O   UNL     1       2.634   5.811   4.585  1.00  0.00    -0.250 OA
BRANCH   7   9
ATOM      9  C   UNL     1       2.296   3.491   3.968  1.00  0.00     0.206 C 
ATOM     10  N   UNL     1       2.027   2.392   2.990  1.00  0.00    -0.315 N 
ATOM     11  C   UNL     1       3.177   1.539   2.764  1.00  0.00     0.147 C 
ATOM     12  S   UNL     1       4.020   1.436   4.340  1.00  0.00    -0.134 SA
ATOM     13  C   UNL     1       3.318   2.969   4.986  1.00  0.00     0.109 C 
BRANCH  10  14
ATOM     14  C   UNL     1       0.739   2.241   2.513  1.00  0.00     0.233 C 
ATOM     15  O   UNL     1       0.010   3.249   2.489  1.00  0.00    -0.274 OA
BRANCH  14  16
ATOM     16  C   UNL     1      -0.008   0.890   2.260  1.00  0.00     0.136 C 
BRANCH  16  17
ATOM     17  C   UNL     1       0.660  -0.346   1.614  1.00  0.00     0.193 C 
BRANCH  17  18
ATOM     18  N   UNL     1       1.013  -0.089   0.212  1.00  0.00    -0.354 N 
ATOM     19  H   UNL     1       1.451  -0.920  -0.186  1.00  0.00     0.344 HD
ATOM     20  H   UNL     1       1.664   0.695   0.163  1.00  0.00     0.344 HD
ATOM     21  H   UNL     1       0.170   0.137  -0.315  1.00  0.00     0.344 HD
ENDBRANCH  17  18
BRANCH  17  22
ATOM     22  C   UNL     1      -0.167  -1.657   1.605  1.00  0.00     0.066 C 
BRANCH  22  23
ATOM     23  C   UNL     1      -0.370  -2.253   3.000  1.00  0.00     0.006 CG0
ATOM     24  G   UNL     1      -1.627  -1.766   3.708  1.00  0.00     0.000 G0
ENDBRANCH  22  23
ENDBRANCH  17  22
ENDBRANCH  16  17
BRANCH  16  25
ATOM     25  C   UNL     1      -0.743   0.616   3.598  1.00  0.00     0.020 C 
BRANCH  25  26
ATOM     26  C   UNL     1      -1.959  -0.300   3.475  1.00  0.00     0.001 C 
BRANCH  26  27
ATOM     27  C   UNL     1      -1.627  -1.766   3.708  1.00  0.00     0.000 CG0
ATOM     28  G   UNL     1      -0.370  -2.253   3.000  1.00  0.00     0.000 G0
ENDBRANCH  26  27
ENDBRANCH  25  26
ENDBRANCH  16  25
ENDBRANCH  14  16
ENDBRANCH  10  14
BRANCH  11  29
ATOM     29  C   UNL     1       3.982   2.004   1.581  1.00  0.00     0.022 C 
ATOM     30  C   UNL     1       5.098   3.024   1.623  1.00  0.00     0.007 C 
ATOM     31  C   UNL     1       5.424   1.579   1.377  1.00  0.00     0.007 C 
ENDBRANCH  11  29
ENDBRANCH   7   9
ENDBRANCH   6   7
ENDBRANCH   5   6
ENDBRANCH   4   5
ENDBRANCH   3   4
ENDBRANCH   2   3
ENDBRANCH   1   2
BRANCH   1  32
ATOM     32  O   UNL     1       2.540   5.199  -0.333  1.00  0.00    -0.377 OA
BRANCH  32  33
ATOM     33  C   UNL     1       2.220   5.236  -1.709  1.00  0.00     0.188 C 
BRANCH  33  34
ATOM     34  C   UNL     1       0.994   6.089  -2.067  1.00  0.00     0.188 C 
BRANCH  34  35
ATOM     35  O   UNL     1      -0.175   5.679  -1.372  1.00  0.00    -0.376 OA
BRANCH  35  36
ATOM     36  C   UNL     1      -1.136   4.855  -2.003  1.00  0.00     0.202 C 
BRANCH  36  37
ATOM     37  C   UNL     1      -0.767   3.423  -2.428  1.00  0.00     0.261 C 
BRANCH  37  38
ATOM     38  O   UNL     1       0.475   3.224  -3.112  1.00  0.00    -0.460 OA
BRANCH  38  39
ATOM     39  C   UNL     1       0.624   3.792  -4.332  1.00  0.00     0.338 C 
ATOM     40  O   UNL     1      -0.195   4.453  -4.931  1.00  0.00    -0.246 OA
BRANCH  39  41
ATOM     41  C   UNL     1       2.051   3.638  -4.712  1.00  0.00     0.060 A 
ATOM     42  C   UNL     1       2.821   4.790  -4.926  1.00  0.00     0.016 A 
ATOM     43  C   UNL     1       2.634   2.373  -4.812  1.00  0.00     0.016 A 
ATOM     44  C   UNL     1       4.173   4.679  -5.256  1.00  0.00     0.010 A 
ATOM     45  C   UNL     1       3.979   2.262  -5.181  1.00  0.00     0.010 A 
ATOM     46  C   UNL     1       4.746   3.414  -5.432  1.00  0.00    -0.014 A 
BRANCH  46  47
ATOM     47  C   UNL     1       6.068   3.295  -6.093  1.00  0.00     0.031 A 
ATOM     48  C   UNL     1       6.091   3.050  -7.578  1.00  0.00     0.074 A 
ATOM     49  C   UNL     1       7.218   3.418  -5.406  1.00  0.00     0.049 A 
ATOM     50  N   UNL     1       7.110   2.860  -8.373  1.00  0.00    -0.248 NA
ATOM     51  C   UNL     1       4.783   3.014  -8.255  1.00  0.00     0.031 C 
ATOM     52  C   UNL     1       7.326   3.713  -3.978  1.00  0.00     0.029 A 
ATOM     53  N   UNL     1       8.520   3.304  -5.826  1.00  0.00    -0.354 N 
ATOM     54  C   UNL     1       6.568   2.670  -9.639  1.00  0.00     0.074 A 
ATOM     55  C   UNL     1       5.131   2.741  -9.503  1.00  0.00     0.031 C 
ATOM     56  C   UNL     1       8.627   3.742  -3.638  1.00  0.00     0.029 A 
ATOM     57  C   UNL     1       9.440   3.432  -4.813  1.00  0.00     0.049 A 
ATOM     58  H   UNL     1       8.771   3.144  -6.765  1.00  0.00     0.167 HD
ATOM     59  C   UNL     1       7.210   2.459 -10.811  1.00  0.00     0.031 A 
ATOM     60  C   UNL     1      10.782   3.291  -4.831  1.00  0.00     0.031 A 
ATOM     61  C   UNL     1       8.640   2.369 -10.937  1.00  0.00     0.049 A 
ATOM     62  C   UNL     1      11.470   2.966  -6.134  1.00  0.00     0.074 A 
ATOM     63  C   UNL     1       9.391   2.165 -12.081  1.00  0.00     0.029 A 
ATOM     64  N   UNL     1       9.534   2.465  -9.882  1.00  0.00    -0.354 N 
ATOM     65  N   UNL     1      10.948   2.813  -7.329  1.00  0.00    -0.248 NA
ATOM     66  C   UNL     1      12.931   2.803  -6.093  1.00  0.00     0.031 C 
ATOM     67  C   UNL     1      10.735   2.070 -11.707  1.00  0.00     0.029 A 
ATOM     68  C   UNL     1      10.828   2.292 -10.342  1.00  0.00     0.049 A 
ATOM     69  H   UNL     1       9.286   2.631  -8.944  1.00  0.00     0.167 HD
ATOM     70  C   UNL     1      12.019   2.569  -8.184  1.00  0.00     0.074 A 
ATOM     71  C   UNL     1      13.218   2.610  -7.373  1.00  0.00     0.031 C 
ATOM     72  C   UNL     1      12.012   2.337  -9.521  1.00  0.00     0.031 A 
BRANCH  59  73
ATOM     73  C   UNL     1       6.366   2.266 -12.043  1.00  0.00    -0.014 A 
ATOM     74  C   UNL     1       5.638   3.329 -12.607  1.00  0.00     0.010 A 
ATOM     75  C   UNL     1       6.331   1.005 -12.668  1.00  0.00     0.010 A 
ATOM     76  C   UNL     1       4.862   3.126 -13.752  1.00  0.00     0.020 A 
ATOM     77  C   UNL     1       5.582   0.806 -13.831  1.00  0.00     0.020 A 
ATOM     78  C   UNL     1       4.841   1.865 -14.357  1.00  0.00     0.054 A 
BRANCH  78  79
ATOM     79  S   UNL     1       3.852   1.640 -15.861  1.00  0.00     0.124 S 
ATOM     80  O   UNL     1       2.489   1.718 -15.339  1.00  0.00    -0.237 OA
ATOM     81  O   UNL     1       4.272   2.767 -16.690  1.00  0.00    -0.237 OA
ATOM     82  O   UNL     1       4.256   0.325 -16.350  1.00  0.00    -0.744 OA
ENDBRANCH  78  79
ENDBRANCH  59  73
BRANCH  60  83
ATOM     83  C   UNL     1      11.566   3.426  -3.571  1.00  0.00    -0.014 A 
ATOM     84  C   UNL     1      12.468   4.490  -3.393  1.00  0.00     0.010 A 
ATOM     85  C   UNL     1      11.424   2.476  -2.542  1.00  0.00     0.010 A 
ATOM     86  C   UNL     1      13.225   4.591  -2.220  1.00  0.00     0.020 A 
ATOM     87  C   UNL     1      12.154   2.590  -1.356  1.00  0.00     0.020 A 
ATOM     88  C   UNL     1      13.059   3.642  -1.207  1.00  0.00     0.054 A 
BRANCH  88  89
ATOM     89  S   UNL     1      14.016   3.821   0.324  1.00  0.00     0.124 S 
ATOM     90  O   UNL     1      15.366   3.489  -0.119  1.00  0.00    -0.237 OA
ATOM     91  O   UNL     1      13.789   5.221   0.673  1.00  0.00    -0.237 OA
ATOM     92  O   UNL     1      13.398   2.853   1.228  1.00  0.00    -0.744 OA
ENDBRANCH  88  89
ENDBRANCH  60  83
BRANCH  72  93
ATOM     93  C   UNL     1      13.342   2.153 -10.207  1.00  0.00    -0.014 A 
ATOM     94  C   UNL     1      14.119   0.998 -10.008  1.00  0.00     0.010 A 
ATOM     95  C   UNL     1      13.788   3.127 -11.121  1.00  0.00     0.010 A 
ATOM     96  C   UNL     1      15.332   0.837 -10.685  1.00  0.00     0.020 A 
ATOM     97  C   UNL     1      14.982   2.954 -11.825  1.00  0.00     0.020 A 
ATOM     98  C   UNL     1      15.754   1.815 -11.591  1.00  0.00     0.054 A 
BRANCH  98  99
ATOM     99  S   UNL     1      17.308   1.558 -12.491  1.00  0.00     0.124 S 
ATOM    100  O   UNL     1      18.303   1.745 -11.438  1.00  0.00    -0.237 OA
ATOM    101  O   UNL     1      17.167   0.192 -12.987  1.00  0.00    -0.237 OA
ATOM    102  O   UNL     1      17.289   2.595 -13.520  1.00  0.00    -0.744 OA
ENDBRANCH  98  99
ENDBRANCH  72  93
ENDBRANCH  46  47
ENDBRANCH  39  41
ENDBRANCH  38  39
ENDBRANCH  37  38
ENDBRANCH  36  37
ENDBRANCH  35  36
ENDBRANCH  34  35
ENDBRANCH  33  34
ENDBRANCH  32  33
ENDBRANCH   1  32
TORSDOF 27
