REMARK SMILES Cc1cccc(C(=O)Nc2cc(C(=O)OCCOCCOCCOCCOC(=O)c3ccc(-c4c5nc(c(-c6ccc(S(=O)(=O)[O-])cc6)c6ccc([nH]6)c(-c6ccc(S(=O)(=O)[O-])cc6)c6nc(c(-c7ccc(S(=O)(=O)[O-])cc7)c7ccc4[nH]7)C=C6)C=C5)cc3)ccc2N2CC[NH+](CC(=O)NC(C)(C)C)CC2)c1
REMARK SMILES IDX 20 1 19 2 18 3 17 4 16 5 15 6 13 7 14 8 12 9 10 10 11 11
REMARK SMILES IDX 92 12 91 13 90 14 9 15 7 16 8 17 6 19 1 20 2 21 3 22 107 23
REMARK SMILES IDX 4 24 5 25 93 26 94 27 106 28 95 29 105 30 96 31 97 33 98 34
REMARK SMILES IDX 99 35 100 36 101 38 102 39 103 40 104 41 21 42 22 43 23 44
REMARK SMILES IDX 24 45 25 46 26 47 27 48 28 49 29 50 30 51 31 52 89 53 32 54
REMARK SMILES IDX 88 55 33 56 34 57 35 58 82 59 36 60 87 61 81 62 83 63 37 64
REMARK SMILES IDX 86 65 80 66 79 67 38 69 68 70 49 71 67 72 50 73 53 74 66 75
REMARK SMILES IDX 84 76 51 77 52 78 65 80 85 81 54 82 39 83 40 84 48 85 41 86
REMARK SMILES IDX 47 87 42 88 43 89 44 90 45 91 46 92 69 93 70 94 78 95 71 96
REMARK SMILES IDX 77 97 72 98 73 99 74 100 75 101 76 102 55 103 56 104 64 105
REMARK SMILES IDX 57 106 63 107 58 108 59 109 60 110 61 111 62 112
REMARK H PARENT 9 18 96 32 100 37 83 68 53 79
REMARK Flexibility Score: inf
ROOT
ATOM      1  C   UNL     1       4.370   4.523  -3.409  1.00  0.00     0.188 C 
ENDROOT
BRANCH   1   2
ATOM      2  C   UNL     1       5.755   3.779  -3.979  1.00  0.00     0.188 C 
BRANCH   2   3
ATOM      3  O   UNL     1       6.474   2.139  -4.022  1.00  0.00    -0.376 OA
BRANCH   3   4
ATOM      4  C   UNL     1       5.923   0.490  -3.740  1.00  0.00     0.202 C 
BRANCH   4   5
ATOM      5  C   UNL     1       4.716  -0.159  -2.446  1.00  0.00     0.261 C 
BRANCH   5   6
ATOM      6  O   UNL     1       4.020   0.789  -1.062  1.00  0.00    -0.460 OA
BRANCH   6   7
ATOM      7  C   UNL     1       4.155   1.951  -0.156  1.00  0.00     0.338 C 
ATOM      8  O   UNL     1       5.131   2.154   0.577  1.00  0.00    -0.246 OA
BRANCH   7   9
ATOM      9  C   UNL     1       3.133   3.162   0.068  1.00  0.00     0.062 A 
ATOM     10  C   UNL     1       0.954   4.343  -0.027  1.00  0.00     0.065 A 
ATOM     11  C   UNL     1       1.885   3.434  -0.503  1.00  0.00     0.044 A 
ATOM     12  C   UNL     1       1.368   5.361   0.827  1.00  0.00     0.061 A 
ATOM     13  C   UNL     1       2.682   5.287   1.294  1.00  0.00     0.029 A 
ATOM     14  C   UNL     1       3.514   4.178   0.973  1.00  0.00     0.018 A 
BRANCH  10  15
ATOM     15  N   UNL     1      -0.396   4.291  -0.464  1.00  0.00    -0.320 N 
ATOM     16  C   UNL     1      -1.389   3.328  -0.279  1.00  0.00     0.255 C 
ATOM     17  O   UNL     1      -2.540   3.632  -0.616  1.00  0.00    -0.269 OA
ATOM     18  H   UNL     1      -0.682   5.072  -0.990  1.00  0.00     0.170 HD
BRANCH  16  19
ATOM     19  C   UNL     1      -1.224   2.008   0.416  1.00  0.00     0.040 A 
ATOM     20  C   UNL     1       1.268   0.081   2.478  1.00  0.00     0.044 C 
ATOM     21  C   UNL     1      -0.017   0.410   1.797  1.00  0.00    -0.050 A 
ATOM     22  C   UNL     1      -0.946  -0.589   1.506  1.00  0.00     0.003 A 
ATOM     23  C   UNL     1      -0.186   1.709   1.293  1.00  0.00     0.017 A 
ATOM     24  C   UNL     1      -2.059  -0.279   0.736  1.00  0.00     0.001 A 
ATOM     25  C   UNL     1      -2.195   1.008   0.195  1.00  0.00     0.014 A 
ENDBRANCH  16  19
ENDBRANCH  10  15
BRANCH  12  26
ATOM     26  N   UNL     1       0.418   6.281   1.260  1.00  0.00    -0.359 N 
ATOM     27  C   UNL     1       0.747   7.647   1.674  1.00  0.00     0.178 C 
ATOM     28  C   UNL     1      -0.580   5.631   2.104  1.00  0.00     0.178 C 
ATOM     29  C   UNL     1      -0.554   8.455   2.000  1.00  0.00     0.284 C 
ATOM     30  C   UNL     1      -1.869   6.445   2.131  1.00  0.00     0.284 C 
ATOM     31  N   UNL     1      -1.674   7.777   2.704  1.00  0.00    -0.324 N 
ATOM     32  H   UNL     1      -2.494   8.358   2.532  1.00  0.00     0.348 HD
BRANCH  31  33
ATOM     33  C   UNL     1      -1.637   7.773   4.182  1.00  0.00     0.363 C 
BRANCH  33  34
ATOM     34  C   UNL     1      -0.512   6.989   4.853  1.00  0.00     0.275 C 
ATOM     35  O   UNL     1       0.611   7.505   4.949  1.00  0.00    -0.268 OA
ATOM     36  N   UNL     1      -0.638   5.740   5.387  1.00  0.00    -0.347 N 
ATOM     37  H   UNL     1       0.184   5.501   5.874  1.00  0.00     0.164 HD
BRANCH  36  38
ATOM     38  C   UNL     1      -1.621   4.617   5.473  1.00  0.00     0.032 C 
ATOM     39  C   UNL     1      -1.441   3.584   4.341  1.00  0.00     0.034 C 
ATOM     40  C   UNL     1      -1.294   3.861   6.779  1.00  0.00     0.034 C 
ATOM     41  C   UNL     1      -3.086   5.052   5.534  1.00  0.00     0.034 C 
ENDBRANCH  36  38
ENDBRANCH  33  34
ENDBRANCH  31  33
ENDBRANCH  12  26
ENDBRANCH   7   9
ENDBRANCH   6   7
ENDBRANCH   5   6
ENDBRANCH   4   5
ENDBRANCH   3   4
ENDBRANCH   2   3
ENDBRANCH   1   2
BRANCH   1  42
ATOM     42  O   UNL     1       2.986   4.279  -3.676  1.00  0.00    -0.377 OA
BRANCH  42  43
ATOM     43  C   UNL     1       2.315   4.497  -4.910  1.00  0.00     0.188 C 
BRANCH  43  44
ATOM     44  C   UNL     1       2.794   5.590  -5.841  1.00  0.00     0.188 C 
BRANCH  44  45
ATOM     45  O   UNL     1       4.199   5.480  -6.007  1.00  0.00    -0.376 OA
BRANCH  45  46
ATOM     46  C   UNL     1       4.785   6.519  -6.769  1.00  0.00     0.202 C 
BRANCH  46  47
ATOM     47  C   UNL     1       4.462   6.415  -8.264  1.00  0.00     0.261 C 
BRANCH  47  48
ATOM     48  O   UNL     1       5.099   5.263  -8.859  1.00  0.00    -0.460 OA
BRANCH  48  49
ATOM     49  C   UNL     1       4.285   4.199  -9.133  1.00  0.00     0.338 C 
ATOM     50  O   UNL     1       3.620   4.112 -10.167  1.00  0.00    -0.246 OA
BRANCH  49  51
ATOM     51  C   UNL     1       4.401   3.183  -8.059  1.00  0.00     0.060 A 
ATOM     52  C   UNL     1       3.430   2.298  -7.622  1.00  0.00     0.016 A 
ATOM     53  C   UNL     1       5.569   3.114  -7.375  1.00  0.00     0.016 A 
ATOM     54  C   UNL     1       3.474   1.712  -6.295  1.00  0.00     0.010 A 
ATOM     55  C   UNL     1       5.573   2.488  -6.122  1.00  0.00     0.010 A 
ATOM     56  C   UNL     1       4.432   2.048  -5.320  1.00  0.00    -0.014 A 
BRANCH  56  57
ATOM     57  C   UNL     1       4.212   1.967  -3.459  1.00  0.00     0.031 A 
ATOM     58  C   UNL     1       5.708   2.076  -2.128  1.00  0.00     0.074 A 
ATOM     59  C   UNL     1       2.849   1.560  -3.217  1.00  0.00     0.049 A 
ATOM     60  N   UNL     1       6.113   1.005  -1.371  1.00  0.00    -0.248 NA
ATOM     61  C   UNL     1       7.168   2.817  -1.982  1.00  0.00     0.031 C 
ATOM     62  C   UNL     1       2.030   1.250  -2.014  1.00  0.00     0.029 A 
ATOM     63  N   UNL     1       1.865   1.130  -4.140  1.00  0.00    -0.354 N 
ATOM     64  C   UNL     1       7.269   1.007  -0.658  1.00  0.00     0.074 A 
ATOM     65  C   UNL     1       7.994   2.061  -1.239  1.00  0.00     0.031 C 
ATOM     66  C   UNL     1       0.786   0.844  -2.211  1.00  0.00     0.029 A 
ATOM     67  C   UNL     1       0.819   0.405  -3.530  1.00  0.00     0.049 A 
ATOM     68  H   UNL     1       1.906   1.317  -5.105  1.00  0.00     0.167 HD
ATOM     69  C   UNL     1       7.515   0.171   0.395  1.00  0.00     0.031 A 
ATOM     70  C   UNL     1       0.641  -0.933  -3.669  1.00  0.00     0.031 A 
ATOM     71  C   UNL     1       6.318  -0.502   0.934  1.00  0.00     0.049 A 
ATOM     72  C   UNL     1       1.231  -1.844  -2.538  1.00  0.00     0.074 A 
ATOM     73  C   UNL     1       5.563  -0.240   2.063  1.00  0.00     0.029 A 
ATOM     74  N   UNL     1       5.575  -1.449   0.223  1.00  0.00    -0.354 N 
ATOM     75  N   UNL     1       2.192  -1.534  -1.672  1.00  0.00    -0.248 NA
ATOM     76  C   UNL     1       0.715  -3.183  -2.282  1.00  0.00     0.031 C 
ATOM     77  C   UNL     1       4.349  -0.962   1.967  1.00  0.00     0.029 A 
ATOM     78  C   UNL     1       4.275  -1.610   0.735  1.00  0.00     0.049 A 
ATOM     79  H   UNL     1       5.923  -1.948  -0.551  1.00  0.00     0.167 HD
ATOM     80  C   UNL     1       2.431  -2.576  -0.784  1.00  0.00     0.074 A 
ATOM     81  C   UNL     1       1.469  -3.586  -1.242  1.00  0.00     0.031 C 
ATOM     82  C   UNL     1       3.335  -2.661   0.268  1.00  0.00     0.031 A 
BRANCH  69  83
ATOM     83  C   UNL     1       8.817   0.384   1.151  1.00  0.00    -0.014 A 
ATOM     84  C   UNL     1       8.822   0.658   2.531  1.00  0.00     0.010 A 
ATOM     85  C   UNL     1      10.066   0.442   0.491  1.00  0.00     0.010 A 
ATOM     86  C   UNL     1       9.978   1.097   3.195  1.00  0.00     0.020 A 
ATOM     87  C   UNL     1      11.224   0.913   1.137  1.00  0.00     0.020 A 
ATOM     88  C   UNL     1      11.165   1.261   2.485  1.00  0.00     0.054 A 
BRANCH  88  89
ATOM     89  S   UNL     1      12.601   1.976   3.337  1.00  0.00     0.124 S 
ATOM     90  O   UNL     1      12.072   3.237   3.853  1.00  0.00    -0.237 OA
ATOM     91  O   UNL     1      12.906   0.965   4.345  1.00  0.00    -0.237 OA
ATOM     92  O   UNL     1      13.600   2.118   2.279  1.00  0.00    -0.744 OA
ENDBRANCH  88  89
ENDBRANCH  69  83
BRANCH  70  93
ATOM     93  C   UNL     1       0.024  -1.106  -5.018  1.00  0.00    -0.014 A 
ATOM     94  C   UNL     1      -1.137  -0.299  -5.260  1.00  0.00     0.010 A 
ATOM     95  C   UNL     1       0.890  -1.348  -6.092  1.00  0.00     0.010 A 
ATOM     96  C   UNL     1      -1.241   0.479  -6.420  1.00  0.00     0.020 A 
ATOM     97  C   UNL     1       0.754  -0.604  -7.280  1.00  0.00     0.020 A 
ATOM     98  C   UNL     1      -0.254   0.365  -7.394  1.00  0.00     0.054 A 
BRANCH  98  99
ATOM     99  S   UNL     1      -0.181   1.645  -8.688  1.00  0.00     0.124 S 
ATOM    100  O   UNL     1      -1.559   1.712  -9.164  1.00  0.00    -0.237 OA
ATOM    101  O   UNL     1       0.275   2.806  -7.922  1.00  0.00    -0.237 OA
ATOM    102  O   UNL     1       0.783   1.097  -9.636  1.00  0.00    -0.744 OA
ENDBRANCH  98  99
ENDBRANCH  70  93
BRANCH  82 103
ATOM    103  C   UNL     1       3.410  -3.899   1.146  1.00  0.00    -0.014 A 
ATOM    104  C   UNL     1       2.296  -4.553   1.692  1.00  0.00     0.010 A 
ATOM    105  C   UNL     1       4.691  -4.323   1.578  1.00  0.00     0.010 A 
ATOM    106  C   UNL     1       2.463  -5.670   2.524  1.00  0.00     0.020 A 
ATOM    107  C   UNL     1       4.866  -5.392   2.449  1.00  0.00     0.020 A 
ATOM    108  C   UNL     1       3.749  -6.094   2.876  1.00  0.00     0.054 A 
BRANCH 108 109
ATOM    109  S   UNL     1       3.962  -7.571   3.895  1.00  0.00     0.124 S 
ATOM    110  O   UNL     1       2.900  -7.435   4.889  1.00  0.00    -0.237 OA
ATOM    111  O   UNL     1       3.770  -8.635   2.913  1.00  0.00    -0.237 OA
ATOM    112  O   UNL     1       5.319  -7.442   4.418  1.00  0.00    -0.744 OA
ENDBRANCH 108 109
ENDBRANCH  82 103
ENDBRANCH  56  57
ENDBRANCH  49  51
ENDBRANCH  48  49
ENDBRANCH  47  48
ENDBRANCH  46  47
ENDBRANCH  45  46
ENDBRANCH  44  45
ENDBRANCH  43  44
ENDBRANCH  42  43
ENDBRANCH   1  42
TORSDOF 29
