REMARK SMILES CC[N@@H+](CCC(=O)OCCOCCOCCOCCOC(=O)c1ccc(-c2c3nc(c(-c4ccc(S(=O)(=O)[O-])cc4)c4ccc([nH]4)c(-c4ccc(S(=O)(=O)[O-])cc4)c4nc(c(-c5ccc(S(=O)(=O)[O-])cc5)c5ccc2[nH]5)C=C4)C=C3)cc1)[C@@H]1CSCC(C)(C)C1
REMARK SMILES IDX 14 1 13 2 12 3 11 4 10 5 9 6 8 7 6 8 7 9 5 10 4 11 3 12 2 14
REMARK SMILES IDX 1 15 83 16 84 17 90 18 85 19 87 20 86 21 88 22 89 23 15 24
REMARK SMILES IDX 16 25 17 26 18 27 19 28 20 29 21 30 22 31 23 32 24 33 82 34
REMARK SMILES IDX 25 35 81 36 26 37 27 38 28 39 75 40 29 41 80 42 74 43 76 44
REMARK SMILES IDX 30 45 79 46 73 47 72 48 31 50 61 51 42 52 60 53 43 54 46 55
REMARK SMILES IDX 59 56 77 57 44 58 45 59 58 61 78 62 47 63 32 64 33 65 41 66
REMARK SMILES IDX 34 67 40 68 35 69 36 70 37 71 38 72 39 73 62 74 63 75 71 76
REMARK SMILES IDX 64 77 70 78 65 79 66 80 67 81 68 82 69 83 48 84 49 85 57 86
REMARK SMILES IDX 50 87 56 88 51 89 52 90 53 91 54 92 55 93
REMARK H PARENT 3 13 76 49 46 60
REMARK Flexibility Score: inf
ROOT
ATOM      1  O   UNL     1       5.214   2.590  -4.227  1.00  0.00    -0.377 OA
ENDROOT
BRANCH   1   2
ATOM      2  C   UNL     1       4.864   3.913  -4.619  1.00  0.00     0.188 C 
BRANCH   2   3
ATOM      3  C   UNL     1       4.553   4.786  -3.397  1.00  0.00     0.188 C 
BRANCH   3   4
ATOM      4  O   UNL     1       5.477   4.635  -2.321  1.00  0.00    -0.376 OA
BRANCH   4   5
ATOM      5  C   UNL     1       5.195   3.551  -1.422  1.00  0.00     0.202 C 
BRANCH   5   6
ATOM      6  C   UNL     1       4.225   3.918  -0.288  1.00  0.00     0.261 C 
BRANCH   6   7
ATOM      7  O   UNL     1       2.851   3.516  -0.537  1.00  0.00    -0.463 OA
BRANCH   7   8
ATOM      8  C   UNL     1       1.956   4.498  -0.819  1.00  0.00     0.311 C 
ATOM      9  O   UNL     1       2.263   5.669  -1.020  1.00  0.00    -0.252 OA
BRANCH   8  10
ATOM     10  C   UNL     1       0.504   4.051  -0.731  1.00  0.00     0.184 C 
BRANCH  10  11
ATOM     11  C   UNL     1      -0.111   2.901  -1.562  1.00  0.00     0.274 C 
BRANCH  11  12
ATOM     12  N   UNL     1       0.350   1.494  -1.510  1.00  0.00    -0.332 N 
ATOM     13  H   UNL     1      -0.311   0.929  -2.042  1.00  0.00     0.348 HD
BRANCH  12  14
ATOM     14  C   UNL     1       0.325   1.033  -0.101  1.00  0.00     0.259 C 
ATOM     15  C   UNL     1       0.787  -0.383   0.217  1.00  0.00     0.071 C 
ENDBRANCH  12  14
BRANCH  12  16
ATOM     16  C   UNL     1       1.596   1.189  -2.260  1.00  0.00     0.194 C 
ATOM     17  C   UNL     1       2.077   2.248  -3.269  1.00  0.00     0.134 C 
ATOM     18  C   UNL     1       1.625  -0.203  -2.976  1.00  0.00     0.073 C 
ATOM     19  S   UNL     1       1.147   2.408  -4.808  1.00  0.00    -0.155 SA
ATOM     20  C   UNL     1       1.095  -0.350  -4.443  1.00  0.00    -0.021 C 
ATOM     21  C   UNL     1       1.544   0.768  -5.394  1.00  0.00     0.076 C 
ATOM     22  C   UNL     1      -0.434  -0.488  -4.464  1.00  0.00     0.012 C 
ATOM     23  C   UNL     1       1.703  -1.637  -5.042  1.00  0.00     0.012 C 
ENDBRANCH  12  16
ENDBRANCH  11  12
ENDBRANCH  10  11
ENDBRANCH   8  10
ENDBRANCH   7   8
ENDBRANCH   6   7
ENDBRANCH   5   6
ENDBRANCH   4   5
ENDBRANCH   3   4
ENDBRANCH   2   3
ENDBRANCH   1   2
BRANCH   1  24
ATOM     24  C   UNL     1       6.455   2.150  -4.769  1.00  0.00     0.188 C 
BRANCH  24  25
ATOM     25  C   UNL     1       6.206   1.366  -6.047  1.00  0.00     0.188 C 
BRANCH  25  26
ATOM     26  O   UNL     1       5.746   2.141  -7.152  1.00  0.00    -0.376 OA
BRANCH  26  27
ATOM     27  C   UNL     1       4.398   1.865  -7.548  1.00  0.00     0.202 C 
BRANCH  27  28
ATOM     28  C   UNL     1       4.127   0.488  -8.194  1.00  0.00     0.261 C 
BRANCH  28  29
ATOM     29  O   UNL     1       4.283  -0.624  -7.281  1.00  0.00    -0.460 OA
BRANCH  29  30
ATOM     30  C   UNL     1       5.440  -1.322  -7.411  1.00  0.00     0.338 C 
ATOM     31  O   UNL     1       6.294  -1.159  -8.274  1.00  0.00    -0.246 OA
BRANCH  30  32
ATOM     32  C   UNL     1       5.678  -2.173  -6.223  1.00  0.00     0.060 A 
ATOM     33  C   UNL     1       6.875  -1.984  -5.519  1.00  0.00     0.016 A 
ATOM     34  C   UNL     1       4.805  -3.194  -5.845  1.00  0.00     0.016 A 
ATOM     35  C   UNL     1       7.226  -2.836  -4.475  1.00  0.00     0.010 A 
ATOM     36  C   UNL     1       5.159  -4.054  -4.793  1.00  0.00     0.010 A 
ATOM     37  C   UNL     1       6.399  -3.914  -4.141  1.00  0.00    -0.014 A 
BRANCH  37  38
ATOM     38  C   UNL     1       6.975  -5.002  -3.305  1.00  0.00     0.031 A 
ATOM     39  C   UNL     1       7.492  -6.239  -4.000  1.00  0.00     0.074 A 
ATOM     40  C   UNL     1       7.161  -4.854  -1.980  1.00  0.00     0.049 A 
ATOM     41  N   UNL     1       8.131  -7.266  -3.500  1.00  0.00    -0.248 NA
ATOM     42  C   UNL     1       7.267  -6.325  -5.454  1.00  0.00     0.031 C 
ATOM     43  C   UNL     1       6.753  -3.694  -1.188  1.00  0.00     0.029 A 
ATOM     44  N   UNL     1       7.764  -5.687  -1.067  1.00  0.00    -0.354 N 
ATOM     45  C   UNL     1       8.392  -8.109  -4.575  1.00  0.00     0.074 A 
ATOM     46  C   UNL     1       7.797  -7.503  -5.744  1.00  0.00     0.031 C 
ATOM     47  C   UNL     1       7.121  -3.888   0.092  1.00  0.00     0.029 A 
ATOM     48  C   UNL     1       7.773  -5.191   0.216  1.00  0.00     0.049 A 
ATOM     49  H   UNL     1       8.153  -6.558  -1.309  1.00  0.00     0.167 HD
ATOM     50  C   UNL     1       9.085  -9.272  -4.600  1.00  0.00     0.031 A 
ATOM     51  C   UNL     1       8.247  -5.727   1.360  1.00  0.00     0.031 A 
ATOM     52  C   UNL     1       9.671  -9.891  -3.441  1.00  0.00     0.049 A 
ATOM     53  C   UNL     1       8.946  -7.065   1.320  1.00  0.00     0.074 A 
ATOM     54  C   UNL     1      10.388 -11.073  -3.369  1.00  0.00     0.029 A 
ATOM     55  N   UNL     1       9.607  -9.383  -2.154  1.00  0.00    -0.354 N 
ATOM     56  N   UNL     1       9.207  -7.832   0.287  1.00  0.00    -0.248 NA
ATOM     57  C   UNL     1       9.431  -7.599   2.601  1.00  0.00     0.031 C 
ATOM     58  C   UNL     1      10.704 -11.311  -2.028  1.00  0.00     0.029 A 
ATOM     59  C   UNL     1      10.247 -10.242  -1.275  1.00  0.00     0.049 A 
ATOM     60  H   UNL     1       9.170  -8.538  -1.901  1.00  0.00     0.167 HD
ATOM     61  C   UNL     1       9.908  -8.924   0.793  1.00  0.00     0.074 A 
ATOM     62  C   UNL     1      10.058  -8.701   2.215  1.00  0.00     0.031 C 
ATOM     63  C   UNL     1      10.382 -10.016   0.141  1.00  0.00     0.031 A 
BRANCH  50  64
ATOM     64  C   UNL     1       9.238  -9.963  -5.930  1.00  0.00    -0.014 A 
ATOM     65  C   UNL     1      10.071  -9.433  -6.932  1.00  0.00     0.010 A 
ATOM     66  C   UNL     1       8.585 -11.188  -6.160  1.00  0.00     0.010 A 
ATOM     67  C   UNL     1      10.230 -10.103  -8.148  1.00  0.00     0.020 A 
ATOM     68  C   UNL     1       8.765 -11.876  -7.363  1.00  0.00     0.020 A 
ATOM     69  C   UNL     1       9.579 -11.323  -8.353  1.00  0.00     0.054 A 
BRANCH  69  70
ATOM     70  S   UNL     1       9.846 -12.195  -9.921  1.00  0.00     0.124 S 
ATOM     71  O   UNL     1       9.139 -11.336 -10.868  1.00  0.00    -0.237 OA
ATOM     72  O   UNL     1      11.302 -12.196 -10.040  1.00  0.00    -0.237 OA
ATOM     73  O   UNL     1       9.240 -13.505  -9.698  1.00  0.00    -0.744 OA
ENDBRANCH  69  70
ENDBRANCH  50  64
BRANCH  51  74
ATOM     74  C   UNL     1       8.053  -5.020   2.660  1.00  0.00    -0.014 A 
ATOM     75  C   UNL     1       9.146  -4.537   3.401  1.00  0.00     0.010 A 
ATOM     76  C   UNL     1       6.756  -4.871   3.187  1.00  0.00     0.010 A 
ATOM     77  C   UNL     1       8.949  -3.951   4.657  1.00  0.00     0.020 A 
ATOM     78  C   UNL     1       6.552  -4.254   4.424  1.00  0.00     0.020 A 
ATOM     79  C   UNL     1       7.652  -3.813   5.160  1.00  0.00     0.054 A 
BRANCH  79  80
ATOM     80  S   UNL     1       7.415  -3.024   6.776  1.00  0.00     0.124 S 
ATOM     81  O   UNL     1       7.907  -4.048   7.691  1.00  0.00    -0.237 OA
ATOM     82  O   UNL     1       8.240  -1.824   6.663  1.00  0.00    -0.237 OA
ATOM     83  O   UNL     1       5.975  -2.777   6.827  1.00  0.00    -0.744 OA
ENDBRANCH  79  80
ENDBRANCH  51  74
BRANCH  63  84
ATOM     84  C   UNL     1      11.132 -11.042   0.957  1.00  0.00    -0.014 A 
ATOM     85  C   UNL     1      10.479 -11.832   1.920  1.00  0.00     0.010 A 
ATOM     86  C   UNL     1      12.510 -11.232   0.741  1.00  0.00     0.010 A 
ATOM     87  C   UNL     1      11.199 -12.746   2.694  1.00  0.00     0.020 A 
ATOM     88  C   UNL     1      13.227 -12.172   1.486  1.00  0.00     0.020 A 
ATOM     89  C   UNL     1      12.571 -12.906   2.476  1.00  0.00     0.054 A 
BRANCH  89  90
ATOM     90  S   UNL     1      13.483 -14.098   3.494  1.00  0.00     0.124 S 
ATOM     91  O   UNL     1      13.530 -13.420   4.786  1.00  0.00    -0.237 OA
ATOM     92  O   UNL     1      12.633 -15.285   3.437  1.00  0.00    -0.237 OA
ATOM     93  O   UNL     1      14.769 -14.226   2.811  1.00  0.00    -0.744 OA
ENDBRANCH  89  90
ENDBRANCH  63  84
ENDBRANCH  37  38
ENDBRANCH  30  32
ENDBRANCH  29  30
ENDBRANCH  28  29
ENDBRANCH  27  28
ENDBRANCH  26  27
ENDBRANCH  25  26
ENDBRANCH  24  25
ENDBRANCH   1  24
TORSDOF 27
