REMARK SMILES O=C(OCCOCCOCCOCCOC(=O)[C@H]1[C@H]2C[C@@H]3[C@@H](OC(=O)[C@@H]31)[C@@H]2Sc1ccccc1)c1ccc(-c2c3nc(c(-c4ccc(S(=O)(=O)[O-])cc4)c4ccc([nH]4)c(-c4ccc(S(=O)(=O)[O-])cc4)c4nc(c(-c5ccc(S(=O)(=O)[O-])cc5)c5ccc2[nH]5)C=C4)C=C3)cc1
REMARK SMILES IDX 8 1 7 2 6 3 5 4 4 5 3 6 2 7 1 8 35 9 36 10 94 11 37 12 93 13
REMARK SMILES IDX 38 14 39 15 40 16 87 17 41 18 92 19 86 20 88 21 42 22 91 23
REMARK SMILES IDX 85 24 84 25 43 27 73 28 54 29 72 30 55 31 58 32 71 33 89 34
REMARK SMILES IDX 56 35 57 36 70 38 90 39 59 40 44 41 45 42 53 43 46 44 52 45
REMARK SMILES IDX 47 46 48 47 49 48 50 49 51 50 74 51 75 52 83 53 76 54 82 55
REMARK SMILES IDX 77 56 78 57 79 58 80 59 81 60 60 61 61 62 69 63 62 64 68 65
REMARK SMILES IDX 63 66 64 67 65 68 66 69 67 70 9 71 10 72 11 73 12 74 13 75
REMARK SMILES IDX 14 76 15 77 16 78 17 79 18 80 19 81 26 82 20 83 27 84 21 85
REMARK SMILES IDX 24 86 22 87 23 88 25 89 28 90 29 91 30 92 34 93 31 94 33 95
REMARK SMILES IDX 32 96
REMARK H PARENT 88 26 58 37
REMARK Flexibility Score: inf
ROOT
ATOM      1  C   UNL     1       1.982  -2.376  -1.629  1.00  0.00     0.188 C 
ENDROOT
BRANCH   1   2
ATOM      2  C   UNL     1       2.412  -1.447  -0.489  1.00  0.00     0.188 C 
BRANCH   2   3
ATOM      3  O   UNL     1       3.707  -0.892  -0.694  1.00  0.00    -0.376 OA
BRANCH   3   4
ATOM      4  C   UNL     1       4.652  -0.899   0.379  1.00  0.00     0.202 C 
BRANCH   4   5
ATOM      5  C   UNL     1       4.273  -0.116   1.627  1.00  0.00     0.261 C 
BRANCH   5   6
ATOM      6  O   UNL     1       2.901   0.290   1.700  1.00  0.00    -0.460 OA
BRANCH   6   7
ATOM      7  C   UNL     1       2.235   1.257   1.033  1.00  0.00     0.338 C 
ATOM      8  O   UNL     1       1.024   1.362   1.234  1.00  0.00    -0.246 OA
BRANCH   7   9
ATOM      9  C   UNL     1       2.853   2.210   0.068  1.00  0.00     0.060 A 
ATOM     10  C   UNL     1       3.937   1.945  -0.768  1.00  0.00     0.016 A 
ATOM     11  C   UNL     1       2.211   3.449  -0.075  1.00  0.00     0.016 A 
ATOM     12  C   UNL     1       4.418   2.864  -1.676  1.00  0.00     0.010 A 
ATOM     13  C   UNL     1       2.683   4.395  -0.984  1.00  0.00     0.010 A 
ATOM     14  C   UNL     1       3.812   4.104  -1.755  1.00  0.00    -0.014 A 
BRANCH  14  15
ATOM     15  C   UNL     1       4.572   5.150  -2.437  1.00  0.00     0.031 A 
ATOM     16  C   UNL     1       5.338   6.086  -1.561  1.00  0.00     0.074 A 
ATOM     17  C   UNL     1       4.692   5.135  -3.772  1.00  0.00     0.049 A 
ATOM     18  N   UNL     1       5.957   7.186  -1.871  1.00  0.00    -0.248 NA
ATOM     19  C   UNL     1       5.418   5.726  -0.130  1.00  0.00     0.031 C 
ATOM     20  C   UNL     1       4.149   4.104  -4.662  1.00  0.00     0.029 A 
ATOM     21  N   UNL     1       5.326   6.005  -4.610  1.00  0.00    -0.354 N 
ATOM     22  C   UNL     1       6.437   7.686  -0.667  1.00  0.00     0.074 A 
ATOM     23  C   UNL     1       6.056   6.767   0.377  1.00  0.00     0.031 C 
ATOM     24  C   UNL     1       4.461   4.416  -5.930  1.00  0.00     0.029 A 
ATOM     25  C   UNL     1       5.140   5.705  -5.937  1.00  0.00     0.049 A 
ATOM     26  H   UNL     1       5.862   6.768  -4.296  1.00  0.00     0.167 HD
ATOM     27  C   UNL     1       7.112   8.839  -0.470  1.00  0.00     0.031 A 
ATOM     28  C   UNL     1       5.427   6.446  -7.022  1.00  0.00     0.031 A 
ATOM     29  C   UNL     1       7.441   9.715  -1.558  1.00  0.00     0.049 A 
ATOM     30  C   UNL     1       6.065   7.787  -6.781  1.00  0.00     0.074 A 
ATOM     31  C   UNL     1       8.048  10.953  -1.526  1.00  0.00     0.029 A 
ATOM     32  N   UNL     1       7.175   9.424  -2.893  1.00  0.00    -0.354 N 
ATOM     33  N   UNL     1       6.417   8.333  -5.637  1.00  0.00    -0.248 NA
ATOM     34  C   UNL     1       6.334   8.617  -7.957  1.00  0.00     0.031 C 
ATOM     35  C   UNL     1       8.092  11.437  -2.838  1.00  0.00     0.029 A 
ATOM     36  C   UNL     1       7.588  10.466  -3.696  1.00  0.00     0.049 A 
ATOM     37  H   UNL     1       6.754   8.595  -3.217  1.00  0.00     0.167 HD
ATOM     38  C   UNL     1       6.981   9.559  -5.956  1.00  0.00     0.074 A 
ATOM     39  C   UNL     1       6.920   9.671  -7.404  1.00  0.00     0.031 C 
ATOM     40  C   UNL     1       7.508  10.506  -5.139  1.00  0.00     0.031 A 
BRANCH  27  41
ATOM     41  C   UNL     1       7.387   9.234   0.955  1.00  0.00    -0.014 A 
ATOM     42  C   UNL     1       8.278   8.515   1.773  1.00  0.00     0.010 A 
ATOM     43  C   UNL     1       6.667  10.307   1.511  1.00  0.00     0.010 A 
ATOM     44  C   UNL     1       8.395   8.822   3.133  1.00  0.00     0.020 A 
ATOM     45  C   UNL     1       6.806  10.639   2.861  1.00  0.00     0.020 A 
ATOM     46  C   UNL     1       7.651   9.878   3.670  1.00  0.00     0.054 A 
BRANCH  46  47
ATOM     47  S   UNL     1       7.805  10.243   5.439  1.00  0.00     0.124 S 
ATOM     48  O   UNL     1       7.102   9.114   6.043  1.00  0.00    -0.237 OA
ATOM     49  O   UNL     1       9.252  10.259   5.638  1.00  0.00    -0.237 OA
ATOM     50  O   UNL     1       7.144  11.537   5.586  1.00  0.00    -0.744 OA
ENDBRANCH  46  47
ENDBRANCH  27  41
BRANCH  28  51
ATOM     51  C   UNL     1       5.039   5.962  -8.374  1.00  0.00    -0.014 A 
ATOM     52  C   UNL     1       6.010   5.604  -9.323  1.00  0.00     0.010 A 
ATOM     53  C   UNL     1       3.678   5.797  -8.701  1.00  0.00     0.010 A 
ATOM     54  C   UNL     1       5.629   5.090 -10.569  1.00  0.00     0.020 A 
ATOM     55  C   UNL     1       3.293   5.258  -9.932  1.00  0.00     0.020 A 
ATOM     56  C   UNL     1       4.273   4.913 -10.862  1.00  0.00     0.054 A 
BRANCH  56  57
ATOM     57  S   UNL     1       3.809   4.180 -12.456  1.00  0.00     0.124 S 
ATOM     58  O   UNL     1       4.158   5.243 -13.393  1.00  0.00    -0.237 OA
ATOM     59  O   UNL     1       4.650   2.987 -12.509  1.00  0.00    -0.237 OA
ATOM     60  O   UNL     1       2.379   3.918 -12.311  1.00  0.00    -0.744 OA
ENDBRANCH  56  57
ENDBRANCH  28  51
BRANCH  40  61
ATOM     61  C   UNL     1       8.122  11.706  -5.797  1.00  0.00    -0.014 A 
ATOM     62  C   UNL     1       7.330  12.720  -6.359  1.00  0.00     0.010 A 
ATOM     63  C   UNL     1       9.519  11.863  -5.739  1.00  0.00     0.010 A 
ATOM     64  C   UNL     1       7.931  13.873  -6.864  1.00  0.00     0.020 A 
ATOM     65  C   UNL     1      10.119  13.027  -6.212  1.00  0.00     0.020 A 
ATOM     66  C   UNL     1       9.320  14.023  -6.778  1.00  0.00     0.054 A 
BRANCH  66  67
ATOM     67  S   UNL     1      10.064  15.568  -7.357  1.00  0.00     0.124 S 
ATOM     68  O   UNL     1       9.934  15.443  -8.806  1.00  0.00    -0.237 OA
ATOM     69  O   UNL     1       9.218  16.582  -6.734  1.00  0.00    -0.237 OA
ATOM     70  O   UNL     1      11.432  15.507  -6.847  1.00  0.00    -0.744 OA
ENDBRANCH  66  67
ENDBRANCH  40  61
ENDBRANCH  14  15
ENDBRANCH   7   9
ENDBRANCH   6   7
ENDBRANCH   5   6
ENDBRANCH   4   5
ENDBRANCH   3   4
ENDBRANCH   2   3
ENDBRANCH   1   2
BRANCH   1  71
ATOM     71  O   UNL     1       2.813  -3.500  -1.905  1.00  0.00    -0.377 OA
BRANCH  71  72
ATOM     72  C   UNL     1       4.206  -3.281  -1.760  1.00  0.00     0.188 C 
BRANCH  72  73
ATOM     73  C   UNL     1       4.984  -2.435  -2.798  1.00  0.00     0.188 C 
BRANCH  73  74
ATOM     74  O   UNL     1       4.372  -1.302  -3.373  1.00  0.00    -0.376 OA
BRANCH  74  75
ATOM     75  C   UNL     1       3.482  -1.335  -4.478  1.00  0.00     0.202 C 
BRANCH  75  76
ATOM     76  C   UNL     1       2.992  -2.585  -5.236  1.00  0.00     0.261 C 
BRANCH  76  77
ATOM     77  O   UNL     1       3.176  -3.833  -4.579  1.00  0.00    -0.463 OA
BRANCH  77  78
ATOM     78  C   UNL     1       4.270  -4.535  -4.961  1.00  0.00     0.310 C 
ATOM     79  O   UNL     1       4.989  -4.271  -5.914  1.00  0.00    -0.252 OA
BRANCH  78  80
ATOM     80  C   UNL     1       4.566  -5.621  -3.947  1.00  0.00     0.118 C 
ATOM     81  C   UNL     1       4.091  -7.016  -4.368  1.00  0.00     0.022 C 
ATOM     82  C   UNL     1       6.093  -5.804  -3.750  1.00  0.00     0.120 C 
ATOM     83  C   UNL     1       5.223  -7.384  -5.324  1.00  0.00     0.014 C 
ATOM     84  C   UNL     1       4.314  -7.907  -3.107  1.00  0.00     0.097 C 
ATOM     85  C   UNL     1       6.313  -7.208  -4.294  1.00  0.00     0.047 C 
ATOM     86  C   UNL     1       6.519  -5.987  -2.313  1.00  0.00     0.310 C 
ATOM     87  C   UNL     1       5.863  -8.026  -3.082  1.00  0.00     0.194 C 
ATOM     88  O   UNL     1       6.406  -7.310  -1.969  1.00  0.00    -0.461 OA
ATOM     89  O   UNL     1       6.881  -5.112  -1.558  1.00  0.00    -0.252 OA
BRANCH  84  90
ATOM     90  S   UNL     1       3.419  -9.502  -2.955  1.00  0.00    -0.119 SA
BRANCH  90  91
ATOM     91  C   UNL     1       3.388 -10.034  -4.642  1.00  0.00     0.008 A 
ATOM     92  C   UNL     1       2.299  -9.699  -5.452  1.00  0.00     0.015 A 
ATOM     93  C   UNL     1       4.500 -10.674  -5.192  1.00  0.00     0.015 A 
ATOM     94  C   UNL     1       2.362  -9.922  -6.825  1.00  0.00     0.001 A 
ATOM     95  C   UNL     1       4.569 -10.879  -6.570  1.00  0.00     0.001 A 
ATOM     96  C   UNL     1       3.507 -10.488  -7.386  1.00  0.00     0.000 A 
ENDBRANCH  90  91
ENDBRANCH  84  90
ENDBRANCH  78  80
ENDBRANCH  77  78
ENDBRANCH  76  77
ENDBRANCH  75  76
ENDBRANCH  74  75
ENDBRANCH  73  74
ENDBRANCH  72  73
ENDBRANCH  71  72
ENDBRANCH   1  71
TORSDOF 25
