REMARK SMILES CCOC(=O)c1c(NC(=O)[C@@H]2[C@@H](C(=O)OCCOCCOCCOCCOC(=O)c3ccc(-c4c5nc(c(-c6ccc(S(=O)(=O)[O-])cc6)c6ccc([nH]6)c(-c6ccc(S(=O)(=O)[O-])cc6)c6nc(c(-c7ccc(S(=O)(=O)[O-])cc7)c7ccc4[nH]7)C=C6)C=C5)cc3)[C@@H]3C=C[C@H]2CC3)sc2c1CCC2
REMARK SMILES IDX 20 1 19 2 18 3 17 4 16 5 15 6 13 7 14 8 12 9 11 10 93 11
REMARK SMILES IDX 90 12 92 13 94 14 91 15 95 16 9 17 8 18 10 20 7 21 6 22
REMARK SMILES IDX 98 23 96 24 97 25 99 26 101 27 100 28 4 29 5 30 3 31 2 32
REMARK SMILES IDX 1 33 21 34 22 35 23 36 24 37 25 38 26 39 27 40 28 41 29 42
REMARK SMILES IDX 30 43 31 44 89 45 32 46 88 47 33 48 34 49 35 50 82 51 36 52
REMARK SMILES IDX 87 53 81 54 83 55 37 56 86 57 80 58 79 59 38 61 68 62 49 63
REMARK SMILES IDX 67 64 50 65 53 66 66 67 84 68 51 69 52 70 65 72 85 73 54 74
REMARK SMILES IDX 39 75 40 76 48 77 41 78 47 79 42 80 43 81 44 82 45 83 46 84
REMARK SMILES IDX 69 85 70 86 78 87 71 88 77 89 72 90 73 91 74 92 75 93 76 94
REMARK SMILES IDX 55 95 56 96 64 97 57 98 63 99 58 100 59 101 60 102 61 103
REMARK SMILES IDX 62 104
REMARK H PARENT 8 19 83 60 53 71
REMARK Flexibility Score: inf
ROOT
ATOM      1  C   UNL     1       9.068   1.553   5.520  1.00  0.00     0.188 C 
ENDROOT
BRANCH   1   2
ATOM      2  C   UNL     1       8.906   1.636   7.056  1.00  0.00     0.188 C 
BRANCH   2   3
ATOM      3  O   UNL     1       9.572   0.594   7.750  1.00  0.00    -0.376 OA
BRANCH   3   4
ATOM      4  C   UNL     1       8.798  -0.518   8.169  1.00  0.00     0.202 C 
BRANCH   4   5
ATOM      5  C   UNL     1       7.828  -1.118   7.147  1.00  0.00     0.261 C 
BRANCH   5   6
ATOM      6  O   UNL     1       6.803  -0.214   6.677  1.00  0.00    -0.463 OA
BRANCH   6   7
ATOM      7  C   UNL     1       5.904   0.296   7.561  1.00  0.00     0.310 C 
ATOM      8  O   UNL     1       5.868   0.011   8.750  1.00  0.00    -0.252 OA
BRANCH   7   9
ATOM      9  C   UNL     1       4.902   1.209   6.854  1.00  0.00     0.119 C 
ATOM     10  C   UNL     1       5.471   2.042   5.677  1.00  0.00     0.100 C 
ATOM     11  C   UNL     1       4.910   3.502   5.801  1.00  0.00     0.025 C 
ATOM     12  C   UNL     1       4.135   2.113   7.851  1.00  0.00     0.026 C 
ATOM     13  C   UNL     1       3.405   3.416   5.961  1.00  0.00    -0.027 C 
ATOM     14  C   UNL     1       5.462   4.121   7.116  1.00  0.00     0.009 C 
ATOM     15  C   UNL     1       3.001   2.716   7.034  1.00  0.00    -0.027 C 
ATOM     16  C   UNL     1       5.037   3.263   8.326  1.00  0.00     0.009 C 
BRANCH  10  17
ATOM     17  C   UNL     1       5.433   1.593   4.192  1.00  0.00     0.229 C 
ATOM     18  N   UNL     1       4.721   0.594   3.597  1.00  0.00    -0.317 N 
ATOM     19  H   UNL     1       4.874   0.497   2.629  1.00  0.00     0.170 HD
ATOM     20  O   UNL     1       6.088   2.295   3.399  1.00  0.00    -0.274 OA
BRANCH  18  21
ATOM     21  C   UNL     1       3.829  -0.296   4.131  1.00  0.00     0.110 A 
ATOM     22  C   UNL     1       2.558  -0.677   3.701  1.00  0.00     0.098 A 
ATOM     23  C   UNL     1       1.894  -1.171   4.861  1.00  0.00    -0.017 A 
ATOM     24  S   UNL     1       4.365  -1.481   5.265  1.00  0.00    -0.122 S 
ATOM     25  C   UNL     1       2.793  -1.492   5.844  1.00  0.00     0.011 A 
ATOM     26  C   UNL     1       0.515  -1.430   5.337  1.00  0.00     0.038 C 
ATOM     27  C   UNL     1       2.214  -1.800   7.164  1.00  0.00     0.047 C 
ATOM     28  C   UNL     1       0.710  -1.478   6.894  1.00  0.00     0.010 C 
BRANCH  22  29
ATOM     29  C   UNL     1       2.086  -0.444   2.342  1.00  0.00     0.341 C 
ATOM     30  O   UNL     1       2.841  -0.179   1.439  1.00  0.00    -0.246 OA
BRANCH  29  31
ATOM     31  O   UNL     1       0.747  -0.694   2.201  1.00  0.00    -0.462 OA
BRANCH  31  32
ATOM     32  C   UNL     1       0.298  -1.007   0.872  1.00  0.00     0.230 C 
ATOM     33  C   UNL     1       0.461   0.104  -0.152  1.00  0.00     0.049 C 
ENDBRANCH  31  32
ENDBRANCH  29  31
ENDBRANCH  22  29
ENDBRANCH  18  21
ENDBRANCH  10  17
ENDBRANCH   7   9
ENDBRANCH   6   7
ENDBRANCH   5   6
ENDBRANCH   4   5
ENDBRANCH   3   4
ENDBRANCH   2   3
ENDBRANCH   1   2
BRANCH   1  34
ATOM     34  O   UNL     1      10.322   1.273   4.901  1.00  0.00    -0.377 OA
BRANCH  34  35
ATOM     35  C   UNL     1      11.424   0.889   5.701  1.00  0.00     0.188 C 
BRANCH  35  36
ATOM     36  C   UNL     1      12.085   2.018   6.519  1.00  0.00     0.188 C 
BRANCH  36  37
ATOM     37  O   UNL     1      11.199   3.039   6.963  1.00  0.00    -0.376 OA
BRANCH  37  38
ATOM     38  C   UNL     1      11.400   4.373   6.517  1.00  0.00     0.202 C 
BRANCH  38  39
ATOM     39  C   UNL     1      10.813   4.705   5.142  1.00  0.00     0.261 C 
BRANCH  39  40
ATOM     40  O   UNL     1      11.161   3.780   4.127  1.00  0.00    -0.460 OA
BRANCH  40  41
ATOM     41  C   UNL     1      12.481   3.658   3.910  1.00  0.00     0.338 C 
ATOM     42  O   UNL     1      13.383   4.213   4.516  1.00  0.00    -0.246 OA
BRANCH  41  43
ATOM     43  C   UNL     1      12.703   2.832   2.727  1.00  0.00     0.060 A 
ATOM     44  C   UNL     1      14.035   2.504   2.472  1.00  0.00     0.016 A 
ATOM     45  C   UNL     1      11.710   2.811   1.740  1.00  0.00     0.016 A 
ATOM     46  C   UNL     1      14.433   2.460   1.161  1.00  0.00     0.010 A 
ATOM     47  C   UNL     1      12.113   2.789   0.430  1.00  0.00     0.010 A 
ATOM     48  C   UNL     1      13.479   2.724   0.172  1.00  0.00    -0.014 A 
BRANCH  48  49
ATOM     49  C   UNL     1      13.964   2.929  -1.169  1.00  0.00     0.031 A 
ATOM     50  C   UNL     1      14.305   1.676  -1.850  1.00  0.00     0.074 A 
ATOM     51  C   UNL     1      14.047   4.144  -1.735  1.00  0.00     0.049 A 
ATOM     52  N   UNL     1      15.484   1.216  -2.093  1.00  0.00    -0.248 NA
ATOM     53  C   UNL     1      13.205   0.742  -2.122  1.00  0.00     0.031 C 
ATOM     54  C   UNL     1      13.487   5.406  -1.239  1.00  0.00     0.029 A 
ATOM     55  N   UNL     1      14.577   4.483  -2.940  1.00  0.00    -0.354 N 
ATOM     56  C   UNL     1      15.266   0.024  -2.765  1.00  0.00     0.074 A 
ATOM     57  C   UNL     1      13.881  -0.319  -2.559  1.00  0.00     0.031 C 
ATOM     58  C   UNL     1      13.523   6.323  -2.233  1.00  0.00     0.029 A 
ATOM     59  C   UNL     1      14.238   5.757  -3.365  1.00  0.00     0.049 A 
ATOM     60  H   UNL     1      15.150   3.877  -3.463  1.00  0.00     0.167 HD
ATOM     61  C   UNL     1      16.148  -0.425  -3.695  1.00  0.00     0.031 A 
ATOM     62  C   UNL     1      14.495   6.289  -4.582  1.00  0.00     0.031 A 
ATOM     63  C   UNL     1      17.407   0.270  -3.628  1.00  0.00     0.049 A 
ATOM     64  C   UNL     1      15.626   5.538  -5.176  1.00  0.00     0.074 A 
ATOM     65  C   UNL     1      18.483   0.287  -2.769  1.00  0.00     0.029 A 
ATOM     66  N   UNL     1      17.486   1.400  -4.407  1.00  0.00    -0.354 N 
ATOM     67  N   UNL     1      16.835   5.572  -4.690  1.00  0.00    -0.248 NA
ATOM     68  C   UNL     1      15.373   4.461  -6.126  1.00  0.00     0.031 C 
ATOM     69  C   UNL     1      19.074   1.578  -2.901  1.00  0.00     0.029 A 
ATOM     70  C   UNL     1      18.347   2.308  -3.842  1.00  0.00     0.049 A 
ATOM     71  H   UNL     1      16.996   1.537  -5.250  1.00  0.00     0.167 HD
ATOM     72  C   UNL     1      17.348   4.312  -4.934  1.00  0.00     0.074 A 
ATOM     73  C   UNL     1      16.488   3.742  -5.961  1.00  0.00     0.031 C 
ATOM     74  C   UNL     1      18.232   3.736  -4.070  1.00  0.00     0.031 A 
BRANCH  61  75
ATOM     75  C   UNL     1      15.704  -1.136  -4.947  1.00  0.00    -0.014 A 
ATOM     76  C   UNL     1      16.680  -1.663  -5.811  1.00  0.00     0.010 A 
ATOM     77  C   UNL     1      14.383  -1.056  -5.441  1.00  0.00     0.010 A 
ATOM     78  C   UNL     1      16.356  -2.042  -7.120  1.00  0.00     0.020 A 
ATOM     79  C   UNL     1      14.041  -1.472  -6.725  1.00  0.00     0.020 A 
ATOM     80  C   UNL     1      15.039  -1.931  -7.570  1.00  0.00     0.054 A 
BRANCH  80  81
ATOM     81  S   UNL     1      14.648  -2.309  -9.294  1.00  0.00     0.124 S 
ATOM     82  O   UNL     1      15.335  -1.232 -10.000  1.00  0.00    -0.237 OA
ATOM     83  O   UNL     1      15.220  -3.643  -9.457  1.00  0.00    -0.237 OA
ATOM     84  O   UNL     1      13.188  -2.254  -9.334  1.00  0.00    -0.744 OA
ENDBRANCH  80  81
ENDBRANCH  61  75
BRANCH  62  85
ATOM     85  C   UNL     1      13.694   7.268  -5.345  1.00  0.00    -0.014 A 
ATOM     86  C   UNL     1      14.259   7.981  -6.416  1.00  0.00     0.010 A 
ATOM     87  C   UNL     1      12.292   7.292  -5.196  1.00  0.00     0.010 A 
ATOM     88  C   UNL     1      13.444   8.637  -7.350  1.00  0.00     0.020 A 
ATOM     89  C   UNL     1      11.474   7.950  -6.120  1.00  0.00     0.020 A 
ATOM     90  C   UNL     1      12.055   8.596  -7.210  1.00  0.00     0.054 A 
BRANCH  90  91
ATOM     91  S   UNL     1      11.010   9.278  -8.530  1.00  0.00     0.124 S 
ATOM     92  O   UNL     1      11.226  10.714  -8.387  1.00  0.00    -0.237 OA
ATOM     93  O   UNL     1      11.579   8.669  -9.730  1.00  0.00    -0.237 OA
ATOM     94  O   UNL     1       9.668   8.814  -8.182  1.00  0.00    -0.744 OA
ENDBRANCH  90  91
ENDBRANCH  62  85
BRANCH  74  95
ATOM     95  C   UNL     1      18.986   4.654  -3.143  1.00  0.00    -0.014 A 
ATOM     96  C   UNL     1      18.376   5.387  -2.107  1.00  0.00     0.010 A 
ATOM     97  C   UNL     1      20.384   4.710  -3.275  1.00  0.00     0.010 A 
ATOM     98  C   UNL     1      19.147   6.171  -1.236  1.00  0.00     0.020 A 
ATOM     99  C   UNL     1      21.159   5.476  -2.401  1.00  0.00     0.020 A 
ATOM    100  C   UNL     1      20.536   6.209  -1.390  1.00  0.00     0.054 A 
BRANCH 100 101
ATOM    101  S   UNL     1      21.537   7.179  -0.226  1.00  0.00     0.124 S 
ATOM    102  O   UNL     1      21.232   8.553  -0.612  1.00  0.00    -0.237 OA
ATOM    103  O   UNL     1      21.019   6.761   1.076  1.00  0.00    -0.237 OA
ATOM    104  O   UNL     1      22.907   6.748  -0.503  1.00  0.00    -0.744 OA
ENDBRANCH 100 101
ENDBRANCH  74  95
ENDBRANCH  48  49
ENDBRANCH  41  43
ENDBRANCH  40  41
ENDBRANCH  39  40
ENDBRANCH  38  39
ENDBRANCH  37  38
ENDBRANCH  36  37
ENDBRANCH  35  36
ENDBRANCH  34  35
ENDBRANCH   1  34
TORSDOF 28
