REMARK SMILES Cc1cccc(-n2ncc(C(=O)Nc3cccc(C(=O)OCCOCCOCCOCCOC(=O)c4ccc(-c5c6nc(c(-c7ccc(S(=O)(=O)[O-])cc7)c7ccc([nH]7)c(-c7ccc(S(=O)(=O)[O-])cc7)c7nc(c(-c8ccc(S(=O)(=O)[O-])cc8)c8ccc5[nH]8)C=C7)C=C6)cc4)c3C)c2C)c1
REMARK SMILES IDX 27 1 26 2 25 3 24 4 23 5 22 6 21 7 19 8 20 9 18 10 14 11
REMARK SMILES IDX 15 12 96 13 16 14 97 15 17 16 13 17 11 18 12 19 10 21 7 22
REMARK SMILES IDX 8 23 98 24 9 25 99 26 6 27 1 28 2 29 3 30 100 31 4 32 5 33
REMARK SMILES IDX 28 34 29 35 30 36 31 37 32 38 33 39 34 40 35 41 36 42 37 43
REMARK SMILES IDX 95 44 38 45 94 46 39 47 40 48 41 49 88 50 42 51 93 52 87 53
REMARK SMILES IDX 89 54 43 55 92 56 86 57 85 58 44 60 74 61 55 62 73 63 56 64
REMARK SMILES IDX 59 65 72 66 90 67 57 68 58 69 71 71 91 72 60 73 45 74 46 75
REMARK SMILES IDX 54 76 47 77 53 78 48 79 49 80 50 81 51 82 52 83 75 84 76 85
REMARK SMILES IDX 84 86 77 87 83 88 78 89 79 90 80 91 81 92 82 93 61 94 62 95
REMARK SMILES IDX 70 96 63 97 69 98 64 99 65 100 66 101 67 102 68 103
REMARK H PARENT 13 20 89 59 59 70
REMARK Flexibility Score: inf
ROOT
ATOM      1  O   UNL     1      -4.442  10.171  -3.062  1.00  0.00    -0.377 OA
ENDROOT
BRANCH   1   2
ATOM      2  C   UNL     1      -5.670   9.862  -2.432  1.00  0.00     0.188 C 
BRANCH   2   3
ATOM      3  C   UNL     1      -5.616   9.949  -0.887  1.00  0.00     0.188 C 
BRANCH   3   4
ATOM      4  O   UNL     1      -5.082  11.093  -0.223  1.00  0.00    -0.376 OA
BRANCH   4   5
ATOM      5  C   UNL     1      -3.791  11.558  -0.600  1.00  0.00     0.202 C 
BRANCH   5   6
ATOM      6  C   UNL     1      -2.618  10.598  -0.750  1.00  0.00     0.261 C 
BRANCH   6   7
ATOM      7  O   UNL     1      -3.008   9.307  -1.149  1.00  0.00    -0.460 OA
BRANCH   7   8
ATOM      8  C   UNL     1      -2.170   8.280  -1.017  1.00  0.00     0.338 C 
ATOM      9  O   UNL     1      -1.032   8.188  -0.627  1.00  0.00    -0.246 OA
BRANCH   8  10
ATOM     10  C   UNL     1      -3.113   7.182  -1.139  1.00  0.00     0.065 A 
ATOM     11  C   UNL     1      -4.678   5.731  -0.112  1.00  0.00     0.045 A 
ATOM     12  C   UNL     1      -4.900   5.103  -1.346  1.00  0.00     0.026 A 
ATOM     13  C   UNL     1      -3.840   6.835   0.009  1.00  0.00    -0.013 A 
ATOM     14  C   UNL     1      -4.228   5.540  -2.489  1.00  0.00     0.003 A 
ATOM     15  C   UNL     1      -3.625   7.521   1.340  1.00  0.00     0.047 C 
ATOM     16  C   UNL     1      -3.301   6.569  -2.382  1.00  0.00     0.016 A 
BRANCH  11  17
ATOM     17  N   UNL     1      -5.135   5.127   1.056  1.00  0.00    -0.322 N 
ATOM     18  C   UNL     1      -4.435   4.149   1.739  1.00  0.00     0.259 C 
ATOM     19  O   UNL     1      -4.879   3.789   2.831  1.00  0.00    -0.269 OA
ATOM     20  H   UNL     1      -6.006   5.412   1.415  1.00  0.00     0.170 HD
BRANCH  18  21
ATOM     21  C   UNL     1      -3.232   3.547   1.157  1.00  0.00     0.081 A 
ATOM     22  N   UNL     1      -1.688   2.043   0.596  1.00  0.00    -0.237 N 
ATOM     23  N   UNL     1      -1.244   3.197   0.062  1.00  0.00    -0.175 NA
ATOM     24  C   UNL     1      -2.794   2.251   1.402  1.00  0.00     0.054 A 
ATOM     25  C   UNL     1      -2.171   4.088   0.396  1.00  0.00     0.149 A 
ATOM     26  C   UNL     1      -3.290   1.306   2.434  1.00  0.00     0.068 C 
BRANCH  22  27
ATOM     27  C   UNL     1      -0.991   0.846   0.314  1.00  0.00     0.065 A 
ATOM     28  C   UNL     1       2.623  -0.202  -0.190  1.00  0.00     0.044 C 
ATOM     29  C   UNL     1       1.129  -0.260  -0.085  1.00  0.00    -0.049 A 
ATOM     30  C   UNL     1       0.460  -1.490  -0.097  1.00  0.00     0.003 A 
ATOM     31  C   UNL     1       0.390   0.913   0.086  1.00  0.00     0.031 A 
ATOM     32  C   UNL     1      -0.928  -1.548   0.056  1.00  0.00     0.002 A 
ATOM     33  C   UNL     1      -1.657  -0.380   0.268  1.00  0.00     0.028 A 
ENDBRANCH  22  27
ENDBRANCH  18  21
ENDBRANCH  11  17
ENDBRANCH   8  10
ENDBRANCH   7   8
ENDBRANCH   6   7
ENDBRANCH   5   6
ENDBRANCH   4   5
ENDBRANCH   3   4
ENDBRANCH   2   3
ENDBRANCH   1   2
BRANCH   1  34
ATOM     34  C   UNL     1      -4.481  10.834  -4.323  1.00  0.00     0.188 C 
BRANCH  34  35
ATOM     35  C   UNL     1      -5.309  12.128  -4.373  1.00  0.00     0.188 C 
BRANCH  35  36
ATOM     36  O   UNL     1      -5.383  12.757  -3.096  1.00  0.00    -0.376 OA
BRANCH  36  37
ATOM     37  C   UNL     1      -6.676  13.175  -2.672  1.00  0.00     0.202 C 
BRANCH  37  38
ATOM     38  C   UNL     1      -7.178  14.395  -3.441  1.00  0.00     0.261 C 
BRANCH  38  39
ATOM     39  O   UNL     1      -6.322  15.514  -3.163  1.00  0.00    -0.460 OA
BRANCH  39  40
ATOM     40  C   UNL     1      -5.409  15.755  -4.146  1.00  0.00     0.338 C 
ATOM     41  O   UNL     1      -5.706  16.042  -5.293  1.00  0.00    -0.246 OA
BRANCH  40  42
ATOM     42  C   UNL     1      -4.035  15.486  -3.634  1.00  0.00     0.060 A 
ATOM     43  C   UNL     1      -2.985  15.225  -4.524  1.00  0.00     0.016 A 
ATOM     44  C   UNL     1      -3.838  15.271  -2.274  1.00  0.00     0.016 A 
ATOM     45  C   UNL     1      -1.784  14.644  -4.066  1.00  0.00     0.010 A 
ATOM     46  C   UNL     1      -2.681  14.638  -1.846  1.00  0.00     0.010 A 
ATOM     47  C   UNL     1      -1.639  14.278  -2.724  1.00  0.00    -0.014 A 
BRANCH  47  48
ATOM     48  C   UNL     1      -0.585  13.384  -2.162  1.00  0.00     0.031 A 
ATOM     49  C   UNL     1      -0.100  13.585  -0.733  1.00  0.00     0.074 A 
ATOM     50  C   UNL     1      -0.320  12.177  -2.746  1.00  0.00     0.049 A 
ATOM     51  N   UNL     1       0.625  12.731  -0.090  1.00  0.00    -0.248 NA
ATOM     52  C   UNL     1      -0.397  14.740   0.126  1.00  0.00     0.031 C 
ATOM     53  C   UNL     1       0.105  10.973  -2.010  1.00  0.00     0.029 A 
ATOM     54  N   UNL     1      -0.437  11.673  -4.044  1.00  0.00    -0.354 N 
ATOM     55  C   UNL     1       0.524  12.970   1.257  1.00  0.00     0.074 A 
ATOM     56  C   UNL     1      -0.030  14.296   1.339  1.00  0.00     0.031 C 
ATOM     57  C   UNL     1       0.288   9.941  -2.836  1.00  0.00     0.029 A 
ATOM     58  C   UNL     1       0.349  10.511  -4.146  1.00  0.00     0.049 A 
ATOM     59  H   UNL     1      -0.979  12.065  -4.767  1.00  0.00     0.167 HD
ATOM     60  C   UNL     1       0.820  11.963   2.131  1.00  0.00     0.031 A 
ATOM     61  C   UNL     1       1.448  10.336  -4.938  1.00  0.00     0.031 A 
ATOM     62  C   UNL     1       1.455  10.815   1.468  1.00  0.00     0.049 A 
ATOM     63  C   UNL     1       2.690  10.059  -4.099  1.00  0.00     0.074 A 
ATOM     64  C   UNL     1       1.165   9.466   1.367  1.00  0.00     0.029 A 
ATOM     65  N   UNL     1       2.538  11.041   0.617  1.00  0.00    -0.354 N 
ATOM     66  N   UNL     1       2.784  10.433  -2.848  1.00  0.00    -0.248 NA
ATOM     67  C   UNL     1       3.861   9.290  -4.514  1.00  0.00     0.031 C 
ATOM     68  C   UNL     1       2.043   8.900   0.398  1.00  0.00     0.029 A 
ATOM     69  C   UNL     1       2.888   9.897  -0.064  1.00  0.00     0.049 A 
ATOM     70  H   UNL     1       2.992  11.909   0.516  1.00  0.00     0.167 HD
ATOM     71  C   UNL     1       3.871   9.855  -2.264  1.00  0.00     0.074 A 
ATOM     72  C   UNL     1       4.576   9.231  -3.369  1.00  0.00     0.031 C 
ATOM     73  C   UNL     1       4.074   9.866  -0.913  1.00  0.00     0.031 A 
BRANCH  60  74
ATOM     74  C   UNL     1       0.445  11.930   3.604  1.00  0.00    -0.014 A 
ATOM     75  C   UNL     1       0.933  10.889   4.428  1.00  0.00     0.010 A 
ATOM     76  C   UNL     1      -0.439  12.837   4.222  1.00  0.00     0.010 A 
ATOM     77  C   UNL     1       0.584  10.773   5.785  1.00  0.00     0.020 A 
ATOM     78  C   UNL     1      -0.770  12.753   5.587  1.00  0.00     0.020 A 
ATOM     79  C   UNL     1      -0.260  11.717   6.363  1.00  0.00     0.054 A 
BRANCH  79  80
ATOM     80  S   UNL     1      -0.669  11.587   8.126  1.00  0.00     0.124 S 
ATOM     81  O   UNL     1      -1.500  10.386   8.167  1.00  0.00    -0.237 OA
ATOM     82  O   UNL     1       0.643  11.467   8.755  1.00  0.00    -0.237 OA
ATOM     83  O   UNL     1      -1.376  12.835   8.410  1.00  0.00    -0.744 OA
ENDBRANCH  79  80
ENDBRANCH  60  74
BRANCH  61  84
ATOM     84  C   UNL     1       1.309  10.944  -6.284  1.00  0.00    -0.014 A 
ATOM     85  C   UNL     1       0.413  10.252  -7.132  1.00  0.00     0.010 A 
ATOM     86  C   UNL     1       1.429  12.340  -6.408  1.00  0.00     0.010 A 
ATOM     87  C   UNL     1      -0.556  10.957  -7.845  1.00  0.00     0.020 A 
ATOM     88  C   UNL     1       0.459  13.050  -7.133  1.00  0.00     0.020 A 
ATOM     89  C   UNL     1      -0.579  12.349  -7.760  1.00  0.00     0.054 A 
BRANCH  89  90
ATOM     90  S   UNL     1      -2.142  13.189  -8.174  1.00  0.00     0.124 S 
ATOM     91  O   UNL     1      -2.293  12.891  -9.594  1.00  0.00    -0.237 OA
ATOM     92  O   UNL     1      -3.088  12.519  -7.283  1.00  0.00    -0.237 OA
ATOM     93  O   UNL     1      -1.871  14.585  -7.843  1.00  0.00    -0.744 OA
ENDBRANCH  89  90
ENDBRANCH  61  84
BRANCH  73  94
ATOM     94  C   UNL     1       5.416   9.781  -0.228  1.00  0.00    -0.014 A 
ATOM     95  C   UNL     1       6.632   9.994  -0.890  1.00  0.00     0.010 A 
ATOM     96  C   UNL     1       5.456   9.716   1.190  1.00  0.00     0.010 A 
ATOM     97  C   UNL     1       7.831  10.123  -0.174  1.00  0.00     0.020 A 
ATOM     98  C   UNL     1       6.637   9.883   1.913  1.00  0.00     0.020 A 
ATOM     99  C   UNL     1       7.825  10.075   1.222  1.00  0.00     0.054 A 
BRANCH  99 100
ATOM    100  S   UNL     1       9.367  10.355   2.124  1.00  0.00     0.124 S 
ATOM    101  O   UNL     1      10.015   9.050   2.023  1.00  0.00    -0.237 OA
ATOM    102  O   UNL     1       9.999  11.428   1.359  1.00  0.00    -0.237 OA
ATOM    103  O   UNL     1       8.925  10.734   3.464  1.00  0.00    -0.744 OA
ENDBRANCH  99 100
ENDBRANCH  73  94
ENDBRANCH  47  48
ENDBRANCH  40  42
ENDBRANCH  39  40
ENDBRANCH  38  39
ENDBRANCH  37  38
ENDBRANCH  36  37
ENDBRANCH  35  36
ENDBRANCH  34  35
ENDBRANCH   1  34
TORSDOF 26
