REMARK SMILES CC1(C)CSC[C@H]([NH2+][C@H](C(=O)OCCOCCOCCOCCOC(=O)c2ccc(-c3c4nc(c(-c5ccc(S(=O)(=O)[O-])cc5)c5ccc([nH]5)c(-c5ccc(S(=O)(=O)[O-])cc5)c5nc(c(-c6ccc(S(=O)(=O)[O-])cc6)c6ccc3[nH]6)C=C5)C=C4)cc2)c2ccccc2)C1
REMARK SMILES IDX 19 1 18 2 17 3 16 4 15 5 14 6 13 7 12 8 10 9 11 10 9 11 8 12
REMARK SMILES IDX 7 15 1 16 2 17 3 18 4 19 93 20 5 21 6 22 87 23 88 24 92 25
REMARK SMILES IDX 89 26 91 27 90 28 20 29 21 30 22 31 23 32 24 33 25 34 26 35
REMARK SMILES IDX 27 36 28 37 86 38 29 39 85 40 30 41 31 42 32 43 79 44 33 45
REMARK SMILES IDX 84 46 78 47 80 48 34 49 83 50 77 51 76 52 35 54 65 55 46 56
REMARK SMILES IDX 64 57 47 58 50 59 63 60 81 61 48 62 49 63 62 65 82 66 51 67
REMARK SMILES IDX 36 68 37 69 45 70 38 71 44 72 39 73 40 74 41 75 42 76 43 77
REMARK SMILES IDX 66 78 67 79 75 80 68 81 74 82 69 83 70 84 71 85 72 86 73 87
REMARK SMILES IDX 52 88 53 89 61 90 54 91 60 92 55 93 56 94 57 95 58 96 59 97
REMARK H PARENT 8 13 8 14 80 53 50 64
REMARK Flexibility Score: inf
ROOT
ATOM      1  C   UNL     1      -0.859   0.734   0.822  1.00  0.00     0.188 C 
ENDROOT
BRANCH   1   2
ATOM      2  O   UNL     1       0.287  -0.012   0.453  1.00  0.00    -0.377 OA
BRANCH   2   3
ATOM      3  C   UNL     1       0.086  -1.246  -0.227  1.00  0.00     0.188 C 
BRANCH   3   4
ATOM      4  C   UNL     1      -1.265  -1.589  -0.874  1.00  0.00     0.188 C 
BRANCH   4   5
ATOM      5  O   UNL     1      -2.397  -1.221  -0.105  1.00  0.00    -0.376 OA
BRANCH   5   6
ATOM      6  C   UNL     1      -3.062  -2.118   0.758  1.00  0.00     0.202 C 
BRANCH   6   7
ATOM      7  C   UNL     1      -2.273  -2.864   1.849  1.00  0.00     0.261 C 
BRANCH   7   8
ATOM      8  O   UNL     1      -1.133  -3.668   1.486  1.00  0.00    -0.459 OA
BRANCH   8   9
ATOM      9  C   UNL     1      -1.220  -4.372   0.337  1.00  0.00     0.369 C 
ATOM     10  O   UNL     1      -2.126  -4.245  -0.477  1.00  0.00    -0.245 OA
BRANCH   9  11
ATOM     11  C   UNL     1      -0.105  -5.379   0.123  1.00  0.00     0.325 C 
BRANCH  11  12
ATOM     12  N   UNL     1      -0.645  -6.786   0.229  1.00  0.00    -0.328 N 
ATOM     13  H   UNL     1       0.052  -7.416  -0.167  1.00  0.00     0.347 HD
ATOM     14  H   UNL     1      -0.831  -6.929   1.222  1.00  0.00     0.347 HD
BRANCH  12  15
ATOM     15  C   UNL     1      -1.938  -7.055  -0.456  1.00  0.00     0.193 C 
ATOM     16  C   UNL     1      -3.979  -5.551  -2.195  1.00  0.00     0.012 C 
ATOM     17  C   UNL     1      -4.357  -6.287  -0.874  1.00  0.00    -0.021 C 
ATOM     18  C   UNL     1      -5.468  -5.421  -0.241  1.00  0.00     0.012 C 
ATOM     19  C   UNL     1      -4.881  -7.693  -1.215  1.00  0.00     0.076 C 
ATOM     20  C   UNL     1      -3.234  -6.504   0.193  1.00  0.00     0.073 C 
ATOM     21  S   UNL     1      -3.598  -8.867  -1.837  1.00  0.00    -0.155 SA
ATOM     22  C   UNL     1      -2.196  -8.559  -0.673  1.00  0.00     0.134 C 
ENDBRANCH  12  15
ENDBRANCH  11  12
BRANCH  11  23
ATOM     23  C   UNL     1       0.675  -4.985  -1.155  1.00  0.00     0.021 A 
ATOM     24  C   UNL     1       1.808  -4.152  -1.032  1.00  0.00     0.010 A 
ATOM     25  C   UNL     1       0.209  -5.215  -2.461  1.00  0.00     0.010 A 
ATOM     26  C   UNL     1       2.412  -3.559  -2.153  1.00  0.00     0.001 A 
ATOM     27  C   UNL     1       0.812  -4.627  -3.581  1.00  0.00     0.001 A 
ATOM     28  C   UNL     1       1.906  -3.788  -3.428  1.00  0.00     0.000 A 
ENDBRANCH  11  23
ENDBRANCH   9  11
ENDBRANCH   8   9
ENDBRANCH   7   8
ENDBRANCH   6   7
ENDBRANCH   5   6
ENDBRANCH   4   5
ENDBRANCH   3   4
ENDBRANCH   2   3
ENDBRANCH   1   2
BRANCH   1  29
ATOM     29  C   UNL     1      -1.533   1.503  -0.338  1.00  0.00     0.188 C 
BRANCH  29  30
ATOM     30  O   UNL     1      -1.322   0.973  -1.630  1.00  0.00    -0.376 OA
BRANCH  30  31
ATOM     31  C   UNL     1      -0.249   1.364  -2.465  1.00  0.00     0.202 C 
BRANCH  31  32
ATOM     32  C   UNL     1       1.181   1.674  -1.987  1.00  0.00     0.261 C 
BRANCH  32  33
ATOM     33  O   UNL     1       1.359   2.186  -0.669  1.00  0.00    -0.460 OA
BRANCH  33  34
ATOM     34  C   UNL     1       0.953   3.447  -0.439  1.00  0.00     0.338 C 
ATOM     35  O   UNL     1       0.490   4.229  -1.254  1.00  0.00    -0.246 OA
BRANCH  34  36
ATOM     36  C   UNL     1       0.933   3.634   1.028  1.00  0.00     0.060 A 
ATOM     37  C   UNL     1      -0.270   4.030   1.630  1.00  0.00     0.016 A 
ATOM     38  C   UNL     1       2.060   3.356   1.809  1.00  0.00     0.016 A 
ATOM     39  C   UNL     1      -0.350   4.165   3.010  1.00  0.00     0.010 A 
ATOM     40  C   UNL     1       2.000   3.558   3.189  1.00  0.00     0.010 A 
ATOM     41  C   UNL     1       0.805   4.001   3.782  1.00  0.00    -0.014 A 
BRANCH  41  42
ATOM     42  C   UNL     1       0.820   4.617   5.125  1.00  0.00     0.031 A 
ATOM     43  C   UNL     1       1.259   6.053   5.207  1.00  0.00     0.074 A 
ATOM     44  C   UNL     1       0.397   3.959   6.215  1.00  0.00     0.049 A 
ATOM     45  N   UNL     1       1.341   6.838   6.248  1.00  0.00    -0.248 NA
ATOM     46  C   UNL     1       1.655   6.691   3.938  1.00  0.00     0.031 C 
ATOM     47  C   UNL     1      -0.103   2.586   6.238  1.00  0.00     0.029 A 
ATOM     48  N   UNL     1       0.323   4.371   7.521  1.00  0.00    -0.354 N 
ATOM     49  C   UNL     1       1.809   8.052   5.761  1.00  0.00     0.074 A 
ATOM     50  C   UNL     1       2.016   7.897   4.340  1.00  0.00     0.031 C 
ATOM     51  C   UNL     1      -0.415   2.261   7.506  1.00  0.00     0.029 A 
ATOM     52  C   UNL     1      -0.111   3.393   8.381  1.00  0.00     0.049 A 
ATOM     53  H   UNL     1       0.559   5.281   7.813  1.00  0.00     0.167 HD
ATOM     54  C   UNL     1       2.048   9.197   6.439  1.00  0.00     0.031 A 
ATOM     55  C   UNL     1      -0.222   3.408   9.724  1.00  0.00     0.031 A 
ATOM     56  C   UNL     1       1.864   9.332   7.858  1.00  0.00     0.049 A 
ATOM     57  C   UNL     1       0.115   4.673  10.472  1.00  0.00     0.074 A 
ATOM     58  C   UNL     1       2.061  10.450   8.646  1.00  0.00     0.029 A 
ATOM     59  N   UNL     1       1.458   8.309   8.701  1.00  0.00    -0.354 N 
ATOM     60  N   UNL     1       0.524   5.828   9.999  1.00  0.00    -0.248 NA
ATOM     61  C   UNL     1      -0.040   4.642  11.933  1.00  0.00     0.031 C 
ATOM     62  C   UNL     1       1.844  10.082   9.978  1.00  0.00     0.029 A 
ATOM     63  C   UNL     1       1.434   8.758  10.010  1.00  0.00     0.049 A 
ATOM     64  H   UNL     1       1.223   7.398   8.412  1.00  0.00     0.167 HD
ATOM     65  C   UNL     1       0.651   6.668  11.102  1.00  0.00     0.074 A 
ATOM     66  C   UNL     1       0.259   5.892  12.261  1.00  0.00     0.031 C 
ATOM     67  C   UNL     1       1.050   7.965  11.152  1.00  0.00     0.031 A 
BRANCH  54  68
ATOM     68  C   UNL     1       2.599  10.360   5.659  1.00  0.00    -0.014 A 
ATOM     69  C   UNL     1       1.825  11.043   4.702  1.00  0.00     0.010 A 
ATOM     70  C   UNL     1       3.923  10.775   5.889  1.00  0.00     0.010 A 
ATOM     71  C   UNL     1       2.381  12.088   3.959  1.00  0.00     0.020 A 
ATOM     72  C   UNL     1       4.471  11.841   5.173  1.00  0.00     0.020 A 
ATOM     73  C   UNL     1       3.702  12.479   4.198  1.00  0.00     0.054 A 
BRANCH  73  74
ATOM     74  S   UNL     1       4.394  13.847   3.230  1.00  0.00     0.124 S 
ATOM     75  O   UNL     1       4.543  13.238   1.911  1.00  0.00    -0.237 OA
ATOM     76  O   UNL     1       3.357  14.870   3.337  1.00  0.00    -0.237 OA
ATOM     77  O   UNL     1       5.646  14.160   3.916  1.00  0.00    -0.744 OA
ENDBRANCH  73  74
ENDBRANCH  54  68
BRANCH  55  78
ATOM     78  C   UNL     1      -0.641   2.173  10.443  1.00  0.00    -0.014 A 
ATOM     79  C   UNL     1      -1.886   2.095  11.091  1.00  0.00     0.010 A 
ATOM     80  C   UNL     1       0.209   1.051  10.462  1.00  0.00     0.010 A 
ATOM     81  C   UNL     1      -2.270   0.920  11.746  1.00  0.00     0.020 A 
ATOM     82  C   UNL     1      -0.183  -0.133  11.090  1.00  0.00     0.020 A 
ATOM     83  C   UNL     1      -1.419  -0.190  11.734  1.00  0.00     0.054 A 
BRANCH  83  84
ATOM     84  S   UNL     1      -1.972  -1.727  12.524  1.00  0.00     0.124 S 
ATOM     85  O   UNL     1      -1.910  -1.382  13.940  1.00  0.00    -0.237 OA
ATOM     86  O   UNL     1      -3.314  -1.897  11.971  1.00  0.00    -0.237 OA
ATOM     87  O   UNL     1      -0.993  -2.714  12.075  1.00  0.00    -0.744 OA
ENDBRANCH  83  84
ENDBRANCH  55  78
BRANCH  67  88
ATOM     88  C   UNL     1       1.050   8.642  12.498  1.00  0.00    -0.014 A 
ATOM     89  C   UNL     1       1.984   8.303  13.493  1.00  0.00     0.010 A 
ATOM     90  C   UNL     1       0.132   9.680  12.747  1.00  0.00     0.010 A 
ATOM     91  C   UNL     1       1.973   8.961  14.726  1.00  0.00     0.020 A 
ATOM     92  C   UNL     1       0.140  10.364  13.965  1.00  0.00     0.020 A 
ATOM     93  C   UNL     1       1.050   9.988  14.954  1.00  0.00     0.054 A 
BRANCH  93  94
ATOM     94  S   UNL     1       1.077  10.847  16.550  1.00  0.00     0.124 S 
ATOM     95  O   UNL     1       0.534   9.833  17.450  1.00  0.00    -0.237 OA
ATOM     96  O   UNL     1       2.496  11.150  16.726  1.00  0.00    -0.237 OA
ATOM     97  O   UNL     1       0.220  12.010  16.333  1.00  0.00    -0.744 OA
ENDBRANCH  93  94
ENDBRANCH  67  88
ENDBRANCH  41  42
ENDBRANCH  34  36
ENDBRANCH  33  34
ENDBRANCH  32  33
ENDBRANCH  31  32
ENDBRANCH  30  31
ENDBRANCH  29  30
ENDBRANCH   1  29
TORSDOF 26
