REMARK SMILES C[C@@H](Sc1nc(-c2ccc3c(c2)OCO3)ccc1C#N)C(=O)OCCOCCOCCOCCOC(=O)c1ccc(-c2c3nc(c(-c4ccc(S(=O)(=O)[O-])cc4)c4ccc([nH]4)c(-c4ccc(S(=O)(=O)[O-])cc4)c4nc(c(-c5ccc(S(=O)(=O)[O-])cc5)c5ccc2[nH]5)C=C4)C=C3)cc1
REMARK SMILES IDX 29 1 28 2 27 3 26 4 25 5 24 6 23 7 21 8 22 9 2 10 1 11 3 12
REMARK SMILES IDX 4 13 5 14 18 15 6 16 17 17 16 18 19 19 20 20 7 21 8 22 12 23
REMARK SMILES IDX 9 24 11 25 10 26 13 27 15 28 14 29 30 30 31 31 32 32 33 33
REMARK SMILES IDX 34 34 35 35 36 36 37 37 38 38 39 39 97 40 40 41 96 42 41 43
REMARK SMILES IDX 42 44 43 45 90 46 44 47 95 48 89 49 91 50 45 51 94 52 88 53
REMARK SMILES IDX 87 54 46 56 76 57 57 58 75 59 58 60 61 61 74 62 92 63 59 64
REMARK SMILES IDX 60 65 73 67 93 68 62 69 47 70 48 71 56 72 49 73 55 74 50 75
REMARK SMILES IDX 51 76 52 77 53 78 54 79 77 80 78 81 86 82 79 83 85 84 80 85
REMARK SMILES IDX 81 86 82 87 83 88 84 89 63 90 64 91 72 92 65 93 71 94 66 95
REMARK SMILES IDX 67 96 68 97 69 98 70 99
REMARK H PARENT 91 55 61 66
REMARK Flexibility Score: inf
ROOT
ATOM      1  O   UNL     1      -1.828  -0.777   0.255  1.00  0.00    -0.377 OA
ENDROOT
BRANCH   1   2
ATOM      2  C   UNL     1      -1.493  -0.563   1.610  1.00  0.00     0.188 C 
BRANCH   2   3
ATOM      3  C   UNL     1      -2.197   0.628   2.257  1.00  0.00     0.188 C 
BRANCH   3   4
ATOM      4  O   UNL     1      -3.525   0.949   1.897  1.00  0.00    -0.376 OA
BRANCH   4   5
ATOM      5  C   UNL     1      -3.860   1.366   0.579  1.00  0.00     0.202 C 
BRANCH   5   6
ATOM      6  C   UNL     1      -2.935   2.174  -0.353  1.00  0.00     0.261 C 
BRANCH   6   7
ATOM      7  O   UNL     1      -1.568   1.747  -0.470  1.00  0.00    -0.462 OA
BRANCH   7   8
ATOM      8  C   UNL     1      -0.621   2.599   0.004  1.00  0.00     0.319 C 
ATOM      9  O   UNL     1      -0.878   3.658   0.571  1.00  0.00    -0.251 OA
BRANCH   8  10
ATOM     10  C   UNL     1       0.814   2.096  -0.168  1.00  0.00     0.160 C 
ATOM     11  C   UNL     1       1.001   0.613  -0.403  1.00  0.00     0.032 C 
BRANCH  10  12
ATOM     12  S   UNL     1       1.633   2.947  -1.564  1.00  0.00    -0.090 SA
BRANCH  12  13
ATOM     13  C   UNL     1       3.345   2.739  -1.111  1.00  0.00     0.115 A 
ATOM     14  N   UNL     1       3.901   3.912  -0.726  1.00  0.00    -0.240 NA
ATOM     15  C   UNL     1       4.105   1.567  -1.198  1.00  0.00     0.084 A 
ATOM     16  C   UNL     1       5.222   3.943  -0.451  1.00  0.00     0.072 A 
ATOM     17  C   UNL     1       5.431   1.594  -0.749  1.00  0.00     0.024 A 
ATOM     18  C   UNL     1       6.003   2.799  -0.381  1.00  0.00     0.030 A 
BRANCH  15  19
ATOM     19  C   UNL     1       3.667   0.336  -1.771  1.00  0.00     0.102 C 
ATOM     20  N   UNL     1       3.401  -0.720  -2.183  1.00  0.00    -0.192 NA
ENDBRANCH  15  19
BRANCH  16  21
ATOM     21  C   UNL     1       5.832   5.267  -0.472  1.00  0.00     0.004 A 
ATOM     22  C   UNL     1       6.716   5.588  -1.537  1.00  0.00     0.014 A 
ATOM     23  C   UNL     1       5.541   6.235   0.498  1.00  0.00     0.061 A 
ATOM     24  C   UNL     1       7.333   6.834  -1.622  1.00  0.00     0.051 A 
ATOM     25  C   UNL     1       6.178   7.453   0.398  1.00  0.00     0.166 A 
ATOM     26  C   UNL     1       7.051   7.740  -0.628  1.00  0.00     0.165 A 
ATOM     27  O   UNL     1       6.046   8.491   1.266  1.00  0.00    -0.454 OA
ATOM     28  O   UNL     1       7.577   8.990  -0.532  1.00  0.00    -0.454 OA
ATOM     29  C   UNL     1       6.966   9.442   0.693  1.00  0.00     0.468 C 
ENDBRANCH  16  21
ENDBRANCH  12  13
ENDBRANCH  10  12
ENDBRANCH   8  10
ENDBRANCH   7   8
ENDBRANCH   6   7
ENDBRANCH   5   6
ENDBRANCH   4   5
ENDBRANCH   3   4
ENDBRANCH   2   3
ENDBRANCH   1   2
BRANCH   1  30
ATOM     30  C   UNL     1      -2.868  -1.688  -0.077  1.00  0.00     0.188 C 
BRANCH  30  31
ATOM     31  C   UNL     1      -3.873  -2.132   1.005  1.00  0.00     0.188 C 
BRANCH  31  32
ATOM     32  O   UNL     1      -3.329  -2.356   2.292  1.00  0.00    -0.376 OA
BRANCH  32  33
ATOM     33  C   UNL     1      -2.804  -3.627   2.641  1.00  0.00     0.202 C 
BRANCH  33  34
ATOM     34  C   UNL     1      -1.832  -4.377   1.711  1.00  0.00     0.261 C 
BRANCH  34  35
ATOM     35  O   UNL     1      -2.224  -4.549   0.343  1.00  0.00    -0.460 OA
BRANCH  35  36
ATOM     36  C   UNL     1      -3.376  -5.204   0.091  1.00  0.00     0.338 C 
ATOM     37  O   UNL     1      -4.114  -5.722   0.907  1.00  0.00    -0.246 OA
BRANCH  36  38
ATOM     38  C   UNL     1      -3.697  -5.006  -1.341  1.00  0.00     0.060 A 
ATOM     39  C   UNL     1      -4.866  -4.316  -1.690  1.00  0.00     0.016 A 
ATOM     40  C   UNL     1      -2.852  -5.507  -2.333  1.00  0.00     0.016 A 
ATOM     41  C   UNL     1      -5.215  -4.158  -3.030  1.00  0.00     0.010 A 
ATOM     42  C   UNL     1      -3.218  -5.373  -3.675  1.00  0.00     0.010 A 
ATOM     43  C   UNL     1      -4.420  -4.732  -4.027  1.00  0.00    -0.014 A 
BRANCH  43  44
ATOM     44  C   UNL     1      -4.938  -4.840  -5.412  1.00  0.00     0.031 A 
ATOM     45  C   UNL     1      -5.513  -6.157  -5.857  1.00  0.00     0.074 A 
ATOM     46  C   UNL     1      -4.910  -3.793  -6.256  1.00  0.00     0.049 A 
ATOM     47  N   UNL     1      -5.945  -6.518  -7.037  1.00  0.00    -0.248 NA
ATOM     48  C   UNL     1      -5.605  -7.211  -4.832  1.00  0.00     0.031 C 
ATOM     49  C   UNL     1      -4.431  -2.452  -5.925  1.00  0.00     0.029 A 
ATOM     50  N   UNL     1      -5.280  -3.704  -7.575  1.00  0.00    -0.354 N 
ATOM     51  C   UNL     1      -6.335  -7.846  -6.904  1.00  0.00     0.074 A 
ATOM     52  C   UNL     1      -6.066  -8.233  -5.536  1.00  0.00     0.031 C 
ATOM     53  C   UNL     1      -4.517  -1.678  -7.021  1.00  0.00     0.029 A 
ATOM     54  C   UNL     1      -5.012  -2.480  -8.139  1.00  0.00     0.049 A 
ATOM     55  H   UNL     1      -5.698  -4.446  -8.069  1.00  0.00     0.167 HD
ATOM     56  C   UNL     1      -6.867  -8.669  -7.838  1.00  0.00     0.031 A 
ATOM     57  C   UNL     1      -5.117  -2.065  -9.418  1.00  0.00     0.031 A 
ATOM     58  C   UNL     1      -7.113  -8.280  -9.201  1.00  0.00     0.049 A 
ATOM     59  C   UNL     1      -5.635  -3.022 -10.463  1.00  0.00     0.074 A 
ATOM     60  C   UNL     1      -7.669  -9.030 -10.222  1.00  0.00     0.029 A 
ATOM     61  N   UNL     1      -6.803  -7.039  -9.740  1.00  0.00    -0.354 N 
ATOM     62  N   UNL     1      -6.029  -4.266 -10.319  1.00  0.00    -0.248 NA
ATOM     63  C   UNL     1      -5.729  -2.518 -11.840  1.00  0.00     0.031 C 
ATOM     64  C   UNL     1      -7.621  -8.273 -11.395  1.00  0.00     0.029 A 
ATOM     65  C   UNL     1      -7.120  -7.017 -11.088  1.00  0.00     0.049 A 
ATOM     66  H   UNL     1      -6.416  -6.286  -9.238  1.00  0.00     0.167 HD
ATOM     67  C   UNL     1      -6.448  -4.681 -11.581  1.00  0.00     0.074 A 
ATOM     68  C   UNL     1      -6.270  -3.552 -12.470  1.00  0.00     0.031 C 
ATOM     69  C   UNL     1      -6.939  -5.885 -11.965  1.00  0.00     0.031 A 
BRANCH  56  70
ATOM     70  C   UNL     1      -7.162 -10.091  -7.431  1.00  0.00    -0.014 A 
ATOM     71  C   UNL     1      -8.176 -10.400  -6.506  1.00  0.00     0.010 A 
ATOM     72  C   UNL     1      -6.426 -11.141  -8.010  1.00  0.00     0.010 A 
ATOM     73  C   UNL     1      -8.415 -11.726  -6.134  1.00  0.00     0.020 A 
ATOM     74  C   UNL     1      -6.686 -12.471  -7.669  1.00  0.00     0.020 A 
ATOM     75  C   UNL     1      -7.667 -12.753  -6.718  1.00  0.00     0.054 A 
BRANCH  75  76
ATOM     76  S   UNL     1      -8.010 -14.465  -6.227  1.00  0.00     0.124 S 
ATOM     77  O   UNL     1      -7.523 -14.487  -4.850  1.00  0.00    -0.237 OA
ATOM     78  O   UNL     1      -9.460 -14.555  -6.381  1.00  0.00    -0.237 OA
ATOM     79  O   UNL     1      -7.234 -15.261  -7.174  1.00  0.00    -0.744 OA
ENDBRANCH  75  76
ENDBRANCH  56  70
BRANCH  57  80
ATOM     80  C   UNL     1      -4.687  -0.687  -9.788  1.00  0.00    -0.014 A 
ATOM     81  C   UNL     1      -5.620   0.272 -10.218  1.00  0.00     0.010 A 
ATOM     82  C   UNL     1      -3.329  -0.325  -9.700  1.00  0.00     0.010 A 
ATOM     83  C   UNL     1      -5.204   1.561 -10.563  1.00  0.00     0.020 A 
ATOM     84  C   UNL     1      -2.914   0.973 -10.011  1.00  0.00     0.020 A 
ATOM     85  C   UNL     1      -3.853   1.906 -10.449  1.00  0.00     0.054 A 
BRANCH  85  86
ATOM     86  S   UNL     1      -3.350   3.604 -10.841  1.00  0.00     0.124 S 
ATOM     87  O   UNL     1      -3.541   3.653 -12.287  1.00  0.00    -0.237 OA
ATOM     88  O   UNL     1      -4.288   4.397 -10.051  1.00  0.00    -0.237 OA
ATOM     89  O   UNL     1      -1.961   3.663 -10.391  1.00  0.00    -0.744 OA
ENDBRANCH  85  86
ENDBRANCH  57  80
BRANCH  69  90
ATOM     90  C   UNL     1      -7.371  -6.045 -13.402  1.00  0.00    -0.014 A 
ATOM     91  C   UNL     1      -6.438  -6.085 -14.453  1.00  0.00     0.010 A 
ATOM     92  C   UNL     1      -8.735  -6.239 -13.693  1.00  0.00     0.010 A 
ATOM     93  C   UNL     1      -6.864  -6.291 -15.769  1.00  0.00     0.020 A 
ATOM     94  C   UNL     1      -9.161  -6.481 -15.001  1.00  0.00     0.020 A 
ATOM     95  C   UNL     1      -8.222  -6.495 -16.033  1.00  0.00     0.054 A 
BRANCH  95  96
ATOM     96  S   UNL     1      -8.739  -6.823 -17.741  1.00  0.00     0.124 S 
ATOM     97  O   UNL     1      -8.515  -5.530 -18.382  1.00  0.00    -0.237 OA
ATOM     98  O   UNL     1      -7.832  -7.893 -18.148  1.00  0.00    -0.237 OA
ATOM     99  O   UNL     1     -10.140  -7.218 -17.611  1.00  0.00    -0.744 OA
ENDBRANCH  95  96
ENDBRANCH  69  90
ENDBRANCH  43  44
ENDBRANCH  36  38
ENDBRANCH  35  36
ENDBRANCH  34  35
ENDBRANCH  33  34
ENDBRANCH  32  33
ENDBRANCH  31  32
ENDBRANCH  30  31
ENDBRANCH   1  30
TORSDOF 27
