REMARK SMILES O=C(OCCOCCOCCOCCOC(=O)[C@@H]1[C@@H](C(=O)Nc2cccc(C(F)(F)F)c2)[C@@H]2C=C[C@H]1O2)c1ccc(-c2c3nc(c(-c4ccc(S(=O)(=O)[O-])cc4)c4ccc([nH]4)c(-c4ccc(S(=O)(=O)[O-])cc4)c4nc(c(-c5ccc(S(=O)(=O)[O-])cc5)c5ccc2[nH]5)C=C4)C=C3)cc1
REMARK SMILES IDX 9 1 8 2 7 3 6 4 5 5 4 6 3 7 2 8 1 9 38 10 39 11 97 12 40 13
REMARK SMILES IDX 96 14 41 15 42 16 43 17 90 18 44 19 95 20 89 21 91 22 45 23
REMARK SMILES IDX 94 24 88 25 87 26 46 28 76 29 57 30 75 31 58 32 61 33 74 34
REMARK SMILES IDX 92 35 59 36 60 37 73 39 93 40 62 41 47 42 48 43 56 44 49 45
REMARK SMILES IDX 55 46 50 47 51 48 52 49 53 50 54 51 77 52 78 53 86 54 79 55
REMARK SMILES IDX 85 56 80 57 81 58 82 59 83 60 84 61 63 62 64 63 72 64 65 65
REMARK SMILES IDX 71 66 66 67 67 68 68 69 69 70 70 71 10 72 11 73 12 74 13 75
REMARK SMILES IDX 14 76 15 77 16 78 17 79 18 80 19 81 36 82 33 83 35 84 37 85
REMARK SMILES IDX 34 86 20 87 21 88 22 89 23 91 24 92 32 93 25 94 27 95 26 96
REMARK SMILES IDX 28 97 29 98 30 99 31 100
REMARK H PARENT 91 27 61 38 22 90
REMARK Flexibility Score: inf
ROOT
ATOM      1  O   UNL     1       1.956  -0.950  -3.330  1.00  0.00    -0.377 OA
ENDROOT
BRANCH   1   2
ATOM      2  C   UNL     1       1.321  -0.213  -2.298  1.00  0.00     0.188 C 
BRANCH   2   3
ATOM      3  C   UNL     1       1.738  -0.625  -0.887  1.00  0.00     0.188 C 
BRANCH   3   4
ATOM      4  O   UNL     1       3.135  -0.402  -0.675  1.00  0.00    -0.376 OA
BRANCH   4   5
ATOM      5  C   UNL     1       3.837  -1.439   0.018  1.00  0.00     0.202 C 
BRANCH   5   6
ATOM      6  C   UNL     1       3.953  -1.207   1.522  1.00  0.00     0.261 C 
BRANCH   6   7
ATOM      7  O   UNL     1       2.698  -0.813   2.082  1.00  0.00    -0.460 OA
BRANCH   7   8
ATOM      8  C   UNL     1       2.146   0.424   2.037  1.00  0.00     0.338 C 
ATOM      9  O   UNL     1       0.958   0.530   2.345  1.00  0.00    -0.246 OA
BRANCH   8  10
ATOM     10  C   UNL     1       2.885   1.677   1.660  1.00  0.00     0.060 A 
ATOM     11  C   UNL     1       4.039   1.768   0.869  1.00  0.00     0.016 A 
ATOM     12  C   UNL     1       2.319   2.877   2.122  1.00  0.00     0.016 A 
ATOM     13  C   UNL     1       4.649   2.981   0.599  1.00  0.00     0.010 A 
ATOM     14  C   UNL     1       2.925   4.105   1.863  1.00  0.00     0.010 A 
ATOM     15  C   UNL     1       4.117   4.144   1.135  1.00  0.00    -0.014 A 
BRANCH  15  16
ATOM     16  C   UNL     1       4.975   5.333   1.136  1.00  0.00     0.031 A 
ATOM     17  C   UNL     1       5.740   5.614   2.393  1.00  0.00     0.074 A 
ATOM     18  C   UNL     1       5.161   6.030   0.004  1.00  0.00     0.049 A 
ATOM     19  N   UNL     1       6.507   6.624   2.688  1.00  0.00    -0.248 NA
ATOM     20  C   UNL     1       5.635   4.602   3.463  1.00  0.00     0.031 C 
ATOM     21  C   UNL     1       4.581   5.697  -1.299  1.00  0.00     0.029 A 
ATOM     22  N   UNL     1       5.913   7.144  -0.235  1.00  0.00    -0.354 N 
ATOM     23  C   UNL     1       6.937   6.394   3.990  1.00  0.00     0.074 A 
ATOM     24  C   UNL     1       6.352   5.150   4.429  1.00  0.00     0.031 C 
ATOM     25  C   UNL     1       5.005   6.594  -2.205  1.00  0.00     0.029 A 
ATOM     26  C   UNL     1       5.822   7.595  -1.529  1.00  0.00     0.049 A 
ATOM     27  H   UNL     1       6.466   7.582   0.452  1.00  0.00     0.167 HD
ATOM     28  C   UNL     1       7.739   7.174   4.749  1.00  0.00     0.031 A 
ATOM     29  C   UNL     1       6.314   8.721  -2.076  1.00  0.00     0.031 A 
ATOM     30  C   UNL     1       8.276   8.416   4.270  1.00  0.00     0.049 A 
ATOM     31  C   UNL     1       7.099   9.640  -1.178  1.00  0.00     0.074 A 
ATOM     32  C   UNL     1       9.040   9.348   4.942  1.00  0.00     0.029 A 
ATOM     33  N   UNL     1       8.089   8.898   2.978  1.00  0.00    -0.354 N 
ATOM     34  N   UNL     1       7.437   9.468   0.081  1.00  0.00    -0.248 NA
ATOM     35  C   UNL     1       7.559  10.903  -1.762  1.00  0.00     0.031 C 
ATOM     36  C   UNL     1       9.265  10.422   4.072  1.00  0.00     0.029 A 
ATOM     37  C   UNL     1       8.703  10.126   2.837  1.00  0.00     0.049 A 
ATOM     38  H   UNL     1       7.592   8.430   2.268  1.00  0.00     0.167 HD
ATOM     39  C   UNL     1       8.168  10.594   0.437  1.00  0.00     0.074 A 
ATOM     40  C   UNL     1       8.234  11.430  -0.749  1.00  0.00     0.031 C 
ATOM     41  C   UNL     1       8.735  10.915   1.628  1.00  0.00     0.031 A 
BRANCH  28  42
ATOM     42  C   UNL     1       7.963   6.742   6.173  1.00  0.00    -0.014 A 
ATOM     43  C   UNL     1       8.717   5.598   6.494  1.00  0.00     0.010 A 
ATOM     44  C   UNL     1       7.345   7.463   7.211  1.00  0.00     0.010 A 
ATOM     45  C   UNL     1       8.798   5.151   7.818  1.00  0.00     0.020 A 
ATOM     46  C   UNL     1       7.449   7.038   8.538  1.00  0.00     0.020 A 
ATOM     47  C   UNL     1       8.155   5.870   8.830  1.00  0.00     0.054 A 
BRANCH  47  48
ATOM     48  S   UNL     1       8.257   5.255  10.534  1.00  0.00     0.124 S 
ATOM     49  O   UNL     1       7.391   4.082  10.485  1.00  0.00    -0.237 OA
ATOM     50  O   UNL     1       9.680   4.982  10.692  1.00  0.00    -0.237 OA
ATOM     51  O   UNL     1       7.747   6.372  11.335  1.00  0.00    -0.744 OA
ENDBRANCH  47  48
ENDBRANCH  28  42
BRANCH  29  52
ATOM     52  C   UNL     1       6.028   9.051  -3.500  1.00  0.00    -0.014 A 
ATOM     53  C   UNL     1       7.057   9.092  -4.455  1.00  0.00     0.010 A 
ATOM     54  C   UNL     1       4.705   9.299  -3.918  1.00  0.00     0.010 A 
ATOM     55  C   UNL     1       6.772   9.381  -5.795  1.00  0.00     0.020 A 
ATOM     56  C   UNL     1       4.411   9.559  -5.260  1.00  0.00     0.020 A 
ATOM     57  C   UNL     1       5.449   9.607  -6.190  1.00  0.00     0.054 A 
BRANCH  57  58
ATOM     58  S   UNL     1       5.099   9.928  -7.941  1.00  0.00     0.124 S 
ATOM     59  O   UNL     1       5.665  11.260  -8.126  1.00  0.00    -0.237 OA
ATOM     60  O   UNL     1       5.811   8.840  -8.608  1.00  0.00    -0.237 OA
ATOM     61  O   UNL     1       3.642   9.850  -8.021  1.00  0.00    -0.744 OA
ENDBRANCH  57  58
ENDBRANCH  29  52
BRANCH  41  62
ATOM     62  C   UNL     1       9.506  12.203   1.685  1.00  0.00    -0.014 A 
ATOM     63  C   UNL     1       8.852  13.446   1.684  1.00  0.00     0.010 A 
ATOM     64  C   UNL     1      10.906  12.155   1.818  1.00  0.00     0.010 A 
ATOM     65  C   UNL     1       9.591  14.625   1.788  1.00  0.00     0.020 A 
ATOM     66  C   UNL     1      11.643  13.329   1.956  1.00  0.00     0.020 A 
ATOM     67  C   UNL     1      10.981  14.558   1.927  1.00  0.00     0.054 A 
BRANCH  67  68
ATOM     68  S   UNL     1      11.911  16.101   2.119  1.00  0.00     0.124 S 
ATOM     69  O   UNL     1      11.854  16.659   0.771  1.00  0.00    -0.237 OA
ATOM     70  O   UNL     1      11.137  16.816   3.130  1.00  0.00    -0.237 OA
ATOM     71  O   UNL     1      13.233  15.656   2.554  1.00  0.00    -0.744 OA
ENDBRANCH  67  68
ENDBRANCH  41  62
ENDBRANCH  15  16
ENDBRANCH   8  10
ENDBRANCH   7   8
ENDBRANCH   6   7
ENDBRANCH   5   6
ENDBRANCH   4   5
ENDBRANCH   3   4
ENDBRANCH   2   3
ENDBRANCH   1   2
BRANCH   1  72
ATOM     72  C   UNL     1       3.366  -0.850  -3.349  1.00  0.00     0.188 C 
BRANCH  72  73
ATOM     73  C   UNL     1       4.056   0.514  -3.545  1.00  0.00     0.188 C 
BRANCH  73  74
ATOM     74  O   UNL     1       3.367   1.569  -4.177  1.00  0.00    -0.376 OA
BRANCH  74  75
ATOM     75  C   UNL     1       2.558   1.254  -5.295  1.00  0.00     0.202 C 
BRANCH  75  76
ATOM     76  C   UNL     1       3.109   0.389  -6.457  1.00  0.00     0.261 C 
BRANCH  76  77
ATOM     77  O   UNL     1       3.747  -0.878  -6.118  1.00  0.00    -0.463 OA
BRANCH  77  78
ATOM     78  C   UNL     1       5.037  -1.053  -6.506  1.00  0.00     0.312 C 
ATOM     79  O   UNL     1       5.646  -0.230  -7.186  1.00  0.00    -0.252 OA
BRANCH  78  80
ATOM     80  C   UNL     1       5.749  -2.332  -6.058  1.00  0.00     0.147 C 
ATOM     81  C   UNL     1       5.167  -3.457  -5.133  1.00  0.00     0.129 C 
ATOM     82  C   UNL     1       7.023  -1.927  -5.271  1.00  0.00     0.157 C 
ATOM     83  C   UNL     1       6.099  -3.359  -3.938  1.00  0.00     0.155 C 
ATOM     84  C   UNL     1       6.775  -1.209  -3.983  1.00  0.00     0.004 C 
ATOM     85  O   UNL     1       7.348  -3.200  -4.656  1.00  0.00    -0.365 OA
ATOM     86  C   UNL     1       6.185  -2.093  -3.174  1.00  0.00     0.004 C 
BRANCH  81  87
ATOM     87  C   UNL     1       5.247  -4.839  -5.859  1.00  0.00     0.231 C 
ATOM     88  O   UNL     1       4.420  -5.054  -6.760  1.00  0.00    -0.274 OA
ATOM     89  N   UNL     1       6.229  -5.799  -5.723  1.00  0.00    -0.326 N 
ATOM     90  H   UNL     1       6.212  -6.490  -6.425  1.00  0.00     0.169 HD
BRANCH  89  91
ATOM     91  C   UNL     1       7.253  -5.977  -4.772  1.00  0.00     0.041 A 
ATOM     92  C   UNL     1       8.581  -5.819  -5.174  1.00  0.00     0.026 A 
ATOM     93  C   UNL     1       6.965  -6.174  -3.418  1.00  0.00     0.039 A 
ATOM     94  C   UNL     1       9.583  -5.647  -4.212  1.00  0.00     0.003 A 
ATOM     95  C   UNL     1       7.946  -5.907  -2.442  1.00  0.00     0.058 A 
ATOM     96  C   UNL     1       9.261  -5.648  -2.853  1.00  0.00     0.013 A 
BRANCH  95  97
ATOM     97  C   UNL     1       7.559  -5.722  -0.992  1.00  0.00     0.416 C 
ATOM     98  F   UNL     1       8.045  -6.695  -0.178  1.00  0.00    -0.166 F 
ATOM     99  F   UNL     1       8.006  -4.540  -0.479  1.00  0.00    -0.166 F 
ATOM    100  F   UNL     1       6.208  -5.704  -0.797  1.00  0.00    -0.166 F 
ENDBRANCH  95  97
ENDBRANCH  89  91
ENDBRANCH  81  87
ENDBRANCH  78  80
ENDBRANCH  77  78
ENDBRANCH  76  77
ENDBRANCH  75  76
ENDBRANCH  74  75
ENDBRANCH  73  74
ENDBRANCH  72  73
ENDBRANCH   1  72
TORSDOF 26
