REMARK SMILES COc1ccc(C(=O)N(C)C)cc1NC(=O)[C@H]1[C@@H](C(=O)OCCOCCOCCOCCOC(=O)c2ccc(-c3c4nc(c(-c5ccc(S(=O)(=O)[O-])cc5)c5ccc([nH]5)c(-c5ccc(S(=O)(=O)[O-])cc5)c5nc(c(-c6ccc(S(=O)(=O)[O-])cc6)c6ccc3[nH]6)C=C5)C=C4)cc2)[C@H]2C=C[C@@H]1C2
REMARK SMILES IDX 27 1 26 2 25 3 24 4 23 5 22 6 21 7 19 8 20 9 18 10 17 11
REMARK SMILES IDX 99 12 96 13 98 14 100 15 97 16 15 17 14 18 16 20 13 21 3 22
REMARK SMILES IDX 4 23 5 24 12 25 6 26 2 27 1 28 7 29 8 30 9 31 10 32 11 33
REMARK SMILES IDX 28 34 29 35 30 36 31 37 32 38 33 39 34 40 35 41 36 42 37 43
REMARK SMILES IDX 95 44 38 45 94 46 39 47 40 48 41 49 88 50 42 51 93 52 87 53
REMARK SMILES IDX 89 54 43 55 92 56 86 57 85 58 44 60 74 61 55 62 73 63 56 64
REMARK SMILES IDX 59 65 72 66 90 67 57 68 58 69 71 71 91 72 60 73 45 74 46 75
REMARK SMILES IDX 54 76 47 77 53 78 48 79 49 80 50 81 51 82 52 83 75 84 76 85
REMARK SMILES IDX 84 86 77 87 83 88 78 89 79 90 80 91 81 92 82 93 61 94 62 95
REMARK SMILES IDX 70 96 63 97 69 98 64 99 65 100 66 101 67 102 68 103
REMARK H PARENT 14 19 89 59 59 70
REMARK Flexibility Score: inf
ROOT
ATOM      1  O   UNL     1       7.984  -6.136   2.327  1.00  0.00    -0.377 OA
ENDROOT
BRANCH   1   2
ATOM      2  C   UNL     1       7.380  -6.404   1.083  1.00  0.00     0.188 C 
BRANCH   2   3
ATOM      3  C   UNL     1       8.082  -6.801  -0.225  1.00  0.00     0.188 C 
BRANCH   3   4
ATOM      4  O   UNL     1       9.341  -6.291  -0.600  1.00  0.00    -0.376 OA
BRANCH   4   5
ATOM      5  C   UNL     1       9.646  -4.915  -0.696  1.00  0.00     0.202 C 
BRANCH   5   6
ATOM      6  C   UNL     1       8.659  -3.808  -1.079  1.00  0.00     0.261 C 
BRANCH   6   7
ATOM      7  O   UNL     1       7.376  -3.804  -0.442  1.00  0.00    -0.463 OA
BRANCH   7   8
ATOM      8  C   UNL     1       6.359  -4.280  -1.191  1.00  0.00     0.310 C 
ATOM      9  O   UNL     1       6.494  -4.767  -2.312  1.00  0.00    -0.252 OA
BRANCH   8  10
ATOM     10  C   UNL     1       4.986  -4.082  -0.607  1.00  0.00     0.119 C 
ATOM     11  C   UNL     1       4.625  -3.321   0.695  1.00  0.00     0.100 C 
ATOM     12  C   UNL     1       3.434  -4.164   1.236  1.00  0.00     0.025 C 
ATOM     13  C   UNL     1       4.044  -5.325  -0.585  1.00  0.00     0.027 C 
ATOM     14  C   UNL     1       3.939  -5.507   1.706  1.00  0.00    -0.027 C 
ATOM     15  C   UNL     1       2.763  -4.669  -0.053  1.00  0.00     0.017 C 
ATOM     16  C   UNL     1       4.268  -6.210   0.612  1.00  0.00    -0.027 C 
BRANCH  11  17
ATOM     17  C   UNL     1       5.555  -2.920   1.831  1.00  0.00     0.229 C 
ATOM     18  N   UNL     1       5.413  -1.711   2.467  1.00  0.00    -0.323 N 
ATOM     19  H   UNL     1       5.945  -1.641   3.293  1.00  0.00     0.170 HD
ATOM     20  O   UNL     1       6.440  -3.660   2.254  1.00  0.00    -0.274 OA
BRANCH  18  21
ATOM     21  C   UNL     1       4.665  -0.547   2.186  1.00  0.00     0.084 A 
ATOM     22  C   UNL     1       5.172   0.675   2.657  1.00  0.00     0.142 A 
ATOM     23  C   UNL     1       4.601   1.888   2.262  1.00  0.00     0.049 A 
ATOM     24  C   UNL     1       3.524   1.893   1.368  1.00  0.00     0.018 A 
ATOM     25  C   UNL     1       3.491  -0.519   1.433  1.00  0.00     0.044 A 
ATOM     26  C   UNL     1       2.971   0.684   0.942  1.00  0.00     0.042 A 
BRANCH  22  27
ATOM     27  O   UNL     1       6.165   0.687   3.603  1.00  0.00    -0.495 OA
ATOM     28  C   UNL     1       7.471   0.810   3.037  1.00  0.00     0.278 C 
ENDBRANCH  22  27
BRANCH  26  29
ATOM     29  C   UNL     1       1.783   0.681   0.039  1.00  0.00     0.253 C 
ATOM     30  O   UNL     1       0.882   1.483   0.278  1.00  0.00    -0.269 OA
ATOM     31  N   UNL     1       1.715  -0.232  -1.020  1.00  0.00    -0.345 N 
ATOM     32  C   UNL     1       2.829  -0.998  -1.541  1.00  0.00     0.146 C 
ATOM     33  C   UNL     1       0.455  -0.414  -1.718  1.00  0.00     0.146 C 
ENDBRANCH  26  29
ENDBRANCH  18  21
ENDBRANCH  11  17
ENDBRANCH   8  10
ENDBRANCH   7   8
ENDBRANCH   6   7
ENDBRANCH   5   6
ENDBRANCH   4   5
ENDBRANCH   3   4
ENDBRANCH   2   3
ENDBRANCH   1   2
BRANCH   1  34
ATOM     34  C   UNL     1       9.365  -6.297   2.469  1.00  0.00     0.188 C 
BRANCH  34  35
ATOM     35  C   UNL     1       9.837  -7.746   2.410  1.00  0.00     0.188 C 
BRANCH  35  36
ATOM     36  O   UNL     1       8.839  -8.636   1.925  1.00  0.00    -0.376 OA
BRANCH  36  37
ATOM     37  C   UNL     1       8.117  -9.386   2.896  1.00  0.00     0.202 C 
BRANCH  37  38
ATOM     38  C   UNL     1       7.205  -8.660   3.905  1.00  0.00     0.261 C 
BRANCH  38  39
ATOM     39  O   UNL     1       7.790  -7.631   4.714  1.00  0.00    -0.460 OA
BRANCH  39  40
ATOM     40  C   UNL     1       8.807  -7.957   5.533  1.00  0.00     0.338 C 
ATOM     41  O   UNL     1       9.306  -9.058   5.688  1.00  0.00    -0.246 OA
BRANCH  40  42
ATOM     42  C   UNL     1       9.343  -6.694   6.082  1.00  0.00     0.060 A 
ATOM     43  C   UNL     1      10.674  -6.356   5.811  1.00  0.00     0.016 A 
ATOM     44  C   UNL     1       8.530  -5.837   6.831  1.00  0.00     0.016 A 
ATOM     45  C   UNL     1      11.201  -5.160   6.297  1.00  0.00     0.010 A 
ATOM     46  C   UNL     1       9.070  -4.658   7.351  1.00  0.00     0.010 A 
ATOM     47  C   UNL     1      10.416  -4.331   7.109  1.00  0.00    -0.014 A 
BRANCH  47  48
ATOM     48  C   UNL     1      11.080  -3.266   7.895  1.00  0.00     0.031 A 
ATOM     49  C   UNL     1      11.587  -3.626   9.265  1.00  0.00     0.074 A 
ATOM     50  C   UNL     1      11.266  -2.030   7.401  1.00  0.00     0.049 A 
ATOM     51  N   UNL     1      12.220  -2.886  10.136  1.00  0.00    -0.248 NA
ATOM     52  C   UNL     1      11.349  -5.011   9.707  1.00  0.00     0.031 C 
ATOM     53  C   UNL     1      10.855  -1.575   6.074  1.00  0.00     0.029 A 
ATOM     54  N   UNL     1      11.853  -0.927   7.970  1.00  0.00    -0.354 N 
ATOM     55  C   UNL     1      12.456  -3.715  11.227  1.00  0.00     0.074 A 
ATOM     56  C   UNL     1      11.876  -5.003  10.921  1.00  0.00     0.031 C 
ATOM     57  C   UNL     1      11.191  -0.279   5.936  1.00  0.00     0.029 A 
ATOM     58  C   UNL     1      11.816   0.191   7.173  1.00  0.00     0.049 A 
ATOM     59  H   UNL     1      12.262  -0.937   8.865  1.00  0.00     0.167 HD
ATOM     60  C   UNL     1      13.099  -3.430  12.383  1.00  0.00     0.031 A 
ATOM     61  C   UNL     1      12.223   1.452   7.422  1.00  0.00     0.031 A 
ATOM     62  C   UNL     1      13.644  -2.139  12.699  1.00  0.00     0.049 A 
ATOM     63  C   UNL     1      12.873   1.768   8.746  1.00  0.00     0.074 A 
ATOM     64  C   UNL     1      14.322  -1.746  13.839  1.00  0.00     0.029 A 
ATOM     65  N   UNL     1      13.556  -1.023  11.879  1.00  0.00    -0.354 N 
ATOM     66  N   UNL     1      13.129   0.965   9.752  1.00  0.00    -0.248 NA
ATOM     67  C   UNL     1      13.301   3.158   8.963  1.00  0.00     0.031 C 
ATOM     68  C   UNL     1      14.590  -0.378  13.734  1.00  0.00     0.029 A 
ATOM     69  C   UNL     1      14.138   0.067  12.501  1.00  0.00     0.049 A 
ATOM     70  H   UNL     1      13.140  -1.010  10.987  1.00  0.00     0.167 HD
ATOM     71  C   UNL     1      13.767   1.746  10.711  1.00  0.00     0.074 A 
ATOM     72  C   UNL     1      13.872   3.081  10.158  1.00  0.00     0.031 C 
ATOM     73  C   UNL     1      14.229   1.391  11.937  1.00  0.00     0.031 A 
BRANCH  60  74
ATOM     74  C   UNL     1      13.195  -4.530  13.406  1.00  0.00    -0.014 A 
ATOM     75  C   UNL     1      14.025  -5.648  13.202  1.00  0.00     0.010 A 
ATOM     76  C   UNL     1      12.445  -4.439  14.592  1.00  0.00     0.010 A 
ATOM     77  C   UNL     1      14.068  -6.676  14.147  1.00  0.00     0.020 A 
ATOM     78  C   UNL     1      12.507  -5.452  15.552  1.00  0.00     0.020 A 
ATOM     79  C   UNL     1      13.305  -6.574  15.315  1.00  0.00     0.054 A 
BRANCH  79  80
ATOM     80  S   UNL     1      13.386  -7.918  16.529  1.00  0.00     0.124 S 
ATOM     81  O   UNL     1      12.631  -8.974  15.860  1.00  0.00    -0.237 OA
ATOM     82  O   UNL     1      14.822  -8.153  16.651  1.00  0.00    -0.237 OA
ATOM     83  O   UNL     1      12.748  -7.352  17.716  1.00  0.00    -0.744 OA
ENDBRANCH  79  80
ENDBRANCH  60  74
BRANCH  61  84
ATOM     84  C   UNL     1      12.001   2.516   6.405  1.00  0.00    -0.014 A 
ATOM     85  C   UNL     1      13.077   3.092   5.707  1.00  0.00     0.010 A 
ATOM     86  C   UNL     1      10.693   2.952   6.121  1.00  0.00     0.010 A 
ATOM     87  C   UNL     1      12.850   4.085   4.748  1.00  0.00     0.020 A 
ATOM     88  C   UNL     1      10.459   3.925   5.146  1.00  0.00     0.020 A 
ATOM     89  C   UNL     1      11.541   4.490   4.469  1.00  0.00     0.054 A 
BRANCH  89  90
ATOM     90  S   UNL     1      11.260   5.718   3.163  1.00  0.00     0.124 S 
ATOM     91  O   UNL     1      11.699   6.953   3.805  1.00  0.00    -0.237 OA
ATOM     92  O   UNL     1      12.109   5.227   2.081  1.00  0.00    -0.237 OA
ATOM     93  O   UNL     1       9.824   5.618   2.907  1.00  0.00    -0.744 OA
ENDBRANCH  89  90
ENDBRANCH  61  84
BRANCH  73  94
ATOM     94  C   UNL     1      14.918   2.449  12.757  1.00  0.00    -0.014 A 
ATOM     95  C   UNL     1      14.196   3.495  13.358  1.00  0.00     0.010 A 
ATOM     96  C   UNL     1      16.303   2.351  12.988  1.00  0.00     0.010 A 
ATOM     97  C   UNL     1      14.853   4.442  14.149  1.00  0.00     0.020 A 
ATOM     98  C   UNL     1      16.958   3.279  13.802  1.00  0.00     0.020 A 
ATOM     99  C   UNL     1      16.230   4.327  14.367  1.00  0.00     0.054 A 
BRANCH  99 100
ATOM    100  S   UNL     1      17.050   5.542  15.435  1.00  0.00     0.124 S 
ATOM    101  O   UNL     1      17.079   6.727  14.581  1.00  0.00    -0.237 OA
ATOM    102  O   UNL     1      16.152   5.618  16.585  1.00  0.00    -0.237 OA
ATOM    103  O   UNL     1      18.353   4.940  15.708  1.00  0.00    -0.744 OA
ENDBRANCH  99 100
ENDBRANCH  73  94
ENDBRANCH  47  48
ENDBRANCH  40  42
ENDBRANCH  39  40
ENDBRANCH  38  39
ENDBRANCH  37  38
ENDBRANCH  36  37
ENDBRANCH  35  36
ENDBRANCH  34  35
ENDBRANCH   1  34
TORSDOF 27
