REMARK SMILES CCc1ccc2c(CC(=O)OCCOCCOCCOCCOC(=O)c3ccc(-c4c5nc(c(-c6ccc(S(=O)(=O)[O-])cc6)c6ccc([nH]6)c(-c6ccc(S(=O)(=O)[O-])cc6)c6nc(c(-c7ccc(S(=O)(=O)[O-])cc7)c7ccc4[nH]7)C=C6)C=C5)cc3)c(C(=O)c3cc(C)ccn3)[nH]c2c1
REMARK SMILES IDX 17 1 16 2 15 3 14 4 13 5 12 6 11 7 9 8 10 9 8 10 7 11 3 12
REMARK SMILES IDX 4 13 98 14 5 15 97 16 6 17 96 18 86 19 2 21 1 22 87 23 88 24
REMARK SMILES IDX 89 25 90 26 95 27 91 28 94 29 92 30 93 31 18 32 19 33 20 34
REMARK SMILES IDX 21 35 22 36 23 37 24 38 25 39 26 40 27 41 85 42 28 43 84 44
REMARK SMILES IDX 29 45 30 46 31 47 78 48 32 49 83 50 77 51 79 52 33 53 82 54
REMARK SMILES IDX 76 55 75 56 34 58 64 59 45 60 63 61 46 62 49 63 62 64 80 65
REMARK SMILES IDX 47 66 48 67 61 69 81 70 50 71 35 72 36 73 44 74 37 75 43 76
REMARK SMILES IDX 38 77 39 78 40 79 41 80 42 81 65 82 66 83 74 84 67 85 73 86
REMARK SMILES IDX 68 87 69 88 70 89 71 90 72 91 51 92 52 93 60 94 53 95 59 96
REMARK SMILES IDX 54 97 55 98 56 99 57 100 58 101
REMARK H PARENT 96 20 79 57 49 68
REMARK Flexibility Score: inf
ROOT
ATOM      1  O   UNL     1      -0.733  -3.931   8.063  1.00  0.00    -0.377 OA
ENDROOT
BRANCH   1   2
ATOM      2  C   UNL     1       0.561  -4.424   7.759  1.00  0.00     0.188 C 
BRANCH   2   3
ATOM      3  C   UNL     1       1.560  -4.481   8.938  1.00  0.00     0.188 C 
BRANCH   3   4
ATOM      4  O   UNL     1       1.356  -3.719  10.125  1.00  0.00    -0.376 OA
BRANCH   4   5
ATOM      5  C   UNL     1       0.476  -2.610  10.087  1.00  0.00     0.202 C 
BRANCH   5   6
ATOM      6  C   UNL     1       0.829  -1.448   9.135  1.00  0.00     0.261 C 
BRANCH   6   7
ATOM      7  O   UNL     1       1.463  -1.814   7.884  1.00  0.00    -0.463 OA
BRANCH   7   8
ATOM      8  C   UNL     1       2.806  -1.662   7.804  1.00  0.00     0.310 C 
ATOM      9  O   UNL     1       3.469  -1.099   8.676  1.00  0.00    -0.252 OA
BRANCH   8  10
ATOM     10  C   UNL     1       3.498  -2.232   6.568  1.00  0.00     0.161 C 
BRANCH  10  11
ATOM     11  C   UNL     1       2.753  -2.964   5.460  1.00  0.00     0.000 A 
ATOM     12  C   UNL     1       0.945  -1.645   1.853  1.00  0.00    -0.046 A 
ATOM     13  C   UNL     1       1.318  -0.645   2.758  1.00  0.00     0.004 A 
ATOM     14  C   UNL     1       1.063  -2.991   2.240  1.00  0.00     0.030 A 
ATOM     15  C   UNL     1       1.885  -0.957   4.004  1.00  0.00     0.011 A 
ATOM     16  C   UNL     1       1.651  -3.281   3.480  1.00  0.00     0.046 A 
ATOM     17  C   UNL     1       2.094  -2.304   4.360  1.00  0.00     0.004 A 
ATOM     18  N   UNL     1       1.904  -4.491   4.072  1.00  0.00    -0.352 N 
ATOM     19  C   UNL     1       2.732  -4.348   5.167  1.00  0.00     0.093 A 
ATOM     20  H   UNL     1       1.541  -5.350   3.757  1.00  0.00     0.167 HD
BRANCH  12  21
ATOM     21  C   UNL     1       0.372  -1.336   0.485  1.00  0.00     0.032 C 
ATOM     22  C   UNL     1       0.811  -0.014  -0.138  1.00  0.00     0.009 C 
ENDBRANCH  12  21
BRANCH  19  23
ATOM     23  C   UNL     1       3.394  -5.460   5.865  1.00  0.00     0.227 C 
ATOM     24  O   UNL     1       4.184  -5.267   6.788  1.00  0.00    -0.285 OA
BRANCH  23  25
ATOM     25  C   UNL     1       3.108  -6.902   5.513  1.00  0.00     0.113 A 
ATOM     26  C   UNL     1       3.149  -7.399   4.209  1.00  0.00     0.036 A 
ATOM     27  N   UNL     1       2.841  -7.701   6.582  1.00  0.00    -0.253 NA
ATOM     28  C   UNL     1       2.861  -8.759   3.993  1.00  0.00    -0.047 A 
ATOM     29  C   UNL     1       2.596  -9.007   6.350  1.00  0.00     0.112 A 
ATOM     30  C   UNL     1       2.850  -9.366   2.619  1.00  0.00     0.044 C 
ATOM     31  C   UNL     1       2.558  -9.568   5.089  1.00  0.00     0.023 A 
ENDBRANCH  23  25
ENDBRANCH  19  23
ENDBRANCH  10  11
ENDBRANCH   8  10
ENDBRANCH   7   8
ENDBRANCH   6   7
ENDBRANCH   5   6
ENDBRANCH   4   5
ENDBRANCH   3   4
ENDBRANCH   2   3
ENDBRANCH   1   2
BRANCH   1  32
ATOM     32  C   UNL     1      -1.764  -4.900   8.031  1.00  0.00     0.188 C 
BRANCH  32  33
ATOM     33  C   UNL     1      -1.565  -6.019   9.058  1.00  0.00     0.188 C 
BRANCH  33  34
ATOM     34  O   UNL     1      -0.336  -6.715   8.889  1.00  0.00    -0.376 OA
BRANCH  34  35
ATOM     35  C   UNL     1      -0.339  -7.942   8.175  1.00  0.00     0.202 C 
BRANCH  35  36
ATOM     36  C   UNL     1      -0.540  -7.867   6.651  1.00  0.00     0.261 C 
BRANCH  36  37
ATOM     37  O   UNL     1      -1.802  -7.360   6.216  1.00  0.00    -0.460 OA
BRANCH  37  38
ATOM     38  C   UNL     1      -2.904  -7.999   6.657  1.00  0.00     0.338 C 
ATOM     39  O   UNL     1      -2.956  -9.040   7.286  1.00  0.00    -0.246 OA
BRANCH  38  40
ATOM     40  C   UNL     1      -4.022  -7.070   6.442  1.00  0.00     0.060 A 
ATOM     41  C   UNL     1      -4.748  -6.643   7.559  1.00  0.00     0.016 A 
ATOM     42  C   UNL     1      -4.296  -6.571   5.165  1.00  0.00     0.016 A 
ATOM     43  C   UNL     1      -5.771  -5.719   7.400  1.00  0.00     0.010 A 
ATOM     44  C   UNL     1      -5.346  -5.673   5.000  1.00  0.00     0.010 A 
ATOM     45  C   UNL     1      -6.102  -5.274   6.115  1.00  0.00    -0.014 A 
BRANCH  45  46
ATOM     46  C   UNL     1      -7.398  -4.599   5.923  1.00  0.00     0.031 A 
ATOM     47  C   UNL     1      -8.575  -5.462   5.571  1.00  0.00     0.074 A 
ATOM     48  C   UNL     1      -7.520  -3.275   6.113  1.00  0.00     0.049 A 
ATOM     49  N   UNL     1      -9.817  -5.122   5.360  1.00  0.00    -0.248 NA
ATOM     50  C   UNL     1      -8.316  -6.909   5.443  1.00  0.00     0.031 C 
ATOM     51  C   UNL     1      -6.437  -2.373   6.507  1.00  0.00     0.029 A 
ATOM     52  N   UNL     1      -8.615  -2.462   6.001  1.00  0.00    -0.354 N 
ATOM     53  C   UNL     1     -10.482  -6.307   5.068  1.00  0.00     0.074 A 
ATOM     54  C   UNL     1      -9.507  -7.371   5.102  1.00  0.00     0.031 C 
ATOM     55  C   UNL     1      -6.926  -1.123   6.597  1.00  0.00     0.029 A 
ATOM     56  C   UNL     1      -8.341  -1.137   6.237  1.00  0.00     0.049 A 
ATOM     57  H   UNL     1      -9.514  -2.796   5.774  1.00  0.00     0.167 HD
ATOM     58  C   UNL     1     -11.794  -6.485   4.796  1.00  0.00     0.031 A 
ATOM     59  C   UNL     1      -9.147  -0.061   6.146  1.00  0.00     0.031 A 
ATOM     60  C   UNL     1     -12.741  -5.405   4.746  1.00  0.00     0.049 A 
ATOM     61  C   UNL     1     -10.591  -0.278   5.772  1.00  0.00     0.074 A 
ATOM     62  C   UNL     1     -14.096  -5.460   4.485  1.00  0.00     0.029 A 
ATOM     63  N   UNL     1     -12.421  -4.071   4.953  1.00  0.00    -0.354 N 
ATOM     64  N   UNL     1     -11.217  -1.406   5.521  1.00  0.00    -0.248 NA
ATOM     65  C   UNL     1     -11.440   0.916   5.678  1.00  0.00     0.031 C 
ATOM     66  C   UNL     1     -14.584  -4.149   4.469  1.00  0.00     0.029 A 
ATOM     67  C   UNL     1     -13.547  -3.286   4.793  1.00  0.00     0.049 A 
ATOM     68  H   UNL     1     -11.524  -3.733   5.179  1.00  0.00     0.167 HD
ATOM     69  C   UNL     1     -12.539  -1.058   5.266  1.00  0.00     0.074 A 
ATOM     70  C   UNL     1     -12.623   0.382   5.410  1.00  0.00     0.031 C 
ATOM     71  C   UNL     1     -13.591  -1.852   4.943  1.00  0.00     0.031 A 
BRANCH  58  72
ATOM     72  C   UNL     1     -12.258  -7.882   4.481  1.00  0.00    -0.014 A 
ATOM     73  C   UNL     1     -12.306  -8.883   5.469  1.00  0.00     0.010 A 
ATOM     74  C   UNL     1     -12.668  -8.195   3.172  1.00  0.00     0.010 A 
ATOM     75  C   UNL     1     -12.723 -10.177   5.146  1.00  0.00     0.020 A 
ATOM     76  C   UNL     1     -13.114  -9.480   2.852  1.00  0.00     0.020 A 
ATOM     77  C   UNL     1     -13.126 -10.467   3.839  1.00  0.00     0.054 A 
BRANCH  77  78
ATOM     78  S   UNL     1     -13.692 -12.146   3.455  1.00  0.00     0.124 S 
ATOM     79  O   UNL     1     -12.446 -12.907   3.519  1.00  0.00    -0.237 OA
ATOM     80  O   UNL     1     -14.647 -12.414   4.527  1.00  0.00    -0.237 OA
ATOM     81  O   UNL     1     -14.275 -12.020   2.121  1.00  0.00    -0.744 OA
ENDBRANCH  77  78
ENDBRANCH  58  72
BRANCH  59  82
ATOM     82  C   UNL     1      -8.601   1.304   6.382  1.00  0.00    -0.014 A 
ATOM     83  C   UNL     1      -9.009   2.069   7.489  1.00  0.00     0.010 A 
ATOM     84  C   UNL     1      -7.657   1.849   5.490  1.00  0.00     0.010 A 
ATOM     85  C   UNL     1      -8.499   3.357   7.688  1.00  0.00     0.020 A 
ATOM     86  C   UNL     1      -7.122   3.123   5.703  1.00  0.00     0.020 A 
ATOM     87  C   UNL     1      -7.557   3.874   6.795  1.00  0.00     0.054 A 
BRANCH  87  88
ATOM     88  S   UNL     1      -6.879   5.530   7.096  1.00  0.00     0.124 S 
ATOM     89  O   UNL     1      -8.017   6.387   6.777  1.00  0.00    -0.237 OA
ATOM     90  O   UNL     1      -6.510   5.467   8.508  1.00  0.00    -0.237 OA
ATOM     91  O   UNL     1      -5.753   5.614   6.168  1.00  0.00    -0.744 OA
ENDBRANCH  87  88
ENDBRANCH  59  82
BRANCH  71  92
ATOM     92  C   UNL     1     -14.928  -1.185   4.760  1.00  0.00    -0.014 A 
ATOM     93  C   UNL     1     -15.196  -0.382   3.638  1.00  0.00     0.010 A 
ATOM     94  C   UNL     1     -15.951  -1.424   5.696  1.00  0.00     0.010 A 
ATOM     95  C   UNL     1     -16.455   0.198   3.473  1.00  0.00     0.020 A 
ATOM     96  C   UNL     1     -17.221  -0.873   5.517  1.00  0.00     0.020 A 
ATOM     97  C   UNL     1     -17.460  -0.053   4.413  1.00  0.00     0.054 A 
BRANCH  97  98
ATOM     98  S   UNL     1     -19.099   0.676   4.151  1.00  0.00     0.124 S 
ATOM     99  O   UNL     1     -18.855   2.084   4.449  1.00  0.00    -0.237 OA
ATOM    100  O   UNL     1     -19.366   0.366   2.749  1.00  0.00    -0.237 OA
ATOM    101  O   UNL     1     -19.948  -0.026   5.111  1.00  0.00    -0.744 OA
ENDBRANCH  97  98
ENDBRANCH  71  92
ENDBRANCH  45  46
ENDBRANCH  38  40
ENDBRANCH  37  38
ENDBRANCH  36  37
ENDBRANCH  35  36
ENDBRANCH  34  35
ENDBRANCH  33  34
ENDBRANCH  32  33
ENDBRANCH   1  32
TORSDOF 27
