REMARK SMILES Cc1ccc(C)c(N2C(=O)S[C@H](CC(=O)Nc3ccc(C(=O)OCCOCCOCCOCCOC(=O)c4ccc(-c5c6nc(c(-c7ccc(S(=O)(=O)[O-])cc7)c7ccc([nH]7)c(-c7ccc(S(=O)(=O)[O-])cc7)c7nc(c(-c8ccc(S(=O)(=O)[O-])cc8)c8ccc5[nH]8)C=C7)C=C6)cc4)c(O)c3)C2=O)c1
REMARK SMILES IDX 28 1 27 2 26 3 25 4 24 5 23 6 21 7 22 8 20 9 17 10 18 11
REMARK SMILES IDX 100 12 19 13 98 14 16 15 14 16 15 17 13 19 12 20 8 21 9 22
REMARK SMILES IDX 101 23 10 24 11 25 102 26 7 27 1 28 2 29 3 30 103 31 4 32
REMARK SMILES IDX 5 33 6 34 99 35 29 37 30 38 31 39 32 40 33 41 34 42 35 43
REMARK SMILES IDX 36 44 37 45 38 46 39 47 97 48 40 49 96 50 41 51 42 52 43 53
REMARK SMILES IDX 90 54 44 55 95 56 89 57 91 58 45 59 94 60 88 61 87 62 46 64
REMARK SMILES IDX 76 65 57 66 75 67 58 68 61 69 74 70 92 71 59 72 60 73 73 75
REMARK SMILES IDX 93 76 62 77 47 78 48 79 56 80 49 81 55 82 50 83 51 84 52 85
REMARK SMILES IDX 53 86 54 87 77 88 78 89 86 90 79 91 85 92 80 93 81 94 82 95
REMARK SMILES IDX 83 96 84 97 63 98 64 99 72 100 65 101 71 102 66 103 67 104
REMARK SMILES IDX 68 105 69 106 70 107
REMARK H PARENT 16 18 99 36 91 63 61 74
REMARK Flexibility Score: inf
ROOT
ATOM      1  C   UNL     1       2.989   5.960  -0.495  1.00  0.00     0.188 C 
ENDROOT
BRANCH   1   2
ATOM      2  C   UNL     1       2.868   5.431  -1.952  1.00  0.00     0.188 C 
BRANCH   2   3
ATOM      3  O   UNL     1       3.907   5.855  -2.808  1.00  0.00    -0.376 OA
BRANCH   3   4
ATOM      4  C   UNL     1       3.635   6.290  -4.122  1.00  0.00     0.202 C 
BRANCH   4   5
ATOM      5  C   UNL     1       2.780   7.546  -4.328  1.00  0.00     0.261 C 
BRANCH   5   6
ATOM      6  O   UNL     1       2.153   8.041  -3.125  1.00  0.00    -0.460 OA
BRANCH   6   7
ATOM      7  C   UNL     1       0.854   7.668  -3.031  1.00  0.00     0.341 C 
ATOM      8  O   UNL     1       0.244   7.080  -3.907  1.00  0.00    -0.246 OA
BRANCH   7   9
ATOM      9  C   UNL     1       0.285   7.803  -1.669  1.00  0.00     0.101 A 
ATOM     10  C   UNL     1      -1.260   7.706   0.718  1.00  0.00     0.044 A 
ATOM     11  C   UNL     1      -0.598   6.607   0.269  1.00  0.00     0.027 A 
ATOM     12  C   UNL     1      -0.966   8.929   0.066  1.00  0.00     0.073 A 
ATOM     13  C   UNL     1       0.027   6.634  -0.961  1.00  0.00     0.022 A 
ATOM     14  C   UNL     1      -0.125   8.981  -1.080  1.00  0.00     0.132 A 
BRANCH  10  15
ATOM     15  N   UNL     1      -2.307   7.559   1.658  1.00  0.00    -0.326 N 
ATOM     16  C   UNL     1      -2.853   6.464   2.314  1.00  0.00     0.226 C 
ATOM     17  O   UNL     1      -4.031   6.588   2.674  1.00  0.00    -0.275 OA
ATOM     18  H   UNL     1      -2.739   8.411   1.897  1.00  0.00     0.169 HD
BRANCH  16  19
ATOM     19  C   UNL     1      -2.081   5.175   2.758  1.00  0.00     0.125 C 
BRANCH  19  20
ATOM     20  C   UNL     1      -2.553   3.818   2.176  1.00  0.00     0.156 C 
ATOM     21  N   UNL     1      -1.283   1.886   1.331  1.00  0.00    -0.240 N 
ATOM     22  C   UNL     1      -1.224   2.708   0.264  1.00  0.00     0.293 C 
ATOM     23  C   UNL     1      -1.744   2.507   2.490  1.00  0.00     0.248 C 
ATOM     24  O   UNL     1      -0.374   2.690  -0.620  1.00  0.00    -0.261 OA
ATOM     25  S   UNL     1      -2.416   3.942   0.416  1.00  0.00    -0.050 SA
ATOM     26  O   UNL     1      -1.523   2.119   3.632  1.00  0.00    -0.273 OA
BRANCH  21  27
ATOM     27  C   UNL     1      -0.664   0.601   1.196  1.00  0.00     0.056 A 
ATOM     28  C   UNL     1       2.858  -0.851   0.599  1.00  0.00     0.044 C 
ATOM     29  C   UNL     1       1.369  -0.703   0.698  1.00  0.00    -0.049 A 
ATOM     30  C   UNL     1       0.586  -1.772   0.261  1.00  0.00     0.004 A 
ATOM     31  C   UNL     1       0.743   0.478   1.161  1.00  0.00     0.030 A 
ATOM     32  C   UNL     1      -0.795  -1.659   0.250  1.00  0.00     0.006 A 
ATOM     33  C   UNL     1      -1.426  -0.473   0.672  1.00  0.00    -0.027 A 
ATOM     34  C   UNL     1      -2.913  -0.412   0.470  1.00  0.00     0.046 C 
ENDBRANCH  21  27
ENDBRANCH  19  20
ENDBRANCH  16  19
ENDBRANCH  10  15
BRANCH  14  35
ATOM     35  O   UNL     1       0.233  10.202  -1.574  1.00  0.00    -0.507 OA
ATOM     36  H   UNL     1       0.786  10.258  -2.329  1.00  0.00     0.293 HD
ENDBRANCH  14  35
ENDBRANCH   7   9
ENDBRANCH   6   7
ENDBRANCH   5   6
ENDBRANCH   4   5
ENDBRANCH   3   4
ENDBRANCH   2   3
ENDBRANCH   1   2
BRANCH   1  37
ATOM     37  O   UNL     1       4.019   6.877  -0.148  1.00  0.00    -0.377 OA
BRANCH  37  38
ATOM     38  C   UNL     1       5.293   6.650  -0.725  1.00  0.00     0.188 C 
BRANCH  38  39
ATOM     39  C   UNL     1       5.886   5.246  -0.534  1.00  0.00     0.188 C 
BRANCH  39  40
ATOM     40  O   UNL     1       4.938   4.199  -0.675  1.00  0.00    -0.376 OA
BRANCH  40  41
ATOM     41  C   UNL     1       4.820   3.293   0.409  1.00  0.00     0.202 C 
BRANCH  41  42
ATOM     42  C   UNL     1       5.971   2.298   0.371  1.00  0.00     0.261 C 
BRANCH  42  43
ATOM     43  O   UNL     1       5.964   1.446  -0.808  1.00  0.00    -0.460 OA
BRANCH  43  44
ATOM     44  C   UNL     1       5.955   2.051  -2.038  1.00  0.00     0.338 C 
ATOM     45  O   UNL     1       6.956   2.495  -2.577  1.00  0.00    -0.246 OA
BRANCH  44  46
ATOM     46  C   UNL     1       4.562   2.075  -2.617  1.00  0.00     0.060 A 
ATOM     47  C   UNL     1       4.221   2.805  -3.752  1.00  0.00     0.016 A 
ATOM     48  C   UNL     1       3.522   1.465  -1.922  1.00  0.00     0.016 A 
ATOM     49  C   UNL     1       2.846   3.020  -4.066  1.00  0.00     0.010 A 
ATOM     50  C   UNL     1       2.175   1.768  -2.168  1.00  0.00     0.010 A 
ATOM     51  C   UNL     1       1.788   2.619  -3.208  1.00  0.00    -0.014 A 
BRANCH  51  52
ATOM     52  C   UNL     1       0.335   2.527  -3.627  1.00  0.00     0.031 A 
ATOM     53  C   UNL     1       0.369   1.645  -4.776  1.00  0.00     0.074 A 
ATOM     54  C   UNL     1      -0.874   3.131  -3.372  1.00  0.00     0.049 A 
ATOM     55  N   UNL     1       0.472   2.135  -5.971  1.00  0.00    -0.248 NA
ATOM     56  C   UNL     1       0.735   0.232  -4.659  1.00  0.00     0.031 C 
ATOM     57  C   UNL     1      -1.039   4.467  -2.876  1.00  0.00     0.029 A 
ATOM     58  N   UNL     1      -2.238   2.744  -3.496  1.00  0.00    -0.354 N 
ATOM     59  C   UNL     1       0.362   1.023  -6.757  1.00  0.00     0.074 A 
ATOM     60  C   UNL     1       0.880  -0.067  -5.954  1.00  0.00     0.031 C 
ATOM     61  C   UNL     1      -2.303   4.727  -2.497  1.00  0.00     0.029 A 
ATOM     62  C   UNL     1      -3.127   3.521  -2.661  1.00  0.00     0.049 A 
ATOM     63  H   UNL     1      -2.545   2.021  -4.089  1.00  0.00     0.167 HD
ATOM     64  C   UNL     1      -0.715   1.040  -7.586  1.00  0.00     0.031 A 
ATOM     65  C   UNL     1      -4.489   3.748  -2.620  1.00  0.00     0.031 A 
ATOM     66  C   UNL     1      -1.125   2.389  -7.939  1.00  0.00     0.049 A 
ATOM     67  C   UNL     1      -4.970   3.936  -3.990  1.00  0.00     0.074 A 
ATOM     68  C   UNL     1      -0.524   3.466  -8.563  1.00  0.00     0.029 A 
ATOM     69  N   UNL     1      -2.177   2.899  -7.216  1.00  0.00    -0.354 N 
ATOM     70  N   UNL     1      -4.695   5.001  -4.688  1.00  0.00    -0.248 NA
ATOM     71  C   UNL     1      -5.271   2.730  -4.748  1.00  0.00     0.031 C 
ATOM     72  C   UNL     1      -1.234   4.636  -8.170  1.00  0.00     0.029 A 
ATOM     73  C   UNL     1      -2.299   4.261  -7.362  1.00  0.00     0.049 A 
ATOM     74  H   UNL     1      -2.776   2.352  -6.658  1.00  0.00     0.167 HD
ATOM     75  C   UNL     1      -4.262   4.470  -5.887  1.00  0.00     0.074 A 
ATOM     76  C   UNL     1      -4.774   3.104  -5.928  1.00  0.00     0.031 C 
ATOM     77  C   UNL     1      -3.236   5.036  -6.577  1.00  0.00     0.031 A 
BRANCH  64  78
ATOM     78  C   UNL     1      -1.677  -0.111  -7.540  1.00  0.00    -0.014 A 
ATOM     79  C   UNL     1      -2.548  -0.316  -8.610  1.00  0.00     0.010 A 
ATOM     80  C   UNL     1      -1.883  -0.889  -6.375  1.00  0.00     0.010 A 
ATOM     81  C   UNL     1      -3.528  -1.312  -8.539  1.00  0.00     0.020 A 
ATOM     82  C   UNL     1      -2.809  -1.917  -6.311  1.00  0.00     0.020 A 
ATOM     83  C   UNL     1      -3.631  -2.122  -7.401  1.00  0.00     0.054 A 
BRANCH  83  84
ATOM     84  S   UNL     1      -4.856  -3.442  -7.346  1.00  0.00     0.124 S 
ATOM     85  O   UNL     1      -6.104  -2.689  -7.327  1.00  0.00    -0.237 OA
ATOM     86  O   UNL     1      -4.567  -4.175  -8.576  1.00  0.00    -0.237 OA
ATOM     87  O   UNL     1      -4.533  -4.157  -6.112  1.00  0.00    -0.744 OA
ENDBRANCH  83  84
ENDBRANCH  64  78
BRANCH  65  88
ATOM     88  C   UNL     1      -5.407   3.567  -1.433  1.00  0.00    -0.014 A 
ATOM     89  C   UNL     1      -6.588   4.292  -1.152  1.00  0.00     0.010 A 
ATOM     90  C   UNL     1      -5.105   2.534  -0.533  1.00  0.00     0.010 A 
ATOM     91  C   UNL     1      -7.384   4.012   0.002  1.00  0.00     0.020 A 
ATOM     92  C   UNL     1      -5.848   2.275   0.630  1.00  0.00     0.020 A 
ATOM     93  C   UNL     1      -7.002   3.001   0.888  1.00  0.00     0.054 A 
BRANCH  93  94
ATOM     94  S   UNL     1      -7.973   2.590   2.379  1.00  0.00     0.124 S 
ATOM     95  O   UNL     1      -8.484   3.881   2.828  1.00  0.00    -0.237 OA
ATOM     96  O   UNL     1      -8.973   1.666   1.851  1.00  0.00    -0.237 OA
ATOM     97  O   UNL     1      -6.978   1.982   3.265  1.00  0.00    -0.744 OA
ENDBRANCH  93  94
ENDBRANCH  65  88
BRANCH  77  98
ATOM     98  C   UNL     1      -3.063   6.528  -6.494  1.00  0.00    -0.014 A 
ATOM     99  C   UNL     1      -2.470   7.218  -5.426  1.00  0.00     0.010 A 
ATOM    100  C   UNL     1      -3.448   7.264  -7.627  1.00  0.00     0.010 A 
ATOM    101  C   UNL     1      -2.255   8.607  -5.494  1.00  0.00     0.020 A 
ATOM    102  C   UNL     1      -3.233   8.643  -7.708  1.00  0.00     0.020 A 
ATOM    103  C   UNL     1      -2.639   9.311  -6.639  1.00  0.00     0.054 A 
BRANCH 103 104
ATOM    104  S   UNL     1      -2.314  11.094  -6.752  1.00  0.00     0.124 S 
ATOM    105  O   UNL     1      -3.269  11.653  -5.799  1.00  0.00    -0.237 OA
ATOM    106  O   UNL     1      -0.907  11.197  -6.366  1.00  0.00    -0.237 OA
ATOM    107  O   UNL     1      -2.584  11.409  -8.154  1.00  0.00    -0.744 OA
ENDBRANCH 103 104
ENDBRANCH  77  98
ENDBRANCH  51  52
ENDBRANCH  44  46
ENDBRANCH  43  44
ENDBRANCH  42  43
ENDBRANCH  41  42
ENDBRANCH  40  41
ENDBRANCH  39  40
ENDBRANCH  38  39
ENDBRANCH  37  38
ENDBRANCH   1  37
TORSDOF 28
