REMARK SMILES O=C(OCCOCCOCCOCCOC(=O)c1cccc(CS(=O)(=O)NCc2ccccc2)c1)c1ccc(-c2c3nc(c(-c4ccc(S(=O)(=O)[O-])cc4)c4ccc([nH]4)c(-c4ccc(S(=O)(=O)[O-])cc4)c4nc(c(-c5ccc(S(=O)(=O)[O-])cc5)c5ccc2[nH]5)C=C4)C=C3)cc1
REMARK SMILES IDX 10 1 9 2 8 3 7 4 6 5 5 6 4 7 3 8 2 9 1 10 36 11 37 12 95 13
REMARK SMILES IDX 38 14 94 15 39 16 40 17 41 18 88 19 42 20 93 21 87 22 89 23
REMARK SMILES IDX 43 24 92 25 86 26 85 27 44 29 74 30 55 31 73 32 56 33 59 34
REMARK SMILES IDX 72 35 90 36 57 37 58 38 71 40 91 41 60 42 45 43 46 44 54 45
REMARK SMILES IDX 47 46 53 47 48 48 49 49 50 50 51 51 52 52 75 53 76 54 84 55
REMARK SMILES IDX 77 56 83 57 78 58 79 59 80 60 81 61 82 62 61 63 62 64 70 65
REMARK SMILES IDX 63 66 69 67 64 68 65 69 66 70 67 71 68 72 11 73 12 74 13 75
REMARK SMILES IDX 14 76 15 77 16 78 17 79 18 80 19 81 35 82 20 83 22 84 21 85
REMARK SMILES IDX 23 86 24 87 25 88 26 89 27 90 28 92 29 93 30 94 34 95 31 96
REMARK SMILES IDX 33 97 32 98
REMARK H PARENT 89 28 59 39 27 91
REMARK Flexibility Score: inf
ROOT
ATOM      1  C   UNL     1       3.797   3.694   0.259  1.00  0.00     0.188 C 
ENDROOT
BRANCH   1   2
ATOM      2  O   UNL     1       2.383   3.814   0.357  1.00  0.00    -0.377 OA
BRANCH   2   3
ATOM      3  C   UNL     1       1.693   2.597   0.613  1.00  0.00     0.188 C 
BRANCH   3   4
ATOM      4  C   UNL     1       2.191   1.397  -0.197  1.00  0.00     0.188 C 
BRANCH   4   5
ATOM      5  O   UNL     1       3.546   1.110   0.113  1.00  0.00    -0.376 OA
BRANCH   5   6
ATOM      6  C   UNL     1       4.439   0.552  -0.838  1.00  0.00     0.202 C 
BRANCH   6   7
ATOM      7  C   UNL     1       3.966  -0.658  -1.633  1.00  0.00     0.261 C 
BRANCH   7   8
ATOM      8  O   UNL     1       2.595  -1.052  -1.426  1.00  0.00    -0.460 OA
BRANCH   8   9
ATOM      9  C   UNL     1       2.026  -1.769  -0.425  1.00  0.00     0.338 C 
ATOM     10  O   UNL     1       0.833  -2.052  -0.496  1.00  0.00    -0.246 OA
BRANCH   9  11
ATOM     11  C   UNL     1       2.790  -2.238   0.758  1.00  0.00     0.060 A 
ATOM     12  C   UNL     1       3.785  -1.494   1.367  1.00  0.00     0.016 A 
ATOM     13  C   UNL     1       2.430  -3.444   1.364  1.00  0.00     0.016 A 
ATOM     14  C   UNL     1       4.604  -2.007   2.337  1.00  0.00     0.010 A 
ATOM     15  C   UNL     1       3.143  -3.911   2.475  1.00  0.00     0.010 A 
ATOM     16  C   UNL     1       4.277  -3.216   2.918  1.00  0.00    -0.014 A 
BRANCH  16  17
ATOM     17  C   UNL     1       5.263  -3.752   3.864  1.00  0.00     0.031 A 
ATOM     18  C   UNL     1       6.041  -4.952   3.429  1.00  0.00     0.074 A 
ATOM     19  C   UNL     1       5.598  -3.031   4.953  1.00  0.00     0.049 A 
ATOM     20  N   UNL     1       6.936  -5.631   4.086  1.00  0.00    -0.248 NA
ATOM     21  C   UNL     1       5.789  -5.449   2.061  1.00  0.00     0.031 C 
ATOM     22  C   UNL     1       5.009  -1.737   5.334  1.00  0.00     0.029 A 
ATOM     23  N   UNL     1       6.557  -3.242   5.903  1.00  0.00    -0.354 N 
ATOM     24  C   UNL     1       7.319  -6.657   3.232  1.00  0.00     0.074 A 
ATOM     25  C   UNL     1       6.556  -6.525   2.015  1.00  0.00     0.031 C 
ATOM     26  C   UNL     1       5.648  -1.259   6.412  1.00  0.00     0.029 A 
ATOM     27  C   UNL     1       6.607  -2.256   6.861  1.00  0.00     0.049 A 
ATOM     28  H   UNL     1       7.154  -4.025   5.903  1.00  0.00     0.167 HD
ATOM     29  C   UNL     1       8.233  -7.623   3.459  1.00  0.00     0.031 A 
ATOM     30  C   UNL     1       7.312  -2.204   8.005  1.00  0.00     0.031 A 
ATOM     31  C   UNL     1       8.969  -7.712   4.687  1.00  0.00     0.049 A 
ATOM     32  C   UNL     1       8.215  -3.370   8.299  1.00  0.00     0.074 A 
ATOM     33  C   UNL     1       9.846  -8.693   5.102  1.00  0.00     0.029 A 
ATOM     34  N   UNL     1       8.912  -6.761   5.699  1.00  0.00    -0.354 N 
ATOM     35  N   UNL     1       8.483  -4.412   7.544  1.00  0.00    -0.248 NA
ATOM     36  C   UNL     1       8.899  -3.367   9.595  1.00  0.00     0.031 C 
ATOM     37  C   UNL     1      10.278  -8.361   6.391  1.00  0.00     0.029 A 
ATOM     38  C   UNL     1       9.727  -7.138   6.747  1.00  0.00     0.049 A 
ATOM     39  H   UNL     1       8.370  -5.940   5.672  1.00  0.00     0.167 HD
ATOM     40  C   UNL     1       9.380  -5.185   8.268  1.00  0.00     0.074 A 
ATOM     41  C   UNL     1       9.633  -4.467   9.505  1.00  0.00     0.031 C 
ATOM     42  C   UNL     1       9.939  -6.381   7.956  1.00  0.00     0.031 A 
BRANCH  29  43
ATOM     43  C   UNL     1       8.399  -8.672   2.398  1.00  0.00    -0.014 A 
ATOM     44  C   UNL     1       9.016  -8.385   1.167  1.00  0.00     0.010 A 
ATOM     45  C   UNL     1       7.893  -9.964   2.627  1.00  0.00     0.010 A 
ATOM     46  C   UNL     1       9.101  -9.365   0.175  1.00  0.00     0.020 A 
ATOM     47  C   UNL     1       8.001 -10.954   1.648  1.00  0.00     0.020 A 
ATOM     48  C   UNL     1       8.595 -10.645   0.424  1.00  0.00     0.054 A 
BRANCH  48  49
ATOM     49  S   UNL     1       8.755 -11.908  -0.868  1.00  0.00     0.124 S 
ATOM     50  O   UNL     1       7.811 -11.431  -1.875  1.00  0.00    -0.237 OA
ATOM     51  O   UNL     1      10.165 -11.810  -1.233  1.00  0.00    -0.237 OA
ATOM     52  O   UNL     1       8.373 -13.146  -0.192  1.00  0.00    -0.744 OA
ENDBRANCH  48  49
ENDBRANCH  29  43
BRANCH  30  53
ATOM     53  C   UNL     1       7.101  -1.099   8.984  1.00  0.00    -0.014 A 
ATOM     54  C   UNL     1       8.149  -0.248   9.374  1.00  0.00     0.010 A 
ATOM     55  C   UNL     1       5.831  -0.915   9.568  1.00  0.00     0.010 A 
ATOM     56  C   UNL     1       7.941   0.734  10.351  1.00  0.00     0.020 A 
ATOM     57  C   UNL     1       5.609   0.088  10.514  1.00  0.00     0.020 A 
ATOM     58  C   UNL     1       6.673   0.892  10.918  1.00  0.00     0.054 A 
BRANCH  58  59
ATOM     59  S   UNL     1       6.425   2.167  12.185  1.00  0.00     0.124 S 
ATOM     60  O   UNL     1       7.140   1.603  13.325  1.00  0.00    -0.237 OA
ATOM     61  O   UNL     1       7.036   3.343  11.571  1.00  0.00    -0.237 OA
ATOM     62  O   UNL     1       4.972   2.231  12.326  1.00  0.00    -0.744 OA
ENDBRANCH  58  59
ENDBRANCH  30  53
BRANCH  42  63
ATOM     63  C   UNL     1      10.905  -6.949   8.955  1.00  0.00    -0.014 A 
ATOM     64  C   UNL     1      10.463  -7.449  10.192  1.00  0.00     0.010 A 
ATOM     65  C   UNL     1      12.270  -7.016   8.626  1.00  0.00     0.010 A 
ATOM     66  C   UNL     1      11.383  -7.964  11.105  1.00  0.00     0.020 A 
ATOM     67  C   UNL     1      13.186  -7.566   9.520  1.00  0.00     0.020 A 
ATOM     68  C   UNL     1      12.738  -8.018  10.763  1.00  0.00     0.054 A 
BRANCH  68  69
ATOM     69  S   UNL     1      13.908  -8.716  11.956  1.00  0.00     0.124 S 
ATOM     70  O   UNL     1      13.976  -7.662  12.964  1.00  0.00    -0.237 OA
ATOM     71  O   UNL     1      13.240  -9.947  12.374  1.00  0.00    -0.237 OA
ATOM     72  O   UNL     1      15.126  -8.910  11.173  1.00  0.00    -0.744 OA
ENDBRANCH  68  69
ENDBRANCH  42  63
ENDBRANCH  16  17
ENDBRANCH   9  11
ENDBRANCH   8   9
ENDBRANCH   7   8
ENDBRANCH   6   7
ENDBRANCH   5   6
ENDBRANCH   4   5
ENDBRANCH   3   4
ENDBRANCH   2   3
ENDBRANCH   1   2
BRANCH   1  73
ATOM     73  C   UNL     1       4.603   3.218   1.503  1.00  0.00     0.188 C 
BRANCH  73  74
ATOM     74  O   UNL     1       3.803   2.579   2.484  1.00  0.00    -0.376 OA
BRANCH  74  75
ATOM     75  C   UNL     1       3.573   3.285   3.696  1.00  0.00     0.202 C 
BRANCH  75  76
ATOM     76  C   UNL     1       2.980   4.710   3.662  1.00  0.00     0.261 C 
BRANCH  76  77
ATOM     77  O   UNL     1       3.329   5.535   2.542  1.00  0.00    -0.460 OA
BRANCH  77  78
ATOM     78  C   UNL     1       4.504   6.192   2.565  1.00  0.00     0.338 C 
ATOM     79  O   UNL     1       5.332   6.232   3.464  1.00  0.00    -0.246 OA
BRANCH  78  80
ATOM     80  C   UNL     1       4.727   6.721   1.209  1.00  0.00     0.060 A 
ATOM     81  C   UNL     1       5.735   6.179   0.392  1.00  0.00     0.016 A 
ATOM     82  C   UNL     1       3.945   7.770   0.746  1.00  0.00     0.020 A 
ATOM     83  C   UNL     1       5.847   6.576  -0.941  1.00  0.00     0.001 A 
ATOM     84  C   UNL     1       4.229   8.314  -0.512  1.00  0.00    -0.031 A 
ATOM     85  C   UNL     1       5.099   7.653  -1.393  1.00  0.00     0.005 A 
BRANCH  84  86
ATOM     86  C   UNL     1       3.761   9.701  -0.816  1.00  0.00     0.189 C 
BRANCH  86  87
ATOM     87  S   UNL     1       5.169  10.846  -0.645  1.00  0.00     0.216 S 
ATOM     88  O   UNL     1       6.061  10.657  -1.766  1.00  0.00    -0.212 OA
ATOM     89  O   UNL     1       4.584  12.157  -0.425  1.00  0.00    -0.212 OA
BRANCH  87  90
ATOM     90  N   UNL     1       5.960  10.541   0.785  1.00  0.00    -0.211 NA
ATOM     91  H   UNL     1       5.211  10.378   1.456  1.00  0.00     0.141 HD
BRANCH  90  92
ATOM     92  C   UNL     1       6.963   9.509   1.102  1.00  0.00     0.134 C 
BRANCH  92  93
ATOM     93  C   UNL     1       8.088   9.227   0.140  1.00  0.00    -0.033 A 
ATOM     94  C   UNL     1       8.593   7.923  -0.009  1.00  0.00     0.005 A 
ATOM     95  C   UNL     1       8.704  10.249  -0.583  1.00  0.00     0.005 A 
ATOM     96  C   UNL     1       9.554   7.622  -0.976  1.00  0.00     0.000 A 
ATOM     97  C   UNL     1       9.683   9.958  -1.535  1.00  0.00     0.000 A 
ATOM     98  C   UNL     1      10.085   8.643  -1.755  1.00  0.00     0.000 A 
ENDBRANCH  92  93
ENDBRANCH  90  92
ENDBRANCH  87  90
ENDBRANCH  86  87
ENDBRANCH  84  86
ENDBRANCH  78  80
ENDBRANCH  77  78
ENDBRANCH  76  77
ENDBRANCH  75  76
ENDBRANCH  74  75
ENDBRANCH  73  74
ENDBRANCH   1  73
TORSDOF 28
