REMARK SMILES CCOC(=O)c1ccc(NC(=O)[C@H]2CC(C)=C(C)C[C@@H]2C(=O)OCCOCCOCCOCCOC(=O)c2ccc(-c3c4nc(c(-c5ccc(S(=O)(=O)[O-])cc5)c5ccc([nH]5)c(-c5ccc(S(=O)(=O)[O-])cc5)c5nc(c(-c6ccc(S(=O)(=O)[O-])cc6)c6ccc3[nH]6)C=C5)C=C4)cc2)cc1
REMARK SMILES IDX 28 1 27 2 26 3 25 4 24 5 23 6 21 7 22 8 20 9 13 10 14 11
REMARK SMILES IDX 15 12 19 13 16 14 17 15 18 16 11 17 10 18 12 20 9 21 6 22
REMARK SMILES IDX 7 23 99 24 8 25 98 26 4 27 5 28 3 29 2 30 1 31 29 32 30 33
REMARK SMILES IDX 31 34 32 35 33 36 34 37 35 38 36 39 37 40 38 41 39 42 97 43
REMARK SMILES IDX 40 44 96 45 41 46 42 47 43 48 90 49 44 50 95 51 89 52 91 53
REMARK SMILES IDX 45 54 94 55 88 56 87 57 46 59 76 60 57 61 75 62 58 63 61 64
REMARK SMILES IDX 74 65 92 66 59 67 60 68 73 70 93 71 62 72 47 73 48 74 56 75
REMARK SMILES IDX 49 76 55 77 50 78 51 79 52 80 53 81 54 82 77 83 78 84 86 85
REMARK SMILES IDX 79 86 85 87 80 88 81 89 82 90 83 91 84 92 63 93 64 94 72 95
REMARK SMILES IDX 65 96 71 97 66 98 67 99 68 100 69 101 70 102
REMARK H PARENT 10 19 91 58 61 69
REMARK Flexibility Score: inf
ROOT
ATOM      1  C   UNL     1       8.756   5.193  -5.330  1.00  0.00     0.188 C 
ENDROOT
BRANCH   1   2
ATOM      2  C   UNL     1       9.293   5.264  -6.769  1.00  0.00     0.188 C 
BRANCH   2   3
ATOM      3  O   UNL     1      10.041   6.375  -7.202  1.00  0.00    -0.376 OA
BRANCH   3   4
ATOM      4  C   UNL     1       9.508   7.668  -7.420  1.00  0.00     0.202 C 
BRANCH   4   5
ATOM      5  C   UNL     1       8.017   8.036  -7.424  1.00  0.00     0.261 C 
BRANCH   5   6
ATOM      6  O   UNL     1       7.193   7.384  -6.450  1.00  0.00    -0.463 OA
BRANCH   6   7
ATOM      7  C   UNL     1       6.082   6.753  -6.920  1.00  0.00     0.310 C 
ATOM      8  O   UNL     1       5.794   6.676  -8.112  1.00  0.00    -0.252 OA
BRANCH   7   9
ATOM      9  C   UNL     1       5.262   5.997  -5.856  1.00  0.00     0.116 C 
ATOM     10  C   UNL     1       5.479   6.430  -4.388  1.00  0.00     0.097 C 
ATOM     11  C   UNL     1       5.964   5.382  -3.371  1.00  0.00     0.045 C 
ATOM     12  C   UNL     1       5.977   3.928  -3.798  1.00  0.00    -0.074 C 
ATOM     13  C   UNL     1       5.390   4.496  -6.171  1.00  0.00     0.046 C 
ATOM     14  C   UNL     1       6.330   2.971  -2.682  1.00  0.00     0.039 C 
ATOM     15  C   UNL     1       5.714   3.534  -5.060  1.00  0.00    -0.073 C 
ATOM     16  C   UNL     1       5.779   2.092  -5.508  1.00  0.00     0.039 C 
BRANCH  10  17
ATOM     17  C   UNL     1       4.328   7.365  -3.997  1.00  0.00     0.228 C 
ATOM     18  N   UNL     1       3.334   7.134  -3.105  1.00  0.00    -0.326 N 
ATOM     19  H   UNL     1       2.828   7.950  -2.888  1.00  0.00     0.169 HD
ATOM     20  O   UNL     1       4.294   8.480  -4.543  1.00  0.00    -0.274 OA
BRANCH  18  21
ATOM     21  C   UNL     1       2.858   6.013  -2.420  1.00  0.00     0.041 A 
ATOM     22  C   UNL     1       2.130   3.872  -0.790  1.00  0.00     0.060 A 
ATOM     23  C   UNL     1       2.666   3.631  -2.054  1.00  0.00     0.018 A 
ATOM     24  C   UNL     1       1.856   5.172  -0.369  1.00  0.00     0.018 A 
ATOM     25  C   UNL     1       2.991   4.708  -2.881  1.00  0.00     0.027 A 
ATOM     26  C   UNL     1       2.213   6.241  -1.195  1.00  0.00     0.027 A 
BRANCH  22  27
ATOM     27  C   UNL     1       1.951   2.744   0.131  1.00  0.00     0.338 C 
ATOM     28  O   UNL     1       2.861   2.254   0.776  1.00  0.00    -0.246 OA
BRANCH  27  29
ATOM     29  O   UNL     1       0.665   2.332   0.066  1.00  0.00    -0.462 OA
BRANCH  29  30
ATOM     30  C   UNL     1       0.377   1.153   0.830  1.00  0.00     0.230 C 
ATOM     31  C   UNL     1       0.843  -0.088   0.087  1.00  0.00     0.049 C 
ENDBRANCH  29  30
ENDBRANCH  27  29
ENDBRANCH  22  27
ENDBRANCH  18  21
ENDBRANCH  10  17
ENDBRANCH   7   9
ENDBRANCH   6   7
ENDBRANCH   5   6
ENDBRANCH   4   5
ENDBRANCH   3   4
ENDBRANCH   2   3
ENDBRANCH   1   2
BRANCH   1  32
ATOM     32  O   UNL     1       9.339   5.753  -4.170  1.00  0.00    -0.377 OA
BRANCH  32  33
ATOM     33  C   UNL     1      10.427   6.636  -4.311  1.00  0.00     0.188 C 
BRANCH  33  34
ATOM     34  C   UNL     1      11.719   5.916  -4.704  1.00  0.00     0.188 C 
BRANCH  34  35
ATOM     35  O   UNL     1      11.515   4.523  -4.907  1.00  0.00    -0.376 OA
BRANCH  35  36
ATOM     36  C   UNL     1      11.613   3.651  -3.787  1.00  0.00     0.202 C 
BRANCH  36  37
ATOM     37  C   UNL     1      10.913   3.939  -2.441  1.00  0.00     0.261 C 
BRANCH  37  38
ATOM     38  O   UNL     1      11.080   5.232  -1.842  1.00  0.00    -0.460 OA
BRANCH  38  39
ATOM     39  C   UNL     1      12.322   5.637  -1.513  1.00  0.00     0.338 C 
ATOM     40  O   UNL     1      13.361   5.019  -1.659  1.00  0.00    -0.246 OA
BRANCH  39  41
ATOM     41  C   UNL     1      12.220   7.059  -1.115  1.00  0.00     0.060 A 
ATOM     42  C   UNL     1      12.912   8.024  -1.857  1.00  0.00     0.016 A 
ATOM     43  C   UNL     1      11.430   7.437  -0.025  1.00  0.00     0.016 A 
ATOM     44  C   UNL     1      12.852   9.367  -1.484  1.00  0.00     0.010 A 
ATOM     45  C   UNL     1      11.389   8.780   0.362  1.00  0.00     0.010 A 
ATOM     46  C   UNL     1      12.135   9.742  -0.341  1.00  0.00    -0.014 A 
BRANCH  46  47
ATOM     47  C   UNL     1      12.374  11.078   0.258  1.00  0.00     0.031 A 
ATOM     48  C   UNL     1      13.402  11.180   1.354  1.00  0.00     0.074 A 
ATOM     49  C   UNL     1      11.736  12.178  -0.178  1.00  0.00     0.049 A 
ATOM     50  N   UNL     1      13.801  12.228   2.026  1.00  0.00    -0.248 NA
ATOM     51  C   UNL     1      14.068   9.925   1.743  1.00  0.00     0.031 C 
ATOM     52  C   UNL     1      10.765  12.219  -1.270  1.00  0.00     0.029 A 
ATOM     53  N   UNL     1      11.820  13.480   0.248  1.00  0.00    -0.354 N 
ATOM     54  C   UNL     1      14.752  11.756   2.925  1.00  0.00     0.074 A 
ATOM     55  C   UNL     1      14.848  10.327   2.733  1.00  0.00     0.031 C 
ATOM     56  C   UNL     1      10.349  13.488  -1.433  1.00  0.00     0.029 A 
ATOM     57  C   UNL     1      10.997  14.341  -0.438  1.00  0.00     0.049 A 
ATOM     58  H   UNL     1      12.415  13.770   0.977  1.00  0.00     0.167 HD
ATOM     59  C   UNL     1      15.482  12.450   3.830  1.00  0.00     0.031 A 
ATOM     60  C   UNL     1      10.788  15.663  -0.272  1.00  0.00     0.031 A 
ATOM     61  C   UNL     1      15.368  13.869   4.032  1.00  0.00     0.049 A 
ATOM     62  C   UNL     1      11.550  16.401   0.799  1.00  0.00     0.074 A 
ATOM     63  C   UNL     1      16.075  14.673   4.908  1.00  0.00     0.029 A 
ATOM     64  N   UNL     1      14.478  14.694   3.359  1.00  0.00    -0.354 N 
ATOM     65  N   UNL     1      12.468  15.950   1.622  1.00  0.00    -0.248 NA
ATOM     66  C   UNL     1      11.253  17.832   0.957  1.00  0.00     0.031 C 
ATOM     67  C   UNL     1      15.564  15.972   4.815  1.00  0.00     0.029 A 
ATOM     68  C   UNL     1      14.592  15.992   3.826  1.00  0.00     0.049 A 
ATOM     69  H   UNL     1      13.858  14.399   2.654  1.00  0.00     0.167 HD
ATOM     70  C   UNL     1      12.885  17.049   2.367  1.00  0.00     0.074 A 
ATOM     71  C   UNL     1      12.123  18.186   1.894  1.00  0.00     0.031 C 
ATOM     72  C   UNL     1      13.823  17.114   3.346  1.00  0.00     0.031 A 
BRANCH  59  73
ATOM     73  C   UNL     1      16.419  11.663   4.709  1.00  0.00    -0.014 A 
ATOM     74  C   UNL     1      17.570  11.040   4.191  1.00  0.00     0.010 A 
ATOM     75  C   UNL     1      16.134  11.539   6.081  1.00  0.00     0.010 A 
ATOM     76  C   UNL     1      18.384  10.260   5.018  1.00  0.00     0.020 A 
ATOM     77  C   UNL     1      16.965  10.788   6.917  1.00  0.00     0.020 A 
ATOM     78  C   UNL     1      18.072  10.134   6.375  1.00  0.00     0.054 A 
BRANCH  78  79
ATOM     79  S   UNL     1      19.139   9.109   7.423  1.00  0.00     0.124 S 
ATOM     80  O   UNL     1      18.797   7.762   6.975  1.00  0.00    -0.237 OA
ATOM     81  O   UNL     1      20.478   9.569   7.064  1.00  0.00    -0.237 OA
ATOM     82  O   UNL     1      18.713   9.440   8.781  1.00  0.00    -0.744 OA
ENDBRANCH  78  79
ENDBRANCH  59  73
BRANCH  60  83
ATOM     83  C   UNL     1       9.823  16.381  -1.151  1.00  0.00    -0.014 A 
ATOM     84  C   UNL     1      10.279  17.319  -2.094  1.00  0.00     0.010 A 
ATOM     85  C   UNL     1       8.442  16.127  -1.054  1.00  0.00     0.010 A 
ATOM     86  C   UNL     1       9.374  17.994  -2.918  1.00  0.00     0.020 A 
ATOM     87  C   UNL     1       7.536  16.780  -1.895  1.00  0.00     0.020 A 
ATOM     88  C   UNL     1       8.008  17.715  -2.818  1.00  0.00     0.054 A 
BRANCH  88  89
ATOM     89  S   UNL     1       6.861  18.558  -3.944  1.00  0.00     0.124 S 
ATOM     90  O   UNL     1       6.885  19.926  -3.437  1.00  0.00    -0.237 OA
ATOM     91  O   UNL     1       7.493  18.352  -5.245  1.00  0.00    -0.237 OA
ATOM     92  O   UNL     1       5.602  17.840  -3.751  1.00  0.00    -0.744 OA
ENDBRANCH  88  89
ENDBRANCH  60  83
BRANCH  72  93
ATOM     93  C   UNL     1      14.118  18.467   3.944  1.00  0.00    -0.014 A 
ATOM     94  C   UNL     1      13.197  19.120   4.782  1.00  0.00     0.010 A 
ATOM     95  C   UNL     1      15.368  19.067   3.703  1.00  0.00     0.010 A 
ATOM     96  C   UNL     1      13.508  20.364   5.339  1.00  0.00     0.020 A 
ATOM     97  C   UNL     1      15.696  20.294   4.284  1.00  0.00     0.020 A 
ATOM     98  C   UNL     1      14.756  20.944   5.086  1.00  0.00     0.054 A 
BRANCH  98  99
ATOM     99  S   UNL     1      15.150  22.540   5.851  1.00  0.00     0.124 S 
ATOM    100  O   UNL     1      14.318  23.460   5.081  1.00  0.00    -0.237 OA
ATOM    101  O   UNL     1      14.745  22.338   7.240  1.00  0.00    -0.237 OA
ATOM    102  O   UNL     1      16.590  22.680   5.642  1.00  0.00    -0.744 OA
ENDBRANCH  98  99
ENDBRANCH  72  93
ENDBRANCH  46  47
ENDBRANCH  39  41
ENDBRANCH  38  39
ENDBRANCH  37  38
ENDBRANCH  36  37
ENDBRANCH  35  36
ENDBRANCH  34  35
ENDBRANCH  33  34
ENDBRANCH  32  33
ENDBRANCH   1  32
TORSDOF 28
