REMARK SMILES [NH3+]Cc1c(-c2ccccc2)c(C(=O)OCCOCCOCCOCCOC(=O)c2ccc(-c3c4nc(c(-c5ccc(S(=O)(=O)[O-])cc5)c5ccc([nH]5)c(-c5ccc(S(=O)(=O)[O-])cc5)c5nc(c(-c6ccc(S(=O)(=O)[O-])cc6)c6ccc3[nH]6)C=C5)C=C4)cc2)c2ccccn12
REMARK SMILES IDX 21 1 20 2 19 3 18 4 17 5 16 6 15 7 14 8 12 9 13 10 11 11
REMARK SMILES IDX 3 12 4 13 94 14 89 15 93 16 90 17 92 18 91 19 2 20 1 21 5 25
REMARK SMILES IDX 6 26 10 27 7 28 9 29 8 30 22 31 23 32 24 33 25 34 26 35
REMARK SMILES IDX 27 36 28 37 29 38 30 39 88 40 31 41 87 42 32 43 33 44 34 45
REMARK SMILES IDX 81 46 35 47 86 48 80 49 82 50 36 51 85 52 79 53 78 54 37 56
REMARK SMILES IDX 67 57 48 58 66 59 49 60 52 61 65 62 83 63 50 64 51 65 64 67
REMARK SMILES IDX 84 68 53 69 38 70 39 71 47 72 40 73 46 74 41 75 42 76 43 77
REMARK SMILES IDX 44 78 45 79 68 80 69 81 77 82 70 83 76 84 71 85 72 86 73 87
REMARK SMILES IDX 74 88 75 89 54 90 55 91 63 92 56 93 62 94 57 95 58 96 59 97
REMARK SMILES IDX 60 98 61 99
REMARK H PARENT 1 22 1 23 1 24 82 55 52 66
REMARK Flexibility Score: inf
ROOT
ATOM      1  C   UNL     1       4.768  -4.152  -5.920  1.00  0.00     0.188 C 
ENDROOT
BRANCH   1   2
ATOM      2  O   UNL     1       4.410  -3.057  -5.098  1.00  0.00    -0.377 OA
BRANCH   2   3
ATOM      3  C   UNL     1       3.172  -3.095  -4.402  1.00  0.00     0.188 C 
BRANCH   3   4
ATOM      4  C   UNL     1       2.200  -4.285  -4.516  1.00  0.00     0.188 C 
BRANCH   4   5
ATOM      5  O   UNL     1       2.030  -4.780  -5.842  1.00  0.00    -0.376 OA
BRANCH   5   6
ATOM      6  C   UNL     1       0.735  -4.593  -6.405  1.00  0.00     0.202 C 
BRANCH   6   7
ATOM      7  C   UNL     1       0.619  -3.256  -7.140  1.00  0.00     0.261 C 
BRANCH   7   8
ATOM      8  O   UNL     1       0.811  -2.114  -6.292  1.00  0.00    -0.460 OA
BRANCH   8   9
ATOM      9  C   UNL     1      -0.107  -1.901  -5.312  1.00  0.00     0.341 C 
ATOM     10  O   UNL     1      -1.117  -2.581  -5.160  1.00  0.00    -0.246 OA
BRANCH   9  11
ATOM     11  C   UNL     1       0.292  -0.835  -4.399  1.00  0.00     0.093 A 
ATOM     12  C   UNL     1       0.565   0.417  -2.498  1.00  0.00     0.086 A 
ATOM     13  C   UNL     1       0.099  -0.801  -2.983  1.00  0.00     0.024 A 
ATOM     14  N   UNL     1       1.143   1.092  -3.568  1.00  0.00    -0.314 N 
ATOM     15  C   UNL     1       1.005   0.311  -4.718  1.00  0.00     0.061 A 
ATOM     16  C   UNL     1       1.791   2.335  -3.589  1.00  0.00     0.092 A 
ATOM     17  C   UNL     1       1.588   0.810  -5.926  1.00  0.00     0.027 A 
ATOM     18  C   UNL     1       2.319   2.802  -4.732  1.00  0.00     0.018 A 
ATOM     19  C   UNL     1       2.221   1.997  -5.931  1.00  0.00     0.004 A 
BRANCH  12  20
ATOM     20  C   UNL     1       0.481   0.993  -1.121  1.00  0.00     0.315 C 
BRANCH  20  21
ATOM     21  N   UNL     1       1.336   0.275  -0.188  1.00  0.00    -0.353 N 
ATOM     22  H   UNL     1       1.254   0.693   0.739  1.00  0.00     0.344 HD
ATOM     23  H   UNL     1       2.305   0.331  -0.502  1.00  0.00     0.344 HD
ATOM     24  H   UNL     1       1.049  -0.703  -0.146  1.00  0.00     0.344 HD
ENDBRANCH  20  21
ENDBRANCH  12  20
BRANCH  13  25
ATOM     25  C   UNL     1      -0.387  -1.870  -2.127  1.00  0.00    -0.015 A 
ATOM     26  C   UNL     1       0.528  -2.795  -1.601  1.00  0.00     0.009 A 
ATOM     27  C   UNL     1      -1.746  -2.015  -1.854  1.00  0.00     0.009 A 
ATOM     28  C   UNL     1       0.087  -3.865  -0.825  1.00  0.00     0.001 A 
ATOM     29  C   UNL     1      -2.186  -3.083  -1.067  1.00  0.00     0.001 A 
ATOM     30  C   UNL     1      -1.273  -4.008  -0.558  1.00  0.00     0.000 A 
ENDBRANCH  13  25
ENDBRANCH   9  11
ENDBRANCH   8   9
ENDBRANCH   7   8
ENDBRANCH   6   7
ENDBRANCH   5   6
ENDBRANCH   4   5
ENDBRANCH   3   4
ENDBRANCH   2   3
ENDBRANCH   1   2
BRANCH   1  31
ATOM     31  C   UNL     1       5.005  -5.471  -5.170  1.00  0.00     0.188 C 
BRANCH  31  32
ATOM     32  O   UNL     1       4.994  -5.327  -3.747  1.00  0.00    -0.376 OA
BRANCH  32  33
ATOM     33  C   UNL     1       6.274  -5.314  -3.122  1.00  0.00     0.202 C 
BRANCH  33  34
ATOM     34  C   UNL     1       7.053  -4.003  -3.285  1.00  0.00     0.261 C 
BRANCH  34  35
ATOM     35  O   UNL     1       7.490  -3.713  -4.621  1.00  0.00    -0.460 OA
BRANCH  35  36
ATOM     36  C   UNL     1       8.287  -4.617  -5.231  1.00  0.00     0.338 C 
ATOM     37  O   UNL     1       8.735  -5.647  -4.763  1.00  0.00    -0.246 OA
BRANCH  36  38
ATOM     38  C   UNL     1       8.382  -4.228  -6.649  1.00  0.00     0.060 A 
ATOM     39  C   UNL     1       8.002  -5.152  -7.631  1.00  0.00     0.016 A 
ATOM     40  C   UNL     1       8.815  -2.947  -7.001  1.00  0.00     0.016 A 
ATOM     41  C   UNL     1       8.081  -4.801  -8.979  1.00  0.00     0.010 A 
ATOM     42  C   UNL     1       8.917  -2.606  -8.349  1.00  0.00     0.010 A 
ATOM     43  C   UNL     1       8.579  -3.542  -9.341  1.00  0.00    -0.014 A 
BRANCH  43  44
ATOM     44  C   UNL     1       8.964  -3.270 -10.743  1.00  0.00     0.031 A 
ATOM     45  C   UNL     1      10.370  -3.604 -11.160  1.00  0.00     0.074 A 
ATOM     46  C   UNL     1       8.105  -2.715 -11.615  1.00  0.00     0.049 A 
ATOM     47  N   UNL     1      10.964  -3.400 -12.305  1.00  0.00    -0.248 NA
ATOM     48  C   UNL     1      11.217  -4.253 -10.144  1.00  0.00     0.031 C 
ATOM     49  C   UNL     1       6.710  -2.377 -11.336  1.00  0.00     0.029 A 
ATOM     50  N   UNL     1       8.294  -2.325 -12.917  1.00  0.00    -0.354 N 
ATOM     51  C   UNL     1      12.253  -3.895 -12.149  1.00  0.00     0.074 A 
ATOM     52  C   UNL     1      12.362  -4.388 -10.794  1.00  0.00     0.031 C 
ATOM     53  C   UNL     1       6.173  -1.813 -12.434  1.00  0.00     0.029 A 
ATOM     54  C   UNL     1       7.192  -1.726 -13.478  1.00  0.00     0.049 A 
ATOM     55  H   UNL     1       9.140  -2.461 -13.402  1.00  0.00     0.167 HD
ATOM     56  C   UNL     1      13.259  -3.934 -13.052  1.00  0.00     0.031 A 
ATOM     57  C   UNL     1       7.037  -1.153 -14.688  1.00  0.00     0.031 A 
ATOM     58  C   UNL     1      13.164  -3.408 -14.384  1.00  0.00     0.049 A 
ATOM     59  C   UNL     1       8.197  -1.133 -15.651  1.00  0.00     0.074 A 
ATOM     60  C   UNL     1      14.128  -3.394 -15.376  1.00  0.00     0.029 A 
ATOM     61  N   UNL     1      12.040  -2.786 -14.905  1.00  0.00    -0.354 N 
ATOM     62  N   UNL     1       9.402  -1.631 -15.500  1.00  0.00    -0.248 NA
ATOM     63  C   UNL     1       7.976  -0.473 -16.946  1.00  0.00     0.031 C 
ATOM     64  C   UNL     1      13.600  -2.724 -16.484  1.00  0.00     0.029 A 
ATOM     65  C   UNL     1      12.291  -2.364 -16.198  1.00  0.00     0.049 A 
ATOM     66  H   UNL     1      11.188  -2.664 -14.426  1.00  0.00     0.167 HD
ATOM     67  C   UNL     1      10.073  -1.367 -16.690  1.00  0.00     0.074 A 
ATOM     68  C   UNL     1       9.140  -0.671 -17.552  1.00  0.00     0.031 C 
ATOM     69  C   UNL     1      11.346  -1.677 -17.040  1.00  0.00     0.031 A 
BRANCH  56  70
ATOM     70  C   UNL     1      14.557  -4.539 -12.601  1.00  0.00    -0.014 A 
ATOM     71  C   UNL     1      14.688  -5.930 -12.439  1.00  0.00     0.010 A 
ATOM     72  C   UNL     1      15.659  -3.708 -12.332  1.00  0.00     0.010 A 
ATOM     73  C   UNL     1      15.887  -6.477 -11.977  1.00  0.00     0.020 A 
ATOM     74  C   UNL     1      16.867  -4.253 -11.890  1.00  0.00     0.020 A 
ATOM     75  C   UNL     1      16.967  -5.633 -11.698  1.00  0.00     0.054 A 
BRANCH  75  76
ATOM     76  S   UNL     1      18.516  -6.366 -11.103  1.00  0.00     0.124 S 
ATOM     77  O   UNL     1      18.189  -6.668  -9.712  1.00  0.00    -0.237 OA
ATOM     78  O   UNL     1      18.680  -7.526 -11.975  1.00  0.00    -0.237 OA
ATOM     79  O   UNL     1      19.498  -5.302 -11.296  1.00  0.00    -0.744 OA
ENDBRANCH  75  76
ENDBRANCH  56  70
BRANCH  57  80
ATOM     80  C   UNL     1       5.737  -0.531 -15.057  1.00  0.00    -0.014 A 
ATOM     81  C   UNL     1       4.898  -1.137 -16.008  1.00  0.00     0.010 A 
ATOM     82  C   UNL     1       5.333   0.676 -14.458  1.00  0.00     0.010 A 
ATOM     83  C   UNL     1       3.684  -0.541 -16.364  1.00  0.00     0.020 A 
ATOM     84  C   UNL     1       4.110   1.264 -14.795  1.00  0.00     0.020 A 
ATOM     85  C   UNL     1       3.297   0.656 -15.754  1.00  0.00     0.054 A 
BRANCH  85  86
ATOM     86  S   UNL     1       1.692   1.385 -16.187  1.00  0.00     0.124 S 
ATOM     87  O   UNL     1       1.973   1.987 -17.486  1.00  0.00    -0.237 OA
ATOM     88  O   UNL     1       0.810   0.220 -16.206  1.00  0.00    -0.237 OA
ATOM     89  O   UNL     1       1.442   2.326 -15.098  1.00  0.00    -0.744 OA
ENDBRANCH  85  86
ENDBRANCH  57  80
BRANCH  69  90
ATOM     90  C   UNL     1      11.802  -1.302 -18.423  1.00  0.00    -0.014 A 
ATOM     91  C   UNL     1      12.140   0.025 -18.740  1.00  0.00     0.010 A 
ATOM     92  C   UNL     1      11.979  -2.308 -19.390  1.00  0.00     0.010 A 
ATOM     93  C   UNL     1      12.636   0.341 -20.008  1.00  0.00     0.020 A 
ATOM     94  C   UNL     1      12.494  -2.000 -20.651  1.00  0.00     0.020 A 
ATOM     95  C   UNL     1      12.812  -0.674 -20.955  1.00  0.00     0.054 A 
BRANCH  95  96
ATOM     96  S   UNL     1      13.522  -0.253 -22.570  1.00  0.00     0.124 S 
ATOM     97  O   UNL     1      12.386   0.360 -23.252  1.00  0.00    -0.237 OA
ATOM     98  O   UNL     1      14.610   0.657 -22.218  1.00  0.00    -0.237 OA
ATOM     99  O   UNL     1      13.949  -1.544 -23.107  1.00  0.00    -0.744 OA
ENDBRANCH  95  96
ENDBRANCH  69  90
ENDBRANCH  43  44
ENDBRANCH  36  38
ENDBRANCH  35  36
ENDBRANCH  34  35
ENDBRANCH  33  34
ENDBRANCH  32  33
ENDBRANCH  31  32
ENDBRANCH   1  31
TORSDOF 26
