REMARK SMILES Cc1ccc2ncc(/C=C/c3cc(C(=O)OCCOCCOCCOCCOC(=O)c4ccc(-c5c6nc(c(-c7ccc(S(=O)(=O)[O-])cc7)c7ccc([nH]7)c(-c7ccc(S(=O)(=O)[O-])cc7)c7nc(c(-c8ccc(S(=O)(=O)[O-])cc8)c8ccc5[nH]8)C=C7)C=C6)cc4)ncn3)n2c1
REMARK SMILES IDX 23 1 22 2 21 3 20 4 19 5 18 6 17 7 16 8 14 9 15 10 13 11
REMARK SMILES IDX 11 12 12 13 93 14 92 15 91 16 10 17 9 18 8 19 1 20 2 21 3 22
REMARK SMILES IDX 95 23 4 24 94 25 5 26 6 27 7 28 24 29 25 30 26 31 27 32
REMARK SMILES IDX 28 33 29 34 30 35 31 36 32 37 90 38 33 39 89 40 34 41 35 42
REMARK SMILES IDX 36 43 83 44 37 45 88 46 82 47 84 48 38 49 87 50 81 51 80 52
REMARK SMILES IDX 39 54 69 55 50 56 68 57 51 58 54 59 67 60 85 61 52 62 53 63
REMARK SMILES IDX 66 65 86 66 55 67 40 68 41 69 49 70 42 71 48 72 43 73 44 74
REMARK SMILES IDX 45 75 46 76 47 77 70 78 71 79 79 80 72 81 78 82 73 83 74 84
REMARK SMILES IDX 75 85 76 86 77 87 56 88 57 89 65 90 58 91 64 92 59 93 60 94
REMARK SMILES IDX 61 95 62 96 63 97
REMARK H PARENT 84 53 54 64
REMARK Flexibility Score: inf
ROOT
ATOM      1  C   UNL     1       6.607   7.082   6.147  1.00  0.00     0.188 C 
ENDROOT
BRANCH   1   2
ATOM      2  O   UNL     1       6.522   6.418   4.888  1.00  0.00    -0.377 OA
BRANCH   2   3
ATOM      3  C   UNL     1       7.684   5.819   4.356  1.00  0.00     0.188 C 
BRANCH   3   4
ATOM      4  C   UNL     1       8.781   6.798   3.912  1.00  0.00     0.188 C 
BRANCH   4   5
ATOM      5  O   UNL     1       8.759   8.032   4.601  1.00  0.00    -0.376 OA
BRANCH   5   6
ATOM      6  C   UNL     1       8.205   9.206   4.031  1.00  0.00     0.202 C 
BRANCH   6   7
ATOM      7  C   UNL     1       6.808   9.279   3.394  1.00  0.00     0.261 C 
BRANCH   7   8
ATOM      8  O   UNL     1       6.388   8.155   2.633  1.00  0.00    -0.459 OA
BRANCH   8   9
ATOM      9  C   UNL     1       7.072   7.891   1.496  1.00  0.00     0.357 C 
ATOM     10  O   UNL     1       8.031   8.515   1.064  1.00  0.00    -0.244 OA
BRANCH   9  11
ATOM     11  C   UNL     1       6.645   6.526   1.082  1.00  0.00     0.152 A 
ATOM     12  C   UNL     1       5.031   4.864   0.872  1.00  0.00     0.067 A 
ATOM     13  C   UNL     1       5.321   6.173   1.179  1.00  0.00     0.064 A 
ATOM     14  N   UNL     1       5.977   3.941   0.602  1.00  0.00    -0.237 NA
ATOM     15  C   UNL     1       7.238   4.395   0.556  1.00  0.00     0.223 A 
ATOM     16  N   UNL     1       7.635   5.652   0.771  1.00  0.00    -0.229 NA
BRANCH  12  17
ATOM     17  C   UNL     1       3.643   4.393   0.778  1.00  0.00     0.030 C 
ATOM     18  C   UNL     1       2.712   5.176   0.216  1.00  0.00     0.030 C 
BRANCH  18  19
ATOM     19  C   UNL     1       1.343   4.901  -0.027  1.00  0.00     0.065 A 
ATOM     20  C   UNL     1       0.786  -0.120  -0.166  1.00  0.00     0.046 C 
ATOM     21  C   UNL     1       0.361   1.310  -0.279  1.00  0.00    -0.034 A 
ATOM     22  C   UNL     1      -1.030   1.588  -0.610  1.00  0.00     0.009 A 
ATOM     23  C   UNL     1       1.199   2.349  -0.100  1.00  0.00     0.096 A 
ATOM     24  C   UNL     1      -1.485   2.848  -0.720  1.00  0.00     0.048 A 
ATOM     25  N   UNL     1       0.728   3.667  -0.183  1.00  0.00    -0.300 N 
ATOM     26  C   UNL     1      -0.609   3.945  -0.494  1.00  0.00     0.137 A 
ATOM     27  N   UNL     1      -0.856   5.232  -0.549  1.00  0.00    -0.236 NA
ATOM     28  C   UNL     1       0.341   5.828  -0.279  1.00  0.00     0.140 A 
ENDBRANCH  18  19
ENDBRANCH  12  17
ENDBRANCH   9  11
ENDBRANCH   8   9
ENDBRANCH   7   8
ENDBRANCH   6   7
ENDBRANCH   5   6
ENDBRANCH   4   5
ENDBRANCH   3   4
ENDBRANCH   2   3
ENDBRANCH   1   2
BRANCH   1  29
ATOM     29  C   UNL     1       7.902   7.145   6.996  1.00  0.00     0.188 C 
BRANCH  29  30
ATOM     30  O   UNL     1       8.701   5.982   6.895  1.00  0.00    -0.376 OA
BRANCH  30  31
ATOM     31  C   UNL     1       8.640   5.034   7.944  1.00  0.00     0.202 C 
BRANCH  31  32
ATOM     32  C   UNL     1       7.275   4.543   8.473  1.00  0.00     0.261 C 
BRANCH  32  33
ATOM     33  O   UNL     1       6.279   5.564   8.656  1.00  0.00    -0.460 OA
BRANCH  33  34
ATOM     34  C   UNL     1       6.155   6.208   9.838  1.00  0.00     0.338 C 
ATOM     35  O   UNL     1       6.641   5.869  10.908  1.00  0.00    -0.246 OA
BRANCH  34  36
ATOM     36  C   UNL     1       5.643   7.570   9.512  1.00  0.00     0.060 A 
ATOM     37  C   UNL     1       4.590   7.766   8.611  1.00  0.00     0.016 A 
ATOM     38  C   UNL     1       6.474   8.647   9.859  1.00  0.00     0.016 A 
ATOM     39  C   UNL     1       4.474   8.997   7.956  1.00  0.00     0.010 A 
ATOM     40  C   UNL     1       6.364   9.869   9.189  1.00  0.00     0.010 A 
ATOM     41  C   UNL     1       5.398  10.036   8.197  1.00  0.00    -0.014 A 
BRANCH  41  42
ATOM     42  C   UNL     1       5.155  11.345   7.558  1.00  0.00     0.031 A 
ATOM     43  C   UNL     1       3.846  11.922   7.968  1.00  0.00     0.074 A 
ATOM     44  C   UNL     1       5.997  12.101   6.814  1.00  0.00     0.049 A 
ATOM     45  N   UNL     1       2.819  12.186   7.232  1.00  0.00    -0.248 NA
ATOM     46  C   UNL     1       3.617  12.080   9.413  1.00  0.00     0.031 C 
ATOM     47  C   UNL     1       7.424  11.885   6.579  1.00  0.00     0.029 A 
ATOM     48  N   UNL     1       5.765  13.296   6.172  1.00  0.00    -0.354 N 
ATOM     49  C   UNL     1       1.859  12.700   8.099  1.00  0.00     0.074 A 
ATOM     50  C   UNL     1       2.344  12.466   9.435  1.00  0.00     0.031 C 
ATOM     51  C   UNL     1       7.966  12.989   6.013  1.00  0.00     0.029 A 
ATOM     52  C   UNL     1       6.919  13.965   5.762  1.00  0.00     0.049 A 
ATOM     53  H   UNL     1       4.859  13.649   6.015  1.00  0.00     0.167 HD
ATOM     54  C   UNL     1       0.816  13.456   7.664  1.00  0.00     0.031 A 
ATOM     55  C   UNL     1       7.037  15.249   5.323  1.00  0.00     0.031 A 
ATOM     56  C   UNL     1       0.624  13.343   6.246  1.00  0.00     0.049 A 
ATOM     57  C   UNL     1       5.702  15.705   4.878  1.00  0.00     0.074 A 
ATOM     58  C   UNL     1       0.269  12.323   5.391  1.00  0.00     0.029 A 
ATOM     59  N   UNL     1       1.152  14.341   5.465  1.00  0.00    -0.354 N 
ATOM     60  N   UNL     1       5.082  15.230   3.836  1.00  0.00    -0.248 NA
ATOM     61  C   UNL     1       4.870  16.413   5.836  1.00  0.00     0.031 C 
ATOM     62  C   UNL     1       1.001  12.571   4.197  1.00  0.00     0.029 A 
ATOM     63  C   UNL     1       1.717  13.761   4.361  1.00  0.00     0.049 A 
ATOM     64  H   UNL     1       1.128  15.305   5.664  1.00  0.00     0.167 HD
ATOM     65  C   UNL     1       3.749  15.187   4.214  1.00  0.00     0.074 A 
ATOM     66  C   UNL     1       3.668  16.016   5.414  1.00  0.00     0.031 C 
ATOM     67  C   UNL     1       2.894  14.267   3.679  1.00  0.00     0.031 A 
BRANCH  54  68
ATOM     68  C   UNL     1       0.185  14.556   8.477  1.00  0.00    -0.014 A 
ATOM     69  C   UNL     1       0.792  15.112   9.621  1.00  0.00     0.010 A 
ATOM     70  C   UNL     1      -0.931  15.238   7.951  1.00  0.00     0.010 A 
ATOM     71  C   UNL     1       0.311  16.273  10.225  1.00  0.00     0.020 A 
ATOM     72  C   UNL     1      -1.395  16.431   8.521  1.00  0.00     0.020 A 
ATOM     73  C   UNL     1      -0.772  16.936   9.661  1.00  0.00     0.054 A 
BRANCH  73  74
ATOM     74  S   UNL     1      -1.292  18.499  10.406  1.00  0.00     0.124 S 
ATOM     75  O   UNL     1      -1.822  18.055  11.693  1.00  0.00    -0.237 OA
ATOM     76  O   UNL     1      -0.040  19.248  10.464  1.00  0.00    -0.237 OA
ATOM     77  O   UNL     1      -2.283  19.014   9.465  1.00  0.00    -0.744 OA
ENDBRANCH  73  74
ENDBRANCH  54  68
BRANCH  55  78
ATOM     78  C   UNL     1       8.125  16.220   5.648  1.00  0.00    -0.014 A 
ATOM     79  C   UNL     1       8.858  16.053   6.840  1.00  0.00     0.010 A 
ATOM     80  C   UNL     1       8.248  17.458   4.981  1.00  0.00     0.010 A 
ATOM     81  C   UNL     1       9.618  17.091   7.388  1.00  0.00     0.020 A 
ATOM     82  C   UNL     1       9.012  18.510   5.527  1.00  0.00     0.020 A 
ATOM     83  C   UNL     1       9.661  18.328   6.750  1.00  0.00     0.054 A 
BRANCH  83  84
ATOM     84  S   UNL     1      10.496  19.697   7.606  1.00  0.00     0.124 S 
ATOM     85  O   UNL     1       9.611  19.926   8.745  1.00  0.00    -0.237 OA
ATOM     86  O   UNL     1      11.797  19.118   7.934  1.00  0.00    -0.237 OA
ATOM     87  O   UNL     1      10.526  20.765   6.611  1.00  0.00    -0.744 OA
ENDBRANCH  83  84
ENDBRANCH  55  78
BRANCH  67  88
ATOM     88  C   UNL     1       3.300  13.512   2.429  1.00  0.00    -0.014 A 
ATOM     89  C   UNL     1       2.361  13.467   1.380  1.00  0.00     0.010 A 
ATOM     90  C   UNL     1       4.435  12.683   2.345  1.00  0.00     0.010 A 
ATOM     91  C   UNL     1       2.498  12.562   0.326  1.00  0.00     0.020 A 
ATOM     92  C   UNL     1       4.597  11.799   1.265  1.00  0.00     0.020 A 
ATOM     93  C   UNL     1       3.602  11.710   0.291  1.00  0.00     0.054 A 
BRANCH  93  94
ATOM     94  S   UNL     1       3.671  10.444  -1.007  1.00  0.00     0.124 S 
ATOM     95  O   UNL     1       2.588   9.539  -0.622  1.00  0.00    -0.237 OA
ATOM     96  O   UNL     1       3.440  11.217  -2.224  1.00  0.00    -0.237 OA
ATOM     97  O   UNL     1       5.007   9.867  -0.874  1.00  0.00    -0.744 OA
ENDBRANCH  93  94
ENDBRANCH  67  88
ENDBRANCH  41  42
ENDBRANCH  34  36
ENDBRANCH  33  34
ENDBRANCH  32  33
ENDBRANCH  31  32
ENDBRANCH  30  31
ENDBRANCH  29  30
ENDBRANCH   1  29
TORSDOF 25
