REMARK SMILES COc1cccc(C(=O)NNC(=O)[C@H]2CC(C)=C(C)C[C@@H]2C(=O)OCCOCCOCCOCCOC(=O)c2ccc(-c3c4nc(c(-c5ccc(S(=O)(=O)[O-])cc5)c5ccc([nH]5)c(-c5ccc(S(=O)(=O)[O-])cc5)c5nc(c(-c6ccc(S(=O)(=O)[O-])cc6)c6ccc3[nH]6)C=C5)C=C4)cc2)c1
REMARK SMILES IDX 29 1 28 2 27 3 26 4 25 5 24 6 22 7 23 8 21 9 14 10 15 11
REMARK SMILES IDX 16 12 20 13 17 14 18 15 19 16 12 17 11 18 13 20 10 21 8 22
REMARK SMILES IDX 9 23 7 25 3 26 4 27 99 28 5 29 6 30 2 31 1 32 30 33 31 34
REMARK SMILES IDX 32 35 33 36 34 37 35 38 36 39 37 40 38 41 39 42 40 43 98 44
REMARK SMILES IDX 41 45 97 46 42 47 43 48 44 49 91 50 45 51 96 52 90 53 92 54
REMARK SMILES IDX 46 55 95 56 89 57 88 58 47 60 77 61 58 62 76 63 59 64 62 65
REMARK SMILES IDX 75 66 93 67 60 68 61 69 74 71 94 72 63 73 48 74 49 75 57 76
REMARK SMILES IDX 50 77 56 78 51 79 52 80 53 81 54 82 55 83 78 84 79 85 87 86
REMARK SMILES IDX 80 87 86 88 81 89 82 90 83 91 84 92 85 93 64 94 65 95 73 96
REMARK SMILES IDX 66 97 72 98 67 99 68 100 69 101 70 102 71 103
REMARK H PARENT 11 19 10 24 92 59 62 70
REMARK Flexibility Score: inf
ROOT
ATOM      1  C   UNL     1       6.780   3.587   0.623  1.00  0.00     0.188 C 
ENDROOT
BRANCH   1   2
ATOM      2  C   UNL     1       7.327   2.534   1.612  1.00  0.00     0.188 C 
BRANCH   2   3
ATOM      3  O   UNL     1       8.402   3.027   2.401  1.00  0.00    -0.376 OA
BRANCH   3   4
ATOM      4  C   UNL     1       9.749   2.718   2.070  1.00  0.00     0.202 C 
BRANCH   4   5
ATOM      5  C   UNL     1      10.299   2.775   0.632  1.00  0.00     0.261 C 
BRANCH   5   6
ATOM      6  O   UNL     1       9.363   2.431  -0.389  1.00  0.00    -0.463 OA
BRANCH   6   7
ATOM      7  C   UNL     1       9.218   1.129  -0.735  1.00  0.00     0.310 C 
ATOM      8  O   UNL     1       9.941   0.215  -0.369  1.00  0.00    -0.252 OA
BRANCH   7   9
ATOM      9  C   UNL     1       7.912   0.988  -1.509  1.00  0.00     0.116 C 
ATOM     10  C   UNL     1       7.354  -0.424  -1.413  1.00  0.00     0.099 C 
ATOM     11  C   UNL     1       7.796  -1.347  -2.537  1.00  0.00     0.045 C 
ATOM     12  C   UNL     1       8.187  -0.686  -3.841  1.00  0.00    -0.074 C 
ATOM     13  C   UNL     1       8.001   1.617  -2.889  1.00  0.00     0.046 C 
ATOM     14  C   UNL     1       8.468  -1.678  -4.935  1.00  0.00     0.039 C 
ATOM     15  C   UNL     1       8.278   0.651  -4.002  1.00  0.00    -0.073 C 
ATOM     16  C   UNL     1       8.656   1.313  -5.304  1.00  0.00     0.039 C 
BRANCH  10  17
ATOM     17  C   UNL     1       5.870  -0.449  -1.040  1.00  0.00     0.242 C 
ATOM     18  N   UNL     1       4.862  -0.568  -1.948  1.00  0.00    -0.267 N 
ATOM     19  H   UNL     1       4.014  -0.951  -1.626  1.00  0.00     0.191 HD
ATOM     20  O   UNL     1       5.536  -0.346   0.148  1.00  0.00    -0.273 OA
BRANCH  18  21
ATOM     21  N   UNL     1       4.918  -0.200  -3.280  1.00  0.00    -0.263 N 
ATOM     22  C   UNL     1       3.871  -0.202  -4.185  1.00  0.00     0.269 C 
ATOM     23  O   UNL     1       4.119   0.033  -5.369  1.00  0.00    -0.267 OA
ATOM     24  H   UNL     1       5.794   0.094  -3.619  1.00  0.00     0.191 HD
BRANCH  22  25
ATOM     25  C   UNL     1       2.463  -0.527  -3.808  1.00  0.00     0.045 A 
ATOM     26  C   UNL     1       0.584  -0.619  -2.272  1.00  0.00     0.119 A 
ATOM     27  C   UNL     1      -0.180  -1.262  -3.248  1.00  0.00     0.046 A 
ATOM     28  C   UNL     1       1.883  -0.196  -2.576  1.00  0.00     0.060 A 
ATOM     29  C   UNL     1       0.350  -1.506  -4.512  1.00  0.00     0.005 A 
ATOM     30  C   UNL     1       1.672  -1.154  -4.785  1.00  0.00     0.014 A 
BRANCH  26  31
ATOM     31  O   UNL     1      -0.050  -0.458  -1.070  1.00  0.00    -0.497 OA
ATOM     32  C   UNL     1       0.741  -0.004   0.024  1.00  0.00     0.278 C 
ENDBRANCH  26  31
ENDBRANCH  22  25
ENDBRANCH  18  21
ENDBRANCH  10  17
ENDBRANCH   7   9
ENDBRANCH   6   7
ENDBRANCH   5   6
ENDBRANCH   4   5
ENDBRANCH   3   4
ENDBRANCH   2   3
ENDBRANCH   1   2
BRANCH   1  33
ATOM     33  O   UNL     1       7.750   4.545   0.246  1.00  0.00    -0.377 OA
BRANCH  33  34
ATOM     34  C   UNL     1       7.947   5.657   1.117  1.00  0.00     0.188 C 
BRANCH  34  35
ATOM     35  C   UNL     1       7.469   5.647   2.595  1.00  0.00     0.188 C 
BRANCH  35  36
ATOM     36  O   UNL     1       6.253   4.954   2.846  1.00  0.00    -0.376 OA
BRANCH  36  37
ATOM     37  C   UNL     1       5.061   5.701   3.020  1.00  0.00     0.202 C 
BRANCH  37  38
ATOM     38  C   UNL     1       4.532   6.472   1.802  1.00  0.00     0.261 C 
BRANCH  38  39
ATOM     39  O   UNL     1       5.438   7.411   1.211  1.00  0.00    -0.460 OA
BRANCH  39  40
ATOM     40  C   UNL     1       5.883   8.420   1.990  1.00  0.00     0.338 C 
ATOM     41  O   UNL     1       5.571   8.652   3.146  1.00  0.00    -0.246 OA
BRANCH  40  42
ATOM     42  C   UNL     1       6.978   9.086   1.258  1.00  0.00     0.060 A 
ATOM     43  C   UNL     1       8.261   9.120   1.822  1.00  0.00     0.016 A 
ATOM     44  C   UNL     1       6.738   9.642   0.000  1.00  0.00     0.016 A 
ATOM     45  C   UNL     1       9.307   9.740   1.139  1.00  0.00     0.010 A 
ATOM     46  C   UNL     1       7.776  10.287  -0.668  1.00  0.00     0.010 A 
ATOM     47  C   UNL     1       9.054  10.369  -0.086  1.00  0.00    -0.014 A 
BRANCH  47  48
ATOM     48  C   UNL     1      10.037  11.319  -0.655  1.00  0.00     0.031 A 
ATOM     49  C   UNL     1       9.840  12.780  -0.364  1.00  0.00     0.074 A 
ATOM     50  C   UNL     1      11.046  10.909  -1.441  1.00  0.00     0.049 A 
ATOM     51  N   UNL     1      10.466  13.816  -0.854  1.00  0.00    -0.248 NA
ATOM     52  C   UNL     1       8.777  13.114   0.600  1.00  0.00     0.031 C 
ATOM     53  C   UNL     1      11.366   9.518  -1.754  1.00  0.00     0.029 A 
ATOM     54  N   UNL     1      11.973  11.638  -2.143  1.00  0.00    -0.354 N 
ATOM     55  C   UNL     1       9.854  14.925  -0.283  1.00  0.00     0.074 A 
ATOM     56  C   UNL     1       8.800  14.437   0.577  1.00  0.00     0.031 C 
ATOM     57  C   UNL     1      12.400   9.495  -2.614  1.00  0.00     0.029 A 
ATOM     58  C   UNL     1      12.782  10.868  -2.945  1.00  0.00     0.049 A 
ATOM     59  H   UNL     1      12.052  12.617  -2.078  1.00  0.00     0.167 HD
ATOM     60  C   UNL     1      10.139  16.235  -0.468  1.00  0.00     0.031 A 
ATOM     61  C   UNL     1      13.693  11.232  -3.870  1.00  0.00     0.031 A 
ATOM     62  C   UNL     1      11.176  16.709  -1.344  1.00  0.00     0.049 A 
ATOM     63  C   UNL     1      13.956  12.697  -4.113  1.00  0.00     0.074 A 
ATOM     64  C   UNL     1      11.568  18.014  -1.581  1.00  0.00     0.029 A 
ATOM     65  N   UNL     1      11.970  15.898  -2.140  1.00  0.00    -0.354 N 
ATOM     66  N   UNL     1      13.396  13.739  -3.544  1.00  0.00    -0.248 NA
ATOM     67  C   UNL     1      14.973  13.037  -5.118  1.00  0.00     0.031 C 
ATOM     68  C   UNL     1      12.550  17.995  -2.575  1.00  0.00     0.029 A 
ATOM     69  C   UNL     1      12.828  16.675  -2.897  1.00  0.00     0.049 A 
ATOM     70  H   UNL     1      11.930  14.914  -2.163  1.00  0.00     0.167 HD
ATOM     71  C   UNL     1      14.017  14.855  -4.097  1.00  0.00     0.074 A 
ATOM     72  C   UNL     1      14.994  14.362  -5.046  1.00  0.00     0.031 C 
ATOM     73  C   UNL     1      13.802  16.169  -3.833  1.00  0.00     0.031 A 
BRANCH  60  74
ATOM     74  C   UNL     1       9.268  17.239   0.239  1.00  0.00    -0.014 A 
ATOM     75  C   UNL     1       9.291  17.383   1.638  1.00  0.00     0.010 A 
ATOM     76  C   UNL     1       8.408  18.056  -0.518  1.00  0.00     0.010 A 
ATOM     77  C   UNL     1       8.427  18.282   2.269  1.00  0.00     0.020 A 
ATOM     78  C   UNL     1       7.568  18.980   0.106  1.00  0.00     0.020 A 
ATOM     79  C   UNL     1       7.567  19.070   1.499  1.00  0.00     0.054 A 
BRANCH  79  80
ATOM     80  S   UNL     1       6.451  20.223   2.345  1.00  0.00     0.124 S 
ATOM     81  O   UNL     1       5.481  19.313   2.949  1.00  0.00    -0.237 OA
ATOM     82  O   UNL     1       7.343  20.902   3.281  1.00  0.00    -0.237 OA
ATOM     83  O   UNL     1       5.931  21.059   1.265  1.00  0.00    -0.744 OA
ENDBRANCH  79  80
ENDBRANCH  60  74
BRANCH  61  84
ATOM     84  C   UNL     1      14.396  10.181  -4.656  1.00  0.00    -0.014 A 
ATOM     85  C   UNL     1      15.759   9.912  -4.443  1.00  0.00     0.010 A 
ATOM     86  C   UNL     1      13.685   9.406  -5.593  1.00  0.00     0.010 A 
ATOM     87  C   UNL     1      16.396   8.884  -5.146  1.00  0.00     0.020 A 
ATOM     88  C   UNL     1      14.311   8.360  -6.277  1.00  0.00     0.020 A 
ATOM     89  C   UNL     1      15.664   8.107  -6.050  1.00  0.00     0.054 A 
BRANCH  89  90
ATOM     90  S   UNL     1      16.489   6.717  -6.875  1.00  0.00     0.124 S 
ATOM     91  O   UNL     1      17.385   7.401  -7.802  1.00  0.00    -0.237 OA
ATOM     92  O   UNL     1      17.136   6.031  -5.760  1.00  0.00    -0.237 OA
ATOM     93  O   UNL     1      15.388   5.983  -7.494  1.00  0.00    -0.744 OA
ENDBRANCH  89  90
ENDBRANCH  61  84
BRANCH  73  94
ATOM     94  C   UNL     1      14.667  17.186  -4.533  1.00  0.00    -0.014 A 
ATOM     95  C   UNL     1      14.482  17.500  -5.890  1.00  0.00     0.010 A 
ATOM     96  C   UNL     1      15.595  17.928  -3.778  1.00  0.00     0.010 A 
ATOM     97  C   UNL     1      15.214  18.536  -6.480  1.00  0.00     0.020 A 
ATOM     98  C   UNL     1      16.307  18.982  -4.356  1.00  0.00     0.020 A 
ATOM     99  C   UNL     1      16.114  19.277  -5.706  1.00  0.00     0.054 A 
BRANCH  99 100
ATOM    100  S   UNL     1      16.979  20.677  -6.471  1.00  0.00     0.124 S 
ATOM    101  O   UNL     1      17.919  20.004  -7.362  1.00  0.00    -0.237 OA
ATOM    102  O   UNL     1      15.894  21.400  -7.131  1.00  0.00    -0.237 OA
ATOM    103  O   UNL     1      17.584  21.373  -5.338  1.00  0.00    -0.744 OA
ENDBRANCH  99 100
ENDBRANCH  73  94
ENDBRANCH  47  48
ENDBRANCH  40  42
ENDBRANCH  39  40
ENDBRANCH  38  39
ENDBRANCH  37  38
ENDBRANCH  36  37
ENDBRANCH  35  36
ENDBRANCH  34  35
ENDBRANCH  33  34
ENDBRANCH   1  33
TORSDOF 27
