REMARK SMILES COc1ccc(/C=C/c2cc(OC)cc(OC)c2/C=C/C(=O)OCCOCCOCCOCCOC(=O)c2ccc(-c3c4nc(c(-c5ccc(S(=O)(=O)[O-])cc5)c5ccc([nH]5)c(-c5ccc(S(=O)(=O)[O-])cc5)c5nc(c(-c6ccc(S(=O)(=O)[O-])cc6)c6ccc3[nH]6)C=C5)C=C4)cc2)cc1
REMARK SMILES IDX 28 1 27 2 26 3 25 4 24 5 23 6 21 7 22 8 20 9 19 10 18 11
REMARK SMILES IDX 9 12 10 13 11 14 15 15 14 16 8 17 7 18 6 19 3 20 4 21 99 22
REMARK SMILES IDX 5 23 98 24 2 25 1 26 12 27 13 28 16 29 17 30 29 31 30 32
REMARK SMILES IDX 31 33 32 34 33 35 34 36 35 37 36 38 37 39 38 40 39 41 97 42
REMARK SMILES IDX 40 43 96 44 41 45 42 46 43 47 90 48 44 49 95 50 89 51 91 52
REMARK SMILES IDX 45 53 94 54 88 55 87 56 46 58 76 59 57 60 75 61 58 62 61 63
REMARK SMILES IDX 74 64 92 65 59 66 60 67 73 69 93 70 62 71 47 72 48 73 56 74
REMARK SMILES IDX 49 75 55 76 50 77 51 78 52 79 53 80 54 81 77 82 78 83 86 84
REMARK SMILES IDX 79 85 85 86 80 87 81 88 82 89 83 90 84 91 63 92 64 93 72 94
REMARK SMILES IDX 65 95 71 96 66 97 67 98 68 99 69 100 70 101
REMARK H PARENT 91 57 61 68
REMARK Flexibility Score: inf
ROOT
ATOM      1  C   UNL     1       4.733  -6.093  -6.912  1.00  0.00     0.188 C 
ENDROOT
BRANCH   1   2
ATOM      2  C   UNL     1       6.204  -5.821  -7.263  1.00  0.00     0.188 C 
BRANCH   2   3
ATOM      3  O   UNL     1       7.099  -6.040  -6.191  1.00  0.00    -0.376 OA
BRANCH   3   4
ATOM      4  C   UNL     1       7.524  -4.965  -5.366  1.00  0.00     0.202 C 
BRANCH   4   5
ATOM      5  C   UNL     1       6.651  -3.746  -5.006  1.00  0.00     0.261 C 
BRANCH   5   6
ATOM      6  O   UNL     1       5.687  -3.331  -5.978  1.00  0.00    -0.460 OA
BRANCH   6   7
ATOM      7  C   UNL     1       6.090  -2.476  -6.937  1.00  0.00     0.330 C 
ATOM      8  O   UNL     1       7.210  -2.006  -7.061  1.00  0.00    -0.247 OA
BRANCH   7   9
ATOM      9  C   UNL     1       5.021  -2.247  -7.939  1.00  0.00     0.094 C 
ATOM     10  C   UNL     1       3.813  -2.833  -7.919  1.00  0.00     0.020 C 
BRANCH  10  11
ATOM     11  C   UNL     1       2.784  -2.629  -8.959  1.00  0.00     0.024 A 
ATOM     12  C   UNL     1       1.491  -2.193  -8.561  1.00  0.00    -0.011 A 
ATOM     13  C   UNL     1       0.515  -1.907  -9.531  1.00  0.00     0.055 A 
ATOM     14  C   UNL     1       0.769  -2.087 -10.887  1.00  0.00     0.123 A 
ATOM     15  C   UNL     1       3.016  -2.849 -10.335  1.00  0.00     0.130 A 
ATOM     16  C   UNL     1       2.014  -2.568 -11.280  1.00  0.00     0.093 A 
BRANCH  12  17
ATOM     17  C   UNL     1       1.043  -2.088  -7.159  1.00  0.00     0.009 C 
ATOM     18  C   UNL     1       1.679  -1.383  -6.211  1.00  0.00     0.009 C 
BRANCH  18  19
ATOM     19  C   UNL     1       1.310  -1.378  -4.788  1.00  0.00    -0.025 A 
ATOM     20  C   UNL     1       0.702  -1.246  -2.059  1.00  0.00     0.118 A 
ATOM     21  C   UNL     1      -0.278  -1.631  -2.967  1.00  0.00     0.047 A 
ATOM     22  C   UNL     1       2.000  -0.981  -2.489  1.00  0.00     0.047 A 
ATOM     23  C   UNL     1       0.020  -1.679  -4.329  1.00  0.00     0.012 A 
ATOM     24  C   UNL     1       2.298  -1.039  -3.851  1.00  0.00     0.012 A 
BRANCH  20  25
ATOM     25  O   UNL     1       0.328  -1.148  -0.750  1.00  0.00    -0.497 OA
ATOM     26  C   UNL     1       0.603   0.159  -0.242  1.00  0.00     0.278 C 
ENDBRANCH  20  25
ENDBRANCH  18  19
ENDBRANCH  12  17
BRANCH  14  27
ATOM     27  O   UNL     1      -0.266  -1.756 -11.717  1.00  0.00    -0.497 OA
ATOM     28  C   UNL     1      -0.125  -2.114 -13.086  1.00  0.00     0.278 C 
ENDBRANCH  14  27
BRANCH  15  29
ATOM     29  O   UNL     1       4.193  -3.239 -10.926  1.00  0.00    -0.496 OA
ATOM     30  C   UNL     1       4.864  -4.363 -10.370  1.00  0.00     0.278 C 
ENDBRANCH  15  29
ENDBRANCH  10  11
ENDBRANCH   7   9
ENDBRANCH   6   7
ENDBRANCH   5   6
ENDBRANCH   4   5
ENDBRANCH   3   4
ENDBRANCH   2   3
ENDBRANCH   1   2
BRANCH   1  31
ATOM     31  O   UNL     1       4.389  -5.823  -5.568  1.00  0.00    -0.377 OA
BRANCH  31  32
ATOM     32  C   UNL     1       4.719  -6.782  -4.565  1.00  0.00     0.188 C 
BRANCH  32  33
ATOM     33  C   UNL     1       5.633  -8.006  -4.833  1.00  0.00     0.188 C 
BRANCH  33  34
ATOM     34  O   UNL     1       5.626  -8.503  -6.164  1.00  0.00    -0.376 OA
BRANCH  34  35
ATOM     35  C   UNL     1       4.932  -9.712  -6.420  1.00  0.00     0.202 C 
BRANCH  35  36
ATOM     36  C   UNL     1       3.402  -9.648  -6.299  1.00  0.00     0.261 C 
BRANCH  36  37
ATOM     37  O   UNL     1       2.903  -9.239  -5.018  1.00  0.00    -0.460 OA
BRANCH  37  38
ATOM     38  C   UNL     1       3.193 -10.048  -3.970  1.00  0.00     0.338 C 
ATOM     39  O   UNL     1       3.799 -11.097  -4.003  1.00  0.00    -0.246 OA
BRANCH  38  40
ATOM     40  C   UNL     1       2.818  -9.330  -2.733  1.00  0.00     0.060 A 
ATOM     41  C   UNL     1       3.810  -9.072  -1.779  1.00  0.00     0.016 A 
ATOM     42  C   UNL     1       1.502  -8.914  -2.520  1.00  0.00     0.016 A 
ATOM     43  C   UNL     1       3.477  -8.431  -0.586  1.00  0.00     0.010 A 
ATOM     44  C   UNL     1       1.167  -8.290  -1.315  1.00  0.00     0.010 A 
ATOM     45  C   UNL     1       2.146  -8.080  -0.327  1.00  0.00    -0.014 A 
BRANCH  45  46
ATOM     46  C   UNL     1       1.749  -7.699   1.052  1.00  0.00     0.031 A 
ATOM     47  C   UNL     1       1.148  -8.761   1.937  1.00  0.00     0.074 A 
ATOM     48  C   UNL     1       1.960  -6.459   1.529  1.00  0.00     0.049 A 
ATOM     49  N   UNL     1       0.724  -8.673   3.171  1.00  0.00    -0.248 NA
ATOM     50  C   UNL     1       1.006 -10.105   1.348  1.00  0.00     0.031 C 
ATOM     51  C   UNL     1       2.570  -5.353   0.791  1.00  0.00     0.029 A 
ATOM     52  N   UNL     1       1.681  -5.925   2.763  1.00  0.00    -0.354 N 
ATOM     53  C   UNL     1       0.256  -9.941   3.501  1.00  0.00     0.074 A 
ATOM     54  C   UNL     1       0.419 -10.772   2.329  1.00  0.00     0.031 C 
ATOM     55  C   UNL     1       2.626  -4.272   1.592  1.00  0.00     0.029 A 
ATOM     56  C   UNL     1       2.031  -4.601   2.886  1.00  0.00     0.049 A 
ATOM     57  H   UNL     1       1.270  -6.443   3.493  1.00  0.00     0.167 HD
ATOM     58  C   UNL     1      -0.260 -10.377   4.675  1.00  0.00     0.031 A 
ATOM     59  C   UNL     1       1.871  -3.752   3.920  1.00  0.00     0.031 A 
ATOM     60  C   UNL     1      -0.438  -9.542   5.834  1.00  0.00     0.049 A 
ATOM     61  C   UNL     1       1.207  -4.237   5.181  1.00  0.00     0.074 A 
ATOM     62  C   UNL     1      -0.938  -9.892   7.076  1.00  0.00     0.029 A 
ATOM     63  N   UNL     1      -0.134  -8.191   5.891  1.00  0.00    -0.354 N 
ATOM     64  N   UNL     1       0.777  -5.439   5.481  1.00  0.00    -0.248 NA
ATOM     65  C   UNL     1       1.007  -3.241   6.244  1.00  0.00     0.031 C 
ATOM     66  C   UNL     1      -1.001  -8.737   7.862  1.00  0.00     0.029 A 
ATOM     67  C   UNL     1      -0.466  -7.685   7.137  1.00  0.00     0.049 A 
ATOM     68  H   UNL     1       0.260  -7.668   5.155  1.00  0.00     0.167 HD
ATOM     69  C   UNL     1       0.284  -5.350   6.780  1.00  0.00     0.074 A 
ATOM     70  C   UNL     1       0.480  -3.981   7.209  1.00  0.00     0.031 C 
ATOM     71  C   UNL     1      -0.273  -6.317   7.550  1.00  0.00     0.031 A 
BRANCH  58  72
ATOM     72  C   UNL     1      -0.709 -11.814   4.750  1.00  0.00    -0.014 A 
ATOM     73  C   UNL     1       0.215 -12.874   4.731  1.00  0.00     0.010 A 
ATOM     74  C   UNL     1      -2.079 -12.105   4.883  1.00  0.00     0.010 A 
ATOM     75  C   UNL     1      -0.225 -14.199   4.805  1.00  0.00     0.020 A 
ATOM     76  C   UNL     1      -2.521 -13.426   4.989  1.00  0.00     0.020 A 
ATOM     77  C   UNL     1      -1.592 -14.466   4.934  1.00  0.00     0.054 A 
BRANCH  77  78
ATOM     78  S   UNL     1      -2.132 -16.193   5.056  1.00  0.00     0.124 S 
ATOM     79  O   UNL     1      -1.884 -16.683   3.702  1.00  0.00    -0.237 OA
ATOM     80  O   UNL     1      -1.251 -16.731   6.089  1.00  0.00    -0.237 OA
ATOM     81  O   UNL     1      -3.540 -16.092   5.432  1.00  0.00    -0.744 OA
ENDBRANCH  77  78
ENDBRANCH  58  72
BRANCH  59  82
ATOM     82  C   UNL     1       2.307  -2.333   3.814  1.00  0.00    -0.014 A 
ATOM     83  C   UNL     1       3.419  -1.859   4.535  1.00  0.00     0.010 A 
ATOM     84  C   UNL     1       1.569  -1.434   3.029  1.00  0.00     0.010 A 
ATOM     85  C   UNL     1       3.794  -0.511   4.462  1.00  0.00     0.020 A 
ATOM     86  C   UNL     1       1.939  -0.090   2.964  1.00  0.00     0.020 A 
ATOM     87  C   UNL     1       3.054   0.363   3.666  1.00  0.00     0.054 A 
BRANCH  87  88
ATOM     88  S   UNL     1       3.594   2.084   3.465  1.00  0.00     0.124 S 
ATOM     89  O   UNL     1       3.088   2.708   4.683  1.00  0.00    -0.237 OA
ATOM     90  O   UNL     1       5.046   1.955   3.372  1.00  0.00    -0.237 OA
ATOM     91  O   UNL     1       2.936   2.497   2.226  1.00  0.00    -0.744 OA
ENDBRANCH  87  88
ENDBRANCH  59  82
BRANCH  71  92
ATOM     92  C   UNL     1      -0.664  -5.944   8.957  1.00  0.00    -0.014 A 
ATOM     93  C   UNL     1      -1.745  -5.083   9.219  1.00  0.00     0.010 A 
ATOM     94  C   UNL     1       0.049  -6.494  10.038  1.00  0.00     0.010 A 
ATOM     95  C   UNL     1      -2.076  -4.745  10.535  1.00  0.00     0.020 A 
ATOM     96  C   UNL     1      -0.300  -6.187  11.355  1.00  0.00     0.020 A 
ATOM     97  C   UNL     1      -1.349  -5.299  11.594  1.00  0.00     0.054 A 
BRANCH  97  98
ATOM     98  S   UNL     1      -1.813  -4.864  13.293  1.00  0.00     0.124 S 
ATOM     99  O   UNL     1      -1.361  -3.478  13.386  1.00  0.00    -0.237 OA
ATOM    100  O   UNL     1      -3.262  -5.053  13.287  1.00  0.00    -0.237 OA
ATOM    101  O   UNL     1      -1.069  -5.818  14.111  1.00  0.00    -0.744 OA
ENDBRANCH  97  98
ENDBRANCH  71  92
ENDBRANCH  45  46
ENDBRANCH  38  40
ENDBRANCH  37  38
ENDBRANCH  36  37
ENDBRANCH  35  36
ENDBRANCH  34  35
ENDBRANCH  33  34
ENDBRANCH  32  33
ENDBRANCH  31  32
ENDBRANCH   1  31
TORSDOF 29
