REMARK SMILES COc1cc(OC)cc(-c2ccc([C@@H](C)C(=O)OCCOCCOCCOCCOC(=O)c3ccc(-c4c5nc(c(-c6ccc(S(=O)(=O)[O-])cc6)c6ccc([nH]6)c(-c6ccc(S(=O)(=O)[O-])cc6)c6nc(c(-c7ccc(S(=O)(=O)[O-])cc7)c7ccc4[nH]7)C=C6)C=C5)cc3)cc2F)c1
REMARK SMILES IDX 24 1 23 2 22 3 21 4 20 5 19 6 18 7 16 8 17 9 14 10 15 11
REMARK SMILES IDX 13 12 10 13 11 14 94 15 12 16 93 17 95 18 9 19 3 20 4 21
REMARK SMILES IDX 96 22 5 23 8 24 2 25 1 26 6 27 7 28 25 29 26 30 27 31 28 32
REMARK SMILES IDX 29 33 30 34 31 35 32 36 33 37 34 38 92 39 35 40 91 41 36 42
REMARK SMILES IDX 37 43 38 44 85 45 39 46 90 47 84 48 86 49 40 50 89 51 83 52
REMARK SMILES IDX 82 53 41 55 71 56 52 57 70 58 53 59 56 60 69 61 87 62 54 63
REMARK SMILES IDX 55 64 68 66 88 67 57 68 42 69 43 70 51 71 44 72 50 73 45 74
REMARK SMILES IDX 46 75 47 76 48 77 49 78 72 79 73 80 81 81 74 82 80 83 75 84
REMARK SMILES IDX 76 85 77 86 78 87 79 88 58 89 59 90 67 91 60 92 66 93 61 94
REMARK SMILES IDX 62 95 63 96 64 97 65 98
REMARK H PARENT 86 54 56 65
REMARK Flexibility Score: inf
ROOT
ATOM      1  O   UNL     1       6.807  -3.980   2.936  1.00  0.00    -0.377 OA
ENDROOT
BRANCH   1   2
ATOM      2  C   UNL     1       7.424  -2.780   2.521  1.00  0.00     0.188 C 
BRANCH   2   3
ATOM      3  C   UNL     1       8.933  -2.869   2.256  1.00  0.00     0.188 C 
BRANCH   3   4
ATOM      4  O   UNL     1       9.609  -4.118   2.252  1.00  0.00    -0.376 OA
BRANCH   4   5
ATOM      5  C   UNL     1       9.235  -5.149   3.156  1.00  0.00     0.202 C 
BRANCH   5   6
ATOM      6  C   UNL     1       9.141  -4.883   4.671  1.00  0.00     0.261 C 
BRANCH   6   7
ATOM      7  O   UNL     1       8.372  -3.735   5.088  1.00  0.00    -0.463 OA
BRANCH   7   8
ATOM      8  C   UNL     1       9.075  -2.663   5.519  1.00  0.00     0.313 C 
ATOM      9  O   UNL     1      10.304  -2.636   5.579  1.00  0.00    -0.252 OA
BRANCH   8  10
ATOM     10  C   UNL     1       8.248  -1.456   5.962  1.00  0.00     0.126 C 
ATOM     11  C   UNL     1       8.339  -1.338   7.479  1.00  0.00     0.025 C 
BRANCH  10  12
ATOM     12  C   UNL     1       6.813  -1.254   5.471  1.00  0.00    -0.031 A 
ATOM     13  C   UNL     1       4.164  -0.775   4.460  1.00  0.00     0.018 A 
ATOM     14  C   UNL     1       4.482  -1.938   5.187  1.00  0.00     0.012 A 
ATOM     15  C   UNL     1       5.205   0.131   4.239  1.00  0.00     0.131 A 
ATOM     16  C   UNL     1       5.779  -2.173   5.688  1.00  0.00     0.005 A 
ATOM     17  C   UNL     1       6.494  -0.088   4.743  1.00  0.00     0.044 A 
ATOM     18  F   UNL     1       4.983   1.264   3.554  1.00  0.00    -0.206 F 
BRANCH  13  19
ATOM     19  C   UNL     1       2.770  -0.464   4.071  1.00  0.00    -0.008 A 
ATOM     20  C   UNL     1       1.060   0.181   2.452  1.00  0.00     0.123 A 
ATOM     21  C   UNL     1       0.131   0.307   3.487  1.00  0.00     0.092 A 
ATOM     22  C   UNL     1       2.378  -0.196   2.743  1.00  0.00     0.055 A 
ATOM     23  C   UNL     1       0.495   0.053   4.806  1.00  0.00     0.123 A 
ATOM     24  C   UNL     1       1.801  -0.348   5.087  1.00  0.00     0.055 A 
BRANCH  20  25
ATOM     25  O   UNL     1       0.577   0.539   1.222  1.00  0.00    -0.497 OA
ATOM     26  C   UNL     1       1.176  -0.077   0.092  1.00  0.00     0.278 C 
ENDBRANCH  20  25
BRANCH  23  27
ATOM     27  O   UNL     1      -0.495   0.245   5.731  1.00  0.00    -0.497 OA
ATOM     28  C   UNL     1      -0.085   0.285   7.093  1.00  0.00     0.278 C 
ENDBRANCH  23  27
ENDBRANCH  13  19
ENDBRANCH  10  12
ENDBRANCH   8  10
ENDBRANCH   7   8
ENDBRANCH   6   7
ENDBRANCH   5   6
ENDBRANCH   4   5
ENDBRANCH   3   4
ENDBRANCH   2   3
ENDBRANCH   1   2
BRANCH   1  29
ATOM     29  C   UNL     1       6.063  -4.687   1.958  1.00  0.00     0.188 C 
BRANCH  29  30
ATOM     30  C   UNL     1       6.646  -4.734   0.534  1.00  0.00     0.188 C 
BRANCH  30  31
ATOM     31  O   UNL     1       6.972  -3.456  -0.000  1.00  0.00    -0.376 OA
BRANCH  31  32
ATOM     32  C   UNL     1       6.022  -2.793  -0.823  1.00  0.00     0.202 C 
BRANCH  32  33
ATOM     33  C   UNL     1       4.694  -2.333  -0.192  1.00  0.00     0.261 C 
BRANCH  33  34
ATOM     34  O   UNL     1       3.870  -3.338   0.416  1.00  0.00    -0.460 OA
BRANCH  34  35
ATOM     35  C   UNL     1       3.501  -4.393  -0.337  1.00  0.00     0.338 C 
ATOM     36  O   UNL     1       3.729  -4.555  -1.526  1.00  0.00    -0.246 OA
BRANCH  35  37
ATOM     37  C   UNL     1       2.946  -5.433   0.557  1.00  0.00     0.060 A 
ATOM     38  C   UNL     1       3.533  -6.706   0.556  1.00  0.00     0.016 A 
ATOM     39  C   UNL     1       1.846  -5.164   1.375  1.00  0.00     0.016 A 
ATOM     40  C   UNL     1       2.983  -7.732   1.324  1.00  0.00     0.010 A 
ATOM     41  C   UNL     1       1.280  -6.201   2.125  1.00  0.00     0.010 A 
ATOM     42  C   UNL     1       1.817  -7.500   2.063  1.00  0.00    -0.014 A 
BRANCH  42  43
ATOM     43  C   UNL     1       1.023  -8.657   2.548  1.00  0.00     0.031 A 
ATOM     44  C   UNL     1      -0.138  -9.117   1.703  1.00  0.00     0.074 A 
ATOM     45  C   UNL     1       1.336  -9.311   3.680  1.00  0.00     0.049 A 
ATOM     46  N   UNL     1      -1.001 -10.073   1.926  1.00  0.00    -0.248 NA
ATOM     47  C   UNL     1      -0.350  -8.399   0.434  1.00  0.00     0.031 C 
ATOM     48  C   UNL     1       2.469  -9.005   4.553  1.00  0.00     0.029 A 
ATOM     49  N   UNL     1       0.718 -10.375   4.291  1.00  0.00    -0.354 N 
ATOM     50  C   UNL     1      -1.866 -10.061   0.836  1.00  0.00     0.074 A 
ATOM     51  C   UNL     1      -1.442  -8.985  -0.031  1.00  0.00     0.031 C 
ATOM     52  C   UNL     1       2.458  -9.858   5.593  1.00  0.00     0.029 A 
ATOM     53  C   UNL     1       1.300 -10.744   5.480  1.00  0.00     0.049 A 
ATOM     54  H   UNL     1      -0.068 -10.831   3.912  1.00  0.00     0.167 HD
ATOM     55  C   UNL     1      -2.916 -10.874   0.576  1.00  0.00     0.031 A 
ATOM     56  C   UNL     1       0.927 -11.674   6.383  1.00  0.00     0.031 A 
ATOM     57  C   UNL     1      -3.343 -11.935   1.448  1.00  0.00     0.049 A 
ATOM     58  C   UNL     1      -0.297 -12.515   6.114  1.00  0.00     0.074 A 
ATOM     59  C   UNL     1      -4.391 -12.822   1.273  1.00  0.00     0.029 A 
ATOM     60  N   UNL     1      -2.751 -12.249   2.662  1.00  0.00    -0.354 N 
ATOM     61  N   UNL     1      -1.097 -12.501   5.073  1.00  0.00    -0.248 NA
ATOM     62  C   UNL     1      -0.663 -13.504   7.138  1.00  0.00     0.031 C 
ATOM     63  C   UNL     1      -4.473 -13.628   2.412  1.00  0.00     0.029 A 
ATOM     64  C   UNL     1      -3.428 -13.298   3.260  1.00  0.00     0.049 A 
ATOM     65  H   UNL     1      -1.966 -11.793   3.042  1.00  0.00     0.167 HD
ATOM     66  C   UNL     1      -2.034 -13.506   5.300  1.00  0.00     0.074 A 
ATOM     67  C   UNL     1      -1.696 -14.112   6.571  1.00  0.00     0.031 C 
ATOM     68  C   UNL     1      -3.075 -13.897   4.523  1.00  0.00     0.031 A 
BRANCH  55  69
ATOM     69  C   UNL     1      -3.701 -10.619  -0.684  1.00  0.00    -0.014 A 
ATOM     70  C   UNL     1      -3.153 -10.874  -1.954  1.00  0.00     0.010 A 
ATOM     71  C   UNL     1      -5.023 -10.148  -0.593  1.00  0.00     0.010 A 
ATOM     72  C   UNL     1      -3.900 -10.627  -3.110  1.00  0.00     0.020 A 
ATOM     73  C   UNL     1      -5.785  -9.930  -1.744  1.00  0.00     0.020 A 
ATOM     74  C   UNL     1      -5.212 -10.158  -2.996  1.00  0.00     0.054 A 
BRANCH  74  75
ATOM     75  S   UNL     1      -6.167  -9.875  -4.512  1.00  0.00     0.124 S 
ATOM     76  O   UNL     1      -5.504  -8.700  -5.071  1.00  0.00    -0.237 OA
ATOM     77  O   UNL     1      -5.968 -11.119  -5.250  1.00  0.00    -0.237 OA
ATOM     78  O   UNL     1      -7.527  -9.650  -4.029  1.00  0.00    -0.744 OA
ENDBRANCH  74  75
ENDBRANCH  55  69
BRANCH  56  79
ATOM     79  C   UNL     1       1.706 -11.851   7.642  1.00  0.00    -0.014 A 
ATOM     80  C   UNL     1       2.425 -13.034   7.886  1.00  0.00     0.010 A 
ATOM     81  C   UNL     1       1.718 -10.834   8.615  1.00  0.00     0.010 A 
ATOM     82  C   UNL     1       3.124 -13.205   9.085  1.00  0.00     0.020 A 
ATOM     83  C   UNL     1       2.442 -10.988   9.801  1.00  0.00     0.020 A 
ATOM     84  C   UNL     1       3.131 -12.178  10.034  1.00  0.00     0.054 A 
BRANCH  84  85
ATOM     85  S   UNL     1       4.085 -12.404  11.561  1.00  0.00     0.124 S 
ATOM     86  O   UNL     1       3.292 -13.402  12.271  1.00  0.00    -0.237 OA
ATOM     87  O   UNL     1       5.378 -12.861  11.057  1.00  0.00    -0.237 OA
ATOM     88  O   UNL     1       4.094 -11.070  12.158  1.00  0.00    -0.744 OA
ENDBRANCH  84  85
ENDBRANCH  56  79
BRANCH  68  89
ATOM     89  C   UNL     1      -3.897 -15.073   4.988  1.00  0.00    -0.014 A 
ATOM     90  C   UNL     1      -4.753 -14.985   6.100  1.00  0.00     0.010 A 
ATOM     91  C   UNL     1      -3.853 -16.274   4.254  1.00  0.00     0.010 A 
ATOM     92  C   UNL     1      -5.521 -16.086   6.489  1.00  0.00     0.020 A 
ATOM     93  C   UNL     1      -4.644 -17.366   4.619  1.00  0.00     0.020 A 
ATOM     94  C   UNL     1      -5.463 -17.269   5.745  1.00  0.00     0.054 A 
BRANCH  94  95
ATOM     95  S   UNL     1      -6.500 -18.670   6.248  1.00  0.00     0.124 S 
ATOM     96  O   UNL     1      -5.839 -19.114   7.472  1.00  0.00    -0.237 OA
ATOM     97  O   UNL     1      -7.809 -18.048   6.431  1.00  0.00    -0.237 OA
ATOM     98  O   UNL     1      -6.407 -19.594   5.120  1.00  0.00    -0.744 OA
ENDBRANCH  94  95
ENDBRANCH  68  89
ENDBRANCH  42  43
ENDBRANCH  35  37
ENDBRANCH  34  35
ENDBRANCH  33  34
ENDBRANCH  32  33
ENDBRANCH  31  32
ENDBRANCH  30  31
ENDBRANCH  29  30
ENDBRANCH   1  29
TORSDOF 27
