REMARK SMILES COc1ccc(NC(=O)[C@H]2[C@@H]3CC[C@@H](C3)[C@@H]2C(=O)OCCOCCOCCOCCOC(=O)c2ccc(-c3c4nc(c(-c5ccc(S(=O)(=O)[O-])cc5)c5ccc([nH]5)c(-c5ccc(S(=O)(=O)[O-])cc5)c5nc(c(-c6ccc(S(=O)(=O)[O-])cc6)c6ccc3[nH]6)C=C5)C=C4)cc2)c(C)c1
REMARK SMILES IDX 25 1 24 2 23 3 22 4 21 5 20 6 19 7 17 8 18 9 16 10 10 11
REMARK SMILES IDX 11 12 12 13 15 14 14 15 13 16 8 17 7 18 9 20 6 21 3 22 4 23
REMARK SMILES IDX 96 24 5 25 94 26 95 27 2 28 1 29 26 30 27 31 28 32 29 33
REMARK SMILES IDX 30 34 31 35 32 36 33 37 34 38 35 39 93 40 36 41 92 42 37 43
REMARK SMILES IDX 38 44 39 45 86 46 40 47 91 48 85 49 87 50 41 51 90 52 84 53
REMARK SMILES IDX 83 54 42 56 72 57 53 58 71 59 54 60 57 61 70 62 88 63 55 64
REMARK SMILES IDX 56 65 69 67 89 68 58 69 43 70 44 71 52 72 45 73 51 74 46 75
REMARK SMILES IDX 47 76 48 77 49 78 50 79 73 80 74 81 82 82 75 83 81 84 76 85
REMARK SMILES IDX 77 86 78 87 79 88 80 89 59 90 60 91 68 92 61 93 67 94 62 95
REMARK SMILES IDX 63 96 64 97 65 98 66 99
REMARK H PARENT 7 19 87 55 57 66
REMARK Flexibility Score: inf
ROOT
ATOM      1  O   UNL     1       9.753   4.991  -4.314  1.00  0.00    -0.377 OA
ENDROOT
BRANCH   1   2
ATOM      2  C   UNL     1       9.456   6.141  -5.093  1.00  0.00     0.188 C 
BRANCH   2   3
ATOM      3  C   UNL     1       8.629   7.232  -4.405  1.00  0.00     0.188 C 
BRANCH   3   4
ATOM      4  O   UNL     1       7.425   6.782  -3.819  1.00  0.00    -0.376 OA
BRANCH   4   5
ATOM      5  C   UNL     1       7.542   6.315  -2.472  1.00  0.00     0.202 C 
BRANCH   5   6
ATOM      6  C   UNL     1       7.636   4.801  -2.373  1.00  0.00     0.261 C 
BRANCH   6   7
ATOM      7  O   UNL     1       6.959   4.086  -3.401  1.00  0.00    -0.463 OA
BRANCH   7   8
ATOM      8  C   UNL     1       5.805   4.535  -3.922  1.00  0.00     0.310 C 
ATOM      9  O   UNL     1       5.027   5.345  -3.439  1.00  0.00    -0.252 OA
BRANCH   8  10
ATOM     10  C   UNL     1       5.576   3.903  -5.261  1.00  0.00     0.115 C 
ATOM     11  C   UNL     1       4.345   2.986  -5.211  1.00  0.00     0.096 C 
ATOM     12  C   UNL     1       4.846   1.744  -5.997  1.00  0.00     0.003 C 
ATOM     13  C   UNL     1       5.725   0.902  -5.058  1.00  0.00     0.005 C 
ATOM     14  C   UNL     1       5.899   2.327  -6.952  1.00  0.00     0.009 C 
ATOM     15  C   UNL     1       6.689   2.982  -5.823  1.00  0.00     0.004 C 
ATOM     16  C   UNL     1       7.001   1.738  -4.957  1.00  0.00     0.005 C 
BRANCH  11  17
ATOM     17  C   UNL     1       3.118   3.576  -5.879  1.00  0.00     0.228 C 
ATOM     18  N   UNL     1       1.849   3.191  -5.552  1.00  0.00    -0.326 N 
ATOM     19  H   UNL     1       1.166   3.702  -6.044  1.00  0.00     0.169 HD
ATOM     20  O   UNL     1       3.227   4.409  -6.787  1.00  0.00    -0.274 OA
BRANCH  18  21
ATOM     21  C   UNL     1       1.279   2.236  -4.681  1.00  0.00     0.044 A 
ATOM     22  C   UNL     1       0.090   0.377  -2.902  1.00  0.00     0.119 A 
ATOM     23  C   UNL     1       1.452   0.339  -3.141  1.00  0.00     0.048 A 
ATOM     24  C   UNL     1      -0.694   1.303  -3.579  1.00  0.00     0.052 A 
ATOM     25  C   UNL     1       2.026   1.250  -4.030  1.00  0.00     0.030 A 
ATOM     26  C   UNL     1      -0.118   2.252  -4.455  1.00  0.00    -0.024 A 
ATOM     27  C   UNL     1      -1.080   3.222  -5.093  1.00  0.00     0.047 C 
BRANCH  22  28
ATOM     28  O   UNL     1      -0.540  -0.507  -2.071  1.00  0.00    -0.497 OA
ATOM     29  C   UNL     1       0.071  -0.553  -0.782  1.00  0.00     0.278 C 
ENDBRANCH  22  28
ENDBRANCH  18  21
ENDBRANCH  11  17
ENDBRANCH   8  10
ENDBRANCH   7   8
ENDBRANCH   6   7
ENDBRANCH   5   6
ENDBRANCH   4   5
ENDBRANCH   3   4
ENDBRANCH   2   3
ENDBRANCH   1   2
BRANCH   1  30
ATOM     30  C   UNL     1      11.067   4.881  -3.766  1.00  0.00     0.188 C 
BRANCH  30  31
ATOM     31  C   UNL     1      11.201   5.401  -2.327  1.00  0.00     0.188 C 
BRANCH  31  32
ATOM     32  O   UNL     1      10.784   6.760  -2.214  1.00  0.00    -0.376 OA
BRANCH  32  33
ATOM     33  C   UNL     1      11.758   7.734  -2.568  1.00  0.00     0.202 C 
BRANCH  33  34
ATOM     34  C   UNL     1      12.635   8.100  -1.372  1.00  0.00     0.261 C 
BRANCH  34  35
ATOM     35  O   UNL     1      11.771   8.593  -0.336  1.00  0.00    -0.460 OA
BRANCH  35  36
ATOM     36  C   UNL     1      11.642   7.762   0.734  1.00  0.00     0.338 C 
ATOM     37  O   UNL     1      12.564   7.199   1.292  1.00  0.00    -0.246 OA
BRANCH  36  38
ATOM     38  C   UNL     1      10.195   7.592   1.053  1.00  0.00     0.060 A 
ATOM     39  C   UNL     1       9.780   6.537   1.875  1.00  0.00     0.016 A 
ATOM     40  C   UNL     1       9.232   8.387   0.430  1.00  0.00     0.016 A 
ATOM     41  C   UNL     1       8.411   6.255   2.038  1.00  0.00     0.010 A 
ATOM     42  C   UNL     1       7.882   8.074   0.557  1.00  0.00     0.010 A 
ATOM     43  C   UNL     1       7.444   6.998   1.348  1.00  0.00    -0.014 A 
BRANCH  43  44
ATOM     44  C   UNL     1       6.033   6.584   1.179  1.00  0.00     0.031 A 
ATOM     45  C   UNL     1       4.855   7.518   1.130  1.00  0.00     0.074 A 
ATOM     46  C   UNL     1       5.802   5.393   0.578  1.00  0.00     0.049 A 
ATOM     47  N   UNL     1       3.627   7.116   0.958  1.00  0.00    -0.248 NA
ATOM     48  C   UNL     1       4.926   8.968   1.305  1.00  0.00     0.031 C 
ATOM     49  C   UNL     1       4.790   5.212  -0.457  1.00  0.00     0.029 A 
ATOM     50  N   UNL     1       6.403   4.147   0.659  1.00  0.00    -0.354 N 
ATOM     51  C   UNL     1       2.917   8.198   0.496  1.00  0.00     0.074 A 
ATOM     52  C   UNL     1       3.680   9.332   0.971  1.00  0.00     0.031 C 
ATOM     53  C   UNL     1       4.689   3.924  -0.761  1.00  0.00     0.029 A 
ATOM     54  C   UNL     1       5.554   3.183   0.119  1.00  0.00     0.049 A 
ATOM     55  H   UNL     1       7.294   3.970   1.039  1.00  0.00     0.167 HD
ATOM     56  C   UNL     1       1.886   8.047  -0.393  1.00  0.00     0.031 A 
ATOM     57  C   UNL     1       5.352   1.895   0.485  1.00  0.00     0.031 A 
ATOM     58  C   UNL     1       1.526   6.641  -0.704  1.00  0.00     0.049 A 
ATOM     59  C   UNL     1       3.878   1.677   0.740  1.00  0.00     0.074 A 
ATOM     60  C   UNL     1       1.281   5.939  -1.875  1.00  0.00     0.029 A 
ATOM     61  N   UNL     1       1.489   5.674   0.303  1.00  0.00    -0.354 N 
ATOM     62  N   UNL     1       2.943   2.359   0.132  1.00  0.00    -0.248 NA
ATOM     63  C   UNL     1       3.324   0.860   1.817  1.00  0.00     0.031 C 
ATOM     64  C   UNL     1       1.024   4.574  -1.546  1.00  0.00     0.029 A 
ATOM     65  C   UNL     1       1.106   4.428  -0.176  1.00  0.00     0.049 A 
ATOM     66  H   UNL     1       1.709   5.855   1.245  1.00  0.00     0.167 HD
ATOM     67  C   UNL     1       1.819   2.380   0.909  1.00  0.00     0.074 A 
ATOM     68  C   UNL     1       2.058   1.322   1.881  1.00  0.00     0.031 C 
ATOM     69  C   UNL     1       0.844   3.332   0.762  1.00  0.00     0.031 A 
BRANCH  56  70
ATOM     70  C   UNL     1       1.232   9.226  -1.129  1.00  0.00    -0.014 A 
ATOM     71  C   UNL     1       0.014   9.053  -1.825  1.00  0.00     0.010 A 
ATOM     72  C   UNL     1       1.781  10.524  -1.198  1.00  0.00     0.010 A 
ATOM     73  C   UNL     1      -0.634  10.116  -2.491  1.00  0.00     0.020 A 
ATOM     74  C   UNL     1       1.121  11.606  -1.806  1.00  0.00     0.020 A 
ATOM     75  C   UNL     1      -0.088  11.397  -2.454  1.00  0.00     0.054 A 
BRANCH  75  76
ATOM     76  S   UNL     1      -0.966  12.789  -3.219  1.00  0.00     0.124 S 
ATOM     77  O   UNL     1      -0.789  12.528  -4.645  1.00  0.00    -0.237 OA
ATOM     78  O   UNL     1      -2.327  12.634  -2.713  1.00  0.00    -0.237 OA
ATOM     79  O   UNL     1      -0.257  13.965  -2.714  1.00  0.00    -0.744 OA
ENDBRANCH  75  76
ENDBRANCH  56  70
BRANCH  57  80
ATOM     80  C   UNL     1       6.586   1.200   0.927  1.00  0.00    -0.014 A 
ATOM     81  C   UNL     1       7.362   0.715  -0.156  1.00  0.00     0.010 A 
ATOM     82  C   UNL     1       7.249   1.559   2.114  1.00  0.00     0.010 A 
ATOM     83  C   UNL     1       8.757   0.818  -0.148  1.00  0.00     0.020 A 
ATOM     84  C   UNL     1       8.652   1.673   2.119  1.00  0.00     0.020 A 
ATOM     85  C   UNL     1       9.387   1.366   0.966  1.00  0.00     0.054 A 
BRANCH  85  86
ATOM     86  S   UNL     1      11.105   1.966   0.815  1.00  0.00     0.124 S 
ATOM     87  O   UNL     1      11.863   0.888   1.440  1.00  0.00    -0.237 OA
ATOM     88  O   UNL     1      11.295   2.117  -0.627  1.00  0.00    -0.237 OA
ATOM     89  O   UNL     1      11.061   3.225   1.556  1.00  0.00    -0.744 OA
ENDBRANCH  85  86
ENDBRANCH  57  80
BRANCH  69  90
ATOM     90  C   UNL     1      -0.459   3.355   1.533  1.00  0.00    -0.014 A 
ATOM     91  C   UNL     1      -1.114   2.195   1.976  1.00  0.00     0.010 A 
ATOM     92  C   UNL     1      -1.150   4.579   1.711  1.00  0.00     0.010 A 
ATOM     93  C   UNL     1      -2.348   2.262   2.641  1.00  0.00     0.020 A 
ATOM     94  C   UNL     1      -2.388   4.658   2.354  1.00  0.00     0.020 A 
ATOM     95  C   UNL     1      -2.969   3.496   2.841  1.00  0.00     0.054 A 
BRANCH  95  96
ATOM     96  S   UNL     1      -4.546   3.556   3.726  1.00  0.00     0.124 S 
ATOM     97  O   UNL     1      -5.353   2.576   3.004  1.00  0.00    -0.237 OA
ATOM     98  O   UNL     1      -4.147   3.165   5.077  1.00  0.00    -0.237 OA
ATOM     99  O   UNL     1      -4.979   4.943   3.583  1.00  0.00    -0.744 OA
ENDBRANCH  95  96
ENDBRANCH  69  90
ENDBRANCH  43  44
ENDBRANCH  36  38
ENDBRANCH  35  36
ENDBRANCH  34  35
ENDBRANCH  33  34
ENDBRANCH  32  33
ENDBRANCH  31  32
ENDBRANCH  30  31
ENDBRANCH   1  30
TORSDOF 26
