REMARK SMILES O=C(C[C@@H]1CSCC[NH2+]1)NC[C@@H](C(=O)OCCOCCOCCOCCOC(=O)c1ccc(-c2c3nc(c(-c4ccc(S(=O)(=O)[O-])cc4)c4ccc([nH]4)c(-c4ccc(S(=O)(=O)[O-])cc4)c4nc(c(-c5ccc(S(=O)(=O)[O-])cc5)c5ccc2[nH]5)C=C4)C=C3)cc1)c1ccccc1
REMARK SMILES IDX 20 1 19 2 18 3 17 4 16 5 15 6 13 7 14 8 12 9 11 10 10 11
REMARK SMILES IDX 1 12 2 13 3 15 4 16 5 17 9 18 6 19 8 20 7 23 90 24 91 25
REMARK SMILES IDX 95 26 92 27 94 28 93 29 21 30 22 31 23 32 24 33 25 34 26 35
REMARK SMILES IDX 27 36 28 37 29 38 30 39 31 40 89 41 32 42 88 43 33 44 34 45
REMARK SMILES IDX 35 46 82 47 36 48 87 49 81 50 83 51 37 52 86 53 80 54 79 55
REMARK SMILES IDX 38 57 68 58 49 59 67 60 50 61 53 62 66 63 84 64 51 65 52 66
REMARK SMILES IDX 65 68 85 69 54 70 39 71 40 72 48 73 41 74 47 75 42 76 43 77
REMARK SMILES IDX 44 78 45 79 46 80 69 81 70 82 78 83 71 84 77 85 72 86 73 87
REMARK SMILES IDX 74 88 75 89 76 90 55 91 56 92 64 93 57 94 63 95 58 96 59 97
REMARK SMILES IDX 60 98 61 99 62 100
REMARK H PARENT 10 14 9 21 9 22 83 56 53 67
REMARK Flexibility Score: inf
ROOT
ATOM      1  C   UNL     1       4.308  -2.041   3.927  1.00  0.00     0.188 C 
ENDROOT
BRANCH   1   2
ATOM      2  C   UNL     1       5.088  -3.339   4.146  1.00  0.00     0.188 C 
BRANCH   2   3
ATOM      3  O   UNL     1       6.404  -3.296   3.608  1.00  0.00    -0.376 OA
BRANCH   3   4
ATOM      4  C   UNL     1       6.633  -3.934   2.360  1.00  0.00     0.202 C 
BRANCH   4   5
ATOM      5  C   UNL     1       6.001  -3.323   1.095  1.00  0.00     0.261 C 
BRANCH   5   6
ATOM      6  O   UNL     1       4.606  -2.980   1.198  1.00  0.00    -0.463 OA
BRANCH   6   7
ATOM      7  C   UNL     1       3.680  -3.908   0.869  1.00  0.00     0.315 C 
ATOM      8  O   UNL     1       3.974  -5.033   0.475  1.00  0.00    -0.251 OA
BRANCH   7   9
ATOM      9  C   UNL     1       2.228  -3.459   1.147  1.00  0.00     0.148 C 
BRANCH   9  10
ATOM     10  C   UNL     1       1.926  -1.938   1.058  1.00  0.00     0.136 C 
BRANCH  10  11
ATOM     11  N   UNL     1       2.476  -1.163  -0.045  1.00  0.00    -0.355 N 
ATOM     12  O   UNL     1       0.644   0.209  -0.191  1.00  0.00    -0.275 OA
ATOM     13  C   UNL     1       1.805  -0.045  -0.514  1.00  0.00     0.226 C 
ATOM     14  H   UNL     1       3.327  -1.434  -0.460  1.00  0.00     0.163 HD
BRANCH  13  15
ATOM     15  C   UNL     1       2.574   0.869  -1.459  1.00  0.00     0.165 C 
BRANCH  15  16
ATOM     16  C   UNL     1       3.416   2.035  -0.875  1.00  0.00     0.201 C 
ATOM     17  C   UNL     1       4.858   1.648  -0.516  1.00  0.00     0.135 C 
ATOM     18  N   UNL     1       2.808   2.877   0.168  1.00  0.00    -0.342 N 
ATOM     19  S   UNL     1       4.928   0.550   0.910  1.00  0.00    -0.150 SA
ATOM     20  C   UNL     1       2.697   2.255   1.487  1.00  0.00     0.271 C 
ATOM     21  H   UNL     1       1.869   3.132  -0.140  1.00  0.00     0.346 HD
ATOM     22  H   UNL     1       3.431   3.677   0.285  1.00  0.00     0.346 HD
ATOM     23  C   UNL     1       3.941   1.565   2.062  1.00  0.00     0.131 C 
ENDBRANCH  15  16
ENDBRANCH  13  15
ENDBRANCH  10  11
ENDBRANCH   9  10
BRANCH   9  24
ATOM     24  C   UNL     1       1.703  -4.109   2.453  1.00  0.00    -0.032 A 
ATOM     25  C   UNL     1       1.152  -3.381   3.525  1.00  0.00     0.004 A 
ATOM     26  C   UNL     1       1.772  -5.507   2.600  1.00  0.00     0.004 A 
ATOM     27  C   UNL     1       0.748  -4.015   4.708  1.00  0.00     0.000 A 
ATOM     28  C   UNL     1       1.365  -6.141   3.780  1.00  0.00     0.000 A 
ATOM     29  C   UNL     1       0.861  -5.394   4.838  1.00  0.00     0.000 A 
ENDBRANCH   9  24
ENDBRANCH   7   9
ENDBRANCH   6   7
ENDBRANCH   5   6
ENDBRANCH   4   5
ENDBRANCH   3   4
ENDBRANCH   2   3
ENDBRANCH   1   2
BRANCH   1  30
ATOM     30  O   UNL     1       4.905  -0.814   4.280  1.00  0.00    -0.377 OA
BRANCH  30  31
ATOM     31  C   UNL     1       6.250  -0.588   3.902  1.00  0.00     0.188 C 
BRANCH  31  32
ATOM     32  C   UNL     1       7.225  -0.739   5.077  1.00  0.00     0.188 C 
BRANCH  32  33
ATOM     33  O   UNL     1       6.842  -0.423   6.418  1.00  0.00    -0.376 OA
BRANCH  33  34
ATOM     34  C   UNL     1       5.509  -0.051   6.720  1.00  0.00     0.202 C 
BRANCH  34  35
ATOM     35  C   UNL     1       5.080   1.384   6.353  1.00  0.00     0.261 C 
BRANCH  35  36
ATOM     36  O   UNL     1       5.600   1.946   5.136  1.00  0.00    -0.460 OA
BRANCH  36  37
ATOM     37  C   UNL     1       6.824   2.515   5.215  1.00  0.00     0.338 C 
ATOM     38  O   UNL     1       7.535   2.606   6.211  1.00  0.00    -0.246 OA
BRANCH  37  39
ATOM     39  C   UNL     1       7.250   2.975   3.876  1.00  0.00     0.060 A 
ATOM     40  C   UNL     1       8.402   2.432   3.290  1.00  0.00     0.016 A 
ATOM     41  C   UNL     1       6.551   3.995   3.226  1.00  0.00     0.016 A 
ATOM     42  C   UNL     1       8.878   2.928   2.072  1.00  0.00     0.010 A 
ATOM     43  C   UNL     1       7.029   4.494   2.011  1.00  0.00     0.010 A 
ATOM     44  C   UNL     1       8.220   3.995   1.450  1.00  0.00    -0.014 A 
BRANCH  44  45
ATOM     45  C   UNL     1       8.877   4.759   0.358  1.00  0.00     0.031 A 
ATOM     46  C   UNL     1       9.534   6.067   0.710  1.00  0.00     0.074 A 
ATOM     47  C   UNL     1       8.868   4.338  -0.919  1.00  0.00     0.049 A 
ATOM     48  N   UNL     1      10.031   6.987  -0.075  1.00  0.00    -0.248 NA
ATOM     49  C   UNL     1       9.630   6.378   2.145  1.00  0.00     0.031 C 
ATOM     50  C   UNL     1       8.332   3.063  -1.388  1.00  0.00     0.029 A 
ATOM     51  N   UNL     1       9.303   4.964  -2.063  1.00  0.00    -0.354 N 
ATOM     52  C   UNL     1      10.470   8.001   0.770  1.00  0.00     0.074 A 
ATOM     53  C   UNL     1      10.159   7.591   2.122  1.00  0.00     0.031 C 
ATOM     54  C   UNL     1       8.425   3.020  -2.729  1.00  0.00     0.029 A 
ATOM     55  C   UNL     1       8.993   4.280  -3.213  1.00  0.00     0.049 A 
ATOM     56  H   UNL     1       9.789   5.821  -2.058  1.00  0.00     0.167 HD
ATOM     57  C   UNL     1      11.072   9.172   0.451  1.00  0.00     0.031 A 
ATOM     58  C   UNL     1       9.113   4.641  -4.508  1.00  0.00     0.031 A 
ATOM     59  C   UNL     1      11.356   9.584  -0.897  1.00  0.00     0.049 A 
ATOM     60  C   UNL     1       9.711   5.980  -4.857  1.00  0.00     0.074 A 
ATOM     61  C   UNL     1      11.980  10.741  -1.328  1.00  0.00     0.029 A 
ATOM     62  N   UNL     1      11.018   8.863  -2.033  1.00  0.00    -0.354 N 
ATOM     63  N   UNL     1      10.140   6.923  -4.052  1.00  0.00    -0.248 NA
ATOM     64  C   UNL     1       9.850   6.302  -6.285  1.00  0.00     0.031 C 
ATOM     65  C   UNL     1      11.954  10.753  -2.726  1.00  0.00     0.029 A 
ATOM     66  C   UNL     1      11.390   9.565  -3.166  1.00  0.00     0.049 A 
ATOM     67  H   UNL     1      10.579   7.982  -2.033  1.00  0.00     0.167 HD
ATOM     68  C   UNL     1      10.634   7.933  -4.874  1.00  0.00     0.074 A 
ATOM     69  C   UNL     1      10.444   7.489  -6.240  1.00  0.00     0.031 C 
ATOM     70  C   UNL     1      11.205   9.112  -4.524  1.00  0.00     0.031 A 
BRANCH  57  71
ATOM     71  C   UNL     1      11.391  10.114   1.583  1.00  0.00    -0.014 A 
ATOM     72  C   UNL     1      12.357   9.801   2.557  1.00  0.00     0.010 A 
ATOM     73  C   UNL     1      10.694  11.332   1.682  1.00  0.00     0.010 A 
ATOM     74  C   UNL     1      12.565  10.652   3.647  1.00  0.00     0.020 A 
ATOM     75  C   UNL     1      10.926  12.204   2.749  1.00  0.00     0.020 A 
ATOM     76  C   UNL     1      11.839  11.843   3.740  1.00  0.00     0.054 A 
BRANCH  76  77
ATOM     77  S   UNL     1      12.104  12.913   5.180  1.00  0.00     0.124 S 
ATOM     78  O   UNL     1      11.460  12.148   6.245  1.00  0.00    -0.237 OA
ATOM     79  O   UNL     1      13.560  12.993   5.256  1.00  0.00    -0.237 OA
ATOM     80  O   UNL     1      11.432  14.158   4.816  1.00  0.00    -0.744 OA
ENDBRANCH  76  77
ENDBRANCH  57  71
BRANCH  58  81
ATOM     81  C   UNL     1       8.620   3.717  -5.566  1.00  0.00    -0.014 A 
ATOM     82  C   UNL     1       9.518   3.013  -6.386  1.00  0.00     0.010 A 
ATOM     83  C   UNL     1       7.238   3.489  -5.711  1.00  0.00     0.010 A 
ATOM     84  C   UNL     1       9.044   2.084  -7.319  1.00  0.00     0.020 A 
ATOM     85  C   UNL     1       6.762   2.543  -6.623  1.00  0.00     0.020 A 
ATOM     86  C   UNL     1       7.670   1.844  -7.419  1.00  0.00     0.054 A 
BRANCH  86  87
ATOM     87  S   UNL     1       7.088   0.547  -8.548  1.00  0.00     0.124 S 
ATOM     88  O   UNL     1       7.330   1.148  -9.855  1.00  0.00    -0.237 OA
ATOM     89  O   UNL     1       7.950  -0.580  -8.198  1.00  0.00    -0.237 OA
ATOM     90  O   UNL     1       5.683   0.382  -8.182  1.00  0.00    -0.744 OA
ENDBRANCH  86  87
ENDBRANCH  58  81
BRANCH  70  91
ATOM     91  C   UNL     1      11.731  10.006  -5.618  1.00  0.00    -0.014 A 
ATOM     92  C   UNL     1      10.871  10.756  -6.438  1.00  0.00     0.010 A 
ATOM     93  C   UNL     1      13.123  10.196  -5.732  1.00  0.00     0.010 A 
ATOM     94  C   UNL     1      11.393  11.680  -7.349  1.00  0.00     0.020 A 
ATOM     95  C   UNL     1      13.646  11.137  -6.621  1.00  0.00     0.020 A 
ATOM     96  C   UNL     1      12.777  11.874  -7.426  1.00  0.00     0.054 A 
BRANCH  96  97
ATOM     97  S   UNL     1      13.421  13.152  -8.542  1.00  0.00     0.124 S 
ATOM     98  O   UNL     1      13.176  12.563  -9.855  1.00  0.00    -0.237 OA
ATOM     99  O   UNL     1      12.597  14.311  -8.208  1.00  0.00    -0.237 OA
ATOM    100  O   UNL     1      14.828  13.266  -8.164  1.00  0.00    -0.744 OA
ENDBRANCH  96  97
ENDBRANCH  70  91
ENDBRANCH  44  45
ENDBRANCH  37  39
ENDBRANCH  36  37
ENDBRANCH  35  36
ENDBRANCH  34  35
ENDBRANCH  33  34
ENDBRANCH  32  33
ENDBRANCH  31  32
ENDBRANCH  30  31
ENDBRANCH   1  30
TORSDOF 28
