REMARK SMILES CC(=O)N[C@@H](CCc1nc2ccccc2[nH]1)C(=O)OCCOCCOCCOCCOC(=O)c1ccc(-c2c3nc(c(-c4ccc(S(=O)(=O)[O-])cc4)c4ccc([nH]4)c(-c4ccc(S(=O)(=O)[O-])cc4)c4nc(c(-c5ccc(S(=O)(=O)[O-])cc5)c5ccc2[nH]5)C=C4)C=C3)cc1
REMARK SMILES IDX 25 1 24 2 23 3 22 4 21 5 20 6 19 7 17 8 18 9 5 10 4 11 1 12
REMARK SMILES IDX 2 13 3 14 6 16 7 17 8 18 9 19 16 20 10 21 15 22 11 24 14 25
REMARK SMILES IDX 12 26 13 27 26 28 27 29 28 30 29 31 30 32 31 33 32 34 33 35
REMARK SMILES IDX 34 36 35 37 93 38 36 39 92 40 37 41 38 42 39 43 86 44 40 45
REMARK SMILES IDX 91 46 85 47 87 48 41 49 90 50 84 51 83 52 42 54 72 55 53 56
REMARK SMILES IDX 71 57 54 58 57 59 70 60 88 61 55 62 56 63 69 65 89 66 58 67
REMARK SMILES IDX 43 68 44 69 52 70 45 71 51 72 46 73 47 74 48 75 49 76 50 77
REMARK SMILES IDX 73 78 74 79 82 80 75 81 81 82 76 83 77 84 78 85 79 86 80 87
REMARK SMILES IDX 59 88 60 89 68 90 61 91 67 92 62 93 63 94 64 95 65 96 66 97
REMARK H PARENT 4 15 16 23 87 53 57 64
REMARK Flexibility Score: inf
ROOT
ATOM      1  O   UNL     1      -1.648   3.617   2.384  1.00  0.00    -0.377 OA
ENDROOT
BRANCH   1   2
ATOM      2  C   UNL     1      -1.363   2.279   2.010  1.00  0.00     0.188 C 
BRANCH   2   3
ATOM      3  C   UNL     1      -0.910   1.340   3.153  1.00  0.00     0.188 C 
BRANCH   3   4
ATOM      4  O   UNL     1      -1.016   1.731   4.516  1.00  0.00    -0.376 OA
BRANCH   4   5
ATOM      5  C   UNL     1      -0.721   3.070   4.866  1.00  0.00     0.202 C 
BRANCH   5   6
ATOM      6  C   UNL     1       0.553   3.729   4.349  1.00  0.00     0.261 C 
BRANCH   6   7
ATOM      7  O   UNL     1       0.980   3.424   3.016  1.00  0.00    -0.462 OA
BRANCH   7   8
ATOM      8  C   UNL     1       2.136   2.727   2.910  1.00  0.00     0.328 C 
ATOM      9  O   UNL     1       2.731   2.187   3.837  1.00  0.00    -0.250 OA
BRANCH   8  10
ATOM     10  C   UNL     1       2.699   2.768   1.484  1.00  0.00     0.192 C 
BRANCH  10  11
ATOM     11  N   UNL     1       1.739   2.822   0.366  1.00  0.00    -0.343 N 
ATOM     12  C   UNL     1       1.536   0.376   0.017  1.00  0.00     0.114 C 
ATOM     13  C   UNL     1       1.208   1.794  -0.361  1.00  0.00     0.217 C 
ATOM     14  O   UNL     1       0.428   2.040  -1.281  1.00  0.00    -0.275 OA
ATOM     15  H   UNL     1       1.439   3.723   0.108  1.00  0.00     0.164 HD
ENDBRANCH  10  11
BRANCH  10  16
ATOM     16  C   UNL     1       3.754   3.891   1.375  1.00  0.00     0.045 C 
BRANCH  16  17
ATOM     17  C   UNL     1       3.258   5.347   1.331  1.00  0.00     0.078 C 
BRANCH  17  18
ATOM     18  C   UNL     1       2.911   5.987   2.639  1.00  0.00     0.107 A 
ATOM     19  N   UNL     1       3.031   5.504   3.860  1.00  0.00    -0.233 NA
ATOM     20  N   UNL     1       2.338   7.242   2.679  1.00  0.00    -0.342 N 
ATOM     21  C   UNL     1       2.312   6.365   4.670  1.00  0.00     0.089 A 
ATOM     22  C   UNL     1       1.830   7.440   3.936  1.00  0.00     0.065 A 
ATOM     23  H   UNL     1       2.301   7.884   1.934  1.00  0.00     0.168 HD
ATOM     24  C   UNL     1       1.917   6.227   6.013  1.00  0.00     0.030 A 
ATOM     25  C   UNL     1       0.978   8.413   4.462  1.00  0.00     0.028 A 
ATOM     26  C   UNL     1       0.989   7.138   6.539  1.00  0.00     0.002 A 
ATOM     27  C   UNL     1       0.537   8.217   5.775  1.00  0.00     0.002 A 
ENDBRANCH  17  18
ENDBRANCH  16  17
ENDBRANCH  10  16
ENDBRANCH   8  10
ENDBRANCH   7   8
ENDBRANCH   6   7
ENDBRANCH   5   6
ENDBRANCH   4   5
ENDBRANCH   3   4
ENDBRANCH   2   3
ENDBRANCH   1   2
BRANCH   1  28
ATOM     28  C   UNL     1      -3.028   3.951   2.432  1.00  0.00     0.188 C 
BRANCH  28  29
ATOM     29  C   UNL     1      -3.908   3.026   3.295  1.00  0.00     0.188 C 
BRANCH  29  30
ATOM     30  O   UNL     1      -3.777   1.651   2.954  1.00  0.00    -0.376 OA
BRANCH  30  31
ATOM     31  C   UNL     1      -4.778   1.063   2.138  1.00  0.00     0.202 C 
BRANCH  31  32
ATOM     32  C   UNL     1      -4.865   1.532   0.675  1.00  0.00     0.261 C 
BRANCH  32  33
ATOM     33  O   UNL     1      -5.075   2.936   0.458  1.00  0.00    -0.460 OA
BRANCH  33  34
ATOM     34  C   UNL     1      -6.167   3.508   1.008  1.00  0.00     0.338 C 
ATOM     35  O   UNL     1      -7.054   2.943   1.625  1.00  0.00    -0.246 OA
BRANCH  34  36
ATOM     36  C   UNL     1      -5.999   4.977   0.932  1.00  0.00     0.060 A 
ATOM     37  C   UNL     1      -6.036   5.726   2.116  1.00  0.00     0.016 A 
ATOM     38  C   UNL     1      -5.797   5.612  -0.296  1.00  0.00     0.016 A 
ATOM     39  C   UNL     1      -5.912   7.116   2.073  1.00  0.00     0.010 A 
ATOM     40  C   UNL     1      -5.704   7.007  -0.341  1.00  0.00     0.010 A 
ATOM     41  C   UNL     1      -5.799   7.767   0.839  1.00  0.00    -0.014 A 
BRANCH  41  42
ATOM     42  C   UNL     1      -6.009   9.233   0.758  1.00  0.00     0.031 A 
ATOM     43  C   UNL     1      -7.386   9.730   0.407  1.00  0.00     0.074 A 
ATOM     44  C   UNL     1      -5.017  10.108   1.004  1.00  0.00     0.049 A 
ATOM     45  N   UNL     1      -7.805  10.954   0.217  1.00  0.00    -0.248 NA
ATOM     46  C   UNL     1      -8.431   8.704   0.246  1.00  0.00     0.031 C 
ATOM     47  C   UNL     1      -3.657   9.758   1.411  1.00  0.00     0.029 A 
ATOM     48  N   UNL     1      -5.006  11.479   0.937  1.00  0.00    -0.354 N 
ATOM     49  C   UNL     1      -9.155  10.845  -0.096  1.00  0.00     0.074 A 
ATOM     50  C   UNL     1      -9.480   9.436  -0.096  1.00  0.00     0.031 C 
ATOM     51  C   UNL     1      -2.939  10.887   1.542  1.00  0.00     0.029 A 
ATOM     52  C   UNL     1      -3.775  12.035   1.192  1.00  0.00     0.049 A 
ATOM     53  H   UNL     1      -5.805  12.014   0.726  1.00  0.00     0.167 HD
ATOM     54  C   UNL     1     -10.047  11.830  -0.358  1.00  0.00     0.031 A 
ATOM     55  C   UNL     1      -3.366  13.319   1.123  1.00  0.00     0.031 A 
ATOM     56  C   UNL     1      -9.717  13.229  -0.379  1.00  0.00     0.049 A 
ATOM     57  C   UNL     1      -4.354  14.391   0.739  1.00  0.00     0.074 A 
ATOM     58  C   UNL     1     -10.550  14.306  -0.625  1.00  0.00     0.029 A 
ATOM     59  N   UNL     1      -8.450  13.746  -0.156  1.00  0.00    -0.354 N 
ATOM     60  N   UNL     1      -5.633  14.277   0.466  1.00  0.00    -0.248 NA
ATOM     61  C   UNL     1      -3.845  15.768   0.660  1.00  0.00     0.031 C 
ATOM     62  C   UNL     1      -9.774  15.468  -0.618  1.00  0.00     0.029 A 
ATOM     63  C   UNL     1      -8.471  15.124  -0.293  1.00  0.00     0.049 A 
ATOM     64  H   UNL     1      -7.653  13.213   0.066  1.00  0.00     0.167 HD
ATOM     65  C   UNL     1      -6.085  15.569   0.212  1.00  0.00     0.074 A 
ATOM     66  C   UNL     1      -4.947  16.449   0.380  1.00  0.00     0.031 C 
ATOM     67  C   UNL     1      -7.330  15.989  -0.126  1.00  0.00     0.031 A 
BRANCH  54  68
ATOM     68  C   UNL     1     -11.458  11.420  -0.691  1.00  0.00    -0.014 A 
ATOM     69  C   UNL     1     -12.314  10.877   0.285  1.00  0.00     0.010 A 
ATOM     70  C   UNL     1     -11.945  11.612  -1.997  1.00  0.00     0.010 A 
ATOM     71  C   UNL     1     -13.618  10.502  -0.049  1.00  0.00     0.020 A 
ATOM     72  C   UNL     1     -13.259  11.267  -2.327  1.00  0.00     0.020 A 
ATOM     73  C   UNL     1     -14.082  10.699  -1.353  1.00  0.00     0.054 A 
BRANCH  73  74
ATOM     74  S   UNL     1     -15.788  10.227  -1.749  1.00  0.00     0.124 S 
ATOM     75  O   UNL     1     -15.714   8.769  -1.710  1.00  0.00    -0.237 OA
ATOM     76  O   UNL     1     -16.549  10.846  -0.667  1.00  0.00    -0.237 OA
ATOM     77  O   UNL     1     -16.009  10.803  -3.073  1.00  0.00    -0.744 OA
ENDBRANCH  73  74
ENDBRANCH  54  68
BRANCH  55  78
ATOM     78  C   UNL     1      -1.941  13.661   1.393  1.00  0.00    -0.014 A 
ATOM     79  C   UNL     1      -1.581  14.415   2.524  1.00  0.00     0.010 A 
ATOM     80  C   UNL     1      -0.933  13.238   0.506  1.00  0.00     0.010 A 
ATOM     81  C   UNL     1      -0.243  14.748   2.758  1.00  0.00     0.020 A 
ATOM     82  C   UNL     1       0.408  13.542   0.753  1.00  0.00     0.020 A 
ATOM     83  C   UNL     1       0.744  14.303   1.873  1.00  0.00     0.054 A 
BRANCH  83  84
ATOM     84  S   UNL     1       2.481  14.685   2.233  1.00  0.00     0.124 S 
ATOM     85  O   UNL     1       2.546  16.112   1.937  1.00  0.00    -0.237 OA
ATOM     86  O   UNL     1       2.594  14.321   3.643  1.00  0.00    -0.237 OA
ATOM     87  O   UNL     1       3.215  13.818   1.314  1.00  0.00    -0.744 OA
ENDBRANCH  83  84
ENDBRANCH  55  78
BRANCH  67  88
ATOM     88  C   UNL     1      -7.545  17.471  -0.301  1.00  0.00    -0.014 A 
ATOM     89  C   UNL     1      -7.009  18.165  -1.400  1.00  0.00     0.010 A 
ATOM     90  C   UNL     1      -8.350  18.167   0.620  1.00  0.00     0.010 A 
ATOM     91  C   UNL     1      -7.246  19.535  -1.555  1.00  0.00     0.020 A 
ATOM     92  C   UNL     1      -8.616  19.528   0.451  1.00  0.00     0.020 A 
ATOM     93  C   UNL     1      -8.050  20.207  -0.629  1.00  0.00     0.054 A 
BRANCH  93  94
ATOM     94  S   UNL     1      -8.375  21.974  -0.876  1.00  0.00     0.124 S 
ATOM     95  O   UNL     1      -7.082  22.570  -0.553  1.00  0.00    -0.237 OA
ATOM     96  O   UNL     1      -8.760  22.034  -2.284  1.00  0.00    -0.237 OA
ATOM     97  O   UNL     1      -9.449  22.266   0.070  1.00  0.00    -0.744 OA
ENDBRANCH  93  94
ENDBRANCH  67  88
ENDBRANCH  41  42
ENDBRANCH  34  36
ENDBRANCH  33  34
ENDBRANCH  32  33
ENDBRANCH  31  32
ENDBRANCH  30  31
ENDBRANCH  29  30
ENDBRANCH  28  29
ENDBRANCH   1  28
TORSDOF 27
