REMARK SMILES CC(C)(C)[C@H](CCC(=O)OCCOCCOCCOCCOC(=O)c1ccc(-c2c3nc(c(-c4ccc(S(=O)(=O)[O-])cc4)c4ccc([nH]4)c(-c4ccc(S(=O)(=O)[O-])cc4)c4nc(c(-c5ccc(S(=O)(=O)[O-])cc5)c5ccc2[nH]5)C=C4)C=C3)cc1)CC[NH+]1CCOCC1
REMARK SMILES IDX 15 1 14 2 13 3 12 4 11 5 10 6 8 7 9 8 7 9 6 10 5 11 2 12
REMARK SMILES IDX 1 13 3 14 4 15 85 16 86 17 87 18 88 19 92 20 89 22 91 23
REMARK SMILES IDX 90 24 16 25 17 26 18 27 19 28 20 29 21 30 22 31 23 32 24 33
REMARK SMILES IDX 25 34 26 35 84 36 27 37 83 38 28 39 29 40 30 41 77 42 31 43
REMARK SMILES IDX 82 44 76 45 78 46 32 47 81 48 75 49 74 50 33 52 63 53 44 54
REMARK SMILES IDX 62 55 45 56 48 57 61 58 79 59 46 60 47 61 60 63 80 64 49 65
REMARK SMILES IDX 34 66 35 67 43 68 36 69 42 70 37 71 38 72 39 73 40 74 41 75
REMARK SMILES IDX 64 76 65 77 73 78 66 79 72 80 67 81 68 82 69 83 70 84 71 85
REMARK SMILES IDX 50 86 51 87 59 88 52 89 58 90 53 91 54 92 55 93 56 94 57 95
REMARK H PARENT 87 21 78 51 48 62
REMARK Flexibility Score: inf
ROOT
ATOM      1  C   UNL     1       0.161   2.575  -3.660  1.00  0.00     0.188 C 
ENDROOT
BRANCH   1   2
ATOM      2  C   UNL     1      -1.267   2.799  -4.174  1.00  0.00     0.188 C 
BRANCH   2   3
ATOM      3  O   UNL     1      -1.753   4.146  -4.217  1.00  0.00    -0.376 OA
BRANCH   3   4
ATOM      4  C   UNL     1      -1.315   5.051  -3.203  1.00  0.00     0.202 C 
BRANCH   4   5
ATOM      5  C   UNL     1      -1.918   4.798  -1.820  1.00  0.00     0.261 C 
BRANCH   5   6
ATOM      6  O   UNL     1      -1.393   3.576  -1.267  1.00  0.00    -0.463 OA
BRANCH   6   7
ATOM      7  C   UNL     1      -2.263   2.608  -0.916  1.00  0.00     0.305 C 
ATOM      8  O   UNL     1      -3.483   2.710  -0.986  1.00  0.00    -0.252 OA
BRANCH   7   9
ATOM      9  C   UNL     1      -1.593   1.301  -0.527  1.00  0.00     0.123 C 
BRANCH   9  10
ATOM     10  C   UNL     1      -0.086   1.195  -0.213  1.00  0.00     0.016 C 
BRANCH  10  11
ATOM     11  C   UNL     1       0.651   2.312   0.576  1.00  0.00     0.000 C 
BRANCH  11  12
ATOM     12  C   UNL     1       0.295   2.450   2.114  1.00  0.00    -0.035 C 
ATOM     13  C   UNL     1       1.202   1.590   3.019  1.00  0.00     0.011 C 
ATOM     14  C   UNL     1      -1.158   2.077   2.445  1.00  0.00     0.011 C 
ATOM     15  C   UNL     1       0.474   3.931   2.525  1.00  0.00     0.011 C 
ENDBRANCH  11  12
BRANCH  11  16
ATOM     16  C   UNL     1       2.197   2.194   0.361  1.00  0.00     0.065 C 
BRANCH  16  17
ATOM     17  C   UNL     1       2.781   2.394  -1.050  1.00  0.00     0.262 C 
BRANCH  17  18
ATOM     18  N   UNL     1       2.876   3.705  -1.687  1.00  0.00    -0.331 N 
ATOM     19  C   UNL     1       4.255   4.191  -1.831  1.00  0.00     0.291 C 
ATOM     20  C   UNL     1       2.041   4.827  -1.260  1.00  0.00     0.291 C 
ATOM     21  H   UNL     1       2.452   3.424  -2.571  1.00  0.00     0.348 HD
ATOM     22  C   UNL     1       4.777   4.944  -0.603  1.00  0.00     0.221 C 
ATOM     23  C   UNL     1       2.581   5.593  -0.049  1.00  0.00     0.221 C 
ATOM     24  O   UNL     1       3.917   6.040  -0.273  1.00  0.00    -0.370 OA
ENDBRANCH  17  18
ENDBRANCH  16  17
ENDBRANCH  11  16
ENDBRANCH  10  11
ENDBRANCH   9  10
ENDBRANCH   7   9
ENDBRANCH   6   7
ENDBRANCH   5   6
ENDBRANCH   4   5
ENDBRANCH   3   4
ENDBRANCH   2   3
ENDBRANCH   1   2
BRANCH   1  25
ATOM     25  O   UNL     1       1.257   2.919  -4.489  1.00  0.00    -0.377 OA
BRANCH  25  26
ATOM     26  C   UNL     1       1.111   3.935  -5.456  1.00  0.00     0.188 C 
BRANCH  26  27
ATOM     27  C   UNL     1       1.631   3.480  -6.827  1.00  0.00     0.188 C 
BRANCH  27  28
ATOM     28  O   UNL     1       1.380   2.135  -7.226  1.00  0.00    -0.376 OA
BRANCH  28  29
ATOM     29  C   UNL     1       1.841   1.082  -6.381  1.00  0.00     0.202 C 
BRANCH  29  30
ATOM     30  C   UNL     1       3.316   1.032  -5.930  1.00  0.00     0.261 C 
BRANCH  30  31
ATOM     31  O   UNL     1       3.853   2.227  -5.336  1.00  0.00    -0.460 OA
BRANCH  31  32
ATOM     32  C   UNL     1       4.827   2.850  -6.045  1.00  0.00     0.338 C 
ATOM     33  O   UNL     1       5.251   2.545  -7.145  1.00  0.00    -0.246 OA
BRANCH  32  34
ATOM     34  C   UNL     1       5.338   4.009  -5.291  1.00  0.00     0.060 A 
ATOM     35  C   UNL     1       4.846   5.298  -5.536  1.00  0.00     0.016 A 
ATOM     36  C   UNL     1       6.402   3.819  -4.410  1.00  0.00     0.016 A 
ATOM     37  C   UNL     1       5.426   6.406  -4.900  1.00  0.00     0.010 A 
ATOM     38  C   UNL     1       6.964   4.923  -3.760  1.00  0.00     0.010 A 
ATOM     39  C   UNL     1       6.502   6.230  -4.019  1.00  0.00    -0.014 A 
BRANCH  39  40
ATOM     40  C   UNL     1       7.286   7.384  -3.496  1.00  0.00     0.031 A 
ATOM     41  C   UNL     1       8.668   7.605  -4.051  1.00  0.00     0.074 A 
ATOM     42  C   UNL     1       6.832   8.194  -2.519  1.00  0.00     0.049 A 
ATOM     43  N   UNL     1       9.591   8.449  -3.670  1.00  0.00    -0.248 NA
ATOM     44  C   UNL     1       9.060   6.753  -5.187  1.00  0.00     0.031 C 
ATOM     45  C   UNL     1       5.500   8.148  -1.927  1.00  0.00     0.029 A 
ATOM     46  N   UNL     1       7.469   9.195  -1.819  1.00  0.00    -0.354 N 
ATOM     47  C   UNL     1      10.666   8.235  -4.523  1.00  0.00     0.074 A 
ATOM     48  C   UNL     1      10.310   7.136  -5.391  1.00  0.00     0.031 C 
ATOM     49  C   UNL     1       5.440   9.020  -0.904  1.00  0.00     0.029 A 
ATOM     50  C   UNL     1       6.727   9.695  -0.772  1.00  0.00     0.049 A 
ATOM     51  H   UNL     1       8.369   9.522  -2.046  1.00  0.00     0.167 HD
ATOM     52  C   UNL     1      11.835   8.913  -4.603  1.00  0.00     0.031 A 
ATOM     53  C   UNL     1       7.051  10.580   0.195  1.00  0.00     0.031 A 
ATOM     54  C   UNL     1      12.200  10.000  -3.738  1.00  0.00     0.049 A 
ATOM     55  C   UNL     1       8.407  11.239   0.168  1.00  0.00     0.074 A 
ATOM     56  C   UNL     1      13.349  10.770  -3.765  1.00  0.00     0.029 A 
ATOM     57  N   UNL     1      11.430  10.465  -2.683  1.00  0.00    -0.354 N 
ATOM     58  N   UNL     1       9.392  11.067  -0.682  1.00  0.00    -0.248 NA
ATOM     59  C   UNL     1       8.684  12.239   1.211  1.00  0.00     0.031 C 
ATOM     60  C   UNL     1      13.301  11.660  -2.688  1.00  0.00     0.029 A 
ATOM     61  C   UNL     1      12.092  11.491  -2.032  1.00  0.00     0.049 A 
ATOM     62  H   UNL     1      10.543  10.117  -2.435  1.00  0.00     0.167 HD
ATOM     63  C   UNL     1      10.379  11.975  -0.310  1.00  0.00     0.074 A 
ATOM     64  C   UNL     1       9.877  12.690   0.844  1.00  0.00     0.031 C 
ATOM     65  C   UNL     1      11.584  12.206  -0.888  1.00  0.00     0.031 A 
BRANCH  52  66
ATOM     66  C   UNL     1      12.802   8.482  -5.671  1.00  0.00    -0.014 A 
ATOM     67  C   UNL     1      12.518   8.698  -7.033  1.00  0.00     0.010 A 
ATOM     68  C   UNL     1      14.014   7.867  -5.312  1.00  0.00     0.010 A 
ATOM     69  C   UNL     1      13.407   8.263  -8.018  1.00  0.00     0.020 A 
ATOM     70  C   UNL     1      14.921   7.459  -6.293  1.00  0.00     0.020 A 
ATOM     71  C   UNL     1      14.602   7.644  -7.641  1.00  0.00     0.054 A 
BRANCH  71  72
ATOM     72  S   UNL     1      15.745   7.105  -8.940  1.00  0.00     0.124 S 
ATOM     73  O   UNL     1      15.040   5.957  -9.504  1.00  0.00    -0.237 OA
ATOM     74  O   UNL     1      15.824   8.280  -9.804  1.00  0.00    -0.237 OA
ATOM     75  O   UNL     1      16.972   6.786  -8.213  1.00  0.00    -0.744 OA
ENDBRANCH  71  72
ENDBRANCH  52  66
BRANCH  53  76
ATOM     76  C   UNL     1       6.071  10.918   1.268  1.00  0.00    -0.014 A 
ATOM     77  C   UNL     1       5.457  12.183   1.306  1.00  0.00     0.010 A 
ATOM     78  C   UNL     1       5.762   9.983   2.274  1.00  0.00     0.010 A 
ATOM     79  C   UNL     1       4.572  12.514   2.337  1.00  0.00     0.020 A 
ATOM     80  C   UNL     1       4.859  10.303   3.295  1.00  0.00     0.020 A 
ATOM     81  C   UNL     1       4.276  11.571   3.324  1.00  0.00     0.054 A 
BRANCH  81  82
ATOM     82  S   UNL     1       3.087  12.012   4.624  1.00  0.00     0.124 S 
ATOM     83  O   UNL     1       3.833  12.997   5.400  1.00  0.00    -0.237 OA
ATOM     84  O   UNL     1       1.960  12.534   3.854  1.00  0.00    -0.237 OA
ATOM     85  O   UNL     1       2.833  10.743   5.303  1.00  0.00    -0.744 OA
ENDBRANCH  81  82
ENDBRANCH  53  76
BRANCH  65  86
ATOM     86  C   UNL     1      12.435  13.315  -0.326  1.00  0.00    -0.014 A 
ATOM     87  C   UNL     1      13.079  13.191   0.917  1.00  0.00     0.010 A 
ATOM     88  C   UNL     1      12.654  14.473  -1.097  1.00  0.00     0.010 A 
ATOM     89  C   UNL     1      13.909  14.213   1.388  1.00  0.00     0.020 A 
ATOM     90  C   UNL     1      13.506  15.483  -0.643  1.00  0.00     0.020 A 
ATOM     91  C   UNL     1      14.120  15.351   0.603  1.00  0.00     0.054 A 
BRANCH  91  92
ATOM     92  S   UNL     1      15.248  16.635   1.211  1.00  0.00     0.124 S 
ATOM     93  O   UNL     1      14.468  17.243   2.285  1.00  0.00    -0.237 OA
ATOM     94  O   UNL     1      16.411  15.862   1.640  1.00  0.00    -0.237 OA
ATOM     95  O   UNL     1      15.469  17.486   0.044  1.00  0.00    -0.744 OA
ENDBRANCH  91  92
ENDBRANCH  65  86
ENDBRANCH  39  40
ENDBRANCH  32  34
ENDBRANCH  31  32
ENDBRANCH  30  31
ENDBRANCH  29  30
ENDBRANCH  28  29
ENDBRANCH  27  28
ENDBRANCH  26  27
ENDBRANCH  25  26
ENDBRANCH   1  25
TORSDOF 29
