REMARK SMILES Cc1cc(C(=O)N[C@H](C(=O)OCCOCCOCCOCCOC(=O)c2ccc(-c3c4nc(c(-c5ccc(S(=O)(=O)[O-])cc5)c5ccc([nH]5)c(-c5ccc(S(=O)(=O)[O-])cc5)c5nc(c(-c6ccc(S(=O)(=O)[O-])cc6)c6ccc3[nH]6)C=C5)C=C4)cc2)c2c(C)n[nH]c2C)c2ccc(C)c(C)c2n1
REMARK SMILES IDX 18 1 17 2 16 3 15 4 14 5 13 6 12 7 11 8 9 9 10 10 8 11 7 12
REMARK SMILES IDX 5 13 6 14 4 16 1 17 2 18 3 19 101 20 100 21 93 22 98 23
REMARK SMILES IDX 94 24 96 25 99 26 95 27 97 28 86 29 87 30 91 31 88 32 89 33
REMARK SMILES IDX 90 34 92 35 19 37 20 38 21 39 22 40 23 41 24 42 25 43 26 44
REMARK SMILES IDX 27 45 85 46 28 47 84 48 29 49 30 50 31 51 78 52 32 53 83 54
REMARK SMILES IDX 77 55 79 56 33 57 82 58 76 59 75 60 34 62 64 63 45 64 63 65
REMARK SMILES IDX 46 66 49 67 62 68 80 69 47 70 48 71 61 73 81 74 50 75 35 76
REMARK SMILES IDX 36 77 44 78 37 79 43 80 38 81 39 82 40 83 41 84 42 85 65 86
REMARK SMILES IDX 66 87 74 88 67 89 73 90 68 91 69 92 70 93 71 94 72 95 51 96
REMARK SMILES IDX 52 97 60 98 53 99 59 100 54 101 55 102 56 103 57 104 58 105
REMARK H PARENT 7 15 90 36 79 61 49 72
REMARK Flexibility Score: inf
ROOT
ATOM      1  C   UNL     1       0.718   1.907  -8.357  1.00  0.00     0.188 C 
ENDROOT
BRANCH   1   2
ATOM      2  O   UNL     1       1.231   2.538  -7.200  1.00  0.00    -0.377 OA
BRANCH   2   3
ATOM      3  C   UNL     1       0.842   1.931  -5.979  1.00  0.00     0.188 C 
BRANCH   3   4
ATOM      4  C   UNL     1       1.037   0.400  -5.870  1.00  0.00     0.188 C 
BRANCH   4   5
ATOM      5  O   UNL     1       0.363  -0.315  -6.895  1.00  0.00    -0.376 OA
BRANCH   5   6
ATOM      6  C   UNL     1      -0.864  -0.967  -6.626  1.00  0.00     0.202 C 
BRANCH   6   7
ATOM      7  C   UNL     1      -2.065  -0.114  -6.206  1.00  0.00     0.261 C 
BRANCH   7   8
ATOM      8  O   UNL     1      -1.835   0.863  -5.186  1.00  0.00    -0.461 OA
BRANCH   8   9
ATOM      9  C   UNL     1      -1.435   0.460  -3.956  1.00  0.00     0.333 C 
ATOM     10  O   UNL     1      -1.175  -0.700  -3.656  1.00  0.00    -0.249 OA
BRANCH   9  11
ATOM     11  C   UNL     1      -1.240   1.663  -2.996  1.00  0.00     0.227 C 
BRANCH  11  12
ATOM     12  N   UNL     1       0.130   2.190  -2.874  1.00  0.00    -0.335 N 
ATOM     13  C   UNL     1       0.738   3.128  -2.064  1.00  0.00     0.252 C 
ATOM     14  O   UNL     1       1.957   3.253  -2.174  1.00  0.00    -0.269 OA
ATOM     15  H   UNL     1       0.754   1.779  -3.515  1.00  0.00     0.165 HD
BRANCH  13  16
ATOM     16  C   UNL     1      -0.019   3.971  -1.091  1.00  0.00     0.051 A 
ATOM     17  C   UNL     1      -3.337   3.675   0.587  1.00  0.00     0.067 C 
ATOM     18  C   UNL     1      -1.960   4.170   0.266  1.00  0.00     0.039 A 
ATOM     19  C   UNL     1      -1.090   3.378  -0.437  1.00  0.00     0.038 A 
ATOM     20  N   UNL     1      -1.660   5.436   0.580  1.00  0.00    -0.253 NA
ATOM     21  C   UNL     1      -0.520   5.988   0.129  1.00  0.00     0.074 A 
ATOM     22  C   UNL     1       0.319   5.326  -0.794  1.00  0.00     0.013 A 
ATOM     23  C   UNL     1      -0.183   7.263   0.612  1.00  0.00    -0.022 A 
ATOM     24  C   UNL     1       1.416   6.057  -1.319  1.00  0.00     0.011 A 
ATOM     25  C   UNL     1       0.941   7.955   0.118  1.00  0.00    -0.046 A 
ATOM     26  C   UNL     1      -1.063   7.844   1.698  1.00  0.00     0.047 C 
ATOM     27  C   UNL     1       1.716   7.349  -0.872  1.00  0.00     0.004 A 
ATOM     28  C   UNL     1       1.339   9.304   0.652  1.00  0.00     0.044 C 
ENDBRANCH  13  16
ENDBRANCH  11  12
BRANCH  11  29
ATOM     29  C   UNL     1      -2.319   2.685  -3.201  1.00  0.00     0.029 A 
ATOM     30  C   UNL     1      -3.693   2.395  -2.920  1.00  0.00     0.065 A 
ATOM     31  C   UNL     1      -2.347   3.982  -3.698  1.00  0.00     0.038 A 
ATOM     32  C   UNL     1      -4.285   1.094  -2.504  1.00  0.00     0.069 C 
ATOM     33  N   UNL     1      -4.476   3.454  -3.102  1.00  0.00    -0.180 NA
ATOM     34  N   UNL     1      -3.651   4.394  -3.580  1.00  0.00    -0.282 N 
ATOM     35  C   UNL     1      -1.344   4.896  -4.301  1.00  0.00     0.066 C 
ATOM     36  H   UNL     1      -3.953   5.298  -3.824  1.00  0.00     0.190 HD
ENDBRANCH  11  29
ENDBRANCH   9  11
ENDBRANCH   8   9
ENDBRANCH   7   8
ENDBRANCH   6   7
ENDBRANCH   5   6
ENDBRANCH   4   5
ENDBRANCH   3   4
ENDBRANCH   2   3
ENDBRANCH   1   2
BRANCH   1  37
ATOM     37  C   UNL     1       1.725   0.956  -9.041  1.00  0.00     0.188 C 
BRANCH  37  38
ATOM     38  O   UNL     1       2.963   0.607  -8.432  1.00  0.00    -0.376 OA
BRANCH  38  39
ATOM     39  C   UNL     1       3.751   1.559  -7.736  1.00  0.00     0.202 C 
BRANCH  39  40
ATOM     40  C   UNL     1       4.092   2.945  -8.304  1.00  0.00     0.261 C 
BRANCH  40  41
ATOM     41  O   UNL     1       3.053   3.626  -9.008  1.00  0.00    -0.460 OA
BRANCH  41  42
ATOM     42  C   UNL     1       3.097   3.517 -10.353  1.00  0.00     0.338 C 
ATOM     43  O   UNL     1       3.920   2.917 -11.025  1.00  0.00    -0.246 OA
BRANCH  42  44
ATOM     44  C   UNL     1       1.858   4.099 -10.895  1.00  0.00     0.060 A 
ATOM     45  C   UNL     1       0.977   3.265 -11.598  1.00  0.00     0.016 A 
ATOM     46  C   UNL     1       1.566   5.451 -10.704  1.00  0.00     0.016 A 
ATOM     47  C   UNL     1      -0.207   3.778 -12.110  1.00  0.00     0.010 A 
ATOM     48  C   UNL     1       0.414   5.982 -11.282  1.00  0.00     0.010 A 
ATOM     49  C   UNL     1      -0.454   5.151 -12.011  1.00  0.00    -0.014 A 
BRANCH  49  50
ATOM     50  C   UNL     1      -1.451   5.744 -12.921  1.00  0.00     0.031 A 
ATOM     51  C   UNL     1      -0.997   6.071 -14.316  1.00  0.00     0.074 A 
ATOM     52  C   UNL     1      -2.722   5.945 -12.537  1.00  0.00     0.049 A 
ATOM     53  N   UNL     1      -1.669   6.611 -15.295  1.00  0.00    -0.248 NA
ATOM     54  C   UNL     1       0.399   5.733 -14.655  1.00  0.00     0.031 C 
ATOM     55  C   UNL     1      -3.284   5.588 -11.236  1.00  0.00     0.029 A 
ATOM     56  N   UNL     1      -3.771   6.501 -13.222  1.00  0.00    -0.354 N 
ATOM     57  C   UNL     1      -0.782   6.674 -16.362  1.00  0.00     0.074 A 
ATOM     58  C   UNL     1       0.478   6.130 -15.915  1.00  0.00     0.031 C 
ATOM     59  C   UNL     1      -4.581   5.945 -11.213  1.00  0.00     0.029 A 
ATOM     60  C   UNL     1      -4.926   6.581 -12.485  1.00  0.00     0.049 A 
ATOM     61  H   UNL     1      -3.703   6.813 -14.153  1.00  0.00     0.167 HD
ATOM     62  C   UNL     1      -1.001   7.149 -17.607  1.00  0.00     0.031 A 
ATOM     63  C   UNL     1      -6.119   7.125 -12.800  1.00  0.00     0.031 A 
ATOM     64  C   UNL     1      -2.245   7.719 -18.035  1.00  0.00     0.049 A 
ATOM     65  C   UNL     1      -6.307   7.746 -14.158  1.00  0.00     0.074 A 
ATOM     66  C   UNL     1      -2.565   8.242 -19.273  1.00  0.00     0.029 A 
ATOM     67  N   UNL     1      -3.369   7.849 -17.235  1.00  0.00    -0.354 N 
ATOM     68  N   UNL     1      -5.457   7.813 -15.156  1.00  0.00    -0.248 NA
ATOM     69  C   UNL     1      -7.611   8.366 -14.435  1.00  0.00     0.031 C 
ATOM     70  C   UNL     1      -3.868   8.740 -19.206  1.00  0.00     0.029 A 
ATOM     71  C   UNL     1      -4.378   8.470 -17.945  1.00  0.00     0.049 A 
ATOM     72  H   UNL     1      -3.437   7.546 -16.301  1.00  0.00     0.167 HD
ATOM     73  C   UNL     1      -6.131   8.460 -16.186  1.00  0.00     0.074 A 
ATOM     74  C   UNL     1      -7.458   8.765 -15.692  1.00  0.00     0.031 C 
ATOM     75  C   UNL     1      -5.692   8.765 -17.432  1.00  0.00     0.031 A 
BRANCH  62  76
ATOM     76  C   UNL     1       0.139   7.110 -18.581  1.00  0.00    -0.014 A 
ATOM     77  C   UNL     1       0.523   5.906 -19.196  1.00  0.00     0.010 A 
ATOM     78  C   UNL     1       0.789   8.305 -18.935  1.00  0.00     0.010 A 
ATOM     79  C   UNL     1       1.542   5.899 -20.151  1.00  0.00     0.020 A 
ATOM     80  C   UNL     1       1.793   8.306 -19.904  1.00  0.00     0.020 A 
ATOM     81  C   UNL     1       2.162   7.102 -20.508  1.00  0.00     0.054 A 
BRANCH  81  82
ATOM     82  S   UNL     1       3.443   7.066 -21.790  1.00  0.00     0.124 S 
ATOM     83  O   UNL     1       4.433   6.161 -21.209  1.00  0.00    -0.237 OA
ATOM     84  O   UNL     1       2.716   6.545 -22.943  1.00  0.00    -0.237 OA
ATOM     85  O   UNL     1       3.868   8.459 -21.897  1.00  0.00    -0.744 OA
ENDBRANCH  81  82
ENDBRANCH  62  76
BRANCH  63  86
ATOM     86  C   UNL     1      -7.217   7.109 -11.799  1.00  0.00    -0.014 A 
ATOM     87  C   UNL     1      -8.311   6.241 -11.954  1.00  0.00     0.010 A 
ATOM     88  C   UNL     1      -7.150   7.932 -10.659  1.00  0.00     0.010 A 
ATOM     89  C   UNL     1      -9.313   6.187 -10.981  1.00  0.00     0.020 A 
ATOM     90  C   UNL     1      -8.140   7.867  -9.675  1.00  0.00     0.020 A 
ATOM     91  C   UNL     1      -9.213   6.990  -9.840  1.00  0.00     0.054 A 
BRANCH  91  92
ATOM     92  S   UNL     1     -10.493   6.846  -8.562  1.00  0.00     0.124 S 
ATOM     93  O   UNL     1     -11.704   7.206  -9.294  1.00  0.00    -0.237 OA
ATOM     94  O   UNL     1     -10.380   5.443  -8.175  1.00  0.00    -0.237 OA
ATOM     95  O   UNL     1     -10.072   7.806  -7.544  1.00  0.00    -0.744 OA
ENDBRANCH  91  92
ENDBRANCH  63  86
BRANCH  75  96
ATOM     96  C   UNL     1      -6.647   9.441 -18.376  1.00  0.00    -0.014 A 
ATOM     97  C   UNL     1      -6.926  10.813 -18.263  1.00  0.00     0.010 A 
ATOM     98  C   UNL     1      -7.160   8.719 -19.470  1.00  0.00     0.010 A 
ATOM     99  C   UNL     1      -7.707  11.451 -19.230  1.00  0.00     0.020 A 
ATOM    100  C   UNL     1      -7.921   9.358 -20.450  1.00  0.00     0.020 A 
ATOM    101  C   UNL     1      -8.190  10.722 -20.323  1.00  0.00     0.054 A 
BRANCH 101 102
ATOM    102  S   UNL     1      -9.148  11.595 -21.591  1.00  0.00     0.124 S 
ATOM    103  O   UNL     1     -10.285  12.099 -20.826  1.00  0.00    -0.237 OA
ATOM    104  O   UNL     1      -8.204  12.608 -22.055  1.00  0.00    -0.237 OA
ATOM    105  O   UNL     1      -9.469  10.553 -22.565  1.00  0.00    -0.744 OA
ENDBRANCH 101 102
ENDBRANCH  75  96
ENDBRANCH  49  50
ENDBRANCH  42  44
ENDBRANCH  41  42
ENDBRANCH  40  41
ENDBRANCH  39  40
ENDBRANCH  38  39
ENDBRANCH  37  38
ENDBRANCH   1  37
TORSDOF 26
