REMARK SMILES Cc1cc2nc(S/C(=C\c3ccc(O)cc3)C(=O)OCCOCCOCCOCCOC(=O)c3ccc(-c4c5nc(c(-c6ccc(S(=O)(=O)[O-])cc6)c6ccc([nH]6)c(-c6ccc(S(=O)(=O)[O-])cc6)c6nc(c(-c7ccc(S(=O)(=O)[O-])cc7)c7ccc4[nH]7)C=C6)C=C5)cc3)[nH]c2cc1C
REMARK SMILES IDX 26 1 25 2 24 3 23 4 22 5 21 6 20 7 19 8 17 9 18 10 8 11 9 12
REMARK SMILES IDX 7 13 6 14 1 15 2 16 3 17 97 18 4 19 96 20 98 21 5 22 95 23
REMARK SMILES IDX 94 24 10 26 11 27 16 28 12 29 15 30 13 31 14 32 27 34 28 35
REMARK SMILES IDX 29 36 30 37 31 38 32 39 33 40 34 41 35 42 93 43 36 44 92 45
REMARK SMILES IDX 37 46 38 47 39 48 86 49 40 50 91 51 85 52 87 53 41 54 90 55
REMARK SMILES IDX 84 56 83 57 42 59 72 60 53 61 71 62 54 63 57 64 70 65 88 66
REMARK SMILES IDX 55 67 56 68 69 70 89 71 58 72 43 73 44 74 52 75 45 76 51 77
REMARK SMILES IDX 46 78 47 79 48 80 49 81 50 82 73 83 74 84 82 85 75 86 81 87
REMARK SMILES IDX 76 88 77 89 78 90 79 91 80 92 59 93 60 94 68 95 61 96 67 97
REMARK SMILES IDX 62 98 63 99 64 100 65 101 66 102
REMARK H PARENT 94 25 14 33 87 58 57 69
REMARK Flexibility Score: inf
ROOT
ATOM      1  C   UNL     1      -8.328  -3.590   2.930  1.00  0.00     0.188 C 
ENDROOT
BRANCH   1   2
ATOM      2  O   UNL     1      -7.228  -3.192   2.111  1.00  0.00    -0.377 OA
BRANCH   2   3
ATOM      3  C   UNL     1      -6.835  -1.831   2.107  1.00  0.00     0.188 C 
BRANCH   3   4
ATOM      4  C   UNL     1      -7.746  -0.901   1.282  1.00  0.00     0.188 C 
BRANCH   4   5
ATOM      5  O   UNL     1      -9.043  -1.412   1.043  1.00  0.00    -0.376 OA
BRANCH   5   6
ATOM      6  C   UNL     1      -9.335  -2.219  -0.085  1.00  0.00     0.202 C 
BRANCH   6   7
ATOM      7  C   UNL     1      -8.322  -3.086  -0.855  1.00  0.00     0.261 C 
BRANCH   7   8
ATOM      8  O   UNL     1      -6.940  -2.819  -0.633  1.00  0.00    -0.459 OA
BRANCH   8   9
ATOM      9  C   UNL     1      -6.303  -1.958  -1.461  1.00  0.00     0.345 C 
ATOM     10  O   UNL     1      -6.804  -1.393  -2.421  1.00  0.00    -0.246 OA
BRANCH   9  11
ATOM     11  C   UNL     1      -4.915  -1.691  -0.917  1.00  0.00     0.101 C 
ATOM     12  C   UNL     1      -4.282  -2.756  -0.381  1.00  0.00     0.031 C 
BRANCH  11  13
ATOM     13  S   UNL     1      -4.517  -0.003  -0.987  1.00  0.00    -0.044 SA
BRANCH  13  14
ATOM     14  C   UNL     1      -2.812   0.170  -0.915  1.00  0.00     0.171 A 
ATOM     15  C   UNL     1       2.743   1.855   0.231  1.00  0.00     0.044 C 
ATOM     16  C   UNL     1       1.554   1.022  -0.168  1.00  0.00    -0.046 A 
ATOM     17  C   UNL     1       0.274   1.607  -0.045  1.00  0.00     0.034 A 
ATOM     18  C   UNL     1       1.684  -0.274  -0.713  1.00  0.00    -0.046 A 
ATOM     19  C   UNL     1      -0.854   0.900  -0.487  1.00  0.00     0.090 A 
ATOM     20  C   UNL     1       0.570  -0.927  -1.273  1.00  0.00     0.032 A 
ATOM     21  C   UNL     1       2.996  -1.014  -0.709  1.00  0.00     0.044 C 
ATOM     22  N   UNL     1      -2.190   1.195  -0.373  1.00  0.00    -0.222 NA
ATOM     23  C   UNL     1      -0.672  -0.311  -1.137  1.00  0.00     0.066 A 
ATOM     24  N   UNL     1      -1.937  -0.688  -1.511  1.00  0.00    -0.333 N 
ATOM     25  H   UNL     1      -2.170  -1.440  -2.102  1.00  0.00     0.169 HD
ENDBRANCH  13  14
ENDBRANCH  11  13
BRANCH  12  26
ATOM     26  C   UNL     1      -2.977  -2.897   0.270  1.00  0.00    -0.024 A 
ATOM     27  C   UNL     1      -2.590  -2.151   1.387  1.00  0.00     0.012 A 
ATOM     28  C   UNL     1      -2.080  -3.821  -0.288  1.00  0.00     0.012 A 
ATOM     29  C   UNL     1      -1.276  -2.233   1.858  1.00  0.00     0.047 A 
ATOM     30  C   UNL     1      -0.775  -3.913   0.190  1.00  0.00     0.047 A 
ATOM     31  C   UNL     1      -0.373  -3.086   1.230  1.00  0.00     0.115 A 
BRANCH  31  32
ATOM     32  O   UNL     1       0.946  -3.093   1.575  1.00  0.00    -0.508 OA
ATOM     33  H   UNL     1       1.250  -2.547   2.272  1.00  0.00     0.293 HD
ENDBRANCH  31  32
ENDBRANCH  12  26
ENDBRANCH   9  11
ENDBRANCH   8   9
ENDBRANCH   7   8
ENDBRANCH   6   7
ENDBRANCH   5   6
ENDBRANCH   4   5
ENDBRANCH   3   4
ENDBRANCH   2   3
ENDBRANCH   1   2
BRANCH   1  34
ATOM     34  C   UNL     1      -9.275  -2.569   3.609  1.00  0.00     0.188 C 
BRANCH  34  35
ATOM     35  O   UNL     1      -8.667  -1.339   3.974  1.00  0.00    -0.376 OA
BRANCH  35  36
ATOM     36  C   UNL     1      -8.381  -1.101   5.340  1.00  0.00     0.202 C 
BRANCH  36  37
ATOM     37  C   UNL     1      -7.321  -1.998   5.992  1.00  0.00     0.261 C 
BRANCH  37  38
ATOM     38  O   UNL     1      -7.556  -3.411   5.907  1.00  0.00    -0.460 OA
BRANCH  38  39
ATOM     39  C   UNL     1      -8.639  -3.896   6.551  1.00  0.00     0.338 C 
ATOM     40  O   UNL     1      -9.444  -3.262   7.214  1.00  0.00    -0.246 OA
BRANCH  39  41
ATOM     41  C   UNL     1      -8.793  -5.311   6.159  1.00  0.00     0.060 A 
ATOM     42  C   UNL     1      -9.956  -5.712   5.490  1.00  0.00     0.016 A 
ATOM     43  C   UNL     1      -7.782  -6.233   6.438  1.00  0.00     0.016 A 
ATOM     44  C   UNL     1     -10.124  -7.048   5.124  1.00  0.00     0.010 A 
ATOM     45  C   UNL     1      -7.960  -7.574   6.088  1.00  0.00     0.010 A 
ATOM     46  C   UNL     1      -9.146  -7.994   5.458  1.00  0.00    -0.014 A 
BRANCH  46  47
ATOM     47  C   UNL     1      -9.435  -9.442   5.318  1.00  0.00     0.031 A 
ATOM     48  C   UNL     1      -9.865 -10.206   6.542  1.00  0.00     0.074 A 
ATOM     49  C   UNL     1      -9.331 -10.068   4.132  1.00  0.00     0.049 A 
ATOM     50  N   UNL     1     -10.123 -11.481   6.676  1.00  0.00    -0.248 NA
ATOM     51  C   UNL     1     -10.022  -9.425   7.780  1.00  0.00     0.031 C 
ATOM     52  C   UNL     1      -8.969  -9.432   2.866  1.00  0.00     0.029 A 
ATOM     53  N   UNL     1      -9.515 -11.389   3.804  1.00  0.00    -0.354 N 
ATOM     54  C   UNL     1     -10.461 -11.658   8.013  1.00  0.00     0.074 A 
ATOM     55  C   UNL     1     -10.346 -10.366   8.654  1.00  0.00     0.031 C 
ATOM     56  C   UNL     1      -8.950 -10.367   1.899  1.00  0.00     0.029 A 
ATOM     57  C   UNL     1      -9.259 -11.672   2.483  1.00  0.00     0.049 A 
ATOM     58  H   UNL     1      -9.804 -12.070   4.454  1.00  0.00     0.167 HD
ATOM     59  C   UNL     1     -10.838 -12.792   8.649  1.00  0.00     0.031 A 
ATOM     60  C   UNL     1      -9.250 -12.850   1.827  1.00  0.00     0.031 A 
ATOM     61  C   UNL     1     -10.934 -14.078   8.012  1.00  0.00     0.049 A 
ATOM     62  C   UNL     1      -9.589 -14.115   2.577  1.00  0.00     0.074 A 
ATOM     63  C   UNL     1     -11.323 -15.284   8.566  1.00  0.00     0.029 A 
ATOM     64  N   UNL     1     -10.627 -14.329   6.683  1.00  0.00    -0.354 N 
ATOM     65  N   UNL     1      -9.939 -14.262   3.833  1.00  0.00    -0.248 NA
ATOM     66  C   UNL     1      -9.538 -15.373   1.817  1.00  0.00     0.031 C 
ATOM     67  C   UNL     1     -11.184 -16.277   7.592  1.00  0.00     0.029 A 
ATOM     68  C   UNL     1     -10.782 -15.678   6.409  1.00  0.00     0.049 A 
ATOM     69  H   UNL     1     -10.341 -13.649   6.031  1.00  0.00     0.167 HD
ATOM     70  C   UNL     1     -10.175 -15.623   4.006  1.00  0.00     0.074 A 
ATOM     71  C   UNL     1      -9.947 -16.252   2.721  1.00  0.00     0.031 C 
ATOM     72  C   UNL     1     -10.548 -16.293   5.125  1.00  0.00     0.031 A 
BRANCH  59  73
ATOM     73  C   UNL     1     -11.135 -12.697  10.123  1.00  0.00    -0.014 A 
ATOM     74  C   UNL     1     -12.272 -12.019  10.600  1.00  0.00     0.010 A 
ATOM     75  C   UNL     1     -10.281 -13.331  11.044  1.00  0.00     0.010 A 
ATOM     76  C   UNL     1     -12.526 -11.943  11.972  1.00  0.00     0.020 A 
ATOM     77  C   UNL     1     -10.550 -13.285  12.415  1.00  0.00     0.020 A 
ATOM     78  C   UNL     1     -11.663 -12.577  12.871  1.00  0.00     0.054 A 
BRANCH  78  79
ATOM     79  S   UNL     1     -12.034 -12.483  14.644  1.00  0.00     0.124 S 
ATOM     80  O   UNL     1     -11.753 -11.080  14.937  1.00  0.00    -0.237 OA
ATOM     81  O   UNL     1     -13.442 -12.866  14.695  1.00  0.00    -0.237 OA
ATOM     82  O   UNL     1     -11.108 -13.441  15.244  1.00  0.00    -0.744 OA
ENDBRANCH  78  79
ENDBRANCH  59  73
BRANCH  60  83
ATOM     83  C   UNL     1      -8.883 -12.899   0.384  1.00  0.00    -0.014 A 
ATOM     84  C   UNL     1      -9.834 -13.251  -0.591  1.00  0.00     0.010 A 
ATOM     85  C   UNL     1      -7.569 -12.601  -0.024  1.00  0.00     0.010 A 
ATOM     86  C   UNL     1      -9.475 -13.318  -1.941  1.00  0.00     0.020 A 
ATOM     87  C   UNL     1      -7.214 -12.635  -1.375  1.00  0.00     0.020 A 
ATOM     88  C   UNL     1      -8.168 -13.003  -2.325  1.00  0.00     0.054 A 
BRANCH  88  89
ATOM     89  S   UNL     1      -7.742 -13.040  -4.088  1.00  0.00     0.124 S 
ATOM     90  O   UNL     1      -7.753 -14.470  -4.376  1.00  0.00    -0.237 OA
ATOM     91  O   UNL     1      -8.824 -12.264  -4.688  1.00  0.00    -0.237 OA
ATOM     92  O   UNL     1      -6.428 -12.402  -4.136  1.00  0.00    -0.744 OA
ENDBRANCH  88  89
ENDBRANCH  60  83
BRANCH  72  93
ATOM     93  C   UNL     1     -10.767 -17.780   5.013  1.00  0.00    -0.014 A 
ATOM     94  C   UNL     1      -9.692 -18.668   4.830  1.00  0.00     0.010 A 
ATOM     95  C   UNL     1     -12.067 -18.303   5.156  1.00  0.00     0.010 A 
ATOM     96  C   UNL     1      -9.916 -20.046   4.762  1.00  0.00     0.020 A 
ATOM     97  C   UNL     1     -12.291 -19.681   5.122  1.00  0.00     0.020 A 
ATOM     98  C   UNL     1     -11.214 -20.544   4.912  1.00  0.00     0.054 A 
BRANCH  98  99
ATOM     99  S   UNL     1     -11.470 -22.340   4.866  1.00  0.00     0.124 S 
ATOM    100  O   UNL     1     -11.240 -22.645   3.457  1.00  0.00    -0.237 OA
ATOM    101  O   UNL     1     -10.450 -22.831   5.790  1.00  0.00    -0.237 OA
ATOM    102  O   UNL     1     -12.848 -22.507   5.322  1.00  0.00    -0.744 OA
ENDBRANCH  98  99
ENDBRANCH  72  93
ENDBRANCH  46  47
ENDBRANCH  39  41
ENDBRANCH  38  39
ENDBRANCH  37  38
ENDBRANCH  36  37
ENDBRANCH  35  36
ENDBRANCH  34  35
ENDBRANCH   1  34
TORSDOF 27
