REMARK SMILES C[C@@H]1[C@H](C)CCC[C@@H]1NC(=O)COc1csc(C(=O)OCCOCCOCCOCCOC(=O)c2ccc(-c3c4nc(c(-c5ccc(S(=O)(=O)[O-])cc5)c5ccc([nH]5)c(-c5ccc(S(=O)(=O)[O-])cc5)c5nc(c(-c6ccc(S(=O)(=O)[O-])cc6)c6ccc3[nH]6)C=C5)C=C4)cc2)c1
REMARK SMILES IDX 25 1 24 2 23 3 22 4 21 5 20 6 18 7 19 8 17 9 14 10 15 11
REMARK SMILES IDX 95 12 16 13 13 14 12 15 10 16 9 17 11 19 8 20 1 21 2 22 3 23
REMARK SMILES IDX 4 24 5 25 7 26 6 27 26 28 27 29 28 30 29 31 30 32 31 33
REMARK SMILES IDX 32 34 33 35 34 36 35 37 36 38 94 39 37 40 93 41 38 42 39 43
REMARK SMILES IDX 40 44 87 45 41 46 92 47 86 48 88 49 42 50 91 51 85 52 84 53
REMARK SMILES IDX 43 55 73 56 54 57 72 58 55 59 58 60 71 61 89 62 56 63 57 64
REMARK SMILES IDX 70 66 90 67 59 68 44 69 45 70 53 71 46 72 52 73 47 74 48 75
REMARK SMILES IDX 49 76 50 77 51 78 74 79 75 80 83 81 76 82 82 83 77 84 78 85
REMARK SMILES IDX 79 86 80 87 81 88 60 89 61 90 69 91 62 92 68 93 63 94 64 95
REMARK SMILES IDX 65 96 66 97 67 98
REMARK H PARENT 9 18 88 54 58 65
REMARK Flexibility Score: inf
ROOT
ATOM      1  C   UNL     1       4.291  -1.820   8.008  1.00  0.00     0.188 C 
ENDROOT
BRANCH   1   2
ATOM      2  C   UNL     1       4.447  -0.895   9.225  1.00  0.00     0.188 C 
BRANCH   2   3
ATOM      3  O   UNL     1       3.864  -1.419  10.419  1.00  0.00    -0.376 OA
BRANCH   3   4
ATOM      4  C   UNL     1       2.644  -0.817  10.843  1.00  0.00     0.202 C 
BRANCH   4   5
ATOM      5  C   UNL     1       1.400  -1.213  10.035  1.00  0.00     0.261 C 
BRANCH   5   6
ATOM      6  O   UNL     1       1.418  -0.778   8.667  1.00  0.00    -0.459 OA
BRANCH   6   7
ATOM      7  C   UNL     1       1.474   0.558   8.431  1.00  0.00     0.348 C 
ATOM      8  O   UNL     1       1.370   1.424   9.291  1.00  0.00    -0.245 OA
BRANCH   7   9
ATOM      9  C   UNL     1       1.835   0.756   7.044  1.00  0.00     0.116 A 
ATOM     10  C   UNL     1       2.236   0.387   4.780  1.00  0.00     0.131 A 
ATOM     11  C   UNL     1       2.976   1.526   4.997  1.00  0.00     0.112 A 
ATOM     12  C   UNL     1       1.566  -0.048   5.953  1.00  0.00     0.074 A 
ATOM     13  S   UNL     1       2.823   2.086   6.609  1.00  0.00    -0.133 S 
BRANCH  10  14
ATOM     14  O   UNL     1       2.067  -0.253   3.600  1.00  0.00    -0.483 OA
BRANCH  14  15
ATOM     15  C   UNL     1       3.192  -0.291   2.748  1.00  0.00     0.329 C 
BRANCH  15  16
ATOM     16  C   UNL     1       3.524   0.937   1.898  1.00  0.00     0.258 C 
ATOM     17  N   UNL     1       2.553   1.651   1.265  1.00  0.00    -0.350 N 
ATOM     18  H   UNL     1       2.891   2.307   0.613  1.00  0.00     0.163 HD
ATOM     19  O   UNL     1       4.697   1.282   1.717  1.00  0.00    -0.271 OA
BRANCH  17  20
ATOM     20  C   UNL     1       1.093   1.615   1.384  1.00  0.00     0.085 C 
ATOM     21  C   UNL     1       0.893  -0.167  -0.452  1.00  0.00     0.010 C 
ATOM     22  C   UNL     1       0.439   0.278   0.945  1.00  0.00     0.011 C 
ATOM     23  C   UNL     1      -1.101   0.392   1.098  1.00  0.00    -0.009 C 
ATOM     24  C   UNL     1      -1.832  -0.913   0.785  1.00  0.00     0.008 C 
ATOM     25  C   UNL     1      -1.670   1.551   0.271  1.00  0.00     0.004 C 
ATOM     26  C   UNL     1       0.510   2.804   0.595  1.00  0.00     0.025 C 
ATOM     27  C   UNL     1      -1.012   2.873   0.651  1.00  0.00     0.002 C 
ENDBRANCH  17  20
ENDBRANCH  15  16
ENDBRANCH  14  15
ENDBRANCH  10  14
ENDBRANCH   7   9
ENDBRANCH   6   7
ENDBRANCH   5   6
ENDBRANCH   4   5
ENDBRANCH   3   4
ENDBRANCH   2   3
ENDBRANCH   1   2
BRANCH   1  28
ATOM     28  O   UNL     1       3.454  -2.936   8.248  1.00  0.00    -0.377 OA
BRANCH  28  29
ATOM     29  C   UNL     1       3.996  -4.050   8.956  1.00  0.00     0.188 C 
BRANCH  29  30
ATOM     30  C   UNL     1       5.295  -3.938   9.783  1.00  0.00     0.188 C 
BRANCH  30  31
ATOM     31  O   UNL     1       6.374  -3.301   9.098  1.00  0.00    -0.376 OA
BRANCH  31  32
ATOM     32  C   UNL     1       7.448  -4.145   8.697  1.00  0.00     0.202 C 
BRANCH  32  33
ATOM     33  C   UNL     1       7.163  -4.897   7.392  1.00  0.00     0.261 C 
BRANCH  33  34
ATOM     34  O   UNL     1       6.114  -5.872   7.486  1.00  0.00    -0.460 OA
BRANCH  34  35
ATOM     35  C   UNL     1       6.303  -6.882   8.364  1.00  0.00     0.338 C 
ATOM     36  O   UNL     1       7.290  -7.093   9.043  1.00  0.00    -0.246 OA
BRANCH  35  37
ATOM     37  C   UNL     1       5.025  -7.604   8.502  1.00  0.00     0.060 A 
ATOM     38  C   UNL     1       4.489  -7.783   9.783  1.00  0.00     0.016 A 
ATOM     39  C   UNL     1       4.371  -8.108   7.375  1.00  0.00     0.016 A 
ATOM     40  C   UNL     1       3.312  -8.513   9.943  1.00  0.00     0.010 A 
ATOM     41  C   UNL     1       3.201  -8.848   7.538  1.00  0.00     0.010 A 
ATOM     42  C   UNL     1       2.689  -9.084   8.825  1.00  0.00    -0.014 A 
BRANCH  42  43
ATOM     43  C   UNL     1       1.617 -10.087   9.008  1.00  0.00     0.031 A 
ATOM     44  C   UNL     1       1.998 -11.541   9.034  1.00  0.00     0.074 A 
ATOM     45  C   UNL     1       0.330  -9.719   9.124  1.00  0.00     0.049 A 
ATOM     46  N   UNL     1       1.235 -12.595   9.154  1.00  0.00    -0.248 NA
ATOM     47  C   UNL     1       3.433 -11.843   8.899  1.00  0.00     0.031 C 
ATOM     48  C   UNL     1      -0.161  -8.343   9.122  1.00  0.00     0.029 A 
ATOM     49  N   UNL     1      -0.801 -10.485   9.248  1.00  0.00    -0.354 N 
ATOM     50  C   UNL     1       2.095 -13.686   9.103  1.00  0.00     0.074 A 
ATOM     51  C   UNL     1       3.432 -13.166   8.914  1.00  0.00     0.031 C 
ATOM     52  C   UNL     1      -1.502  -8.362   9.222  1.00  0.00     0.029 A 
ATOM     53  C   UNL     1      -1.961  -9.750   9.272  1.00  0.00     0.049 A 
ATOM     54  H   UNL     1      -0.784 -11.467   9.315  1.00  0.00     0.167 HD
ATOM     55  C   UNL     1       1.799 -15.003   9.204  1.00  0.00     0.031 A 
ATOM     56  C   UNL     1      -3.247 -10.153   9.310  1.00  0.00     0.031 A 
ATOM     57  C   UNL     1       0.467 -15.520   9.358  1.00  0.00     0.049 A 
ATOM     58  C   UNL     1      -3.561 -11.623   9.374  1.00  0.00     0.074 A 
ATOM     59  C   UNL     1       0.065 -16.836   9.498  1.00  0.00     0.029 A 
ATOM     60  N   UNL     1      -0.682 -14.745   9.370  1.00  0.00    -0.354 N 
ATOM     61  N   UNL     1      -2.734 -12.643   9.385  1.00  0.00    -0.248 NA
ATOM     62  C   UNL     1      -4.980 -11.998   9.439  1.00  0.00     0.031 C 
ATOM     63  C   UNL     1      -1.334 -16.860   9.543  1.00  0.00     0.029 A 
ATOM     64  C   UNL     1      -1.799 -15.555   9.484  1.00  0.00     0.049 A 
ATOM     65  H   UNL     1      -0.702 -13.762   9.307  1.00  0.00     0.167 HD
ATOM     66  C   UNL     1      -3.532 -13.779   9.478  1.00  0.00     0.074 A 
ATOM     67  C   UNL     1      -4.906 -13.320   9.530  1.00  0.00     0.031 C 
ATOM     68  C   UNL     1      -3.161 -15.083   9.521  1.00  0.00     0.031 A 
BRANCH  55  69
ATOM     69  C   UNL     1       2.949 -15.967   9.099  1.00  0.00    -0.014 A 
ATOM     70  C   UNL     1       3.894 -16.089  10.134  1.00  0.00     0.010 A 
ATOM     71  C   UNL     1       3.100 -16.743   7.936  1.00  0.00     0.010 A 
ATOM     72  C   UNL     1       5.003 -16.925   9.983  1.00  0.00     0.020 A 
ATOM     73  C   UNL     1       4.195 -17.599   7.792  1.00  0.00     0.020 A 
ATOM     74  C   UNL     1       5.152 -17.665   8.806  1.00  0.00     0.054 A 
BRANCH  74  75
ATOM     75  S   UNL     1       6.613 -18.725   8.620  1.00  0.00     0.124 S 
ATOM     76  O   UNL     1       7.655 -17.747   8.317  1.00  0.00    -0.237 OA
ATOM     77  O   UNL     1       6.716 -19.366   9.928  1.00  0.00    -0.237 OA
ATOM     78  O   UNL     1       6.255 -19.616   7.519  1.00  0.00    -0.744 OA
ENDBRANCH  74  75
ENDBRANCH  55  69
BRANCH  56  79
ATOM     79  C   UNL     1      -4.330  -9.135   9.280  1.00  0.00    -0.014 A 
ATOM     80  C   UNL     1      -5.059  -8.829  10.442  1.00  0.00     0.010 A 
ATOM     81  C   UNL     1      -4.601  -8.429   8.094  1.00  0.00     0.010 A 
ATOM     82  C   UNL     1      -6.035  -7.828  10.419  1.00  0.00     0.020 A 
ATOM     83  C   UNL     1      -5.561  -7.414   8.073  1.00  0.00     0.020 A 
ATOM     84  C   UNL     1      -6.274  -7.121   9.237  1.00  0.00     0.054 A 
BRANCH  84  85
ATOM     85  S   UNL     1      -7.475  -5.760   9.256  1.00  0.00     0.124 S 
ATOM     86  O   UNL     1      -8.746  -6.475   9.269  1.00  0.00    -0.237 OA
ATOM     87  O   UNL     1      -7.132  -5.054  10.489  1.00  0.00    -0.237 OA
ATOM     88  O   UNL     1      -7.179  -5.027   8.027  1.00  0.00    -0.744 OA
ENDBRANCH  84  85
ENDBRANCH  56  79
BRANCH  68  89
ATOM     89  C   UNL     1      -4.251 -16.113   9.648  1.00  0.00    -0.014 A 
ATOM     90  C   UNL     1      -5.072 -16.441   8.556  1.00  0.00     0.010 A 
ATOM     91  C   UNL     1      -4.409 -16.811  10.860  1.00  0.00     0.010 A 
ATOM     92  C   UNL     1      -6.050 -17.432   8.680  1.00  0.00     0.020 A 
ATOM     93  C   UNL     1      -5.369 -17.819  10.981  1.00  0.00     0.020 A 
ATOM     94  C   UNL     1      -6.192 -18.115   9.893  1.00  0.00     0.054 A 
BRANCH  94  95
ATOM     95  S   UNL     1      -7.433 -19.433  10.016  1.00  0.00     0.124 S 
ATOM     96  O   UNL     1      -8.674 -18.671  10.133  1.00  0.00    -0.237 OA
ATOM     97  O   UNL     1      -7.258 -20.160   8.761  1.00  0.00    -0.237 OA
ATOM     98  O   UNL     1      -7.038 -20.168  11.215  1.00  0.00    -0.744 OA
ENDBRANCH  94  95
ENDBRANCH  68  89
ENDBRANCH  42  43
ENDBRANCH  35  37
ENDBRANCH  34  35
ENDBRANCH  33  34
ENDBRANCH  32  33
ENDBRANCH  31  32
ENDBRANCH  30  31
ENDBRANCH  29  30
ENDBRANCH  28  29
ENDBRANCH   1  28
TORSDOF 27
