REMARK SMILES COc1cc(NC(=O)CN2C(=O)c3ccccc3C2=O)c(C(=O)OCCOCCOCCOCCOC(=O)c2ccc(-c3c4nc(c(-c5ccc(S(=O)(=O)[O-])cc5)c5ccc([nH]5)c(-c5ccc(S(=O)(=O)[O-])cc5)c5nc(c(-c6ccc(S(=O)(=O)[O-])cc6)c6ccc3[nH]6)C=C5)C=C4)cc2)cc1OC
REMARK SMILES IDX 30 1 29 2 28 3 27 4 26 5 25 6 24 7 22 8 23 9 21 10 3 11 4 12
REMARK SMILES IDX 100 13 5 14 99 15 2 16 1 17 101 18 102 19 6 20 7 21 8 23
REMARK SMILES IDX 9 24 10 25 11 26 19 27 12 28 13 29 18 30 20 31 14 32 17 33
REMARK SMILES IDX 15 34 16 35 31 36 32 37 33 38 34 39 35 40 36 41 37 42 38 43
REMARK SMILES IDX 39 44 40 45 98 46 41 47 97 48 42 49 43 50 44 51 91 52 45 53
REMARK SMILES IDX 96 54 90 55 92 56 46 57 95 58 89 59 88 60 47 62 77 63 58 64
REMARK SMILES IDX 76 65 59 66 62 67 75 68 93 69 60 70 61 71 74 73 94 74 63 75
REMARK SMILES IDX 48 76 49 77 57 78 50 79 56 80 51 81 52 82 53 83 54 84 55 85
REMARK SMILES IDX 78 86 79 87 87 88 80 89 86 90 81 91 82 92 83 93 84 94 85 95
REMARK SMILES IDX 64 96 65 97 73 98 66 99 72 100 67 101 68 102 69 103 70 104
REMARK SMILES IDX 71 105
REMARK H PARENT 6 22 92 61 62 72
REMARK Flexibility Score: inf
ROOT
ATOM      1  O   UNL     1       3.398  -7.351   0.094  1.00  0.00    -0.377 OA
ENDROOT
BRANCH   1   2
ATOM      2  C   UNL     1       2.032  -7.133   0.408  1.00  0.00     0.188 C 
BRANCH   2   3
ATOM      3  C   UNL     1       0.992  -7.853  -0.473  1.00  0.00     0.188 C 
BRANCH   3   4
ATOM      4  O   UNL     1       1.553  -8.852  -1.303  1.00  0.00    -0.376 OA
BRANCH   4   5
ATOM      5  C   UNL     1       1.797  -8.595  -2.671  1.00  0.00     0.202 C 
BRANCH   5   6
ATOM      6  C   UNL     1       2.540  -7.336  -3.141  1.00  0.00     0.261 C 
BRANCH   6   7
ATOM      7  O   UNL     1       2.349  -6.133  -2.392  1.00  0.00    -0.460 OA
BRANCH   7   8
ATOM      8  C   UNL     1       1.186  -5.468  -2.536  1.00  0.00     0.340 C 
ATOM      9  O   UNL     1       0.223  -5.818  -3.198  1.00  0.00    -0.246 OA
BRANCH   8  10
ATOM     10  C   UNL     1       1.181  -4.293  -1.625  1.00  0.00     0.087 A 
ATOM     11  C   UNL     1       1.229  -1.950  -0.126  1.00  0.00     0.162 A 
ATOM     12  C   UNL     1       0.034  -2.667  -0.297  1.00  0.00     0.077 A 
ATOM     13  C   UNL     1       2.430  -2.449  -0.627  1.00  0.00     0.161 A 
ATOM     14  C   UNL     1       0.006  -3.890  -0.954  1.00  0.00     0.059 A 
ATOM     15  C   UNL     1       2.387  -3.602  -1.412  1.00  0.00     0.068 A 
BRANCH  11  16
ATOM     16  O   UNL     1       1.191  -0.808   0.628  1.00  0.00    -0.493 OA
ATOM     17  C   UNL     1       0.448   0.227  -0.019  1.00  0.00     0.278 C 
ENDBRANCH  11  16
BRANCH  13  18
ATOM     18  O   UNL     1       3.691  -1.954  -0.461  1.00  0.00    -0.493 OA
ATOM     19  C   UNL     1       3.831  -0.603  -0.052  1.00  0.00     0.278 C 
ENDBRANCH  13  18
BRANCH  14  20
ATOM     20  N   UNL     1      -1.111  -4.753  -0.915  1.00  0.00    -0.324 N 
ATOM     21  C   UNL     1      -2.227  -4.862  -0.135  1.00  0.00     0.244 C 
ATOM     22  H   UNL     1      -1.078  -5.441  -1.618  1.00  0.00     0.170 HD
ATOM     23  O   UNL     1      -2.991  -5.797  -0.416  1.00  0.00    -0.273 OA
BRANCH  21  24
ATOM     24  C   UNL     1      -2.659  -3.879   0.958  1.00  0.00     0.229 C 
BRANCH  24  25
ATOM     25  N   UNL     1      -1.766  -3.655   2.081  1.00  0.00    -0.265 N 
ATOM     26  C   UNL     1      -1.396  -4.636   2.963  1.00  0.00     0.262 C 
ATOM     27  C   UNL     1      -1.481  -2.414   2.585  1.00  0.00     0.262 C 
ATOM     28  O   UNL     1      -1.653  -5.819   2.942  1.00  0.00    -0.269 OA
ATOM     29  C   UNL     1      -0.643  -3.974   4.031  1.00  0.00     0.053 A 
ATOM     30  C   UNL     1      -0.682  -2.614   3.788  1.00  0.00     0.053 A 
ATOM     31  O   UNL     1      -1.857  -1.324   2.188  1.00  0.00    -0.269 OA
ATOM     32  C   UNL     1       0.008  -4.499   5.130  1.00  0.00     0.015 A 
ATOM     33  C   UNL     1      -0.062  -1.701   4.619  1.00  0.00     0.015 A 
ATOM     34  C   UNL     1       0.651  -3.596   5.984  1.00  0.00     0.001 A 
ATOM     35  C   UNL     1       0.620  -2.209   5.728  1.00  0.00     0.001 A 
ENDBRANCH  24  25
ENDBRANCH  21  24
ENDBRANCH  14  20
ENDBRANCH   8  10
ENDBRANCH   7   8
ENDBRANCH   6   7
ENDBRANCH   5   6
ENDBRANCH   4   5
ENDBRANCH   3   4
ENDBRANCH   2   3
ENDBRANCH   1   2
BRANCH   1  36
ATOM     36  C   UNL     1       3.933  -8.674   0.129  1.00  0.00     0.188 C 
BRANCH  36  37
ATOM     37  C   UNL     1       3.141  -9.887   0.681  1.00  0.00     0.188 C 
BRANCH  37  38
ATOM     38  O   UNL     1       2.044  -9.555   1.515  1.00  0.00    -0.376 OA
BRANCH  38  39
ATOM     39  C   UNL     1       2.163  -9.785   2.905  1.00  0.00     0.202 C 
BRANCH  39  40
ATOM     40  C   UNL     1       3.211  -8.947   3.649  1.00  0.00     0.261 C 
BRANCH  40  41
ATOM     41  O   UNL     1       4.549  -9.017   3.138  1.00  0.00    -0.460 OA
BRANCH  41  42
ATOM     42  C   UNL     1       5.169 -10.217   3.191  1.00  0.00     0.338 C 
ATOM     43  O   UNL     1       4.723 -11.256   3.641  1.00  0.00    -0.246 OA
BRANCH  42  44
ATOM     44  C   UNL     1       6.428 -10.094   2.428  1.00  0.00     0.060 A 
ATOM     45  C   UNL     1       6.636 -10.912   1.310  1.00  0.00     0.016 A 
ATOM     46  C   UNL     1       7.388  -9.152   2.807  1.00  0.00     0.016 A 
ATOM     47  C   UNL     1       7.826 -10.813   0.587  1.00  0.00     0.010 A 
ATOM     48  C   UNL     1       8.585  -9.069   2.095  1.00  0.00     0.010 A 
ATOM     49  C   UNL     1       8.823  -9.923   1.004  1.00  0.00    -0.014 A 
BRANCH  49  50
ATOM     50  C   UNL     1      10.190 -10.024   0.441  1.00  0.00     0.031 A 
ATOM     51  C   UNL     1      11.220 -10.800   1.216  1.00  0.00     0.074 A 
ATOM     52  C   UNL     1      10.515  -9.448  -0.729  1.00  0.00     0.049 A 
ATOM     53  N   UNL     1      12.485 -10.998   0.951  1.00  0.00    -0.248 NA
ATOM     54  C   UNL     1      10.757 -11.432   2.462  1.00  0.00     0.031 C 
ATOM     55  C   UNL     1       9.595  -8.717  -1.598  1.00  0.00     0.029 A 
ATOM     56  N   UNL     1      11.719  -9.391  -1.385  1.00  0.00    -0.354 N 
ATOM     57  C   UNL     1      12.973 -11.764   2.004  1.00  0.00     0.074 A 
ATOM     58  C   UNL     1      11.876 -11.965   2.926  1.00  0.00     0.031 C 
ATOM     59  C   UNL     1      10.270  -8.287  -2.679  1.00  0.00     0.029 A 
ATOM     60  C   UNL     1      11.674  -8.677  -2.558  1.00  0.00     0.049 A 
ATOM     61  H   UNL     1      12.538  -9.821  -1.047  1.00  0.00     0.167 HD
ATOM     62  C   UNL     1      14.221 -12.258   2.188  1.00  0.00     0.031 A 
ATOM     63  C   UNL     1      12.658  -8.362  -3.425  1.00  0.00     0.031 A 
ATOM     64  C   UNL     1      15.315 -12.028   1.283  1.00  0.00     0.049 A 
ATOM     65  C   UNL     1      14.061  -8.841  -3.154  1.00  0.00     0.074 A 
ATOM     66  C   UNL     1      16.614 -12.496   1.367  1.00  0.00     0.029 A 
ATOM     67  N   UNL     1      15.243 -11.250   0.136  1.00  0.00    -0.354 N 
ATOM     68  N   UNL     1      14.505  -9.587  -2.171  1.00  0.00    -0.248 NA
ATOM     69  C   UNL     1      15.096  -8.436  -4.117  1.00  0.00     0.031 C 
ATOM     70  C   UNL     1      17.345 -11.940   0.311  1.00  0.00     0.029 A 
ATOM     71  C   UNL     1      16.484 -11.190  -0.475  1.00  0.00     0.049 A 
ATOM     72  H   UNL     1      14.429 -10.805  -0.194  1.00  0.00     0.167 HD
ATOM     73  C   UNL     1      15.863  -9.771  -2.414  1.00  0.00     0.074 A 
ATOM     74  C   UNL     1      16.165  -9.062  -3.642  1.00  0.00     0.031 C 
ATOM     75  C   UNL     1      16.775 -10.471  -1.692  1.00  0.00     0.031 A 
BRANCH  62  76
ATOM     76  C   UNL     1      14.470 -13.038   3.454  1.00  0.00    -0.014 A 
ATOM     77  C   UNL     1      13.863 -14.287   3.684  1.00  0.00     0.010 A 
ATOM     78  C   UNL     1      15.313 -12.498   4.443  1.00  0.00     0.010 A 
ATOM     79  C   UNL     1      14.038 -14.945   4.904  1.00  0.00     0.020 A 
ATOM     80  C   UNL     1      15.520 -13.171   5.650  1.00  0.00     0.020 A 
ATOM     81  C   UNL     1      14.857 -14.377   5.884  1.00  0.00     0.054 A 
BRANCH  81  82
ATOM     82  S   UNL     1      15.044 -15.238   7.469  1.00  0.00     0.124 S 
ATOM     83  O   UNL     1      13.738 -15.020   8.085  1.00  0.00    -0.237 OA
ATOM     84  O   UNL     1      15.323 -16.611   7.058  1.00  0.00    -0.237 OA
ATOM     85  O   UNL     1      16.158 -14.544   8.112  1.00  0.00    -0.744 OA
ENDBRANCH  81  82
ENDBRANCH  62  76
BRANCH  63  86
ATOM     86  C   UNL     1      12.342  -7.561  -4.639  1.00  0.00    -0.014 A 
ATOM     87  C   UNL     1      12.379  -8.158  -5.912  1.00  0.00     0.010 A 
ATOM     88  C   UNL     1      11.970  -6.209  -4.529  1.00  0.00     0.010 A 
ATOM     89  C   UNL     1      12.042  -7.420  -7.051  1.00  0.00     0.020 A 
ATOM     90  C   UNL     1      11.607  -5.475  -5.663  1.00  0.00     0.020 A 
ATOM     91  C   UNL     1      11.646  -6.086  -6.917  1.00  0.00     0.054 A 
BRANCH  91  92
ATOM     92  S   UNL     1      11.125  -5.180  -8.400  1.00  0.00     0.124 S 
ATOM     93  O   UNL     1      12.384  -5.022  -9.121  1.00  0.00    -0.237 OA
ATOM     94  O   UNL     1      10.160  -6.096  -9.003  1.00  0.00    -0.237 OA
ATOM     95  O   UNL     1      10.551  -3.947  -7.865  1.00  0.00    -0.744 OA
ENDBRANCH  91  92
ENDBRANCH  63  86
BRANCH  75  96
ATOM     96  C   UNL     1      18.185 -10.540  -2.224  1.00  0.00    -0.014 A 
ATOM     97  C   UNL     1      19.031  -9.417  -2.214  1.00  0.00     0.010 A 
ATOM     98  C   UNL     1      18.689 -11.770  -2.686  1.00  0.00     0.010 A 
ATOM     99  C   UNL     1      20.344  -9.517  -2.686  1.00  0.00     0.020 A 
ATOM    100  C   UNL     1      20.010 -11.882  -3.127  1.00  0.00     0.020 A 
ATOM    101  C   UNL     1      20.826 -10.750  -3.137  1.00  0.00     0.054 A 
BRANCH 101 102
ATOM    102  S   UNL     1      22.547 -10.862  -3.700  1.00  0.00     0.124 S 
ATOM    103  O   UNL     1      22.500 -10.137  -4.967  1.00  0.00    -0.237 OA
ATOM    104  O   UNL     1      23.279 -10.200  -2.624  1.00  0.00    -0.237 OA
ATOM    105  O   UNL     1      22.782 -12.300  -3.814  1.00  0.00    -0.744 OA
ENDBRANCH 101 102
ENDBRANCH  75  96
ENDBRANCH  49  50
ENDBRANCH  42  44
ENDBRANCH  41  42
ENDBRANCH  40  41
ENDBRANCH  39  40
ENDBRANCH  38  39
ENDBRANCH  37  38
ENDBRANCH  36  37
ENDBRANCH   1  36
TORSDOF 28
