REMARK SMILES Cn1c(COc2ccc(C(=O)OCCOCCOCCOCCOC(=O)c3ccc(-c4c5nc(c(-c6ccc(S(=O)(=O)[O-])cc6)c6ccc([nH]6)c(-c6ccc(S(=O)(=O)[O-])cc6)c6nc(c(-c7ccc(S(=O)(=O)[O-])cc7)c7ccc4[nH]7)C=C6)C=C5)cc3)cc2)nc2ccccc21
REMARK SMILES IDX 18 1 17 2 16 3 15 4 14 5 13 6 12 7 10 8 11 9 9 10 6 11 7 12
REMARK SMILES IDX 88 13 8 14 87 15 5 16 4 17 3 18 1 19 2 20 95 21 89 22 90 23
REMARK SMILES IDX 94 24 91 25 93 26 92 27 19 28 20 29 21 30 22 31 23 32 24 33
REMARK SMILES IDX 25 34 26 35 27 36 28 37 86 38 29 39 85 40 30 41 31 42 32 43
REMARK SMILES IDX 79 44 33 45 84 46 78 47 80 48 34 49 83 50 77 51 76 52 35 54
REMARK SMILES IDX 65 55 46 56 64 57 47 58 50 59 63 60 81 61 48 62 49 63 62 65
REMARK SMILES IDX 82 66 51 67 36 68 37 69 45 70 38 71 44 72 39 73 40 74 41 75
REMARK SMILES IDX 42 76 43 77 66 78 67 79 75 80 68 81 74 82 69 83 70 84 71 85
REMARK SMILES IDX 72 86 73 87 52 88 53 89 61 90 54 91 60 92 55 93 56 94 57 95
REMARK SMILES IDX 58 96 59 97
REMARK H PARENT 80 53 50 64
REMARK Flexibility Score: inf
ROOT
ATOM      1  O   UNL     1      -0.561  -0.497  -7.134  1.00  0.00    -0.377 OA
ENDROOT
BRANCH   1   2
ATOM      2  C   UNL     1      -1.743  -1.272  -7.038  1.00  0.00     0.188 C 
BRANCH   2   3
ATOM      3  C   UNL     1      -2.973  -0.717  -7.784  1.00  0.00     0.188 C 
BRANCH   3   4
ATOM      4  O   UNL     1      -2.649   0.223  -8.793  1.00  0.00    -0.376 OA
BRANCH   4   5
ATOM      5  C   UNL     1      -2.790   1.614  -8.570  1.00  0.00     0.202 C 
BRANCH   5   6
ATOM      6  C   UNL     1      -2.274   2.304  -7.299  1.00  0.00     0.261 C 
BRANCH   6   7
ATOM      7  O   UNL     1      -2.360   1.556  -6.090  1.00  0.00    -0.460 OA
BRANCH   7   8
ATOM      8  C   UNL     1      -3.564   1.440  -5.496  1.00  0.00     0.338 C 
ATOM      9  O   UNL     1      -4.615   1.931  -5.862  1.00  0.00    -0.246 OA
BRANCH   8  10
ATOM     10  C   UNL     1      -3.425   0.439  -4.408  1.00  0.00     0.060 A 
ATOM     11  C   UNL     1      -3.214  -1.461  -2.392  1.00  0.00     0.120 A 
ATOM     12  C   UNL     1      -4.409  -1.344  -3.095  1.00  0.00     0.047 A 
ATOM     13  C   UNL     1      -2.088  -0.739  -2.783  1.00  0.00     0.047 A 
ATOM     14  C   UNL     1      -4.516  -0.389  -4.107  1.00  0.00     0.019 A 
ATOM     15  C   UNL     1      -2.200   0.245  -3.757  1.00  0.00     0.019 A 
BRANCH  11  16
ATOM     16  O   UNL     1      -3.156  -2.299  -1.310  1.00  0.00    -0.486 OA
BRANCH  16  17
ATOM     17  C   UNL     1      -3.219  -1.548  -0.070  1.00  0.00     0.304 C 
BRANCH  17  18
ATOM     18  C   UNL     1      -1.861  -0.999   0.254  1.00  0.00     0.147 A 
ATOM     19  C   UNL     1      -2.399   1.484   0.117  1.00  0.00     0.151 C 
ATOM     20  N   UNL     1      -1.526   0.343   0.261  1.00  0.00    -0.328 N 
ATOM     21  C   UNL     1      -0.150   0.436   0.250  1.00  0.00     0.068 A 
ATOM     22  N   UNL     1      -0.779  -1.742   0.412  1.00  0.00    -0.229 NA
ATOM     23  C   UNL     1       0.283  -0.881   0.335  1.00  0.00     0.089 A 
ATOM     24  C   UNL     1       0.735   1.515   0.128  1.00  0.00     0.028 A 
ATOM     25  C   UNL     1       1.655  -1.165   0.280  1.00  0.00     0.030 A 
ATOM     26  C   UNL     1       2.100   1.214   0.062  1.00  0.00     0.002 A 
ATOM     27  C   UNL     1       2.556  -0.104   0.131  1.00  0.00     0.002 A 
ENDBRANCH  17  18
ENDBRANCH  16  17
ENDBRANCH  11  16
ENDBRANCH   8  10
ENDBRANCH   7   8
ENDBRANCH   6   7
ENDBRANCH   5   6
ENDBRANCH   4   5
ENDBRANCH   3   4
ENDBRANCH   2   3
ENDBRANCH   1   2
BRANCH   1  28
ATOM     28  C   UNL     1       0.096  -0.369  -8.396  1.00  0.00     0.188 C 
BRANCH  28  29
ATOM     29  C   UNL     1      -0.403  -1.067  -9.688  1.00  0.00     0.188 C 
BRANCH  29  30
ATOM     30  O   UNL     1      -1.222  -2.206  -9.481  1.00  0.00    -0.376 OA
BRANCH  30  31
ATOM     31  C   UNL     1      -0.674  -3.484  -9.746  1.00  0.00     0.202 C 
BRANCH  31  32
ATOM     32  C   UNL     1       0.486  -3.934  -8.849  1.00  0.00     0.261 C 
BRANCH  32  33
ATOM     33  O   UNL     1       1.607  -3.042  -8.775  1.00  0.00    -0.460 OA
BRANCH  33  34
ATOM     34  C   UNL     1       2.315  -2.848  -9.913  1.00  0.00     0.338 C 
ATOM     35  O   UNL     1       2.111  -3.345 -10.997  1.00  0.00    -0.246 OA
BRANCH  34  36
ATOM     36  C   UNL     1       3.285  -1.762  -9.643  1.00  0.00     0.060 A 
ATOM     37  C   UNL     1       3.215  -0.581 -10.392  1.00  0.00     0.016 A 
ATOM     38  C   UNL     1       4.248  -1.912  -8.643  1.00  0.00     0.016 A 
ATOM     39  C   UNL     1       4.135   0.445 -10.162  1.00  0.00     0.010 A 
ATOM     40  C   UNL     1       5.180  -0.894  -8.429  1.00  0.00     0.010 A 
ATOM     41  C   UNL     1       5.148   0.275  -9.210  1.00  0.00    -0.014 A 
BRANCH  41  42
ATOM     42  C   UNL     1       6.290   1.221  -9.163  1.00  0.00     0.031 A 
ATOM     43  C   UNL     1       7.564   0.829  -9.865  1.00  0.00     0.074 A 
ATOM     44  C   UNL     1       6.200   2.407  -8.534  1.00  0.00     0.049 A 
ATOM     45  N   UNL     1       8.712   1.452  -9.910  1.00  0.00    -0.248 NA
ATOM     46  C   UNL     1       7.536  -0.437 -10.619  1.00  0.00     0.031 C 
ATOM     47  C   UNL     1       5.006   2.927  -7.868  1.00  0.00     0.029 A 
ATOM     48  N   UNL     1       7.141   3.390  -8.351  1.00  0.00    -0.354 N 
ATOM     49  C   UNL     1       9.540   0.658 -10.695  1.00  0.00     0.074 A 
ATOM     50  C   UNL     1       8.778  -0.511 -11.072  1.00  0.00     0.031 C 
ATOM     51  C   UNL     1       5.290   4.134  -7.345  1.00  0.00     0.029 A 
ATOM     52  C   UNL     1       6.694   4.453  -7.601  1.00  0.00     0.049 A 
ATOM     53  H   UNL     1       8.052   3.339  -8.722  1.00  0.00     0.167 HD
ATOM     54  C   UNL     1      10.818   0.887 -11.081  1.00  0.00     0.031 A 
ATOM     55  C   UNL     1       7.351   5.543  -7.155  1.00  0.00     0.031 A 
ATOM     56  C   UNL     1      11.582   2.040 -10.689  1.00  0.00     0.049 A 
ATOM     57  C   UNL     1       8.811   5.716  -7.503  1.00  0.00     0.074 A 
ATOM     58  C   UNL     1      12.890   2.356 -11.012  1.00  0.00     0.029 A 
ATOM     59  N   UNL     1      11.108   3.067  -9.888  1.00  0.00    -0.354 N 
ATOM     60  N   UNL     1       9.580   4.959  -8.251  1.00  0.00    -0.248 NA
ATOM     61  C   UNL     1       9.491   6.896  -6.948  1.00  0.00     0.031 C 
ATOM     62  C   UNL     1      13.225   3.546 -10.361  1.00  0.00     0.029 A 
ATOM     63  C   UNL     1      12.104   4.008  -9.690  1.00  0.00     0.049 A 
ATOM     64  H   UNL     1      10.199   3.120  -9.515  1.00  0.00     0.167 HD
ATOM     65  C   UNL     1      10.817   5.596  -8.290  1.00  0.00     0.074 A 
ATOM     66  C   UNL     1      10.691   6.805  -7.503  1.00  0.00     0.031 C 
ATOM     67  C   UNL     1      11.957   5.217  -8.919  1.00  0.00     0.031 A 
BRANCH  54  68
ATOM     68  C   UNL     1      11.476  -0.141 -11.963  1.00  0.00    -0.014 A 
ATOM     69  C   UNL     1      11.087  -0.298 -13.305  1.00  0.00     0.010 A 
ATOM     70  C   UNL     1      12.538  -0.917 -11.463  1.00  0.00     0.010 A 
ATOM     71  C   UNL     1      11.731  -1.227 -14.125  1.00  0.00     0.020 A 
ATOM     72  C   UNL     1      13.204  -1.827 -12.288  1.00  0.00     0.020 A 
ATOM     73  C   UNL     1      12.790  -1.983 -13.612  1.00  0.00     0.054 A 
BRANCH  73  74
ATOM     74  S   UNL     1      13.640  -3.143 -14.717  1.00  0.00     0.124 S 
ATOM     75  O   UNL     1      12.622  -4.172 -14.915  1.00  0.00    -0.237 OA
ATOM     76  O   UNL     1      13.931  -2.315 -15.884  1.00  0.00    -0.237 OA
ATOM     77  O   UNL     1      14.808  -3.564 -13.947  1.00  0.00    -0.744 OA
ENDBRANCH  73  74
ENDBRANCH  54  68
BRANCH  55  78
ATOM     78  C   UNL     1       6.660   6.554  -6.303  1.00  0.00    -0.014 A 
ATOM     79  C   UNL     1       6.480   7.874  -6.756  1.00  0.00     0.010 A 
ATOM     80  C   UNL     1       6.230   6.217  -5.006  1.00  0.00     0.010 A 
ATOM     81  C   UNL     1       5.926   8.845  -5.915  1.00  0.00     0.020 A 
ATOM     82  C   UNL     1       5.643   7.175  -4.176  1.00  0.00     0.020 A 
ATOM     83  C   UNL     1       5.514   8.489  -4.628  1.00  0.00     0.054 A 
BRANCH  83  84
ATOM     84  S   UNL     1       4.791   9.762  -3.556  1.00  0.00     0.124 S 
ATOM     85  O   UNL     1       5.957  10.571  -3.216  1.00  0.00    -0.237 OA
ATOM     86  O   UNL     1       3.813  10.396  -4.436  1.00  0.00    -0.237 OA
ATOM     87  O   UNL     1       4.218   8.994  -2.452  1.00  0.00    -0.744 OA
ENDBRANCH  83  84
ENDBRANCH  55  78
BRANCH  67  88
ATOM     88  C   UNL     1      13.144   6.144  -8.840  1.00  0.00    -0.014 A 
ATOM     89  C   UNL     1      13.858   6.324  -7.643  1.00  0.00     0.010 A 
ATOM     90  C   UNL     1      13.585   6.800 -10.005  1.00  0.00     0.010 A 
ATOM     91  C   UNL     1      14.969   7.172  -7.604  1.00  0.00     0.020 A 
ATOM     92  C   UNL     1      14.715   7.622  -9.978  1.00  0.00     0.020 A 
ATOM     93  C   UNL     1      15.392   7.814  -8.773  1.00  0.00     0.054 A 
BRANCH  93  94
ATOM     94  S   UNL     1      16.862   8.873  -8.703  1.00  0.00     0.124 S 
ATOM     95  O   UNL     1      16.373  10.025  -7.951  1.00  0.00    -0.237 OA
ATOM     96  O   UNL     1      17.830   8.030  -8.004  1.00  0.00    -0.237 OA
ATOM     97  O   UNL     1      17.171   9.133 -10.108  1.00  0.00    -0.744 OA
ENDBRANCH  93  94
ENDBRANCH  67  88
ENDBRANCH  41  42
ENDBRANCH  34  36
ENDBRANCH  33  34
ENDBRANCH  32  33
ENDBRANCH  31  32
ENDBRANCH  30  31
ENDBRANCH  29  30
ENDBRANCH  28  29
ENDBRANCH   1  28
TORSDOF 26
