REMARK SMILES C[C@@H]1[C@H](C(=O)OCCOCCOCCOCCOC(=O)c2ccc(-c3c4nc(c(-c5ccc(S(=O)(=O)[O-])cc5)c5ccc([nH]5)c(-c5ccc(S(=O)(=O)[O-])cc5)c5nc(c(-c6ccc(S(=O)(=O)[O-])cc6)c6ccc3[nH]6)C=C5)C=C4)cc2)CC[N@@H+]1[C@@H](C)c1cc(F)cc(F)c1
REMARK SMILES IDX 13 1 12 2 11 3 10 4 9 5 8 6 7 7 6 8 4 9 5 10 3 11 1 12 2 13
REMARK SMILES IDX 83 14 81 15 82 16 84 18 85 19 86 20 87 21 93 22 88 23 91 24
REMARK SMILES IDX 89 25 90 26 92 27 14 28 15 29 16 30 17 31 18 32 19 33 20 34
REMARK SMILES IDX 21 35 22 36 80 37 23 38 79 39 24 40 25 41 26 42 73 43 27 44
REMARK SMILES IDX 78 45 72 46 74 47 28 48 77 49 71 50 70 51 29 53 59 54 40 55
REMARK SMILES IDX 58 56 41 57 44 58 57 59 75 60 42 61 43 62 56 64 76 65 45 66
REMARK SMILES IDX 30 67 31 68 39 69 32 70 38 71 33 72 34 73 35 74 36 75 37 76
REMARK SMILES IDX 60 77 61 78 69 79 62 80 68 81 63 82 64 83 65 84 66 85 67 86
REMARK SMILES IDX 46 87 47 88 55 89 48 90 54 91 49 92 50 93 51 94 52 95 53 96
REMARK H PARENT 83 17 74 52 44 63
REMARK Flexibility Score: inf
ROOT
ATOM      1  C   UNL     1       4.418   2.622  -0.181  1.00  0.00     0.188 C 
ENDROOT
BRANCH   1   2
ATOM      2  O   UNL     1       3.510   1.719  -0.801  1.00  0.00    -0.377 OA
BRANCH   2   3
ATOM      3  C   UNL     1       2.566   2.189  -1.759  1.00  0.00     0.188 C 
BRANCH   3   4
ATOM      4  C   UNL     1       2.051   3.644  -1.796  1.00  0.00     0.188 C 
BRANCH   4   5
ATOM      5  O   UNL     1       2.709   4.524  -0.914  1.00  0.00    -0.376 OA
BRANCH   5   6
ATOM      6  C   UNL     1       2.017   5.097   0.176  1.00  0.00     0.202 C 
BRANCH   6   7
ATOM      7  C   UNL     1       1.192   4.229   1.137  1.00  0.00     0.261 C 
BRANCH   7   8
ATOM      8  O   UNL     1       0.922   2.892   0.706  1.00  0.00    -0.463 OA
BRANCH   8   9
ATOM      9  C   UNL     1      -0.328   2.605   0.299  1.00  0.00     0.315 C 
ATOM     10  O   UNL     1      -1.198   3.456   0.128  1.00  0.00    -0.252 OA
BRANCH   9  11
ATOM     11  C   UNL     1      -0.586   1.130   0.029  1.00  0.00     0.162 C 
ATOM     12  C   UNL     1       1.575   0.265   1.225  1.00  0.00     0.076 C 
ATOM     13  C   UNL     1       0.440  -0.007   0.249  1.00  0.00     0.196 C 
ATOM     14  N   UNL     1      -0.393  -1.193   0.558  1.00  0.00    -0.326 N 
ATOM     15  C   UNL     1      -1.767   0.699   0.883  1.00  0.00     0.083 C 
ATOM     16  C   UNL     1      -1.781  -0.806   0.757  1.00  0.00     0.264 C 
ATOM     17  H   UNL     1      -0.319  -1.744  -0.297  1.00  0.00     0.348 HD
BRANCH  14  18
ATOM     18  C   UNL     1       0.127  -2.336   1.321  1.00  0.00     0.212 C 
ATOM     19  C   UNL     1       0.518  -2.042   2.785  1.00  0.00     0.081 C 
BRANCH  18  20
ATOM     20  C   UNL     1      -0.813  -3.549   1.240  1.00  0.00     0.015 A 
ATOM     21  C   UNL     1      -1.545  -4.007   2.353  1.00  0.00     0.049 A 
ATOM     22  C   UNL     1      -0.956  -4.249   0.031  1.00  0.00     0.049 A 
ATOM     23  C   UNL     1      -2.326  -5.154   2.271  1.00  0.00     0.126 A 
ATOM     24  C   UNL     1      -1.761  -5.387  -0.032  1.00  0.00     0.126 A 
ATOM     25  F   UNL     1      -2.972  -5.586   3.362  1.00  0.00    -0.207 F 
ATOM     26  C   UNL     1      -2.437  -5.858   1.085  1.00  0.00     0.078 A 
ATOM     27  F   UNL     1      -1.879  -6.047  -1.192  1.00  0.00    -0.207 F 
ENDBRANCH  18  20
ENDBRANCH  14  18
ENDBRANCH   9  11
ENDBRANCH   8   9
ENDBRANCH   7   8
ENDBRANCH   6   7
ENDBRANCH   5   6
ENDBRANCH   4   5
ENDBRANCH   3   4
ENDBRANCH   2   3
ENDBRANCH   1   2
BRANCH   1  28
ATOM     28  C   UNL     1       5.268   3.495  -1.118  1.00  0.00     0.188 C 
BRANCH  28  29
ATOM     29  O   UNL     1       4.996   3.253  -2.490  1.00  0.00    -0.376 OA
BRANCH  29  30
ATOM     30  C   UNL     1       5.828   2.307  -3.150  1.00  0.00     0.202 C 
BRANCH  30  31
ATOM     31  C   UNL     1       6.026   0.902  -2.546  1.00  0.00     0.261 C 
BRANCH  31  32
ATOM     32  O   UNL     1       6.496   0.815  -1.189  1.00  0.00    -0.460 OA
BRANCH  32  33
ATOM     33  C   UNL     1       7.696   1.347  -0.888  1.00  0.00     0.338 C 
ATOM     34  O   UNL     1       8.467   1.904  -1.656  1.00  0.00    -0.246 OA
BRANCH  33  35
ATOM     35  C   UNL     1       7.850   1.312   0.583  1.00  0.00     0.060 A 
ATOM     36  C   UNL     1       7.934   2.517   1.294  1.00  0.00     0.016 A 
ATOM     37  C   UNL     1       7.919   0.090   1.258  1.00  0.00     0.016 A 
ATOM     38  C   UNL     1       8.131   2.503   2.676  1.00  0.00     0.010 A 
ATOM     39  C   UNL     1       8.138   0.079   2.640  1.00  0.00     0.010 A 
ATOM     40  C   UNL     1       8.284   1.285   3.350  1.00  0.00    -0.014 A 
BRANCH  40  41
ATOM     41  C   UNL     1       8.803   1.275   4.742  1.00  0.00     0.031 A 
ATOM     42  C   UNL     1      10.273   1.021   4.952  1.00  0.00     0.074 A 
ATOM     43  C   UNL     1       8.003   1.516   5.797  1.00  0.00     0.049 A 
ATOM     44  N   UNL     1      10.951   0.934   6.067  1.00  0.00    -0.248 NA
ATOM     45  C   UNL     1      11.088   0.843   3.737  1.00  0.00     0.031 C 
ATOM     46  C   UNL     1       6.577   1.829   5.726  1.00  0.00     0.029 A 
ATOM     47  N   UNL     1       8.285   1.532   7.141  1.00  0.00    -0.354 N 
ATOM     48  C   UNL     1      12.265   0.680   5.690  1.00  0.00     0.074 A 
ATOM     49  C   UNL     1      12.285   0.598   4.247  1.00  0.00     0.031 C 
ATOM     50  C   UNL     1       6.106   1.999   6.975  1.00  0.00     0.029 A 
ATOM     51  C   UNL     1       7.187   1.770   7.934  1.00  0.00     0.049 A 
ATOM     52  H   UNL     1       9.189   1.386   7.504  1.00  0.00     0.167 HD
ATOM     53  C   UNL     1      13.360   0.534   6.474  1.00  0.00     0.031 A 
ATOM     54  C   UNL     1       7.063   1.780   9.277  1.00  0.00     0.031 A 
ATOM     55  C   UNL     1      13.335   0.600   7.911  1.00  0.00     0.049 A 
ATOM     56  C   UNL     1       8.280   1.527  10.133  1.00  0.00     0.074 A 
ATOM     57  C   UNL     1      14.392   0.474   8.795  1.00  0.00     0.029 A 
ATOM     58  N   UNL     1      12.195   0.798   8.675  1.00  0.00    -0.354 N 
ATOM     59  N   UNL     1       9.520   1.310   9.762  1.00  0.00    -0.248 NA
ATOM     60  C   UNL     1       8.081   1.528  11.589  1.00  0.00     0.031 C 
ATOM     61  C   UNL     1      13.880   0.528  10.095  1.00  0.00     0.029 A 
ATOM     62  C   UNL     1      12.517   0.766  10.021  1.00  0.00     0.049 A 
ATOM     63  H   UNL     1      11.290   0.941   8.314  1.00  0.00     0.167 HD
ATOM     64  C   UNL     1      10.253   1.184  10.940  1.00  0.00     0.074 A 
ATOM     65  C   UNL     1       9.319   1.362  12.032  1.00  0.00     0.031 C 
ATOM     66  C   UNL     1      11.579   0.946  11.101  1.00  0.00     0.031 A 
BRANCH  53  67
ATOM     67  C   UNL     1      14.673   0.246   5.792  1.00  0.00    -0.014 A 
ATOM     68  C   UNL     1      15.327   1.220   5.017  1.00  0.00     0.010 A 
ATOM     69  C   UNL     1      15.280  -1.012   5.963  1.00  0.00     0.010 A 
ATOM     70  C   UNL     1      16.545   0.930   4.395  1.00  0.00     0.020 A 
ATOM     71  C   UNL     1      16.514  -1.296   5.370  1.00  0.00     0.020 A 
ATOM     72  C   UNL     1      17.130  -0.327   4.576  1.00  0.00     0.054 A 
BRANCH  72  73
ATOM     73  S   UNL     1      18.725  -0.665   3.780  1.00  0.00     0.124 S 
ATOM     74  O   UNL     1      18.349  -0.738   2.371  1.00  0.00    -0.237 OA
ATOM     75  O   UNL     1      19.523   0.498   4.159  1.00  0.00    -0.237 OA
ATOM     76  O   UNL     1      19.149  -1.930   4.376  1.00  0.00    -0.744 OA
ENDBRANCH  72  73
ENDBRANCH  53  67
BRANCH  54  77
ATOM     77  C   UNL     1       5.731   2.013   9.904  1.00  0.00    -0.014 A 
ATOM     78  C   UNL     1       5.480   3.175  10.655  1.00  0.00     0.010 A 
ATOM     79  C   UNL     1       4.704   1.061   9.760  1.00  0.00     0.010 A 
ATOM     80  C   UNL     1       4.235   3.372  11.263  1.00  0.00     0.020 A 
ATOM     81  C   UNL     1       3.449   1.270  10.338  1.00  0.00     0.020 A 
ATOM     82  C   UNL     1       3.226   2.420  11.096  1.00  0.00     0.054 A 
BRANCH  82  83
ATOM     83  S   UNL     1       1.602   2.724  11.847  1.00  0.00     0.124 S 
ATOM     84  O   UNL     1       1.885   2.547  13.267  1.00  0.00    -0.237 OA
ATOM     85  O   UNL     1       1.313   4.093  11.423  1.00  0.00    -0.237 OA
ATOM     86  O   UNL     1       0.750   1.702  11.245  1.00  0.00    -0.744 OA
ENDBRANCH  82  83
ENDBRANCH  54  77
BRANCH  66  87
ATOM     87  C   UNL     1      12.118   0.909  12.509  1.00  0.00    -0.014 A 
ATOM     88  C   UNL     1      11.812  -0.146  13.387  1.00  0.00     0.010 A 
ATOM     89  C   UNL     1      12.997   1.921  12.939  1.00  0.00     0.010 A 
ATOM     90  C   UNL     1      12.348  -0.169  14.679  1.00  0.00     0.020 A 
ATOM     91  C   UNL     1      13.560   1.885  14.217  1.00  0.00     0.020 A 
ATOM     92  C   UNL     1      13.220   0.846  15.085  1.00  0.00     0.054 A 
BRANCH  92  93
ATOM     93  S   UNL     1      13.933   0.770  16.751  1.00  0.00     0.124 S 
ATOM     94  O   UNL     1      12.779   1.080  17.590  1.00  0.00    -0.237 OA
ATOM     95  O   UNL     1      14.415  -0.607  16.829  1.00  0.00    -0.237 OA
ATOM     96  O   UNL     1      14.978   1.790  16.729  1.00  0.00    -0.744 OA
ENDBRANCH  92  93
ENDBRANCH  66  87
ENDBRANCH  40  41
ENDBRANCH  33  35
ENDBRANCH  32  33
ENDBRANCH  31  32
ENDBRANCH  30  31
ENDBRANCH  29  30
ENDBRANCH  28  29
ENDBRANCH   1  28
TORSDOF 25
