REMARK SMILES CC[C@@H](C)CN(C)C(=O)NC(=O)CCC(=O)OCCOCCOCCOCCOC(=O)c1ccc(-c2c3nc(c(-c4ccc(S(=O)(=O)[O-])cc4)c4ccc([nH]4)c(-c4ccc(S(=O)(=O)[O-])cc4)c4nc(c(-c5ccc(S(=O)(=O)[O-])cc5)c5ccc2[nH]5)C=C4)C=C3)cc1
REMARK SMILES IDX 21 1 20 2 19 3 18 4 17 5 15 6 16 7 14 8 13 9 11 10 8 11 9 12
REMARK SMILES IDX 10 13 12 15 6 16 7 17 5 18 3 19 4 20 2 21 1 22 22 23 23 24
REMARK SMILES IDX 24 25 25 26 26 27 27 28 28 29 29 30 30 31 31 32 32 33 33 34
REMARK SMILES IDX 91 35 34 36 90 37 35 38 36 39 37 40 84 41 38 42 89 43 83 44
REMARK SMILES IDX 85 45 39 46 88 47 82 48 81 49 40 51 70 52 51 53 69 54 52 55
REMARK SMILES IDX 55 56 68 57 86 58 53 59 54 60 67 62 87 63 56 64 41 65 42 66
REMARK SMILES IDX 50 67 43 68 49 69 44 70 45 71 46 72 47 73 48 74 71 75 72 76
REMARK SMILES IDX 80 77 73 78 79 79 74 80 75 81 76 82 77 83 78 84 57 85 58 86
REMARK SMILES IDX 66 87 59 88 65 89 60 90 61 91 62 92 63 93 64 94
REMARK H PARENT 10 14 85 50 55 61
REMARK Flexibility Score: inf
ROOT
ATOM      1  C   UNL     1      -0.534   2.291  -2.936  1.00  0.00     0.188 C 
ENDROOT
BRANCH   1   2
ATOM      2  O   UNL     1       0.430   2.103  -1.902  1.00  0.00    -0.376 OA
BRANCH   2   3
ATOM      3  C   UNL     1       0.478   2.681  -0.581  1.00  0.00     0.202 C 
BRANCH   3   4
ATOM      4  C   UNL     1       2.007   2.672   0.003  1.00  0.00     0.261 C 
BRANCH   4   5
ATOM      5  O   UNL     1       3.032   3.585  -0.549  1.00  0.00    -0.463 OA
BRANCH   5   6
ATOM      6  C   UNL     1       4.136   3.038  -1.134  1.00  0.00     0.306 C 
ATOM      7  O   UNL     1       4.401   1.836  -1.134  1.00  0.00    -0.252 OA
BRANCH   6   8
ATOM      8  C   UNL     1       5.142   4.013  -1.753  1.00  0.00     0.132 C 
BRANCH   8   9
ATOM      9  C   UNL     1       4.845   5.215  -2.637  1.00  0.00     0.112 C 
BRANCH   9  10
ATOM     10  C   UNL     1       3.515   5.884  -2.583  1.00  0.00     0.228 C 
ATOM     11  C   UNL     1       2.099   4.105  -2.958  1.00  0.00     0.323 C 
ATOM     12  O   UNL     1       1.279   4.308  -2.082  1.00  0.00    -0.248 OA
ATOM     13  N   UNL     1       2.550   5.317  -3.359  1.00  0.00    -0.278 N 
ATOM     14  H   UNL     1       2.200   5.762  -4.165  1.00  0.00     0.174 HD
ATOM     15  O   UNL     1       3.321   6.928  -1.966  1.00  0.00    -0.275 OA
BRANCH  11  16
ATOM     16  N   UNL     1       2.527   2.940  -3.614  1.00  0.00    -0.327 N 
ATOM     17  C   UNL     1       2.916   3.209  -4.998  1.00  0.00     0.148 C 
BRANCH  16  18
ATOM     18  C   UNL     1       2.344   1.380  -3.435  1.00  0.00     0.124 C 
BRANCH  18  19
ATOM     19  C   UNL     1       2.103   0.044  -2.428  1.00  0.00     0.005 C 
ATOM     20  C   UNL     1       1.568  -1.035  -3.436  1.00  0.00     0.009 C 
BRANCH  19  21
ATOM     21  C   UNL     1       1.186  -0.292  -1.183  1.00  0.00     0.002 C 
ATOM     22  C   UNL     1       1.676  -1.482  -0.331  1.00  0.00     0.004 C 
ENDBRANCH  19  21
ENDBRANCH  18  19
ENDBRANCH  16  18
ENDBRANCH  11  16
ENDBRANCH   9  10
ENDBRANCH   8   9
ENDBRANCH   6   8
ENDBRANCH   5   6
ENDBRANCH   4   5
ENDBRANCH   3   4
ENDBRANCH   2   3
ENDBRANCH   1   2
BRANCH   1  23
ATOM     23  C   UNL     1      -0.928   3.694  -3.443  1.00  0.00     0.188 C 
BRANCH  23  24
ATOM     24  O   UNL     1      -1.804   4.415  -2.594  1.00  0.00    -0.377 OA
BRANCH  24  25
ATOM     25  C   UNL     1      -2.709   3.581  -1.888  1.00  0.00     0.188 C 
BRANCH  25  26
ATOM     26  C   UNL     1      -3.695   2.768  -2.757  1.00  0.00     0.188 C 
BRANCH  26  27
ATOM     27  O   UNL     1      -3.329   2.667  -4.124  1.00  0.00    -0.376 OA
BRANCH  27  28
ATOM     28  C   UNL     1      -3.887   3.559  -5.083  1.00  0.00     0.202 C 
BRANCH  28  29
ATOM     29  C   UNL     1      -4.097   5.075  -4.868  1.00  0.00     0.261 C 
BRANCH  29  30
ATOM     30  O   UNL     1      -4.186   5.570  -3.536  1.00  0.00    -0.460 OA
BRANCH  30  31
ATOM     31  C   UNL     1      -5.381   5.413  -2.911  1.00  0.00     0.338 C 
ATOM     32  O   UNL     1      -6.364   4.891  -3.353  1.00  0.00    -0.246 OA
BRANCH  31  33
ATOM     33  C   UNL     1      -5.165   5.770  -1.484  1.00  0.00     0.060 A 
ATOM     34  C   UNL     1      -5.531   4.819  -0.520  1.00  0.00     0.016 A 
ATOM     35  C   UNL     1      -4.532   6.960  -1.107  1.00  0.00     0.016 A 
ATOM     36  C   UNL     1      -5.290   5.069   0.826  1.00  0.00     0.010 A 
ATOM     37  C   UNL     1      -4.352   7.242   0.251  1.00  0.00     0.010 A 
ATOM     38  C   UNL     1      -4.779   6.315   1.216  1.00  0.00    -0.014 A 
BRANCH  38  39
ATOM     39  C   UNL     1      -5.091   6.751   2.595  1.00  0.00     0.031 A 
ATOM     40  C   UNL     1      -6.455   7.358   2.803  1.00  0.00     0.074 A 
ATOM     41  C   UNL     1      -4.273   6.510   3.632  1.00  0.00     0.049 A 
ATOM     42  N   UNL     1      -7.054   7.700   3.911  1.00  0.00    -0.248 NA
ATOM     43  C   UNL     1      -7.263   7.587   1.589  1.00  0.00     0.031 C 
ATOM     44  C   UNL     1      -2.959   5.873   3.553  1.00  0.00     0.029 A 
ATOM     45  N   UNL     1      -4.449   6.758   4.969  1.00  0.00    -0.354 N 
ATOM     46  C   UNL     1      -8.308   8.163   3.527  1.00  0.00     0.074 A 
ATOM     47  C   UNL     1      -8.376   8.095   2.088  1.00  0.00     0.031 C 
ATOM     48  C   UNL     1      -2.447   5.779   4.795  1.00  0.00     0.029 A 
ATOM     49  C   UNL     1      -3.390   6.362   5.750  1.00  0.00     0.049 A 
ATOM     50  H   UNL     1      -5.259   7.181   5.336  1.00  0.00     0.167 HD
ATOM     51  C   UNL     1      -9.322   8.599   4.306  1.00  0.00     0.031 A 
ATOM     52  C   UNL     1      -3.211   6.467   7.082  1.00  0.00     0.031 A 
ATOM     53  C   UNL     1      -9.234   8.707   5.733  1.00  0.00     0.049 A 
ATOM     54  C   UNL     1      -4.319   7.056   7.922  1.00  0.00     0.074 A 
ATOM     55  C   UNL     1     -10.189   9.162   6.622  1.00  0.00     0.029 A 
ATOM     56  N   UNL     1      -8.114   8.369   6.478  1.00  0.00    -0.354 N 
ATOM     57  N   UNL     1      -5.509   7.470   7.550  1.00  0.00    -0.248 NA
ATOM     58  C   UNL     1      -4.065   7.175   9.364  1.00  0.00     0.031 C 
ATOM     59  C   UNL     1      -9.623   9.156   7.901  1.00  0.00     0.029 A 
ATOM     60  C   UNL     1      -8.343   8.631   7.816  1.00  0.00     0.049 A 
ATOM     61  H   UNL     1      -7.280   7.999   6.108  1.00  0.00     0.167 HD
ATOM     62  C   UNL     1      -6.155   7.870   8.716  1.00  0.00     0.074 A 
ATOM     63  C   UNL     1      -5.230   7.630   9.806  1.00  0.00     0.031 C 
ATOM     64  C   UNL     1      -7.400   8.386   8.878  1.00  0.00     0.031 A 
BRANCH  51  65
ATOM     65  C   UNL     1     -10.583   9.037   3.612  1.00  0.00    -0.014 A 
ATOM     66  C   UNL     1     -11.439   8.105   2.995  1.00  0.00     0.010 A 
ATOM     67  C   UNL     1     -10.918  10.401   3.579  1.00  0.00     0.010 A 
ATOM     68  C   UNL     1     -12.590   8.535   2.331  1.00  0.00     0.020 A 
ATOM     69  C   UNL     1     -12.083  10.832   2.941  1.00  0.00     0.020 A 
ATOM     70  C   UNL     1     -12.906   9.897   2.309  1.00  0.00     0.054 A 
BRANCH  70  71
ATOM     71  S   UNL     1     -14.424  10.425   1.470  1.00  0.00     0.124 S 
ATOM     72  O   UNL     1     -14.077  10.225   0.065  1.00  0.00    -0.237 OA
ATOM     73  O   UNL     1     -15.422   9.504   2.007  1.00  0.00    -0.237 OA
ATOM     74  O   UNL     1     -14.581  11.818   1.880  1.00  0.00    -0.744 OA
ENDBRANCH  70  71
ENDBRANCH  51  65
BRANCH  52  75
ATOM     75  C   UNL     1      -1.932   6.024   7.707  1.00  0.00    -0.014 A 
ATOM     76  C   UNL     1      -1.896   4.929   8.590  1.00  0.00     0.010 A 
ATOM     77  C   UNL     1      -0.738   6.718   7.438  1.00  0.00     0.010 A 
ATOM     78  C   UNL     1      -0.697   4.554   9.207  1.00  0.00     0.020 A 
ATOM     79  C   UNL     1       0.467   6.328   8.029  1.00  0.00     0.020 A 
ATOM     80  C   UNL     1       0.478   5.255   8.921  1.00  0.00     0.054 A 
BRANCH  80  81
ATOM     81  S   UNL     1       2.028   4.727   9.704  1.00  0.00     0.124 S 
ATOM     82  O   UNL     1       1.830   5.148  11.087  1.00  0.00    -0.237 OA
ATOM     83  O   UNL     1       2.020   3.284   9.474  1.00  0.00    -0.237 OA
ATOM     84  O   UNL     1       3.053   5.462   8.966  1.00  0.00    -0.744 OA
ENDBRANCH  80  81
ENDBRANCH  52  75
BRANCH  64  85
ATOM     85  C   UNL     1      -7.848   8.690  10.284  1.00  0.00    -0.014 A 
ATOM     86  C   UNL     1      -7.296   9.756  11.015  1.00  0.00     0.010 A 
ATOM     87  C   UNL     1      -8.876   7.922  10.862  1.00  0.00     0.010 A 
ATOM     88  C   UNL     1      -7.730  10.018  12.317  1.00  0.00     0.020 A 
ATOM     89  C   UNL     1      -9.336   8.201  12.150  1.00  0.00     0.020 A 
ATOM     90  C   UNL     1      -8.745   9.236  12.877  1.00  0.00     0.054 A 
BRANCH  90  91
ATOM     91  S   UNL     1      -9.305   9.607  14.561  1.00  0.00     0.124 S 
ATOM     92  O   UNL     1      -8.191   9.114  15.367  1.00  0.00    -0.237 OA
ATOM     93  O   UNL     1      -9.466  11.059  14.533  1.00  0.00    -0.237 OA
ATOM     94  O   UNL     1     -10.549   8.851  14.689  1.00  0.00    -0.744 OA
ENDBRANCH  90  91
ENDBRANCH  64  85
ENDBRANCH  38  39
ENDBRANCH  31  33
ENDBRANCH  30  31
ENDBRANCH  29  30
ENDBRANCH  28  29
ENDBRANCH  27  28
ENDBRANCH  26  27
ENDBRANCH  25  26
ENDBRANCH  24  25
ENDBRANCH  23  24
ENDBRANCH   1  23
TORSDOF 29
