REMARK SMILES O=C(OCCOCCOCCOCCOC(=O)c1ccc(-c2c3nc(c(-c4ccc(S(=O)(=O)[O-])cc4)c4ccc([nH]4)c(-c4ccc(S(=O)(=O)[O-])cc4)c4nc(c(-c5ccc(S(=O)(=O)[O-])cc5)c5ccc2[nH]5)C=C4)C=C3)cc1)C(=O)/C(=C/c1cnn(Cc2ccccc2Cl)c1)c1ccc2ccccc2n1
REMARK SMILES IDX 8 1 7 2 6 3 5 4 4 5 3 6 2 7 1 8 78 9 79 10 80 11 81 12 95 13
REMARK SMILES IDX 96 14 104 15 97 16 103 17 98 18 102 19 99 20 101 21 100 22
REMARK SMILES IDX 82 23 83 24 94 25 84 26 85 27 86 28 87 29 88 30 92 31 89 32
REMARK SMILES IDX 91 33 93 34 90 35 9 36 10 37 11 38 12 39 13 40 14 41 15 42
REMARK SMILES IDX 16 43 17 44 18 45 19 46 77 47 20 48 76 49 21 50 22 51 23 52
REMARK SMILES IDX 70 53 24 54 75 55 69 56 71 57 25 58 74 59 68 60 67 61 26 63
REMARK SMILES IDX 56 64 37 65 55 66 38 67 41 68 54 69 72 70 39 71 40 72 53 74
REMARK SMILES IDX 73 75 42 76 27 77 28 78 36 79 29 80 35 81 30 82 31 83 32 84
REMARK SMILES IDX 33 85 34 86 57 87 58 88 66 89 59 90 65 91 60 92 61 93 62 94
REMARK SMILES IDX 63 95 64 96 43 97 44 98 52 99 45 100 51 101 46 102 47 103
REMARK SMILES IDX 48 104 49 105 50 106
REMARK H PARENT 71 62 41 73
REMARK Flexibility Score: inf
ROOT
ATOM      1  C   UNL     1       1.675   2.398  -0.232  1.00  0.00     0.188 C 
ENDROOT
BRANCH   1   2
ATOM      2  C   UNL     1       2.340   1.334   0.661  1.00  0.00     0.188 C 
BRANCH   2   3
ATOM      3  O   UNL     1       3.739   1.258   0.782  1.00  0.00    -0.376 OA
BRANCH   3   4
ATOM      4  C   UNL     1       4.538   0.610  -0.174  1.00  0.00     0.202 C 
BRANCH   4   5
ATOM      5  C   UNL     1       3.976  -0.500  -1.017  1.00  0.00     0.261 C 
BRANCH   5   6
ATOM      6  O   UNL     1       3.503  -1.666  -0.325  1.00  0.00    -0.457 OA
BRANCH   6   7
ATOM      7  C   UNL     1       3.538  -2.022   0.958  1.00  0.00     0.379 C 
ATOM      8  O   UNL     1       2.613  -2.717   1.379  1.00  0.00    -0.242 OA
BRANCH   7   9
ATOM      9  C   UNL     1       4.635  -1.632   1.990  1.00  0.00     0.272 C 
ATOM     10  O   UNL     1       4.184  -1.340   3.105  1.00  0.00    -0.281 OA
BRANCH   9  11
ATOM     11  C   UNL     1       6.202  -1.539   1.754  1.00  0.00     0.056 C 
ATOM     12  C   UNL     1       6.496  -1.769   0.400  1.00  0.00     0.026 C 
BRANCH  11  13
ATOM     13  C   UNL     1       6.809  -0.765   3.151  1.00  0.00     0.075 A 
ATOM     14  C   UNL     1       6.505   0.558   3.030  1.00  0.00     0.030 A 
ATOM     15  N   UNL     1       8.048  -1.008   3.794  1.00  0.00    -0.248 NA
ATOM     16  C   UNL     1       7.412   1.158   2.218  1.00  0.00     0.012 A 
ATOM     17  C   UNL     1       9.181  -0.337   3.367  1.00  0.00     0.071 A 
ATOM     18  C   UNL     1       8.575   0.419   2.070  1.00  0.00     0.000 A 
ATOM     19  C   UNL     1      10.917  -0.908   3.346  1.00  0.00     0.029 A 
ATOM     20  C   UNL     1       9.277   0.088   0.526  1.00  0.00     0.010 A 
ATOM     21  C   UNL     1      11.872  -1.096   1.799  1.00  0.00     0.002 A 
ATOM     22  C   UNL     1      11.003  -0.681   0.253  1.00  0.00     0.001 A 
ENDBRANCH  11  13
BRANCH  12  23
ATOM     23  C   UNL     1       7.461  -1.340  -0.670  1.00  0.00     0.013 A 
ATOM     24  C   UNL     1       8.495  -2.092  -1.312  1.00  0.00     0.143 A 
ATOM     25  C   UNL     1       7.559  -0.135  -1.412  1.00  0.00     0.117 A 
ATOM     26  N   UNL     1       9.352  -1.351  -2.060  1.00  0.00    -0.181 NA
ATOM     27  N   UNL     1       8.952  -0.059  -1.853  1.00  0.00    -0.268 N 
BRANCH  27  28
ATOM     28  C   UNL     1      10.062   1.155  -1.485  1.00  0.00     0.181 C 
BRANCH  28  29
ATOM     29  C   UNL     1      10.743   1.620   0.176  1.00  0.00    -0.008 A 
ATOM     30  C   UNL     1      11.327   2.886   0.087  1.00  0.00     0.007 A 
ATOM     31  C   UNL     1      10.717   0.681   1.679  1.00  0.00     0.046 A 
ATOM     32  C   UNL     1      11.992   3.364   1.209  1.00  0.00     0.000 A 
ATOM     33  C   UNL     1      11.433   1.403   2.714  1.00  0.00     0.021 A 
ATOM     34  Cl  UNL     1       9.749  -1.621   1.649  1.00  0.00    -0.084 Cl
ATOM     35  C   UNL     1      12.061   2.654   2.435  1.00  0.00     0.002 A 
ENDBRANCH  28  29
ENDBRANCH  27  28
ENDBRANCH  12  23
ENDBRANCH   9  11
ENDBRANCH   7   9
ENDBRANCH   6   7
ENDBRANCH   5   6
ENDBRANCH   4   5
ENDBRANCH   3   4
ENDBRANCH   2   3
ENDBRANCH   1   2
BRANCH   1  36
ATOM     36  O   UNL     1       2.350   3.481  -0.838  1.00  0.00    -0.377 OA
BRANCH  36  37
ATOM     37  C   UNL     1       3.670   3.310  -1.299  1.00  0.00     0.188 C 
BRANCH  37  38
ATOM     38  C   UNL     1       4.759   3.724  -0.268  1.00  0.00     0.188 C 
BRANCH  38  39
ATOM     39  O   UNL     1       4.398   3.973   1.073  1.00  0.00    -0.376 OA
BRANCH  39  40
ATOM     40  C   UNL     1       3.360   4.896   1.355  1.00  0.00     0.202 C 
BRANCH  40  41
ATOM     41  C   UNL     1       2.963   6.083   0.436  1.00  0.00     0.261 C 
BRANCH  41  42
ATOM     42  O   UNL     1       3.374   6.089  -0.943  1.00  0.00    -0.460 OA
BRANCH  42  43
ATOM     43  C   UNL     1       4.567   6.661  -1.240  1.00  0.00     0.338 C 
ATOM     44  O   UNL     1       5.321   7.212  -0.457  1.00  0.00    -0.246 OA
BRANCH  43  45
ATOM     45  C   UNL     1       4.951   6.264  -2.626  1.00  0.00     0.060 A 
ATOM     46  C   UNL     1       6.128   5.518  -2.829  1.00  0.00     0.016 A 
ATOM     47  C   UNL     1       4.140   6.583  -3.714  1.00  0.00     0.016 A 
ATOM     48  C   UNL     1       6.515   5.127  -4.114  1.00  0.00     0.010 A 
ATOM     49  C   UNL     1       4.552   6.229  -5.006  1.00  0.00     0.010 A 
ATOM     50  C   UNL     1       5.761   5.538  -5.216  1.00  0.00    -0.014 A 
BRANCH  50  51
ATOM     51  C   UNL     1       6.342   5.465  -6.583  1.00  0.00     0.031 A 
ATOM     52  C   UNL     1       6.916   6.728  -7.172  1.00  0.00     0.074 A 
ATOM     53  C   UNL     1       6.375   4.319  -7.289  1.00  0.00     0.049 A 
ATOM     54  N   UNL     1       7.395   6.945  -8.369  1.00  0.00    -0.248 NA
ATOM     55  C   UNL     1       6.944   7.908  -6.291  1.00  0.00     0.031 C 
ATOM     56  C   UNL     1       5.912   3.017  -6.815  1.00  0.00     0.029 A 
ATOM     57  N   UNL     1       6.810   4.076  -8.569  1.00  0.00    -0.354 N 
ATOM     58  C   UNL     1       7.755   8.288  -8.393  1.00  0.00     0.074 A 
ATOM     59  C   UNL     1       7.414   8.842  -7.103  1.00  0.00     0.031 C 
ATOM     60  C   UNL     1       6.075   2.113  -7.798  1.00  0.00     0.029 A 
ATOM     61  C   UNL     1       6.608   2.781  -8.986  1.00  0.00     0.049 A 
ATOM     62  H   UNL     1       7.228   4.765  -9.136  1.00  0.00     0.167 HD
ATOM     63  C   UNL     1       8.321   8.998  -9.398  1.00  0.00     0.031 A 
ATOM     64  C   UNL     1       6.800   2.208 -10.192  1.00  0.00     0.031 A 
ATOM     65  C   UNL     1       8.641   8.446 -10.688  1.00  0.00     0.049 A 
ATOM     66  C   UNL     1       7.344   3.040 -11.328  1.00  0.00     0.074 A 
ATOM     67  C   UNL     1       9.233   9.077 -11.768  1.00  0.00     0.029 A 
ATOM     68  N   UNL     1       8.385   7.140 -11.079  1.00  0.00    -0.354 N 
ATOM     69  N   UNL     1       7.705   4.302 -11.329  1.00  0.00    -0.248 NA
ATOM     70  C   UNL     1       7.516   2.367 -12.624  1.00  0.00     0.031 C 
ATOM     71  C   UNL     1       9.257   8.179 -12.838  1.00  0.00     0.029 A 
ATOM     72  C   UNL     1       8.771   6.958 -12.397  1.00  0.00     0.049 A 
ATOM     73  H   UNL     1       7.988   6.446 -10.506  1.00  0.00     0.167 HD
ATOM     74  C   UNL     1       8.181   4.561 -12.612  1.00  0.00     0.074 A 
ATOM     75  C   UNL     1       8.077   3.321 -13.353  1.00  0.00     0.031 C 
ATOM     76  C   UNL     1       8.665   5.718 -13.127  1.00  0.00     0.031 A 
BRANCH  63  77
ATOM     77  C   UNL     1       8.586  10.463  -9.160  1.00  0.00    -0.014 A 
ATOM     78  C   UNL     1       9.552  10.895  -8.232  1.00  0.00     0.010 A 
ATOM     79  C   UNL     1       7.886  11.425  -9.911  1.00  0.00     0.010 A 
ATOM     80  C   UNL     1       9.783  12.259  -8.034  1.00  0.00     0.020 A 
ATOM     81  C   UNL     1       8.141  12.788  -9.745  1.00  0.00     0.020 A 
ATOM     82  C   UNL     1       9.079  13.197  -8.795  1.00  0.00     0.054 A 
BRANCH  82  83
ATOM     83  S   UNL     1       9.428  14.958  -8.540  1.00  0.00     0.124 S 
ATOM     84  O   UNL     1       8.909  15.176  -7.192  1.00  0.00    -0.237 OA
ATOM     85  O   UNL     1      10.882  15.014  -8.670  1.00  0.00    -0.237 OA
ATOM     86  O   UNL     1       8.682  15.620  -9.608  1.00  0.00    -0.744 OA
ENDBRANCH  82  83
ENDBRANCH  63  77
BRANCH  64  87
ATOM     87  C   UNL     1       6.451   0.773 -10.405  1.00  0.00    -0.014 A 
ATOM     88  C   UNL     1       7.447  -0.176 -10.698  1.00  0.00     0.010 A 
ATOM     89  C   UNL     1       5.110   0.349 -10.331  1.00  0.00     0.010 A 
ATOM     90  C   UNL     1       7.109  -1.514 -10.927  1.00  0.00     0.020 A 
ATOM     91  C   UNL     1       4.772  -0.993 -10.521  1.00  0.00     0.020 A 
ATOM     92  C   UNL     1       5.774  -1.915 -10.827  1.00  0.00     0.054 A 
BRANCH  92  93
ATOM     93  S   UNL     1       5.369  -3.667 -11.068  1.00  0.00     0.124 S 
ATOM     94  O   UNL     1       5.645  -3.852 -12.489  1.00  0.00    -0.237 OA
ATOM     95  O   UNL     1       6.295  -4.328 -10.151  1.00  0.00    -0.237 OA
ATOM     96  O   UNL     1       3.961  -3.748 -10.687  1.00  0.00    -0.744 OA
ENDBRANCH  92  93
ENDBRANCH  64  87
BRANCH  76  97
ATOM     97  C   UNL     1       9.176   5.698 -14.548  1.00  0.00    -0.014 A 
ATOM     98  C   UNL     1       8.311   5.530 -15.644  1.00  0.00     0.010 A 
ATOM     99  C   UNL     1      10.546   5.916 -14.789  1.00  0.00     0.010 A 
ATOM    100  C   UNL     1       8.812   5.543 -16.949  1.00  0.00     0.020 A 
ATOM    101  C   UNL     1      11.045   5.971 -16.092  1.00  0.00     0.020 A 
ATOM    102  C   UNL     1      10.176   5.770 -17.165  1.00  0.00     0.054 A 
BRANCH 102 103
ATOM    103  S   UNL     1      10.790   5.832 -18.870  1.00  0.00     0.124 S 
ATOM    104  O   UNL     1      10.637   4.445 -19.300  1.00  0.00    -0.237 OA
ATOM    105  O   UNL     1       9.883   6.790 -19.498  1.00  0.00    -0.237 OA
ATOM    106  O   UNL     1      12.170   6.291 -18.727  1.00  0.00    -0.744 OA
ENDBRANCH 102 103
ENDBRANCH  76  97
ENDBRANCH  50  51
ENDBRANCH  43  45
ENDBRANCH  42  43
ENDBRANCH  41  42
ENDBRANCH  40  41
ENDBRANCH  39  40
ENDBRANCH  38  39
ENDBRANCH  37  38
ENDBRANCH  36  37
ENDBRANCH   1  36
TORSDOF 28
