REMARK SMILES C=CCN1C(=O)/C(=C/c2ccc(-c3ccc(Cl)c(C(=O)OCCOCCOCCOCCOC(=O)c4ccc(-c5c6nc(c(-c7ccc(S(=O)(=O)[O-])cc7)c7ccc([nH]7)c(-c7ccc(S(=O)(=O)[O-])cc7)c7nc(c(-c8ccc(S(=O)(=O)[O-])cc8)c8ccc5[nH]8)C=C7)C=C6)cc4)c3)o2)C(=O)NC1=S
REMARK SMILES IDX 26 1 25 2 24 3 23 4 22 5 21 6 19 7 20 8 18 9 13 10 14 11
REMARK SMILES IDX 96 12 15 13 16 14 17 15 12 16 9 17 10 18 97 19 11 20 8 21
REMARK SMILES IDX 4 22 5 23 101 24 6 25 7 26 100 27 102 28 98 29 99 31 3 32
REMARK SMILES IDX 2 33 1 34 27 35 28 36 29 37 30 38 31 39 32 40 33 41 34 42
REMARK SMILES IDX 35 43 36 44 37 45 95 46 38 47 94 48 39 49 40 50 41 51 88 52
REMARK SMILES IDX 42 53 93 54 87 55 89 56 43 57 92 58 86 59 85 60 44 62 74 63
REMARK SMILES IDX 55 64 73 65 56 66 59 67 72 68 90 69 57 70 58 71 71 73 91 74
REMARK SMILES IDX 60 75 45 76 46 77 54 78 47 79 53 80 48 81 49 82 50 83 51 84
REMARK SMILES IDX 52 85 75 86 76 87 84 88 77 89 83 90 78 91 79 92 80 93 81 94
REMARK SMILES IDX 82 95 61 96 62 97 70 98 63 99 69 100 64 101 65 102 66 103
REMARK SMILES IDX 67 104 68 105
REMARK H PARENT 100 30 89 61 59 72
REMARK Flexibility Score: inf
ROOT
ATOM      1  C   UNL     1       7.359   0.742  -5.903  1.00  0.00     0.188 C 
ENDROOT
BRANCH   1   2
ATOM      2  C   UNL     1       6.972  -0.753  -5.896  1.00  0.00     0.188 C 
BRANCH   2   3
ATOM      3  O   UNL     1       8.063  -1.640  -6.030  1.00  0.00    -0.376 OA
BRANCH   3   4
ATOM      4  C   UNL     1       8.346  -2.264  -7.268  1.00  0.00     0.202 C 
BRANCH   4   5
ATOM      5  C   UNL     1       8.257  -1.520  -8.609  1.00  0.00     0.261 C 
BRANCH   5   6
ATOM      6  O   UNL     1       7.380  -0.395  -8.646  1.00  0.00    -0.460 OA
BRANCH   6   7
ATOM      7  C   UNL     1       6.105  -0.593  -9.037  1.00  0.00     0.339 C 
ATOM      8  O   UNL     1       5.580  -1.660  -9.304  1.00  0.00    -0.246 OA
BRANCH   7   9
ATOM      9  C   UNL     1       5.360   0.674  -8.848  1.00  0.00     0.079 A 
ATOM     10  C   UNL     1       3.381   1.749  -7.915  1.00  0.00     0.018 A 
ATOM     11  C   UNL     1       3.885   2.990  -8.319  1.00  0.00     0.013 A 
ATOM     12  C   UNL     1       4.132   0.594  -8.160  1.00  0.00     0.029 A 
ATOM     13  C   UNL     1       5.104   3.075  -8.996  1.00  0.00     0.022 A 
ATOM     14  C   UNL     1       5.836   1.918  -9.283  1.00  0.00     0.055 A 
ATOM     15  Cl  UNL     1       7.269   2.112 -10.227  1.00  0.00    -0.083 Cl
BRANCH  10  16
ATOM     16  C   UNL     1       2.019   1.665  -7.423  1.00  0.00     0.134 A 
ATOM     17  C   UNL     1       0.455   1.472  -5.862  1.00  0.00     0.128 A 
ATOM     18  C   UNL     1      -0.177   1.643  -7.087  1.00  0.00     0.051 A 
ATOM     19  O   UNL     1       1.821   1.515  -6.085  1.00  0.00    -0.457 OA
ATOM     20  C   UNL     1       0.815   1.742  -8.079  1.00  0.00     0.051 A 
BRANCH  17  21
ATOM     21  C   UNL     1      -0.118   1.327  -4.572  1.00  0.00     0.066 C 
ATOM     22  N   UNL     1      -1.392  -0.977  -2.207  1.00  0.00    -0.281 N 
ATOM     23  C   UNL     1      -1.300   0.296  -2.771  1.00  0.00     0.266 C 
ATOM     24  C   UNL     1      -1.590  -2.127  -2.961  1.00  0.00     0.183 C 
ATOM     25  O   UNL     1      -1.492   1.343  -2.155  1.00  0.00    -0.268 OA
ATOM     26  C   UNL     1      -0.921   0.311  -4.203  1.00  0.00     0.109 C 
ATOM     27  N   UNL     1      -1.603  -1.968  -4.323  1.00  0.00    -0.298 N 
ATOM     28  S   UNL     1      -1.831  -3.686  -2.392  1.00  0.00    -0.040 S 
ATOM     29  C   UNL     1      -1.323  -0.835  -5.037  1.00  0.00     0.263 C 
ATOM     30  H   UNL     1      -1.843  -2.764  -4.850  1.00  0.00     0.172 HD
ATOM     31  O   UNL     1      -1.425  -0.826  -6.256  1.00  0.00    -0.269 OA
BRANCH  22  32
ATOM     32  C   UNL     1      -1.239  -1.010  -0.752  1.00  0.00     0.155 C 
BRANCH  32  33
ATOM     33  C   UNL     1       0.244  -1.048  -0.478  1.00  0.00    -0.013 C 
ATOM     34  C   UNL     1       0.945  -0.033   0.043  1.00  0.00     0.006 C 
ENDBRANCH  32  33
ENDBRANCH  22  32
ENDBRANCH  17  21
ENDBRANCH  10  16
ENDBRANCH   7   9
ENDBRANCH   6   7
ENDBRANCH   5   6
ENDBRANCH   4   5
ENDBRANCH   3   4
ENDBRANCH   2   3
ENDBRANCH   1   2
BRANCH   1  35
ATOM     35  O   UNL     1       8.643   1.124  -6.367  1.00  0.00    -0.377 OA
BRANCH  35  36
ATOM     36  C   UNL     1       9.813   0.504  -5.840  1.00  0.00     0.188 C 
BRANCH  36  37
ATOM     37  C   UNL     1       9.817  -0.213  -4.469  1.00  0.00     0.188 C 
BRANCH  37  38
ATOM     38  O   UNL     1       8.642  -0.035  -3.696  1.00  0.00    -0.376 OA
BRANCH  38  39
ATOM     39  C   UNL     1       8.712   0.819  -2.570  1.00  0.00     0.202 C 
BRANCH  39  40
ATOM     40  C   UNL     1       9.030   2.299  -2.827  1.00  0.00     0.261 C 
BRANCH  40  41
ATOM     41  O   UNL     1      10.213   2.569  -3.592  1.00  0.00    -0.460 OA
BRANCH  41  42
ATOM     42  C   UNL     1      11.395   2.231  -3.035  1.00  0.00     0.338 C 
ATOM     43  O   UNL     1      11.570   1.713  -1.942  1.00  0.00    -0.246 OA
BRANCH  42  44
ATOM     44  C   UNL     1      12.444   2.421  -4.055  1.00  0.00     0.060 A 
ATOM     45  C   UNL     1      13.207   1.320  -4.465  1.00  0.00     0.016 A 
ATOM     46  C   UNL     1      12.671   3.686  -4.603  1.00  0.00     0.016 A 
ATOM     47  C   UNL     1      14.234   1.491  -5.393  1.00  0.00     0.010 A 
ATOM     48  C   UNL     1      13.713   3.859  -5.516  1.00  0.00     0.010 A 
ATOM     49  C   UNL     1      14.526   2.771  -5.882  1.00  0.00    -0.014 A 
BRANCH  49  50
ATOM     50  C   UNL     1      15.810   3.011  -6.585  1.00  0.00     0.031 A 
ATOM     51  C   UNL     1      16.957   3.571  -5.785  1.00  0.00     0.074 A 
ATOM     52  C   UNL     1      15.969   2.718  -7.888  1.00  0.00     0.049 A 
ATOM     53  N   UNL     1      18.159   3.903  -6.178  1.00  0.00    -0.248 NA
ATOM     54  C   UNL     1      16.712   3.787  -4.348  1.00  0.00     0.031 C 
ATOM     55  C   UNL     1      14.952   2.126  -8.756  1.00  0.00     0.029 A 
ATOM     56  N   UNL     1      17.056   2.887  -8.710  1.00  0.00    -0.354 N 
ATOM     57  C   UNL     1      18.806   4.380  -5.043  1.00  0.00     0.074 A 
ATOM     58  C   UNL     1      17.858   4.322  -3.954  1.00  0.00     0.031 C 
ATOM     59  C   UNL     1      15.463   1.986  -9.992  1.00  0.00     0.029 A 
ATOM     60  C   UNL     1      16.827   2.513 -10.013  1.00  0.00     0.049 A 
ATOM     61  H   UNL     1      17.919   3.243  -8.395  1.00  0.00     0.167 HD
ATOM     62  C   UNL     1      20.080   4.821  -4.917  1.00  0.00     0.031 A 
ATOM     63  C   UNL     1      17.621   2.607 -11.099  1.00  0.00     0.031 A 
ATOM     64  C   UNL     1      21.018   4.886  -6.005  1.00  0.00     0.049 A 
ATOM     65  C   UNL     1      19.010   3.178 -10.949  1.00  0.00     0.074 A 
ATOM     66  C   UNL     1      22.337   5.302  -5.978  1.00  0.00     0.029 A 
ATOM     67  N   UNL     1      20.735   4.533  -7.316  1.00  0.00    -0.354 N 
ATOM     68  N   UNL     1      19.619   3.599  -9.865  1.00  0.00    -0.248 NA
ATOM     69  C   UNL     1      19.823   3.279 -12.170  1.00  0.00     0.031 C 
ATOM     70  C   UNL     1      22.831   5.266  -7.285  1.00  0.00     0.029 A 
ATOM     71  C   UNL     1      21.846   4.752  -8.113  1.00  0.00     0.049 A 
ATOM     72  H   UNL     1      19.873   4.179  -7.633  1.00  0.00     0.167 HD
ATOM     73  C   UNL     1      20.897   3.978 -10.268  1.00  0.00     0.074 A 
ATOM     74  C   UNL     1      20.977   3.724 -11.691  1.00  0.00     0.031 C 
ATOM     75  C   UNL     1      21.913   4.487  -9.528  1.00  0.00     0.031 A 
BRANCH  62  76
ATOM     76  C   UNL     1      20.521   5.308  -3.562  1.00  0.00    -0.014 A 
ATOM     77  C   UNL     1      20.706   4.419  -2.488  1.00  0.00     0.010 A 
ATOM     78  C   UNL     1      20.800   6.674  -3.374  1.00  0.00     0.010 A 
ATOM     79  C   UNL     1      21.133   4.892  -1.244  1.00  0.00     0.020 A 
ATOM     80  C   UNL     1      21.257   7.146  -2.142  1.00  0.00     0.020 A 
ATOM     81  C   UNL     1      21.409   6.253  -1.080  1.00  0.00     0.054 A 
BRANCH  81  82
ATOM     82  S   UNL     1      22.001   6.832   0.534  1.00  0.00     0.124 S 
ATOM     83  O   UNL     1      20.805   6.691   1.362  1.00  0.00    -0.237 OA
ATOM     84  O   UNL     1      23.083   5.897   0.830  1.00  0.00    -0.237 OA
ATOM     85  O   UNL     1      22.421   8.207   0.278  1.00  0.00    -0.744 OA
ENDBRANCH  81  82
ENDBRANCH  62  76
BRANCH  63  86
ATOM     86  C   UNL     1      17.122   2.173 -12.436  1.00  0.00    -0.014 A 
ATOM     87  C   UNL     1      17.697   1.074 -13.098  1.00  0.00     0.010 A 
ATOM     88  C   UNL     1      16.082   2.880 -13.068  1.00  0.00     0.010 A 
ATOM     89  C   UNL     1      17.262   0.707 -14.376  1.00  0.00     0.020 A 
ATOM     90  C   UNL     1      15.621   2.496 -14.331  1.00  0.00     0.020 A 
ATOM     91  C   UNL     1      16.225   1.420 -14.983  1.00  0.00     0.054 A 
BRANCH  91  92
ATOM     92  S   UNL     1      15.655   0.904 -16.627  1.00  0.00     0.124 S 
ATOM     93  O   UNL     1      16.773   1.303 -17.476  1.00  0.00    -0.237 OA
ATOM     94  O   UNL     1      15.469  -0.534 -16.457  1.00  0.00    -0.237 OA
ATOM     95  O   UNL     1      14.422   1.666 -16.817  1.00  0.00    -0.744 OA
ENDBRANCH  91  92
ENDBRANCH  63  86
BRANCH  75  96
ATOM     96  C   UNL     1      23.223   4.757 -10.226  1.00  0.00    -0.014 A 
ATOM     97  C   UNL     1      23.362   5.805 -11.153  1.00  0.00     0.010 A 
ATOM     98  C   UNL     1      24.351   3.982  -9.898  1.00  0.00     0.010 A 
ATOM     99  C   UNL     1      24.595   6.049 -11.764  1.00  0.00     0.020 A 
ATOM    100  C   UNL     1      25.593   4.244 -10.480  1.00  0.00     0.020 A 
ATOM    101  C   UNL     1      25.704   5.268 -11.422  1.00  0.00     0.054 A 
BRANCH 101 102
ATOM    102  S   UNL     1      27.302   5.633 -12.198  1.00  0.00     0.124 S 
ATOM    103  O   UNL     1      27.087   5.174 -13.568  1.00  0.00    -0.237 OA
ATOM    104  O   UNL     1      27.415   7.080 -12.031  1.00  0.00    -0.237 OA
ATOM    105  O   UNL     1      28.255   4.845 -11.420  1.00  0.00    -0.744 OA
ENDBRANCH 101 102
ENDBRANCH  75  96
ENDBRANCH  49  50
ENDBRANCH  42  44
ENDBRANCH  41  42
ENDBRANCH  40  41
ENDBRANCH  39  40
ENDBRANCH  38  39
ENDBRANCH  37  38
ENDBRANCH  36  37
ENDBRANCH  35  36
ENDBRANCH   1  35
TORSDOF 27
