REMARK SMILES CCN(Cc1ccccn1)c1nc(C)cc(C)c1C(=O)OCCOCCOCCOCCOC(=O)c1ccc(-c2c3nc(c(-c4ccc(S(=O)(=O)[O-])cc4)c4ccc([nH]4)c(-c4ccc(S(=O)(=O)[O-])cc4)c4nc(c(-c5ccc(S(=O)(=O)[O-])cc5)c5ccc2[nH]5)C=C4)C=C3)cc1
REMARK SMILES IDX 27 1 26 2 25 3 24 4 23 5 22 6 21 7 19 8 20 9 18 10 11 11
REMARK SMILES IDX 12 12 13 13 16 14 14 15 15 16 17 17 3 18 2 19 1 20 4 21 5 22
REMARK SMILES IDX 6 23 10 24 7 25 9 26 8 27 28 28 29 29 30 30 31 31 32 32
REMARK SMILES IDX 33 33 34 34 35 35 36 36 37 37 95 38 38 39 94 40 39 41 40 42
REMARK SMILES IDX 41 43 88 44 42 45 93 46 87 47 89 48 43 49 92 50 86 51 85 52
REMARK SMILES IDX 44 54 74 55 55 56 73 57 56 58 59 59 72 60 90 61 57 62 58 63
REMARK SMILES IDX 71 65 91 66 60 67 45 68 46 69 54 70 47 71 53 72 48 73 49 74
REMARK SMILES IDX 50 75 51 76 52 77 75 78 76 79 84 80 77 81 83 82 78 83 79 84
REMARK SMILES IDX 80 85 81 86 82 87 61 88 62 89 70 90 63 91 69 92 64 93 65 94
REMARK SMILES IDX 66 95 67 96 68 97
REMARK H PARENT 89 53 59 64
REMARK Flexibility Score: inf
ROOT
ATOM      1  O   UNL     1       4.122  -0.407  -2.567  1.00  0.00    -0.377 OA
ENDROOT
BRANCH   1   2
ATOM      2  C   UNL     1       3.335  -0.608  -1.400  1.00  0.00     0.188 C 
BRANCH   2   3
ATOM      3  C   UNL     1       1.994   0.127  -1.180  1.00  0.00     0.188 C 
BRANCH   3   4
ATOM      4  O   UNL     1       1.852   1.380  -1.824  1.00  0.00    -0.376 OA
BRANCH   4   5
ATOM      5  C   UNL     1       1.695   2.546  -1.036  1.00  0.00     0.202 C 
BRANCH   5   6
ATOM      6  C   UNL     1       2.871   2.895  -0.124  1.00  0.00     0.261 C 
BRANCH   6   7
ATOM      7  O   UNL     1       3.346   1.771   0.625  1.00  0.00    -0.460 OA
BRANCH   7   8
ATOM      8  C   UNL     1       2.703   1.433   1.768  1.00  0.00     0.342 C 
ATOM      9  O   UNL     1       1.800   2.064   2.286  1.00  0.00    -0.246 OA
BRANCH   8  10
ATOM     10  C   UNL     1       3.246   0.122   2.229  1.00  0.00     0.105 A 
ATOM     11  C   UNL     1       2.371  -0.860   2.743  1.00  0.00     0.144 A 
ATOM     12  N   UNL     1       2.882  -1.955   3.357  1.00  0.00    -0.235 NA
ATOM     13  C   UNL     1       4.218  -2.148   3.426  1.00  0.00     0.040 A 
ATOM     14  C   UNL     1       4.648  -0.124   2.226  1.00  0.00    -0.031 A 
ATOM     15  C   UNL     1       4.686  -3.330   4.216  1.00  0.00     0.067 C 
ATOM     16  C   UNL     1       5.120  -1.292   2.827  1.00  0.00     0.028 A 
ATOM     17  C   UNL     1       5.672   0.777   1.579  1.00  0.00     0.045 C 
BRANCH  11  18
ATOM     18  N   UNL     1       0.981  -0.812   2.635  1.00  0.00    -0.350 N 
BRANCH  18  19
ATOM     19  C   UNL     1       0.351  -1.274   1.394  1.00  0.00     0.115 C 
ATOM     20  C   UNL     1      -0.567  -0.189   0.832  1.00  0.00     0.027 C 
ENDBRANCH  18  19
BRANCH  18  21
ATOM     21  C   UNL     1       0.206  -1.076   3.856  1.00  0.00     0.174 C 
BRANCH  21  22
ATOM     22  C   UNL     1       0.264  -2.505   4.396  1.00  0.00     0.060 A 
ATOM     23  C   UNL     1       0.792  -2.720   5.669  1.00  0.00     0.026 A 
ATOM     24  N   UNL     1      -0.217  -3.527   3.633  1.00  0.00    -0.259 NA
ATOM     25  C   UNL     1       0.866  -4.017   6.164  1.00  0.00     0.004 A 
ATOM     26  C   UNL     1      -0.096  -4.779   4.127  1.00  0.00     0.111 A 
ATOM     27  C   UNL     1       0.425  -5.071   5.375  1.00  0.00     0.020 A 
ENDBRANCH  21  22
ENDBRANCH  18  21
ENDBRANCH  11  18
ENDBRANCH   8  10
ENDBRANCH   7   8
ENDBRANCH   6   7
ENDBRANCH   5   6
ENDBRANCH   4   5
ENDBRANCH   3   4
ENDBRANCH   2   3
ENDBRANCH   1   2
BRANCH   1  28
ATOM     28  C   UNL     1       3.646   0.520  -3.526  1.00  0.00     0.188 C 
BRANCH  28  29
ATOM     29  C   UNL     1       2.357   0.090  -4.266  1.00  0.00     0.188 C 
BRANCH  29  30
ATOM     30  O   UNL     1       1.653  -0.963  -3.630  1.00  0.00    -0.376 OA
BRANCH  30  31
ATOM     31  C   UNL     1       1.821  -2.308  -4.030  1.00  0.00     0.202 C 
BRANCH  31  32
ATOM     32  C   UNL     1       3.183  -2.937  -4.368  1.00  0.00     0.261 C 
BRANCH  32  33
ATOM     33  O   UNL     1       4.203  -2.090  -4.892  1.00  0.00    -0.460 OA
BRANCH  33  34
ATOM     34  C   UNL     1       4.098  -1.709  -6.186  1.00  0.00     0.338 C 
ATOM     35  O   UNL     1       3.225  -2.000  -6.968  1.00  0.00    -0.246 OA
BRANCH  34  36
ATOM     36  C   UNL     1       5.140  -0.673  -6.391  1.00  0.00     0.060 A 
ATOM     37  C   UNL     1       4.750   0.614  -6.793  1.00  0.00     0.016 A 
ATOM     38  C   UNL     1       6.475  -0.949  -6.087  1.00  0.00     0.016 A 
ATOM     39  C   UNL     1       5.699   1.629  -6.895  1.00  0.00     0.010 A 
ATOM     40  C   UNL     1       7.432   0.052  -6.240  1.00  0.00     0.010 A 
ATOM     41  C   UNL     1       7.049   1.335  -6.672  1.00  0.00    -0.014 A 
BRANCH  41  42
ATOM     42  C   UNL     1       8.087   2.260  -7.174  1.00  0.00     0.031 A 
ATOM     43  C   UNL     1       8.582   2.025  -8.575  1.00  0.00     0.074 A 
ATOM     44  C   UNL     1       8.582   3.258  -6.423  1.00  0.00     0.049 A 
ATOM     45  N   UNL     1       9.539   2.625  -9.228  1.00  0.00    -0.248 NA
ATOM     46  C   UNL     1       7.905   0.960  -9.339  1.00  0.00     0.031 C 
ATOM     47  C   UNL     1       8.136   3.613  -5.076  1.00  0.00     0.029 A 
ATOM     48  N   UNL     1       9.586   4.153  -6.694  1.00  0.00    -0.354 N 
ATOM     49  C   UNL     1       9.593   1.998 -10.467  1.00  0.00     0.074 A 
ATOM     50  C   UNL     1       8.586   0.963 -10.473  1.00  0.00     0.031 C 
ATOM     51  C   UNL     1       8.876   4.647  -4.633  1.00  0.00     0.029 A 
ATOM     52  C   UNL     1       9.870   4.997  -5.646  1.00  0.00     0.049 A 
ATOM     53  H   UNL     1      10.057   4.188  -7.557  1.00  0.00     0.167 HD
ATOM     54  C   UNL     1      10.414   2.261 -11.508  1.00  0.00     0.031 A 
ATOM     55  C   UNL     1      10.842   5.923  -5.520  1.00  0.00     0.031 A 
ATOM     56  C   UNL     1      11.424   3.282 -11.486  1.00  0.00     0.049 A 
ATOM     57  C   UNL     1      11.801   6.139  -6.667  1.00  0.00     0.074 A 
ATOM     58  C   UNL     1      12.297   3.644 -12.494  1.00  0.00     0.029 A 
ATOM     59  N   UNL     1      11.702   4.093 -10.396  1.00  0.00    -0.354 N 
ATOM     60  N   UNL     1      11.824   5.563  -7.846  1.00  0.00    -0.248 NA
ATOM     61  C   UNL     1      12.864   7.136  -6.467  1.00  0.00     0.031 C 
ATOM     62  C   UNL     1      13.152   4.629 -11.990  1.00  0.00     0.029 A 
ATOM     63  C   UNL     1      12.757   4.935 -10.697  1.00  0.00     0.049 A 
ATOM     64  H   UNL     1      11.220   4.073  -9.538  1.00  0.00     0.167 HD
ATOM     65  C   UNL     1      12.873   6.159  -8.541  1.00  0.00     0.074 A 
ATOM     66  C   UNL     1      13.456   7.143  -7.653  1.00  0.00     0.031 C 
ATOM     67  C   UNL     1      13.310   5.920  -9.803  1.00  0.00     0.031 A 
BRANCH  54  68
ATOM     68  C   UNL     1      10.288   1.399 -12.733  1.00  0.00    -0.014 A 
ATOM     69  C   UNL     1       9.171   1.490 -13.584  1.00  0.00     0.010 A 
ATOM     70  C   UNL     1      11.330   0.514 -13.062  1.00  0.00     0.010 A 
ATOM     71  C   UNL     1       9.091   0.696 -14.730  1.00  0.00     0.020 A 
ATOM     72  C   UNL     1      11.268  -0.260 -14.222  1.00  0.00     0.020 A 
ATOM     73  C   UNL     1      10.143  -0.171 -15.044  1.00  0.00     0.054 A 
BRANCH  73  74
ATOM     74  S   UNL     1      10.037  -1.148 -16.568  1.00  0.00     0.124 S 
ATOM     75  O   UNL     1       8.986  -2.107 -16.238  1.00  0.00    -0.237 OA
ATOM     76  O   UNL     1       9.681  -0.144 -17.566  1.00  0.00    -0.237 OA
ATOM     77  O   UNL     1      11.375  -1.718 -16.710  1.00  0.00    -0.744 OA
ENDBRANCH  73  74
ENDBRANCH  54  68
BRANCH  55  78
ATOM     78  C   UNL     1      10.982   6.707  -4.260  1.00  0.00    -0.014 A 
ATOM     79  C   UNL     1      10.762   8.096  -4.252  1.00  0.00     0.010 A 
ATOM     80  C   UNL     1      11.371   6.074  -3.064  1.00  0.00     0.010 A 
ATOM     81  C   UNL     1      10.956   8.841  -3.084  1.00  0.00     0.020 A 
ATOM     82  C   UNL     1      11.535   6.809  -1.886  1.00  0.00     0.020 A 
ATOM     83  C   UNL     1      11.340   8.191  -1.907  1.00  0.00     0.054 A 
BRANCH  83  84
ATOM     84  S   UNL     1      11.557   9.174  -0.398  1.00  0.00     0.124 S 
ATOM     85  O   UNL     1      12.779   9.916  -0.691  1.00  0.00    -0.237 OA
ATOM     86  O   UNL     1      10.329   9.964  -0.358  1.00  0.00    -0.237 OA
ATOM     87  O   UNL     1      11.674   8.165   0.653  1.00  0.00    -0.744 OA
ENDBRANCH  83  84
ENDBRANCH  55  78
BRANCH  67  88
ATOM     88  C   UNL     1      14.432   6.775 -10.333  1.00  0.00    -0.014 A 
ATOM     89  C   UNL     1      15.751   6.634  -9.870  1.00  0.00     0.010 A 
ATOM     90  C   UNL     1      14.166   7.678 -11.381  1.00  0.00     0.010 A 
ATOM     91  C   UNL     1      16.779   7.400 -10.427  1.00  0.00     0.020 A 
ATOM     92  C   UNL     1      15.196   8.420 -11.963  1.00  0.00     0.020 A 
ATOM     93  C   UNL     1      16.496   8.284 -11.473  1.00  0.00     0.054 A 
BRANCH  93  94
ATOM     94  S   UNL     1      17.859   9.221 -12.218  1.00  0.00     0.124 S 
ATOM     95  O   UNL     1      18.180  10.180 -11.164  1.00  0.00    -0.237 OA
ATOM     96  O   UNL     1      18.864   8.187 -12.455  1.00  0.00    -0.237 OA
ATOM     97  O   UNL     1      17.267   9.796 -13.424  1.00  0.00    -0.744 OA
ENDBRANCH  93  94
ENDBRANCH  67  88
ENDBRANCH  41  42
ENDBRANCH  34  36
ENDBRANCH  33  34
ENDBRANCH  32  33
ENDBRANCH  31  32
ENDBRANCH  30  31
ENDBRANCH  29  30
ENDBRANCH  28  29
ENDBRANCH   1  28
TORSDOF 27
