REMARK SMILES O=C(Cn1nc(C(=O)OCCOCCOCCOCCOC(=O)c2ccc(-c3c4nc(c(-c5ccc(S(=O)(=O)[O-])cc5)c5ccc([nH]5)c(-c5ccc(S(=O)(=O)[O-])cc5)c5nc(c(-c6ccc(S(=O)(=O)[O-])cc6)c6ccc3[nH]6)C=C5)C=C4)cc2)c2ccccc2c1=O)Nc1ccc2c(c1)C(=O)c1ccccc1C2=O
REMARK SMILES IDX 15 1 14 2 13 3 12 4 11 5 10 6 9 7 7 8 8 9 6 10 4 11 5 12
REMARK SMILES IDX 90 13 89 14 91 15 84 16 88 17 85 18 87 19 86 20 3 21 2 22
REMARK SMILES IDX 1 23 92 24 93 26 94 27 98 28 95 29 97 30 96 31 99 32 107 33
REMARK SMILES IDX 100 34 101 35 106 36 108 37 102 38 105 39 103 40 104 41
REMARK SMILES IDX 16 42 17 43 18 44 19 45 20 46 21 47 22 48 23 49 24 50 25 51
REMARK SMILES IDX 83 52 26 53 82 54 27 55 28 56 29 57 76 58 30 59 81 60 75 61
REMARK SMILES IDX 77 62 31 63 80 64 74 65 73 66 32 68 62 69 43 70 61 71 44 72
REMARK SMILES IDX 47 73 60 74 78 75 45 76 46 77 59 79 79 80 48 81 33 82 34 83
REMARK SMILES IDX 42 84 35 85 41 86 36 87 37 88 38 89 39 90 40 91 63 92 64 93
REMARK SMILES IDX 72 94 65 95 71 96 66 97 67 98 68 99 69 100 70 101 49 102
REMARK SMILES IDX 50 103 58 104 51 105 57 106 52 107 53 108 54 109 55 110
REMARK SMILES IDX 56 111
REMARK H PARENT 92 25 77 67 47 78
REMARK Flexibility Score: inf
ROOT
ATOM      1  O   UNL     1       7.492  -1.700   1.898  1.00  0.00    -0.377 OA
ENDROOT
BRANCH   1   2
ATOM      2  C   UNL     1       7.587  -0.331   2.237  1.00  0.00     0.188 C 
BRANCH   2   3
ATOM      3  C   UNL     1       7.839  -0.054   3.734  1.00  0.00     0.188 C 
BRANCH   3   4
ATOM      4  O   UNL     1       7.813  -1.075   4.728  1.00  0.00    -0.376 OA
BRANCH   4   5
ATOM      5  C   UNL     1       7.016  -2.238   4.559  1.00  0.00     0.202 C 
BRANCH   5   6
ATOM      6  C   UNL     1       5.499  -2.053   4.465  1.00  0.00     0.261 C 
BRANCH   6   7
ATOM      7  O   UNL     1       5.097  -1.008   3.571  1.00  0.00    -0.458 OA
BRANCH   7   8
ATOM      8  C   UNL     1       4.344  -0.027   4.108  1.00  0.00     0.359 C 
ATOM      9  O   UNL     1       3.912   0.056   5.235  1.00  0.00    -0.244 OA
BRANCH   8  10
ATOM     10  C   UNL     1       4.210   1.121   3.106  1.00  0.00     0.176 A 
ATOM     11  N   UNL     1       3.473   1.889   1.034  1.00  0.00    -0.219 N 
ATOM     12  N   UNL     1       3.659   0.867   1.953  1.00  0.00    -0.161 NA
ATOM     13  C   UNL     1       3.895   3.199   1.266  1.00  0.00     0.275 A 
ATOM     14  C   UNL     1       4.559   3.468   2.557  1.00  0.00     0.051 A 
ATOM     15  O   UNL     1       3.765   4.116   0.460  1.00  0.00    -0.267 OA
ATOM     16  C   UNL     1       4.721   2.446   3.483  1.00  0.00     0.022 A 
ATOM     17  C   UNL     1       5.056   4.749   2.835  1.00  0.00     0.014 A 
ATOM     18  C   UNL     1       5.391   2.696   4.689  1.00  0.00     0.011 A 
ATOM     19  C   UNL     1       5.733   4.994   4.030  1.00  0.00     0.001 A 
ATOM     20  C   UNL     1       5.905   3.966   4.954  1.00  0.00     0.001 A 
BRANCH  11  21
ATOM     21  C   UNL     1       2.859   1.589  -0.287  1.00  0.00     0.248 C 
BRANCH  21  22
ATOM     22  C   UNL     1       1.931   0.366  -0.417  1.00  0.00     0.246 C 
ATOM     23  O   UNL     1       1.005   0.318  -1.219  1.00  0.00    -0.273 OA
ATOM     24  N   UNL     1       2.376  -0.674   0.354  1.00  0.00    -0.324 N 
ATOM     25  H   UNL     1       3.311  -0.623   0.660  1.00  0.00     0.169 HD
BRANCH  24  26
ATOM     26  C   UNL     1       1.653  -1.796   0.755  1.00  0.00     0.042 A 
ATOM     27  C   UNL     1       1.656  -2.943  -0.032  1.00  0.00     0.027 A 
ATOM     28  C   UNL     1       1.429  -1.872   2.129  1.00  0.00     0.039 A 
ATOM     29  C   UNL     1       1.647  -4.187   0.607  1.00  0.00     0.015 A 
ATOM     30  C   UNL     1       1.426  -3.109   2.755  1.00  0.00     0.036 A 
ATOM     31  C   UNL     1       1.644  -4.259   2.006  1.00  0.00     0.034 A 
ATOM     32  C   UNL     1       1.514  -3.127   4.222  1.00  0.00     0.194 C 
ATOM     33  C   UNL     1       2.221  -5.445   2.679  1.00  0.00     0.194 C 
ATOM     34  O   UNL     1       1.042  -2.224   4.901  1.00  0.00    -0.289 OA
ATOM     35  C   UNL     1       2.361  -4.168   4.819  1.00  0.00     0.034 A 
ATOM     36  C   UNL     1       2.733  -5.274   4.059  1.00  0.00     0.034 A 
ATOM     37  O   UNL     1       2.485  -6.471   2.068  1.00  0.00    -0.289 OA
ATOM     38  C   UNL     1       2.943  -3.934   6.071  1.00  0.00     0.013 A 
ATOM     39  C   UNL     1       3.721  -6.139   4.539  1.00  0.00     0.013 A 
ATOM     40  C   UNL     1       3.946  -4.784   6.533  1.00  0.00     0.001 A 
ATOM     41  C   UNL     1       4.340  -5.880   5.764  1.00  0.00     0.001 A 
ENDBRANCH  24  26
ENDBRANCH  21  22
ENDBRANCH  11  21
ENDBRANCH   8  10
ENDBRANCH   7   8
ENDBRANCH   6   7
ENDBRANCH   5   6
ENDBRANCH   4   5
ENDBRANCH   3   4
ENDBRANCH   2   3
ENDBRANCH   1   2
BRANCH   1  42
ATOM     42  C   UNL     1       8.675  -2.273   1.354  1.00  0.00     0.188 C 
BRANCH  42  43
ATOM     43  C   UNL     1       9.948  -2.101   2.195  1.00  0.00     0.188 C 
BRANCH  43  44
ATOM     44  O   UNL     1      10.425  -0.750   2.167  1.00  0.00    -0.376 OA
BRANCH  44  45
ATOM     45  C   UNL     1      11.597  -0.535   1.382  1.00  0.00     0.202 C 
BRANCH  45  46
ATOM     46  C   UNL     1      11.305  -0.307  -0.107  1.00  0.00     0.261 C 
BRANCH  46  47
ATOM     47  O   UNL     1      10.720  -1.422  -0.802  1.00  0.00    -0.460 OA
BRANCH  47  48
ATOM     48  C   UNL     1      11.389  -2.599  -0.806  1.00  0.00     0.338 C 
ATOM     49  O   UNL     1      12.493  -2.810  -0.341  1.00  0.00    -0.246 OA
BRANCH  48  50
ATOM     50  C   UNL     1      10.446  -3.645  -1.271  1.00  0.00     0.060 A 
ATOM     51  C   UNL     1       9.639  -3.441  -2.395  1.00  0.00     0.016 A 
ATOM     52  C   UNL     1      10.330  -4.827  -0.529  1.00  0.00     0.016 A 
ATOM     53  C   UNL     1       8.729  -4.428  -2.786  1.00  0.00     0.010 A 
ATOM     54  C   UNL     1       9.408  -5.807  -0.913  1.00  0.00     0.010 A 
ATOM     55  C   UNL     1       8.613  -5.622  -2.055  1.00  0.00    -0.014 A 
BRANCH  55  56
ATOM     56  C   UNL     1       7.806  -6.744  -2.597  1.00  0.00     0.031 A 
ATOM     57  C   UNL     1       6.387  -6.995  -2.179  1.00  0.00     0.074 A 
ATOM     58  C   UNL     1       8.384  -7.541  -3.518  1.00  0.00     0.049 A 
ATOM     59  N   UNL     1       5.561  -7.906  -2.627  1.00  0.00    -0.248 NA
ATOM     60  C   UNL     1       5.817  -6.125  -1.140  1.00  0.00     0.031 C 
ATOM     61  C   UNL     1       9.751  -7.383  -4.019  1.00  0.00     0.029 A 
ATOM     62  N   UNL     1       7.897  -8.623  -4.208  1.00  0.00    -0.354 N 
ATOM     63  C   UNL     1       4.364  -7.707  -1.949  1.00  0.00     0.074 A 
ATOM     64  C   UNL     1       4.584  -6.611  -1.030  1.00  0.00     0.031 C 
ATOM     65  C   UNL     1       9.985  -8.318  -4.952  1.00  0.00     0.029 A 
ATOM     66  C   UNL     1       8.797  -9.156  -5.100  1.00  0.00     0.049 A 
ATOM     67  H   UNL     1       6.991  -8.983  -4.076  1.00  0.00     0.167 HD
ATOM     68  C   UNL     1       3.195  -8.372  -2.098  1.00  0.00     0.031 A 
ATOM     69  C   UNL     1       8.688 -10.193  -5.954  1.00  0.00     0.031 A 
ATOM     70  C   UNL     1       2.991  -9.485  -2.984  1.00  0.00     0.049 A 
ATOM     71  C   UNL     1       7.390 -10.939  -6.060  1.00  0.00     0.074 A 
ATOM     72  C   UNL     1       1.841 -10.243  -3.136  1.00  0.00     0.029 A 
ATOM     73  N   UNL     1       3.932 -10.000  -3.856  1.00  0.00    -0.354 N 
ATOM     74  N   UNL     1       6.267 -10.715  -5.424  1.00  0.00    -0.248 NA
ATOM     75  C   UNL     1       7.333 -12.065  -7.004  1.00  0.00     0.031 C 
ATOM     76  C   UNL     1       2.092 -11.229  -4.089  1.00  0.00     0.029 A 
ATOM     77  C   UNL     1       3.386 -11.063  -4.553  1.00  0.00     0.049 A 
ATOM     78  H   UNL     1       4.850  -9.661  -3.965  1.00  0.00     0.167 HD
ATOM     79  C   UNL     1       5.364 -11.653  -5.909  1.00  0.00     0.074 A 
ATOM     80  C   UNL     1       6.065 -12.446  -6.895  1.00  0.00     0.031 C 
ATOM     81  C   UNL     1       4.070 -11.833  -5.559  1.00  0.00     0.031 A 
BRANCH  68  82
ATOM     82  C   UNL     1       1.992  -7.941  -1.311  1.00  0.00    -0.014 A 
ATOM     83  C   UNL     1       1.650  -8.608  -0.123  1.00  0.00     0.010 A 
ATOM     84  C   UNL     1       1.088  -7.022  -1.873  1.00  0.00     0.010 A 
ATOM     85  C   UNL     1       0.425  -8.354   0.503  1.00  0.00     0.020 A 
ATOM     86  C   UNL     1      -0.135  -6.764  -1.247  1.00  0.00     0.020 A 
ATOM     87  C   UNL     1      -0.459  -7.433  -0.062  1.00  0.00     0.054 A 
BRANCH  87  88
ATOM     88  S   UNL     1      -2.019  -7.039   0.773  1.00  0.00     0.124 S 
ATOM     89  O   UNL     1      -2.986  -7.826   0.014  1.00  0.00    -0.237 OA
ATOM     90  O   UNL     1      -1.794  -7.476   2.150  1.00  0.00    -0.237 OA
ATOM     91  O   UNL     1      -2.114  -5.590   0.606  1.00  0.00    -0.744 OA
ENDBRANCH  87  88
ENDBRANCH  68  82
BRANCH  69  92
ATOM     92  C   UNL     1       9.848 -10.535  -6.817  1.00  0.00    -0.014 A 
ATOM     93  C   UNL     1      11.008 -11.101  -6.256  1.00  0.00     0.010 A 
ATOM     94  C   UNL     1       9.834 -10.205  -8.182  1.00  0.00     0.010 A 
ATOM     95  C   UNL     1      12.152 -11.284  -7.035  1.00  0.00     0.020 A 
ATOM     96  C   UNL     1      10.969 -10.410  -8.971  1.00  0.00     0.020 A 
ATOM     97  C   UNL     1      12.130 -10.921  -8.384  1.00  0.00     0.054 A 
BRANCH  97  98
ATOM     98  S   UNL     1      13.644 -11.112  -9.364  1.00  0.00     0.124 S 
ATOM     99  O   UNL     1      14.429  -9.961  -8.926  1.00  0.00    -0.237 OA
ATOM    100  O   UNL     1      14.142 -12.415  -8.932  1.00  0.00    -0.237 OA
ATOM    101  O   UNL     1      13.167 -11.057 -10.743  1.00  0.00    -0.744 OA
ENDBRANCH  97  98
ENDBRANCH  69  92
BRANCH  81 102
ATOM    102  C   UNL     1       3.269 -12.913  -6.232  1.00  0.00    -0.014 A 
ATOM    103  C   UNL     1       2.217 -12.556  -7.096  1.00  0.00     0.010 A 
ATOM    104  C   UNL     1       3.418 -14.256  -5.845  1.00  0.00     0.010 A 
ATOM    105  C   UNL     1       1.295 -13.515  -7.522  1.00  0.00     0.020 A 
ATOM    106  C   UNL     1       2.510 -15.222  -6.287  1.00  0.00     0.020 A 
ATOM    107  C   UNL     1       1.437 -14.839  -7.097  1.00  0.00     0.054 A 
BRANCH 107 108
ATOM    108  S   UNL     1       0.185 -16.056  -7.591  1.00  0.00     0.124 S 
ATOM    109  O   UNL     1      -0.925 -15.735  -6.699  1.00  0.00    -0.237 OA
ATOM    110  O   UNL     1      -0.029 -15.743  -9.002  1.00  0.00    -0.237 OA
ATOM    111  O   UNL     1       0.838 -17.339  -7.338  1.00  0.00    -0.744 OA
ENDBRANCH 107 108
ENDBRANCH  81 102
ENDBRANCH  55  56
ENDBRANCH  48  50
ENDBRANCH  47  48
ENDBRANCH  46  47
ENDBRANCH  45  46
ENDBRANCH  44  45
ENDBRANCH  43  44
ENDBRANCH  42  43
ENDBRANCH   1  42
TORSDOF 26
