REMARK SMILES O=C(C[NH+]1CCOCC1)Nc1nnc(SCC(=O)OCCOCCOCCOCCOC(=O)c2ccc(-c3c4nc(c(-c5ccc(S(=O)(=O)[O-])cc5)c5ccc([nH]5)c(-c5ccc(S(=O)(=O)[O-])cc5)c5nc(c(-c6ccc(S(=O)(=O)[O-])cc6)c6ccc3[nH]6)C=C5)C=C4)cc2)s1
REMARK SMILES IDX 24 1 23 2 22 3 21 4 20 5 19 6 17 7 18 8 16 9 15 10 14 11
REMARK SMILES IDX 11 12 12 13 94 14 13 15 10 16 1 17 2 18 3 20 4 21 5 22 9 23
REMARK SMILES IDX 6 25 8 26 7 27 25 28 26 29 27 30 28 31 29 32 30 33 31 34
REMARK SMILES IDX 32 35 33 36 34 37 35 38 93 39 36 40 92 41 37 42 38 43 39 44
REMARK SMILES IDX 86 45 40 46 91 47 85 48 87 49 41 50 90 51 84 52 83 53 42 55
REMARK SMILES IDX 72 56 53 57 71 58 54 59 57 60 70 61 88 62 55 63 56 64 69 66
REMARK SMILES IDX 89 67 58 68 43 69 44 70 52 71 45 72 51 73 46 74 47 75 48 76
REMARK SMILES IDX 49 77 50 78 73 79 74 80 82 81 75 82 81 83 76 84 77 85 78 86
REMARK SMILES IDX 79 87 80 88 59 89 60 90 68 91 61 92 67 93 62 94 63 95 64 96
REMARK SMILES IDX 65 97 66 98
REMARK H PARENT 10 19 4 24 87 54 57 65
REMARK Flexibility Score: inf
ROOT
ATOM      1  C   UNL     1      -1.256   0.093   2.256  1.00  0.00     0.188 C 
ENDROOT
BRANCH   1   2
ATOM      2  C   UNL     1      -1.870  -1.138   1.593  1.00  0.00     0.188 C 
BRANCH   2   3
ATOM      3  O   UNL     1      -3.219  -1.135   1.186  1.00  0.00    -0.376 OA
BRANCH   3   4
ATOM      4  C   UNL     1      -4.145  -0.360   1.928  1.00  0.00     0.202 C 
BRANCH   4   5
ATOM      5  C   UNL     1      -4.297  -0.615   3.445  1.00  0.00     0.261 C 
BRANCH   5   6
ATOM      6  O   UNL     1      -3.099  -0.553   4.274  1.00  0.00    -0.463 OA
BRANCH   6   7
ATOM      7  C   UNL     1      -2.614  -1.724   4.760  1.00  0.00     0.316 C 
ATOM      8  O   UNL     1      -3.143  -2.812   4.530  1.00  0.00    -0.251 OA
BRANCH   7   9
ATOM      9  C   UNL     1      -1.394  -1.664   5.677  1.00  0.00     0.200 C 
BRANCH   9  10
ATOM     10  S   UNL     1      -0.332  -0.212   5.748  1.00  0.00    -0.082 SA
BRANCH  10  11
ATOM     11  C   UNL     1       1.128  -0.480   4.777  1.00  0.00     0.176 A 
ATOM     12  C   UNL     1       2.709  -0.609   2.979  1.00  0.00     0.213 A 
ATOM     13  N   UNL     1       3.092   0.234   3.912  1.00  0.00    -0.119 NA
ATOM     14  S   UNL     1       1.386  -1.588   3.477  1.00  0.00    -0.068 S 
ATOM     15  N   UNL     1       2.150   0.345   4.926  1.00  0.00    -0.130 NA
BRANCH  12  16
ATOM     16  N   UNL     1       3.300  -0.617   1.718  1.00  0.00    -0.296 N 
ATOM     17  O   UNL     1       1.656  -1.710   0.580  1.00  0.00    -0.268 OA
ATOM     18  C   UNL     1       2.700  -1.045   0.562  1.00  0.00     0.281 C 
ATOM     19  H   UNL     1       4.226  -0.289   1.651  1.00  0.00     0.172 HD
BRANCH  18  20
ATOM     20  C   UNL     1       3.313  -0.755  -0.835  1.00  0.00     0.364 C 
BRANCH  20  21
ATOM     21  N   UNL     1       4.286   0.290  -1.187  1.00  0.00    -0.323 N 
ATOM     22  C   UNL     1       5.251   0.904  -0.294  1.00  0.00     0.291 C 
ATOM     23  C   UNL     1       3.846   1.265  -2.213  1.00  0.00     0.291 C 
ATOM     24  H   UNL     1       4.884  -0.467  -1.520  1.00  0.00     0.348 HD
ATOM     25  C   UNL     1       4.676   2.179   0.316  1.00  0.00     0.221 C 
ATOM     26  C   UNL     1       3.332   2.572  -1.598  1.00  0.00     0.221 C 
ATOM     27  O   UNL     1       4.306   3.121  -0.694  1.00  0.00    -0.370 OA
ENDBRANCH  20  21
ENDBRANCH  18  20
ENDBRANCH  12  16
ENDBRANCH  10  11
ENDBRANCH   9  10
ENDBRANCH   7   9
ENDBRANCH   6   7
ENDBRANCH   5   6
ENDBRANCH   4   5
ENDBRANCH   3   4
ENDBRANCH   2   3
ENDBRANCH   1   2
BRANCH   1  28
ATOM     28  O   UNL     1      -2.017   1.262   2.480  1.00  0.00    -0.377 OA
BRANCH  28  29
ATOM     29  C   UNL     1      -1.882   2.377   1.608  1.00  0.00     0.188 C 
BRANCH  29  30
ATOM     30  C   UNL     1      -1.156   2.101   0.298  1.00  0.00     0.188 C 
BRANCH  30  31
ATOM     31  O   UNL     1       0.268   2.245   0.301  1.00  0.00    -0.376 OA
BRANCH  31  32
ATOM     32  C   UNL     1       0.997   2.156   1.522  1.00  0.00     0.202 C 
BRANCH  32  33
ATOM     33  C   UNL     1       1.889   3.353   1.790  1.00  0.00     0.261 C 
BRANCH  33  34
ATOM     34  O   UNL     1       1.096   4.513   1.840  1.00  0.00    -0.460 OA
BRANCH  34  35
ATOM     35  C   UNL     1       0.799   5.009   0.617  1.00  0.00     0.338 C 
ATOM     36  O   UNL     1       1.234   4.715  -0.483  1.00  0.00    -0.246 OA
BRANCH  35  37
ATOM     37  C   UNL     1      -0.337   5.869   0.866  1.00  0.00     0.060 A 
ATOM     38  C   UNL     1      -1.457   5.755   0.040  1.00  0.00     0.016 A 
ATOM     39  C   UNL     1      -0.276   6.730   1.965  1.00  0.00     0.016 A 
ATOM     40  C   UNL     1      -2.536   6.569   0.293  1.00  0.00     0.010 A 
ATOM     41  C   UNL     1      -1.352   7.538   2.223  1.00  0.00     0.010 A 
ATOM     42  C   UNL     1      -2.442   7.487   1.347  1.00  0.00    -0.014 A 
BRANCH  42  43
ATOM     43  C   UNL     1      -3.368   8.608   1.382  1.00  0.00     0.031 A 
ATOM     44  C   UNL     1      -2.899   9.880   0.753  1.00  0.00     0.074 A 
ATOM     45  C   UNL     1      -4.543   8.447   1.997  1.00  0.00     0.049 A 
ATOM     46  N   UNL     1      -3.482  11.042   0.731  1.00  0.00    -0.248 NA
ATOM     47  C   UNL     1      -1.587   9.846   0.071  1.00  0.00     0.031 C 
ATOM     48  C   UNL     1      -5.017   7.201   2.606  1.00  0.00     0.029 A 
ATOM     49  N   UNL     1      -5.540   9.343   2.225  1.00  0.00    -0.354 N 
ATOM     50  C   UNL     1      -2.606  11.877   0.052  1.00  0.00     0.074 A 
ATOM     51  C   UNL     1      -1.439  11.107  -0.299  1.00  0.00     0.031 C 
ATOM     52  C   UNL     1      -6.223   7.422   3.153  1.00  0.00     0.029 A 
ATOM     53  C   UNL     1      -6.569   8.826   2.966  1.00  0.00     0.049 A 
ATOM     54  H   UNL     1      -5.524  10.269   1.891  1.00  0.00     0.167 HD
ATOM     55  C   UNL     1      -2.782  13.182  -0.243  1.00  0.00     0.031 A 
ATOM     56  C   UNL     1      -7.649   9.454   3.458  1.00  0.00     0.031 A 
ATOM     57  C   UNL     1      -3.959  13.902   0.151  1.00  0.00     0.049 A 
ATOM     58  C   UNL     1      -7.800  10.917   3.144  1.00  0.00     0.074 A 
ATOM     59  C   UNL     1      -4.289  15.218  -0.100  1.00  0.00     0.029 A 
ATOM     60  N   UNL     1      -4.998  13.353   0.893  1.00  0.00    -0.354 N 
ATOM     61  N   UNL     1      -6.994  11.700   2.461  1.00  0.00    -0.248 NA
ATOM     62  C   UNL     1      -9.004  11.579   3.650  1.00  0.00     0.031 C 
ATOM     63  C   UNL     1      -5.498  15.483   0.549  1.00  0.00     0.029 A 
ATOM     64  C   UNL     1      -5.960  14.312   1.137  1.00  0.00     0.049 A 
ATOM     65  H   UNL     1      -5.042  12.418   1.200  1.00  0.00     0.167 HD
ATOM     66  C   UNL     1      -7.609  12.944   2.429  1.00  0.00     0.074 A 
ATOM     67  C   UNL     1      -8.862  12.798   3.148  1.00  0.00     0.031 C 
ATOM     68  C   UNL     1      -7.189  14.103   1.862  1.00  0.00     0.031 A 
BRANCH  55  69
ATOM     69  C   UNL     1      -1.678  13.896  -0.969  1.00  0.00    -0.014 A 
ATOM     70  C   UNL     1      -1.370  13.605  -2.311  1.00  0.00     0.010 A 
ATOM     71  C   UNL     1      -0.954  14.902  -0.304  1.00  0.00     0.010 A 
ATOM     72  C   UNL     1      -0.352  14.301  -2.970  1.00  0.00     0.020 A 
ATOM     73  C   UNL     1       0.044  15.618  -0.967  1.00  0.00     0.020 A 
ATOM     74  C   UNL     1       0.342  15.310  -2.295  1.00  0.00     0.054 A 
BRANCH  74  75
ATOM     75  S   UNL     1       1.607  16.246  -3.197  1.00  0.00     0.124 S 
ATOM     76  O   UNL     1       2.660  15.248  -3.366  1.00  0.00    -0.237 OA
ATOM     77  O   UNL     1       0.905  16.630  -4.419  1.00  0.00    -0.237 OA
ATOM     78  O   UNL     1       1.932  17.348  -2.296  1.00  0.00    -0.744 OA
ENDBRANCH  74  75
ENDBRANCH  55  69
BRANCH  56  79
ATOM     79  C   UNL     1      -8.624   8.710   4.292  1.00  0.00    -0.014 A 
ATOM     80  C   UNL     1      -9.927   8.463   3.829  1.00  0.00     0.010 A 
ATOM     81  C   UNL     1      -8.241   8.215   5.554  1.00  0.00     0.010 A 
ATOM     82  C   UNL     1     -10.839   7.765   4.625  1.00  0.00     0.020 A 
ATOM     83  C   UNL     1      -9.139   7.489   6.339  1.00  0.00     0.020 A 
ATOM     84  C   UNL     1     -10.439   7.284   5.876  1.00  0.00     0.054 A 
BRANCH  84  85
ATOM     85  S   UNL     1     -11.636   6.365   6.881  1.00  0.00     0.124 S 
ATOM     86  O   UNL     1     -12.561   7.417   7.288  1.00  0.00    -0.237 OA
ATOM     87  O   UNL     1     -12.162   5.391   5.928  1.00  0.00    -0.237 OA
ATOM     88  O   UNL     1     -10.820   5.799   7.953  1.00  0.00    -0.744 OA
ENDBRANCH  84  85
ENDBRANCH  56  79
BRANCH  68  89
ATOM     89  C   UNL     1      -8.117  15.280   1.965  1.00  0.00    -0.014 A 
ATOM     90  C   UNL     1      -8.320  15.942   3.187  1.00  0.00     0.010 A 
ATOM     91  C   UNL     1      -8.739  15.764   0.800  1.00  0.00     0.010 A 
ATOM     92  C   UNL     1      -9.164  17.051   3.248  1.00  0.00     0.020 A 
ATOM     93  C   UNL     1      -9.552  16.895   0.851  1.00  0.00     0.020 A 
ATOM     94  C   UNL     1      -9.771  17.521   2.079  1.00  0.00     0.054 A 
BRANCH  94  95
ATOM     95  S   UNL     1     -10.825  18.991   2.179  1.00  0.00     0.124 S 
ATOM     96  O   UNL     1     -12.002  18.472   2.872  1.00  0.00    -0.237 OA
ATOM     97  O   UNL     1     -10.001  19.921   2.947  1.00  0.00    -0.237 OA
ATOM     98  O   UNL     1     -11.037  19.362   0.782  1.00  0.00    -0.744 OA
ENDBRANCH  94  95
ENDBRANCH  68  89
ENDBRANCH  42  43
ENDBRANCH  35  37
ENDBRANCH  34  35
ENDBRANCH  33  34
ENDBRANCH  32  33
ENDBRANCH  31  32
ENDBRANCH  30  31
ENDBRANCH  29  30
ENDBRANCH  28  29
ENDBRANCH   1  28
TORSDOF 28
