REMARK SMILES C[N@H+](CCC(=O)Nc1sccc1C#N)CC(=O)OCCOCCOCCOCCOC(=O)c1ccc(-c2c3nc(c(-c4ccc(S(=O)(=O)[O-])cc4)c4ccc([nH]4)c(-c4ccc(S(=O)(=O)[O-])cc4)c4nc(c(-c5ccc(S(=O)(=O)[O-])cc5)c5ccc2[nH]5)C=C4)C=C3)cc1
REMARK SMILES IDX 22 1 21 2 20 3 19 4 18 5 16 6 17 7 15 8 2 9 1 10 3 12 4 13
REMARK SMILES IDX 5 14 6 15 7 16 8 18 9 19 12 20 10 21 11 22 13 23 14 24 23 25
REMARK SMILES IDX 24 26 25 27 26 28 27 29 28 30 29 31 30 32 31 33 32 34 33 35
REMARK SMILES IDX 34 36 92 37 35 38 91 39 36 40 37 41 38 42 85 43 39 44 90 45
REMARK SMILES IDX 84 46 86 47 40 48 89 49 83 50 82 51 41 53 71 54 52 55 70 56
REMARK SMILES IDX 53 57 56 58 69 59 87 60 54 61 55 62 68 64 88 65 57 66 42 67
REMARK SMILES IDX 43 68 51 69 44 70 50 71 45 72 46 73 47 74 48 75 49 76 72 77
REMARK SMILES IDX 73 78 81 79 74 80 80 81 75 82 76 83 77 84 78 85 79 86 58 87
REMARK SMILES IDX 59 88 67 89 60 90 66 91 61 92 62 93 63 94 64 95 65 96
REMARK H PARENT 2 11 7 17 86 52 56 63
REMARK Flexibility Score: inf
ROOT
ATOM      1  C   UNL     1       1.230   4.696  -0.941  1.00  0.00     0.188 C 
ENDROOT
BRANCH   1   2
ATOM      2  O   UNL     1       0.041   5.404  -0.655  1.00  0.00    -0.376 OA
BRANCH   2   3
ATOM      3  C   UNL     1      -1.087   5.275  -1.524  1.00  0.00     0.202 C 
BRANCH   3   4
ATOM      4  C   UNL     1      -1.324   4.042  -2.420  1.00  0.00     0.261 C 
BRANCH   4   5
ATOM      5  O   UNL     1      -1.248   2.785  -1.725  1.00  0.00    -0.459 OA
BRANCH   5   6
ATOM      6  C   UNL     1      -0.179   2.021  -2.063  1.00  0.00     0.361 C 
ATOM      7  O   UNL     1       0.608   2.336  -2.955  1.00  0.00    -0.245 OA
BRANCH   6   8
ATOM      8  C   UNL     1       0.075   0.791  -1.193  1.00  0.00     0.386 C 
BRANCH   8   9
ATOM      9  N   UNL     1      -1.078   0.016  -0.737  1.00  0.00    -0.328 N 
ATOM     10  C   UNL     1      -0.695  -0.715   0.489  1.00  0.00     0.333 C 
ATOM     11  H   UNL     1      -1.860   0.640  -0.536  1.00  0.00     0.348 HD
BRANCH   9  12
ATOM     12  C   UNL     1      -1.507  -0.931  -1.792  1.00  0.00     0.272 C 
BRANCH  12  13
ATOM     13  C   UNL     1      -1.626  -0.411  -3.228  1.00  0.00     0.161 C 
BRANCH  13  14
ATOM     14  C   UNL     1      -0.560  -0.186  -4.333  1.00  0.00     0.230 C 
ATOM     15  O   UNL     1      -1.029   0.188  -5.428  1.00  0.00    -0.274 OA
ATOM     16  N   UNL     1       0.796  -0.123  -4.313  1.00  0.00    -0.316 N 
ATOM     17  H   UNL     1       1.143   0.335  -5.112  1.00  0.00     0.170 HD
BRANCH  16  18
ATOM     18  C   UNL     1       1.821  -0.523  -3.487  1.00  0.00     0.113 A 
ATOM     19  S   UNL     1       3.112   0.622  -3.457  1.00  0.00    -0.125 S 
ATOM     20  C   UNL     1       2.096  -1.571  -2.640  1.00  0.00     0.087 A 
ATOM     21  C   UNL     1       3.670   0.021  -1.952  1.00  0.00     0.068 A 
ATOM     22  C   UNL     1       3.124  -1.220  -1.695  1.00  0.00     0.033 A 
BRANCH  20  23
ATOM     23  C   UNL     1       1.413  -2.826  -2.648  1.00  0.00     0.102 C 
ATOM     24  N   UNL     1       0.895  -3.858  -2.642  1.00  0.00    -0.192 NA
ENDBRANCH  20  23
ENDBRANCH  16  18
ENDBRANCH  13  14
ENDBRANCH  12  13
ENDBRANCH   9  12
ENDBRANCH   8   9
ENDBRANCH   6   8
ENDBRANCH   5   6
ENDBRANCH   4   5
ENDBRANCH   3   4
ENDBRANCH   2   3
ENDBRANCH   1   2
BRANCH   1  25
ATOM     25  C   UNL     1       1.494   3.615   0.106  1.00  0.00     0.188 C 
BRANCH  25  26
ATOM     26  O   UNL     1       0.386   2.800   0.435  1.00  0.00    -0.377 OA
BRANCH  26  27
ATOM     27  C   UNL     1      -0.708   3.291   1.192  1.00  0.00     0.188 C 
BRANCH  27  28
ATOM     28  C   UNL     1      -0.294   4.204   2.329  1.00  0.00     0.188 C 
BRANCH  28  29
ATOM     29  O   UNL     1       0.746   3.733   3.191  1.00  0.00    -0.376 OA
BRANCH  29  30
ATOM     30  C   UNL     1       0.962   2.330   3.316  1.00  0.00     0.202 C 
BRANCH  30  31
ATOM     31  C   UNL     1       0.040   1.596   4.286  1.00  0.00     0.261 C 
BRANCH  31  32
ATOM     32  O   UNL     1      -1.328   1.582   3.858  1.00  0.00    -0.460 OA
BRANCH  32  33
ATOM     33  C   UNL     1      -2.090   2.578   4.367  1.00  0.00     0.338 C 
ATOM     34  O   UNL     1      -1.747   3.457   5.138  1.00  0.00    -0.246 OA
BRANCH  33  35
ATOM     35  C   UNL     1      -3.431   2.515   3.770  1.00  0.00     0.060 A 
ATOM     36  C   UNL     1      -3.942   3.639   3.107  1.00  0.00     0.016 A 
ATOM     37  C   UNL     1      -4.222   1.389   3.992  1.00  0.00     0.016 A 
ATOM     38  C   UNL     1      -5.279   3.665   2.724  1.00  0.00     0.010 A 
ATOM     39  C   UNL     1      -5.562   1.420   3.617  1.00  0.00     0.010 A 
ATOM     40  C   UNL     1      -6.103   2.578   3.033  1.00  0.00    -0.014 A 
BRANCH  40  41
ATOM     41  C   UNL     1      -7.570   2.714   2.928  1.00  0.00     0.031 A 
ATOM     42  C   UNL     1      -8.358   2.938   4.189  1.00  0.00     0.074 A 
ATOM     43  C   UNL     1      -8.178   2.627   1.735  1.00  0.00     0.049 A 
ATOM     44  N   UNL     1      -9.652   2.983   4.358  1.00  0.00    -0.248 NA
ATOM     45  C   UNL     1      -7.581   3.126   5.427  1.00  0.00     0.031 C 
ATOM     46  C   UNL     1      -7.499   2.466   0.450  1.00  0.00     0.029 A 
ATOM     47  N   UNL     1      -9.510   2.649   1.416  1.00  0.00    -0.354 N 
ATOM     48  C   UNL     1      -9.846   3.178   5.721  1.00  0.00     0.074 A 
ATOM     49  C   UNL     1      -8.539   3.214   6.337  1.00  0.00     0.031 C 
ATOM     50  C   UNL     1      -8.424   2.393  -0.522  1.00  0.00     0.029 A 
ATOM     51  C   UNL     1      -9.754   2.451   0.079  1.00  0.00     0.049 A 
ATOM     52  H   UNL     1     -10.223   2.792   2.080  1.00  0.00     0.167 HD
ATOM     53  C   UNL     1     -11.013   3.313   6.394  1.00  0.00     0.031 A 
ATOM     54  C   UNL     1     -10.921   2.302  -0.575  1.00  0.00     0.031 A 
ATOM     55  C   UNL     1     -12.305   3.257   5.762  1.00  0.00     0.049 A 
ATOM     56  C   UNL     1     -12.206   2.374   0.208  1.00  0.00     0.074 A 
ATOM     57  C   UNL     1     -13.552   3.402   6.340  1.00  0.00     0.029 A 
ATOM     58  N   UNL     1     -12.514   3.025   4.409  1.00  0.00    -0.354 N 
ATOM     59  N   UNL     1     -12.381   2.583   1.492  1.00  0.00    -0.248 NA
ATOM     60  C   UNL     1     -13.452   2.198  -0.549  1.00  0.00     0.031 C 
ATOM     61  C   UNL     1     -14.517   3.178   5.354  1.00  0.00     0.029 A 
ATOM     62  C   UNL     1     -13.872   2.985   4.142  1.00  0.00     0.049 A 
ATOM     63  H   UNL     1     -11.803   2.907   3.739  1.00  0.00     0.167 HD
ATOM     64  C   UNL     1     -13.758   2.601   1.690  1.00  0.00     0.074 A 
ATOM     65  C   UNL     1     -14.366   2.396   0.390  1.00  0.00     0.031 C 
ATOM     66  C   UNL     1     -14.457   2.777   2.839  1.00  0.00     0.031 A 
BRANCH  53  67
ATOM     67  C   UNL     1     -10.946   3.480   7.891  1.00  0.00    -0.014 A 
ATOM     68  C   UNL     1     -10.408   4.639   8.482  1.00  0.00     0.010 A 
ATOM     69  C   UNL     1     -11.464   2.471   8.723  1.00  0.00     0.010 A 
ATOM     70  C   UNL     1     -10.355   4.765   9.873  1.00  0.00     0.020 A 
ATOM     71  C   UNL     1     -11.446   2.609  10.113  1.00  0.00     0.020 A 
ATOM     72  C   UNL     1     -10.877   3.750  10.680  1.00  0.00     0.054 A 
BRANCH  72  73
ATOM     73  S   UNL     1     -10.821   3.956  12.481  1.00  0.00     0.124 S 
ATOM     74  O   UNL     1      -9.389   3.857  12.753  1.00  0.00    -0.237 OA
ATOM     75  O   UNL     1     -11.406   5.282  12.666  1.00  0.00    -0.237 OA
ATOM     76  O   UNL     1     -11.627   2.846  12.984  1.00  0.00    -0.744 OA
ENDBRANCH  72  73
ENDBRANCH  53  67
BRANCH  54  77
ATOM     77  C   UNL     1     -10.924   2.058  -2.043  1.00  0.00    -0.014 A 
ATOM     78  C   UNL     1     -11.441   3.021  -2.926  1.00  0.00     0.010 A 
ATOM     79  C   UNL     1     -10.397   0.863  -2.567  1.00  0.00     0.010 A 
ATOM     80  C   UNL     1     -11.449   2.786  -4.304  1.00  0.00     0.020 A 
ATOM     81  C   UNL     1     -10.370   0.639  -3.946  1.00  0.00     0.020 A 
ATOM     82  C   UNL     1     -10.907   1.599  -4.805  1.00  0.00     0.054 A 
BRANCH  82  83
ATOM     83  S   UNL     1     -10.882   1.345  -6.601  1.00  0.00     0.124 S 
ATOM     84  O   UNL     1     -12.300   1.182  -6.904  1.00  0.00    -0.237 OA
ATOM     85  O   UNL     1     -10.269   2.580  -7.081  1.00  0.00    -0.237 OA
ATOM     86  O   UNL     1     -10.065   0.145  -6.766  1.00  0.00    -0.744 OA
ENDBRANCH  82  83
ENDBRANCH  54  77
BRANCH  66  87
ATOM     87  C   UNL     1     -15.962   2.805   2.741  1.00  0.00    -0.014 A 
ATOM     88  C   UNL     1     -16.702   1.651   2.428  1.00  0.00     0.010 A 
ATOM     89  C   UNL     1     -16.647   4.001   3.025  1.00  0.00     0.010 A 
ATOM     90  C   UNL     1     -18.098   1.704   2.366  1.00  0.00     0.020 A 
ATOM     91  C   UNL     1     -18.042   4.048   3.003  1.00  0.00     0.020 A 
ATOM     92  C   UNL     1     -18.759   2.901   2.659  1.00  0.00     0.054 A 
BRANCH  92  93
ATOM     93  S   UNL     1     -20.571   2.928   2.618  1.00  0.00     0.124 S 
ATOM     94  O   UNL     1     -20.845   2.790   1.190  1.00  0.00    -0.237 OA
ATOM     95  O   UNL     1     -20.924   1.774   3.441  1.00  0.00    -0.237 OA
ATOM     96  O   UNL     1     -20.913   4.226   3.194  1.00  0.00    -0.744 OA
ENDBRANCH  92  93
ENDBRANCH  66  87
ENDBRANCH  40  41
ENDBRANCH  33  35
ENDBRANCH  32  33
ENDBRANCH  31  32
ENDBRANCH  30  31
ENDBRANCH  29  30
ENDBRANCH  28  29
ENDBRANCH  27  28
ENDBRANCH  26  27
ENDBRANCH  25  26
ENDBRANCH   1  25
TORSDOF 29
