REMARK SMILES C[C@H](NC(=O)N1CC[C@H](C(=O)OCCOCCOCCOCCOC(=O)c2ccc(-c3c4nc(c(-c5ccc(S(=O)(=O)[O-])cc5)c5ccc([nH]5)c(-c5ccc(S(=O)(=O)[O-])cc5)c5nc(c(-c6ccc(S(=O)(=O)[O-])cc6)c6ccc3[nH]6)C=C5)C=C4)cc2)[C@H]1C)c1ccsc1
REMARK SMILES IDX 18 1 17 2 16 3 15 4 14 5 13 6 12 7 10 8 11 9 9 10 6 11 7 12
REMARK SMILES IDX 87 13 8 14 88 15 4 16 3 17 5 19 2 20 1 21 89 22 90 23 93 24
REMARK SMILES IDX 91 25 92 26 19 27 20 28 21 29 22 30 23 31 24 32 25 33 26 34
REMARK SMILES IDX 27 35 28 36 86 37 29 38 85 39 30 40 31 41 32 42 79 43 33 44
REMARK SMILES IDX 84 45 78 46 80 47 34 48 83 49 77 50 76 51 35 53 65 54 46 55
REMARK SMILES IDX 64 56 47 57 50 58 63 59 81 60 48 61 49 62 62 64 82 65 51 66
REMARK SMILES IDX 36 67 37 68 45 69 38 70 44 71 39 72 40 73 41 74 42 75 43 76
REMARK SMILES IDX 66 77 67 78 75 79 68 80 74 81 69 82 70 83 71 84 72 85 73 86
REMARK SMILES IDX 52 87 53 88 61 89 54 90 60 91 55 92 56 93 57 94 58 95 59 96
REMARK H PARENT 3 18 80 52 50 63
REMARK Flexibility Score: inf
ROOT
ATOM      1  O   UNL     1       5.390   5.116   1.819  1.00  0.00    -0.377 OA
ENDROOT
BRANCH   1   2
ATOM      2  C   UNL     1       4.437   4.077   1.655  1.00  0.00     0.188 C 
BRANCH   2   3
ATOM      3  C   UNL     1       4.449   3.452   0.239  1.00  0.00     0.188 C 
BRANCH   3   4
ATOM      4  O   UNL     1       5.323   3.958  -0.752  1.00  0.00    -0.376 OA
BRANCH   4   5
ATOM      5  C   UNL     1       5.487   5.353  -0.949  1.00  0.00     0.202 C 
BRANCH   5   6
ATOM      6  C   UNL     1       4.405   6.409  -0.643  1.00  0.00     0.261 C 
BRANCH   6   7
ATOM      7  O   UNL     1       3.226   5.988   0.051  1.00  0.00    -0.463 OA
BRANCH   7   8
ATOM      8  C   UNL     1       2.210   5.502  -0.704  1.00  0.00     0.311 C 
ATOM      9  O   UNL     1       2.247   5.388  -1.920  1.00  0.00    -0.252 OA
BRANCH   8  10
ATOM     10  C   UNL     1       1.014   5.176   0.187  1.00  0.00     0.123 C 
ATOM     11  N   UNL     1       0.283   2.943  -0.271  1.00  0.00    -0.321 N 
ATOM     12  C   UNL     1      -0.318   3.846  -1.254  1.00  0.00     0.122 C 
ATOM     13  C   UNL     1       0.950   3.741   0.772  1.00  0.00     0.098 C 
ATOM     14  C   UNL     1      -0.270   5.234  -0.638  1.00  0.00     0.039 C 
ATOM     15  C   UNL     1       0.190   3.805   2.105  1.00  0.00     0.032 C 
BRANCH  11  16
ATOM     16  C   UNL     1       0.765   1.761  -0.767  1.00  0.00     0.318 C 
ATOM     17  N   UNL     1       0.911   0.654  -0.027  1.00  0.00    -0.331 N 
ATOM     18  H   UNL     1       1.534   0.024  -0.457  1.00  0.00     0.165 HD
ATOM     19  O   UNL     1       1.037   1.615  -1.963  1.00  0.00    -0.249 OA
BRANCH  17  20
ATOM     20  C   UNL     1       0.415   0.115   1.228  1.00  0.00     0.112 C 
ATOM     21  C   UNL     1       1.229   0.479   2.459  1.00  0.00     0.036 C 
BRANCH  20  22
ATOM     22  C   UNL     1      -1.096   0.136   1.339  1.00  0.00    -0.015 A 
ATOM     23  C   UNL     1      -1.883  -1.056   1.567  1.00  0.00     0.017 A 
ATOM     24  C   UNL     1      -1.948   1.218   1.220  1.00  0.00     0.070 A 
ATOM     25  C   UNL     1      -3.239  -0.821   1.603  1.00  0.00     0.065 A 
ATOM     26  S   UNL     1      -3.604   0.828   1.385  1.00  0.00    -0.152 S 
ENDBRANCH  20  22
ENDBRANCH  17  20
ENDBRANCH  11  16
ENDBRANCH   8  10
ENDBRANCH   7   8
ENDBRANCH   6   7
ENDBRANCH   5   6
ENDBRANCH   4   5
ENDBRANCH   3   4
ENDBRANCH   2   3
ENDBRANCH   1   2
BRANCH   1  27
ATOM     27  C   UNL     1       6.604   4.705   2.435  1.00  0.00     0.188 C 
BRANCH  27  28
ATOM     28  C   UNL     1       7.299   3.498   1.780  1.00  0.00     0.188 C 
BRANCH  28  29
ATOM     29  O   UNL     1       6.486   2.326   1.830  1.00  0.00    -0.376 OA
BRANCH  29  30
ATOM     30  C   UNL     1       6.846   1.296   2.734  1.00  0.00     0.202 C 
BRANCH  30  31
ATOM     31  C   UNL     1       6.519   1.561   4.210  1.00  0.00     0.261 C 
BRANCH  31  32
ATOM     32  O   UNL     1       7.077   2.754   4.777  1.00  0.00    -0.460 OA
BRANCH  32  33
ATOM     33  C   UNL     1       8.428   2.887   4.770  1.00  0.00     0.338 C 
ATOM     34  O   UNL     1       9.237   2.078   4.392  1.00  0.00    -0.246 OA
BRANCH  33  35
ATOM     35  C   UNL     1       8.712   4.307   5.097  1.00  0.00     0.060 A 
ATOM     36  C   UNL     1       9.479   5.068   4.205  1.00  0.00     0.016 A 
ATOM     37  C   UNL     1       8.163   4.897   6.239  1.00  0.00     0.016 A 
ATOM     38  C   UNL     1       9.702   6.424   4.455  1.00  0.00     0.010 A 
ATOM     39  C   UNL     1       8.414   6.245   6.504  1.00  0.00     0.010 A 
ATOM     40  C   UNL     1       9.201   7.008   5.625  1.00  0.00    -0.014 A 
BRANCH  40  41
ATOM     41  C   UNL     1       9.672   8.346   6.052  1.00  0.00     0.031 A 
ATOM     42  C   UNL     1      10.844   8.408   6.992  1.00  0.00     0.074 A 
ATOM     43  C   UNL     1       9.079   9.477   5.630  1.00  0.00     0.049 A 
ATOM     44  N   UNL     1      11.391   9.442   7.572  1.00  0.00    -0.248 NA
ATOM     45  C   UNL     1      11.480   7.121   7.323  1.00  0.00     0.031 C 
ATOM     46  C   UNL     1       7.981   9.554   4.668  1.00  0.00     0.029 A 
ATOM     47  N   UNL     1       9.323  10.785   5.969  1.00  0.00    -0.354 N 
ATOM     48  C   UNL     1      12.432   8.933   8.339  1.00  0.00     0.074 A 
ATOM     49  C   UNL     1      12.419   7.496   8.176  1.00  0.00     0.031 C 
ATOM     50  C   UNL     1       7.642  10.845   4.499  1.00  0.00     0.029 A 
ATOM     51  C   UNL     1       8.469  11.680   5.371  1.00  0.00     0.049 A 
ATOM     52  H   UNL     1      10.043  11.056   6.584  1.00  0.00     0.167 HD
ATOM     53  C   UNL     1      13.323   9.601   9.109  1.00  0.00     0.031 A 
ATOM     54  C   UNL     1       8.354  13.014   5.530  1.00  0.00     0.031 A 
ATOM     55  C   UNL     1      13.308  11.026   9.299  1.00  0.00     0.049 A 
ATOM     56  C   UNL     1       9.272  13.724   6.494  1.00  0.00     0.074 A 
ATOM     57  C   UNL     1      14.160  11.801  10.064  1.00  0.00     0.029 A 
ATOM     58  N   UNL     1      12.382  11.887   8.730  1.00  0.00    -0.354 N 
ATOM     59  N   UNL     1      10.263  13.235   7.203  1.00  0.00    -0.248 NA
ATOM     60  C   UNL     1       9.052  15.165   6.685  1.00  0.00     0.031 C 
ATOM     61  C   UNL     1      13.709  13.124  10.010  1.00  0.00     0.029 A 
ATOM     62  C   UNL     1      12.618  13.183   9.156  1.00  0.00     0.049 A 
ATOM     63  H   UNL     1      11.663  11.618   8.115  1.00  0.00     0.167 HD
ATOM     64  C   UNL     1      10.802  14.313   7.899  1.00  0.00     0.074 A 
ATOM     65  C   UNL     1      10.033  15.481   7.521  1.00  0.00     0.031 C 
ATOM     66  C   UNL     1      11.841  14.335   8.771  1.00  0.00     0.031 A 
BRANCH  53  67
ATOM     67  C   UNL     1      14.351   8.778   9.838  1.00  0.00    -0.014 A 
ATOM     68  C   UNL     1      15.380   8.114   9.145  1.00  0.00     0.010 A 
ATOM     69  C   UNL     1      14.281   8.658  11.238  1.00  0.00     0.010 A 
ATOM     70  C   UNL     1      16.285   7.301   9.832  1.00  0.00     0.020 A 
ATOM     71  C   UNL     1      15.203   7.871  11.932  1.00  0.00     0.020 A 
ATOM     72  C   UNL     1      16.185   7.178  11.221  1.00  0.00     0.054 A 
BRANCH  72  73
ATOM     73  S   UNL     1      17.364   6.106  12.085  1.00  0.00     0.124 S 
ATOM     74  O   UNL     1      16.904   4.776  11.693  1.00  0.00    -0.237 OA
ATOM     75  O   UNL     1      18.646   6.518  11.519  1.00  0.00    -0.237 OA
ATOM     76  O   UNL     1      17.171   6.441  13.494  1.00  0.00    -0.744 OA
ENDBRANCH  72  73
ENDBRANCH  53  67
BRANCH  54  77
ATOM     77  C   UNL     1       7.318  13.772   4.773  1.00  0.00    -0.014 A 
ATOM     78  C   UNL     1       7.693  14.684   3.771  1.00  0.00     0.010 A 
ATOM     79  C   UNL     1       5.951  13.590   5.051  1.00  0.00     0.010 A 
ATOM     80  C   UNL     1       6.723  15.403   3.066  1.00  0.00     0.020 A 
ATOM     81  C   UNL     1       4.976  14.286   4.330  1.00  0.00     0.020 A 
ATOM     82  C   UNL     1       5.370  15.195   3.346  1.00  0.00     0.054 A 
BRANCH  82  83
ATOM     83  S   UNL     1       4.128  16.094   2.374  1.00  0.00     0.124 S 
ATOM     84  O   UNL     1       4.279  17.457   2.873  1.00  0.00    -0.237 OA
ATOM     85  O   UNL     1       4.579  15.868   1.003  1.00  0.00    -0.237 OA
ATOM     86  O   UNL     1       2.874  15.433   2.727  1.00  0.00    -0.744 OA
ENDBRANCH  82  83
ENDBRANCH  54  77
BRANCH  66  87
ATOM     87  C   UNL     1      12.235  15.664   9.361  1.00  0.00    -0.014 A 
ATOM     88  C   UNL     1      11.445  16.289  10.342  1.00  0.00     0.010 A 
ATOM     89  C   UNL     1      13.461  16.251   8.993  1.00  0.00     0.010 A 
ATOM     90  C   UNL     1      11.867  17.483  10.933  1.00  0.00     0.020 A 
ATOM     91  C   UNL     1      13.900  17.429   9.602  1.00  0.00     0.020 A 
ATOM     92  C   UNL     1      13.095  18.042  10.565  1.00  0.00     0.054 A 
BRANCH  92  93
ATOM     93  S   UNL     1      13.653  19.551  11.403  1.00  0.00     0.124 S 
ATOM     94  O   UNL     1      12.754  20.559  10.847  1.00  0.00    -0.237 OA
ATOM     95  O   UNL     1      13.442  19.230  12.812  1.00  0.00    -0.237 OA
ATOM     96  O   UNL     1      15.053  19.675  11.001  1.00  0.00    -0.744 OA
ENDBRANCH  92  93
ENDBRANCH  66  87
ENDBRANCH  40  41
ENDBRANCH  33  35
ENDBRANCH  32  33
ENDBRANCH  31  32
ENDBRANCH  30  31
ENDBRANCH  29  30
ENDBRANCH  28  29
ENDBRANCH  27  28
ENDBRANCH   1  27
TORSDOF 26
