REMARK SMILES COc1ccc2c(c1)c(CC(=O)OCCOCCOCCOCCOC(=O)c1ccc(-c3c4nc(c(-c5ccc(S(=O)(=O)[O-])cc5)c5ccc([nH]5)c(-c5ccc(S(=O)(=O)[O-])cc5)c5nc(c(-c6ccc(S(=O)(=O)[O-])cc6)c6ccc3[nH]6)C=C5)C=C4)cc1)c(C(F)(F)F)n2C(=O)c1ccc(Cl)cc1
REMARK SMILES IDX 19 1 18 2 17 3 16 4 15 5 14 6 13 7 11 8 12 9 10 10 9 11 3 12
REMARK SMILES IDX 4 13 8 14 5 15 7 16 6 17 93 18 88 19 2 20 1 21 94 22 95 23
REMARK SMILES IDX 96 24 97 25 102 26 98 27 101 28 99 29 100 30 89 31 90 32
REMARK SMILES IDX 91 33 92 34 20 35 21 36 22 37 23 38 24 39 25 40 26 41 27 42
REMARK SMILES IDX 28 43 29 44 87 45 30 46 86 47 31 48 32 49 33 50 80 51 34 52
REMARK SMILES IDX 85 53 79 54 81 55 35 56 84 57 78 58 77 59 36 61 66 62 47 63
REMARK SMILES IDX 65 64 48 65 51 66 64 67 82 68 49 69 50 70 63 72 83 73 52 74
REMARK SMILES IDX 37 75 38 76 46 77 39 78 45 79 40 80 41 81 42 82 43 83 44 84
REMARK SMILES IDX 67 85 68 86 76 87 69 88 75 89 70 90 71 91 72 92 73 93 74 94
REMARK SMILES IDX 53 95 54 96 62 97 55 98 61 99 56 100 57 101 58 102 59 103
REMARK SMILES IDX 60 104
REMARK H PARENT 81 60 51 71
REMARK Flexibility Score: inf
ROOT
ATOM      1  O   UNL     1       0.037  -4.414  -0.412  1.00  0.00    -0.377 OA
ENDROOT
BRANCH   1   2
ATOM      2  C   UNL     1      -1.106  -3.964  -1.095  1.00  0.00     0.188 C 
BRANCH   2   3
ATOM      3  C   UNL     1      -2.494  -4.034  -0.472  1.00  0.00     0.188 C 
BRANCH   3   4
ATOM      4  O   UNL     1      -2.795  -5.322   0.021  1.00  0.00    -0.376 OA
BRANCH   4   5
ATOM      5  C   UNL     1      -3.519  -6.229  -0.793  1.00  0.00     0.202 C 
BRANCH   5   6
ATOM      6  C   UNL     1      -3.021  -6.678  -2.189  1.00  0.00     0.261 C 
BRANCH   6   7
ATOM      7  O   UNL     1      -2.362  -5.743  -3.072  1.00  0.00    -0.463 OA
BRANCH   7   8
ATOM      8  C   UNL     1      -3.096  -4.757  -3.633  1.00  0.00     0.310 C 
ATOM      9  O   UNL     1      -4.270  -4.540  -3.345  1.00  0.00    -0.252 OA
BRANCH   8  10
ATOM     10  C   UNL     1      -2.356  -3.904  -4.666  1.00  0.00     0.161 C 
BRANCH  10  11
ATOM     11  C   UNL     1      -0.831  -3.755  -4.627  1.00  0.00     0.002 A 
ATOM     12  C   UNL     1       0.463  -0.871  -2.439  1.00  0.00     0.119 A 
ATOM     13  C   UNL     1       1.805  -1.152  -2.594  1.00  0.00     0.048 A 
ATOM     14  C   UNL     1      -0.481  -1.591  -3.187  1.00  0.00     0.057 A 
ATOM     15  C   UNL     1       2.217  -2.178  -3.446  1.00  0.00     0.031 A 
ATOM     16  C   UNL     1      -0.096  -2.715  -3.968  1.00  0.00     0.008 A 
ATOM     17  C   UNL     1       1.268  -2.983  -4.120  1.00  0.00     0.057 A 
ATOM     18  N   UNL     1       1.409  -4.090  -4.983  1.00  0.00    -0.271 N 
ATOM     19  C   UNL     1       0.113  -4.524  -5.324  1.00  0.00     0.135 A 
BRANCH  12  20
ATOM     20  O   UNL     1      -0.051   0.041  -1.555  1.00  0.00    -0.497 OA
ATOM     21  C   UNL     1       0.816   0.484  -0.512  1.00  0.00     0.278 C 
ENDBRANCH  12  20
BRANCH  18  22
ATOM     22  C   UNL     1       2.662  -4.629  -5.413  1.00  0.00     0.262 C 
ATOM     23  O   UNL     1       2.682  -5.600  -6.160  1.00  0.00    -0.268 OA
BRANCH  22  24
ATOM     24  C   UNL     1       3.999  -4.128  -5.039  1.00  0.00     0.040 A 
ATOM     25  C   UNL     1       4.594  -4.577  -3.854  1.00  0.00     0.015 A 
ATOM     26  C   UNL     1       4.666  -3.222  -5.875  1.00  0.00     0.015 A 
ATOM     27  C   UNL     1       5.836  -4.063  -3.470  1.00  0.00     0.021 A 
ATOM     28  C   UNL     1       5.912  -2.718  -5.487  1.00  0.00     0.021 A 
ATOM     29  C   UNL     1       6.484  -3.130  -4.282  1.00  0.00     0.041 A 
ATOM     30  Cl  UNL     1       7.996  -2.472  -3.787  1.00  0.00    -0.084 Cl
ENDBRANCH  22  24
ENDBRANCH  18  22
BRANCH  19  31
ATOM     31  C   UNL     1      -0.212  -5.648  -6.268  1.00  0.00     0.432 C 
ATOM     32  F   UNL     1      -0.523  -6.773  -5.586  1.00  0.00    -0.165 F 
ATOM     33  F   UNL     1      -1.314  -5.314  -6.998  1.00  0.00    -0.165 F 
ATOM     34  F   UNL     1       0.713  -5.956  -7.198  1.00  0.00    -0.165 F 
ENDBRANCH  19  31
ENDBRANCH  10  11
ENDBRANCH   8  10
ENDBRANCH   7   8
ENDBRANCH   6   7
ENDBRANCH   5   6
ENDBRANCH   4   5
ENDBRANCH   3   4
ENDBRANCH   2   3
ENDBRANCH   1   2
BRANCH   1  35
ATOM     35  C   UNL     1      -0.144  -5.431   0.536  1.00  0.00     0.188 C 
BRANCH  35  36
ATOM     36  C   UNL     1      -0.428  -4.896   1.945  1.00  0.00     0.188 C 
BRANCH  36  37
ATOM     37  O   UNL     1       0.111  -3.656   2.418  1.00  0.00    -0.376 OA
BRANCH  37  38
ATOM     38  C   UNL     1       0.995  -2.890   1.616  1.00  0.00     0.202 C 
BRANCH  38  39
ATOM     39  C   UNL     1       2.447  -3.392   1.498  1.00  0.00     0.261 C 
BRANCH  39  40
ATOM     40  O   UNL     1       2.559  -4.804   1.300  1.00  0.00    -0.460 OA
BRANCH  40  41
ATOM     41  C   UNL     1       3.216  -5.529   2.247  1.00  0.00     0.338 C 
ATOM     42  O   UNL     1       3.979  -5.127   3.091  1.00  0.00    -0.246 OA
BRANCH  41  43
ATOM     43  C   UNL     1       2.565  -6.862   2.236  1.00  0.00     0.060 A 
ATOM     44  C   UNL     1       2.444  -7.592   1.050  1.00  0.00     0.016 A 
ATOM     45  C   UNL     1       1.783  -7.173   3.356  1.00  0.00     0.016 A 
ATOM     46  C   UNL     1       1.410  -8.519   0.939  1.00  0.00     0.010 A 
ATOM     47  C   UNL     1       0.745  -8.096   3.237  1.00  0.00     0.010 A 
ATOM     48  C   UNL     1       0.517  -8.723   2.010  1.00  0.00    -0.014 A 
BRANCH  48  49
ATOM     49  C   UNL     1      -0.475  -9.799   1.868  1.00  0.00     0.031 A 
ATOM     50  C   UNL     1       0.173 -11.133   1.728  1.00  0.00     0.074 A 
ATOM     51  C   UNL     1      -1.812  -9.727   2.040  1.00  0.00     0.049 A 
ATOM     52  N   UNL     1       0.040 -12.015   0.791  1.00  0.00    -0.248 NA
ATOM     53  C   UNL     1       1.214 -11.446   2.724  1.00  0.00     0.031 C 
ATOM     54  C   UNL     1      -2.598  -8.595   2.533  1.00  0.00     0.029 A 
ATOM     55  N   UNL     1      -2.745 -10.726   1.925  1.00  0.00    -0.354 N 
ATOM     56  C   UNL     1       0.872 -13.066   1.165  1.00  0.00     0.074 A 
ATOM     57  C   UNL     1       1.687 -12.593   2.253  1.00  0.00     0.031 C 
ATOM     58  C   UNL     1      -3.826  -9.034   2.895  1.00  0.00     0.029 A 
ATOM     59  C   UNL     1      -3.952 -10.444   2.554  1.00  0.00     0.049 A 
ATOM     60  H   UNL     1      -2.575 -11.567   1.440  1.00  0.00     0.167 HD
ATOM     61  C   UNL     1       0.716 -14.339   0.718  1.00  0.00     0.031 A 
ATOM     62  C   UNL     1      -4.937 -11.325   2.868  1.00  0.00     0.031 A 
ATOM     63  C   UNL     1      -0.058 -14.419  -0.484  1.00  0.00     0.049 A 
ATOM     64  C   UNL     1      -4.748 -12.549   2.053  1.00  0.00     0.074 A 
ATOM     65  C   UNL     1       0.095 -13.930  -1.765  1.00  0.00     0.029 A 
ATOM     66  N   UNL     1      -1.368 -14.813  -0.373  1.00  0.00    -0.354 N 
ATOM     67  N   UNL     1      -4.903 -12.610   0.761  1.00  0.00    -0.248 NA
ATOM     68  C   UNL     1      -4.064 -13.685   2.651  1.00  0.00     0.031 C 
ATOM     69  C   UNL     1      -1.224 -13.662  -2.225  1.00  0.00     0.029 A 
ATOM     70  C   UNL     1      -2.114 -14.020  -1.209  1.00  0.00     0.049 A 
ATOM     71  H   UNL     1      -1.710 -15.534   0.202  1.00  0.00     0.167 HD
ATOM     72  C   UNL     1      -4.003 -13.576   0.338  1.00  0.00     0.074 A 
ATOM     73  C   UNL     1      -3.614 -14.286   1.549  1.00  0.00     0.031 C 
ATOM     74  C   UNL     1      -3.451 -13.536  -0.909  1.00  0.00     0.031 A 
BRANCH  61  75
ATOM     75  C   UNL     1       1.030 -15.525   1.591  1.00  0.00    -0.014 A 
ATOM     76  C   UNL     1       1.089 -15.423   3.000  1.00  0.00     0.010 A 
ATOM     77  C   UNL     1       1.056 -16.820   1.044  1.00  0.00     0.010 A 
ATOM     78  C   UNL     1       1.241 -16.534   3.823  1.00  0.00     0.020 A 
ATOM     79  C   UNL     1       1.149 -17.952   1.869  1.00  0.00     0.020 A 
ATOM     80  C   UNL     1       1.258 -17.798   3.252  1.00  0.00     0.054 A 
BRANCH  80  81
ATOM     81  S   UNL     1       1.322 -19.220   4.367  1.00  0.00     0.124 S 
ATOM     82  O   UNL     1       2.706 -19.174   4.831  1.00  0.00    -0.237 OA
ATOM     83  O   UNL     1       0.311 -18.882   5.366  1.00  0.00    -0.237 OA
ATOM     84  O   UNL     1       0.987 -20.347   3.501  1.00  0.00    -0.744 OA
ENDBRANCH  80  81
ENDBRANCH  61  75
BRANCH  62  85
ATOM     85  C   UNL     1      -5.799 -11.328   4.083  1.00  0.00    -0.014 A 
ATOM     86  C   UNL     1      -5.340 -10.717   5.267  1.00  0.00     0.010 A 
ATOM     87  C   UNL     1      -6.922 -12.175   4.179  1.00  0.00     0.010 A 
ATOM     88  C   UNL     1      -5.927 -10.990   6.507  1.00  0.00     0.020 A 
ATOM     89  C   UNL     1      -7.513 -12.461   5.423  1.00  0.00     0.020 A 
ATOM     90  C   UNL     1      -6.986 -11.892   6.583  1.00  0.00     0.054 A 
BRANCH  90  91
ATOM     91  S   UNL     1      -7.581 -12.366   8.232  1.00  0.00     0.124 S 
ATOM     92  O   UNL     1      -6.437 -13.098   8.768  1.00  0.00    -0.237 OA
ATOM     93  O   UNL     1      -7.844 -11.072   8.856  1.00  0.00    -0.237 OA
ATOM     94  O   UNL     1      -8.767 -13.173   7.955  1.00  0.00    -0.744 OA
ENDBRANCH  90  91
ENDBRANCH  62  85
BRANCH  74  95
ATOM     95  C   UNL     1      -4.096 -12.674  -1.973  1.00  0.00    -0.014 A 
ATOM     96  C   UNL     1      -4.339 -13.262  -3.230  1.00  0.00     0.010 A 
ATOM     97  C   UNL     1      -4.278 -11.284  -1.839  1.00  0.00     0.010 A 
ATOM     98  C   UNL     1      -4.697 -12.484  -4.333  1.00  0.00     0.020 A 
ATOM     99  C   UNL     1      -4.669 -10.502  -2.935  1.00  0.00     0.020 A 
ATOM    100  C   UNL     1      -4.842 -11.104  -4.183  1.00  0.00     0.054 A 
BRANCH 100 101
ATOM    101  S   UNL     1      -5.208 -10.111  -5.655  1.00  0.00     0.124 S 
ATOM    102  O   UNL     1      -3.964 -10.216  -6.414  1.00  0.00    -0.237 OA
ATOM    103  O   UNL     1      -6.354 -10.806  -6.236  1.00  0.00    -0.237 OA
ATOM    104  O   UNL     1      -5.494  -8.782  -5.118  1.00  0.00    -0.744 OA
ENDBRANCH 100 101
ENDBRANCH  74  95
ENDBRANCH  48  49
ENDBRANCH  41  43
ENDBRANCH  40  41
ENDBRANCH  39  40
ENDBRANCH  38  39
ENDBRANCH  37  38
ENDBRANCH  36  37
ENDBRANCH  35  36
ENDBRANCH   1  35
TORSDOF 28
