REMARK SMILES C[NH2+][C@]1(C(=O)OCCOCCOCCOCCOC(=O)c2ccc(-c3c4nc(c(-c5ccc(S(=O)(=O)[O-])cc5)c5ccc([nH]5)c(-c5ccc(S(=O)(=O)[O-])cc5)c5nc(c(-c6ccc(S(=O)(=O)[O-])cc6)c6ccc3[nH]6)C=C5)C=C4)cc2)CCC[C@H](Oc2ccc(C)cc2)C1
REMARK SMILES IDX 13 1 12 2 11 3 10 4 9 5 8 6 7 7 6 8 4 9 5 10 3 11 81 12
REMARK SMILES IDX 93 13 82 14 84 15 83 16 2 17 1 18 85 21 86 22 87 23 92 24
REMARK SMILES IDX 88 25 91 26 89 27 90 28 14 29 15 30 16 31 17 32 18 33 19 34
REMARK SMILES IDX 20 35 21 36 22 37 80 38 23 39 79 40 24 41 25 42 26 43 73 44
REMARK SMILES IDX 27 45 78 46 72 47 74 48 28 49 77 50 71 51 70 52 29 54 59 55
REMARK SMILES IDX 40 56 58 57 41 58 44 59 57 60 75 61 42 62 43 63 56 65 76 66
REMARK SMILES IDX 45 67 30 68 31 69 39 70 32 71 38 72 33 73 34 74 35 75 36 76
REMARK SMILES IDX 37 77 60 78 61 79 69 80 62 81 68 82 63 83 64 84 65 85 66 86
REMARK SMILES IDX 67 87 46 88 47 89 55 90 48 91 54 92 49 93 50 94 51 95 52 96
REMARK SMILES IDX 53 97
REMARK H PARENT 2 19 2 20 74 53 44 64
REMARK Flexibility Score: inf
ROOT
ATOM      1  C   UNL     1       2.575  -2.018   0.264  1.00  0.00     0.188 C 
ENDROOT
BRANCH   1   2
ATOM      2  O   UNL     1       1.521  -1.174  -0.180  1.00  0.00    -0.377 OA
BRANCH   2   3
ATOM      3  C   UNL     1       1.142  -1.222  -1.538  1.00  0.00     0.188 C 
BRANCH   3   4
ATOM      4  C   UNL     1       1.896  -0.297  -2.495  1.00  0.00     0.188 C 
BRANCH   4   5
ATOM      5  O   UNL     1       3.200   0.135  -2.169  1.00  0.00    -0.376 OA
BRANCH   5   6
ATOM      6  C   UNL     1       3.457   0.900  -1.001  1.00  0.00     0.202 C 
BRANCH   6   7
ATOM      7  C   UNL     1       2.441   1.793  -0.257  1.00  0.00     0.261 C 
BRANCH   7   8
ATOM      8  O   UNL     1       1.075   1.363  -0.200  1.00  0.00    -0.459 OA
BRANCH   8   9
ATOM      9  C   UNL     1       0.213   2.080  -0.957  1.00  0.00     0.368 C 
ATOM     10  O   UNL     1       0.555   3.043  -1.644  1.00  0.00    -0.245 OA
BRANCH   9  11
ATOM     11  C   UNL     1      -1.268   1.565  -0.923  1.00  0.00     0.197 C 
ATOM     12  C   UNL     1      -1.597   0.347  -0.015  1.00  0.00     0.081 C 
ATOM     13  C   UNL     1      -1.998   2.798  -0.287  1.00  0.00     0.126 C 
ATOM     14  C   UNL     1      -3.106   0.138   0.129  1.00  0.00     0.011 C 
ATOM     15  C   UNL     1      -3.490   2.636   0.050  1.00  0.00     0.180 C 
ATOM     16  C   UNL     1      -3.718   1.334   0.828  1.00  0.00     0.046 C 
BRANCH  11  17
ATOM     17  N   UNL     1      -1.498   1.116  -2.319  1.00  0.00    -0.334 N 
ATOM     18  C   UNL     1      -2.330   1.869  -3.212  1.00  0.00     0.331 C 
ATOM     19  H   UNL     1      -0.580   1.056  -2.759  1.00  0.00     0.347 HD
ATOM     20  H   UNL     1      -2.030   0.255  -2.191  1.00  0.00     0.347 HD
ENDBRANCH  11  17
BRANCH  15  21
ATOM     21  O   UNL     1      -4.145   2.730  -1.209  1.00  0.00    -0.490 OA
BRANCH  21  22
ATOM     22  C   UNL     1      -5.486   2.651  -1.365  1.00  0.00     0.119 A 
ATOM     23  C   UNL     1      -6.441   2.599  -0.363  1.00  0.00     0.047 A 
ATOM     24  C   UNL     1      -5.885   2.581  -2.702  1.00  0.00     0.047 A 
ATOM     25  C   UNL     1      -7.777   2.362  -0.698  1.00  0.00     0.007 A 
ATOM     26  C   UNL     1      -7.211   2.355  -3.042  1.00  0.00     0.007 A 
ATOM     27  C   UNL     1      -8.167   2.222  -2.037  1.00  0.00    -0.051 A 
ATOM     28  C   UNL     1      -9.592   1.924  -2.384  1.00  0.00     0.044 C 
ENDBRANCH  21  22
ENDBRANCH  15  21
ENDBRANCH   9  11
ENDBRANCH   8   9
ENDBRANCH   7   8
ENDBRANCH   6   7
ENDBRANCH   5   6
ENDBRANCH   4   5
ENDBRANCH   3   4
ENDBRANCH   2   3
ENDBRANCH   1   2
BRANCH   1  29
ATOM     29  C   UNL     1       3.495  -2.707  -0.765  1.00  0.00     0.188 C 
BRANCH  29  30
ATOM     30  O   UNL     1       2.838  -3.220  -1.914  1.00  0.00    -0.376 OA
BRANCH  30  31
ATOM     31  C   UNL     1       2.386  -4.565  -1.918  1.00  0.00     0.202 C 
BRANCH  31  32
ATOM     32  C   UNL     1       1.366  -5.013  -0.856  1.00  0.00     0.261 C 
BRANCH  32  33
ATOM     33  O   UNL     1       1.764  -4.891   0.518  1.00  0.00    -0.460 OA
BRANCH  33  34
ATOM     34  C   UNL     1       2.910  -5.485   0.904  1.00  0.00     0.338 C 
ATOM     35  O   UNL     1       3.634  -6.197   0.225  1.00  0.00    -0.246 OA
BRANCH  34  36
ATOM     36  C   UNL     1       3.262  -4.960   2.239  1.00  0.00     0.060 A 
ATOM     37  C   UNL     1       4.473  -4.274   2.399  1.00  0.00     0.016 A 
ATOM     38  C   UNL     1       2.401  -5.140   3.324  1.00  0.00     0.016 A 
ATOM     39  C   UNL     1       4.847  -3.801   3.655  1.00  0.00     0.010 A 
ATOM     40  C   UNL     1       2.790  -4.689   4.588  1.00  0.00     0.010 A 
ATOM     41  C   UNL     1       4.032  -4.052   4.765  1.00  0.00    -0.014 A 
BRANCH  41  42
ATOM     42  C   UNL     1       4.576  -3.850   6.130  1.00  0.00     0.031 A 
ATOM     43  C   UNL     1       5.135  -5.046   6.853  1.00  0.00     0.074 A 
ATOM     44  C   UNL     1       4.605  -2.635   6.704  1.00  0.00     0.049 A 
ATOM     45  N   UNL     1       5.622  -5.132   8.063  1.00  0.00    -0.248 NA
ATOM     46  C   UNL     1       5.144  -6.317   6.108  1.00  0.00     0.031 C 
ATOM     47  C   UNL     1       4.149  -1.392   6.083  1.00  0.00     0.029 A 
ATOM     48  N   UNL     1       5.038  -2.251   7.949  1.00  0.00    -0.354 N 
ATOM     49  C   UNL     1       5.984  -6.464   8.229  1.00  0.00     0.074 A 
ATOM     50  C   UNL     1       5.633  -7.156   7.009  1.00  0.00     0.031 C 
ATOM     51  C   UNL     1       4.315  -0.384   6.957  1.00  0.00     0.029 A 
ATOM     52  C   UNL     1       4.852  -0.914   8.209  1.00  0.00     0.049 A 
ATOM     53  H   UNL     1       5.444  -2.874   8.594  1.00  0.00     0.167 HD
ATOM     54  C   UNL     1       6.563  -7.057   9.299  1.00  0.00     0.031 A 
ATOM     55  C   UNL     1       5.066  -0.208   9.338  1.00  0.00     0.031 A 
ATOM     56  C   UNL     1       6.893  -6.368  10.517  1.00  0.00     0.049 A 
ATOM     57  C   UNL     1       5.628  -0.908  10.550  1.00  0.00     0.074 A 
ATOM     58  C   UNL     1       7.486  -6.877  11.659  1.00  0.00     0.029 A 
ATOM     59  N   UNL     1       6.651  -5.023  10.756  1.00  0.00    -0.354 N 
ATOM     60  N   UNL     1       5.982  -2.164  10.688  1.00  0.00    -0.248 NA
ATOM     61  C   UNL     1       5.828  -0.092  11.756  1.00  0.00     0.031 C 
ATOM     62  C   UNL     1       7.540  -5.856  12.613  1.00  0.00     0.029 A 
ATOM     63  C   UNL     1       7.054  -4.692  12.039  1.00  0.00     0.049 A 
ATOM     64  H   UNL     1       6.252  -4.397  10.110  1.00  0.00     0.167 HD
ATOM     65  C   UNL     1       6.475  -2.280  11.985  1.00  0.00     0.074 A 
ATOM     66  C   UNL     1       6.388  -0.964  12.583  1.00  0.00     0.031 C 
ATOM     67  C   UNL     1       6.961  -3.376  12.621  1.00  0.00     0.031 A 
BRANCH  54  68
ATOM     68  C   UNL     1       6.836  -8.536   9.211  1.00  0.00    -0.014 A 
ATOM     69  C   UNL     1       7.825  -9.050   8.353  1.00  0.00     0.010 A 
ATOM     70  C   UNL     1       6.111  -9.425  10.027  1.00  0.00     0.010 A 
ATOM     71  C   UNL     1       8.056 -10.427   8.284  1.00  0.00     0.020 A 
ATOM     72  C   UNL     1       6.362 -10.799   9.985  1.00  0.00     0.020 A 
ATOM     73  C   UNL     1       7.323 -11.293   9.101  1.00  0.00     0.054 A 
BRANCH  73  74
ATOM     74  S   UNL     1       7.663 -13.071   9.008  1.00  0.00     0.124 S 
ATOM     75  O   UNL     1       7.125 -13.413   7.694  1.00  0.00    -0.237 OA
ATOM     76  O   UNL     1       9.118 -13.124   9.125  1.00  0.00    -0.237 OA
ATOM     77  O   UNL     1       6.929 -13.626  10.143  1.00  0.00    -0.744 OA
ENDBRANCH  73  74
ENDBRANCH  54  68
BRANCH  55  78
ATOM     78  C   UNL     1       4.720   1.241   9.387  1.00  0.00    -0.014 A 
ATOM     79  C   UNL     1       5.720   2.220   9.514  1.00  0.00     0.010 A 
ATOM     80  C   UNL     1       3.374   1.648   9.315  1.00  0.00     0.010 A 
ATOM     81  C   UNL     1       5.382   3.576   9.583  1.00  0.00     0.020 A 
ATOM     82  C   UNL     1       3.034   3.003   9.351  1.00  0.00     0.020 A 
ATOM     83  C   UNL     1       4.040   3.958   9.496  1.00  0.00     0.054 A 
BRANCH  83  84
ATOM     84  S   UNL     1       3.630   5.725   9.535  1.00  0.00     0.124 S 
ATOM     85  O   UNL     1       3.905   6.072  10.925  1.00  0.00    -0.237 OA
ATOM     86  O   UNL     1       4.552   6.282   8.548  1.00  0.00    -0.237 OA
ATOM     87  O   UNL     1       2.221   5.758   9.148  1.00  0.00    -0.744 OA
ENDBRANCH  83  84
ENDBRANCH  55  78
BRANCH  67  88
ATOM     88  C   UNL     1       7.480  -3.197  14.026  1.00  0.00    -0.014 A 
ATOM     89  C   UNL     1       6.613  -2.946  15.104  1.00  0.00     0.010 A 
ATOM     90  C   UNL     1       8.857  -3.347  14.277  1.00  0.00     0.010 A 
ATOM     91  C   UNL     1       7.119  -2.815  16.401  1.00  0.00     0.020 A 
ATOM     92  C   UNL     1       9.362  -3.250  15.576  1.00  0.00     0.020 A 
ATOM     93  C   UNL     1       8.490  -2.970  16.629  1.00  0.00     0.054 A 
BRANCH  93  94
ATOM     94  S   UNL     1       9.113  -2.838  18.328  1.00  0.00     0.124 S 
ATOM     95  O   UNL     1       8.973  -1.409  18.593  1.00  0.00    -0.237 OA
ATOM     96  O   UNL     1       8.203  -3.708  19.069  1.00  0.00    -0.237 OA
ATOM     97  O   UNL     1      10.488  -3.322  18.232  1.00  0.00    -0.744 OA
ENDBRANCH  93  94
ENDBRANCH  67  88
ENDBRANCH  41  42
ENDBRANCH  34  36
ENDBRANCH  33  34
ENDBRANCH  32  33
ENDBRANCH  31  32
ENDBRANCH  30  31
ENDBRANCH  29  30
ENDBRANCH   1  29
TORSDOF 26
