REMARK SMILES O=C(OCCOCCOCCOCCOC(=O)c1cccnc1Nc1cccc(C(F)(F)F)c1)c1ccc(-c2c3nc(c(-c4ccc(S(=O)(=O)[O-])cc4)c4ccc([nH]4)c(-c4ccc(S(=O)(=O)[O-])cc4)c4nc(c(-c5ccc(S(=O)(=O)[O-])cc5)c5ccc2[nH]5)C=C4)C=C3)cc1
REMARK SMILES IDX 9 1 8 2 7 3 6 4 5 5 4 6 3 7 2 8 1 9 35 10 36 11 94 12 37 13
REMARK SMILES IDX 93 14 38 15 39 16 40 17 87 18 41 19 92 20 86 21 88 22 42 23
REMARK SMILES IDX 91 24 85 25 84 26 43 28 73 29 54 30 72 31 55 32 58 33 71 34
REMARK SMILES IDX 89 35 56 36 57 37 70 39 90 40 59 41 44 42 45 43 53 44 46 45
REMARK SMILES IDX 52 46 47 47 48 48 49 49 50 50 51 51 74 52 75 53 83 54 76 55
REMARK SMILES IDX 82 56 77 57 78 58 79 59 80 60 81 61 60 62 61 63 69 64 62 65
REMARK SMILES IDX 68 66 63 67 64 68 65 69 66 70 67 71 10 72 11 73 12 74 13 75
REMARK SMILES IDX 14 76 15 77 16 78 17 79 18 80 19 81 23 82 20 83 22 84 21 85
REMARK SMILES IDX 24 86 25 88 26 89 34 90 27 91 29 92 28 93 30 94 31 95 32 96
REMARK SMILES IDX 33 97
REMARK H PARENT 88 27 58 38 24 87
REMARK Flexibility Score: inf
ROOT
ATOM      1  O   UNL     1       2.337  -2.857   2.384  1.00  0.00    -0.377 OA
ENDROOT
BRANCH   1   2
ATOM      2  C   UNL     1       1.653  -2.197   1.325  1.00  0.00     0.188 C 
BRANCH   2   3
ATOM      3  C   UNL     1       2.098  -0.757   1.083  1.00  0.00     0.188 C 
BRANCH   3   4
ATOM      4  O   UNL     1       3.432  -0.722   0.584  1.00  0.00    -0.376 OA
BRANCH   4   5
ATOM      5  C   UNL     1       4.302   0.261   1.142  1.00  0.00     0.202 C 
BRANCH   5   6
ATOM      6  C   UNL     1       4.133   1.657   0.553  1.00  0.00     0.261 C 
BRANCH   6   7
ATOM      7  O   UNL     1       2.800   1.905   0.093  1.00  0.00    -0.460 OA
BRANCH   7   8
ATOM      8  C   UNL     1       2.261   1.570  -1.105  1.00  0.00     0.338 C 
ATOM      9  O   UNL     1       1.072   1.832  -1.291  1.00  0.00    -0.246 OA
BRANCH   8  10
ATOM     10  C   UNL     1       3.007   0.912  -2.224  1.00  0.00     0.060 A 
ATOM     11  C   UNL     1       4.113   0.068  -2.095  1.00  0.00     0.016 A 
ATOM     12  C   UNL     1       2.486   1.105  -3.514  1.00  0.00     0.016 A 
ATOM     13  C   UNL     1       4.708  -0.538  -3.188  1.00  0.00     0.010 A 
ATOM     14  C   UNL     1       3.073   0.498  -4.627  1.00  0.00     0.010 A 
ATOM     15  C   UNL     1       4.203  -0.308  -4.458  1.00  0.00    -0.014 A 
BRANCH  15  16
ATOM     16  C   UNL     1       5.024  -0.745  -5.593  1.00  0.00     0.031 A 
ATOM     17  C   UNL     1       5.839   0.304  -6.283  1.00  0.00     0.074 A 
ATOM     18  C   UNL     1       5.148  -2.054  -5.871  1.00  0.00     0.049 A 
ATOM     19  N   UNL     1       6.567   0.210  -7.358  1.00  0.00    -0.248 NA
ATOM     20  C   UNL     1       5.845   1.644  -5.663  1.00  0.00     0.031 C 
ATOM     21  C   UNL     1       4.526  -3.144  -5.111  1.00  0.00     0.029 A 
ATOM     22  N   UNL     1       5.862  -2.693  -6.846  1.00  0.00    -0.354 N 
ATOM     23  C   UNL     1       7.073   1.486  -7.573  1.00  0.00     0.074 A 
ATOM     24  C   UNL     1       6.581   2.337  -6.517  1.00  0.00     0.031 C 
ATOM     25  C   UNL     1       4.896  -4.318  -5.647  1.00  0.00     0.029 A 
ATOM     26  C   UNL     1       5.703  -4.058  -6.833  1.00  0.00     0.049 A 
ATOM     27  H   UNL     1       6.434  -2.221  -7.493  1.00  0.00     0.167 HD
ATOM     28  C   UNL     1       7.866   1.901  -8.585  1.00  0.00     0.031 A 
ATOM     29  C   UNL     1       6.122  -4.976  -7.723  1.00  0.00     0.031 A 
ATOM     30  C   UNL     1       8.318   1.012  -9.617  1.00  0.00     0.049 A 
ATOM     31  C   UNL     1       6.893  -4.472  -8.915  1.00  0.00     0.074 A 
ATOM     32  C   UNL     1       9.057   1.298 -10.747  1.00  0.00     0.029 A 
ATOM     33  N   UNL     1       8.062  -0.355  -9.632  1.00  0.00    -0.354 N 
ATOM     34  N   UNL     1       7.290  -3.247  -9.178  1.00  0.00    -0.248 NA
ATOM     35  C   UNL     1       7.256  -5.459  -9.937  1.00  0.00     0.031 C 
ATOM     36  C   UNL     1       9.197   0.111 -11.475  1.00  0.00     0.029 A 
ATOM     37  C   UNL     1       8.607  -0.926 -10.763  1.00  0.00     0.049 A 
ATOM     38  H   UNL     1       7.566  -0.844  -8.937  1.00  0.00     0.167 HD
ATOM     39  C   UNL     1       7.966  -3.316 -10.388  1.00  0.00     0.074 A 
ATOM     40  C   UNL     1       7.940  -4.710 -10.793  1.00  0.00     0.031 C 
ATOM     41  C   UNL     1       8.553  -2.327 -11.108  1.00  0.00     0.031 A 
BRANCH  28  42
ATOM     42  C   UNL     1       8.178   3.370  -8.657  1.00  0.00    -0.014 A 
ATOM     43  C   UNL     1       9.031   3.996  -7.730  1.00  0.00     0.010 A 
ATOM     44  C   UNL     1       7.563   4.149  -9.654  1.00  0.00     0.010 A 
ATOM     45  C   UNL     1       9.229   5.380  -7.775  1.00  0.00     0.020 A 
ATOM     46  C   UNL     1       7.780   5.528  -9.720  1.00  0.00     0.020 A 
ATOM     47  C   UNL     1       8.600   6.137  -8.768  1.00  0.00     0.054 A 
BRANCH  47  48
ATOM     48  S   UNL     1       8.881   7.929  -8.809  1.00  0.00     0.124 S 
ATOM     49  O   UNL     1       8.137   8.378  -7.634  1.00  0.00    -0.237 OA
ATOM     50  O   UNL     1      10.335   8.025  -8.705  1.00  0.00    -0.237 OA
ATOM     51  O   UNL     1       8.322   8.340 -10.094  1.00  0.00    -0.744 OA
ENDBRANCH  47  48
ENDBRANCH  28  42
BRANCH  29  52
ATOM     52  C   UNL     1       5.749  -6.410  -7.569  1.00  0.00    -0.014 A 
ATOM     53  C   UNL     1       6.726  -7.402  -7.373  1.00  0.00     0.010 A 
ATOM     54  C   UNL     1       4.394  -6.797  -7.615  1.00  0.00     0.010 A 
ATOM     55  C   UNL     1       6.358  -8.747  -7.246  1.00  0.00     0.020 A 
ATOM     56  C   UNL     1       4.020  -8.134  -7.457  1.00  0.00     0.020 A 
ATOM     57  C   UNL     1       5.007  -9.105  -7.288  1.00  0.00     0.054 A 
BRANCH  57  58
ATOM     58  S   UNL     1       4.553 -10.851  -7.091  1.00  0.00     0.124 S 
ATOM     59  O   UNL     1       5.011 -11.428  -8.351  1.00  0.00    -0.237 OA
ATOM     60  O   UNL     1       5.308 -11.241  -5.903  1.00  0.00    -0.237 OA
ATOM     61  O   UNL     1       3.103 -10.810  -6.912  1.00  0.00    -0.744 OA
ENDBRANCH  57  58
ENDBRANCH  29  52
BRANCH  41  62
ATOM     62  C   UNL     1       9.246  -2.732 -12.376  1.00  0.00    -0.014 A 
ATOM     63  C   UNL     1       8.516  -3.087 -13.521  1.00  0.00     0.010 A 
ATOM     64  C   UNL     1      10.650  -2.666 -12.437  1.00  0.00     0.010 A 
ATOM     65  C   UNL     1       9.183  -3.393 -14.707  1.00  0.00     0.020 A 
ATOM     66  C   UNL     1      11.317  -2.938 -13.630  1.00  0.00     0.020 A 
ATOM     67  C   UNL     1      10.579  -3.310 -14.755  1.00  0.00     0.054 A 
BRANCH  67  68
ATOM     68  S   UNL     1      11.415  -3.642 -16.327  1.00  0.00     0.124 S 
ATOM     69  O   UNL     1      11.277  -5.090 -16.444  1.00  0.00    -0.237 OA
ATOM     70  O   UNL     1      10.632  -2.855 -17.277  1.00  0.00    -0.237 OA
ATOM     71  O   UNL     1      12.777  -3.161 -16.103  1.00  0.00    -0.744 OA
ENDBRANCH  67  68
ENDBRANCH  41  62
ENDBRANCH  15  16
ENDBRANCH   8  10
ENDBRANCH   7   8
ENDBRANCH   6   7
ENDBRANCH   5   6
ENDBRANCH   4   5
ENDBRANCH   3   4
ENDBRANCH   2   3
ENDBRANCH   1   2
BRANCH   1  72
ATOM     72  C   UNL     1       3.760  -2.813   2.345  1.00  0.00     0.188 C 
BRANCH  72  73
ATOM     73  C   UNL     1       4.489  -3.303   1.071  1.00  0.00     0.188 C 
BRANCH  73  74
ATOM     74  O   UNL     1       3.651  -3.970   0.144  1.00  0.00    -0.376 OA
BRANCH  74  75
ATOM     75  C   UNL     1       3.754  -5.388   0.148  1.00  0.00     0.202 C 
BRANCH  75  76
ATOM     76  C   UNL     1       3.200  -6.074   1.404  1.00  0.00     0.261 C 
BRANCH  76  77
ATOM     77  O   UNL     1       3.807  -5.751   2.678  1.00  0.00    -0.460 OA
BRANCH  77  78
ATOM     78  C   UNL     1       5.142  -5.826   2.879  1.00  0.00     0.341 C 
ATOM     79  O   UNL     1       5.994  -6.193   2.087  1.00  0.00    -0.246 OA
BRANCH  78  80
ATOM     80  C   UNL     1       5.440  -5.227   4.202  1.00  0.00     0.102 A 
ATOM     81  C   UNL     1       4.677  -5.641   5.303  1.00  0.00     0.021 A 
ATOM     82  C   UNL     1       6.385  -4.195   4.368  1.00  0.00     0.144 A 
ATOM     83  C   UNL     1       4.881  -5.049   6.541  1.00  0.00     0.021 A 
ATOM     84  N   UNL     1       6.586  -3.638   5.592  1.00  0.00    -0.238 NA
ATOM     85  C   UNL     1       5.850  -4.070   6.637  1.00  0.00     0.113 A 
BRANCH  82  86
ATOM     86  N   UNL     1       7.010  -3.564   3.267  1.00  0.00    -0.340 N 
ATOM     87  H   UNL     1       6.765  -3.881   2.368  1.00  0.00     0.168 HD
BRANCH  86  88
ATOM     88  C   UNL     1       7.955  -2.519   3.349  1.00  0.00     0.040 A 
ATOM     89  C   UNL     1       7.640  -1.218   2.942  1.00  0.00     0.026 A 
ATOM     90  C   UNL     1       9.267  -2.796   3.741  1.00  0.00     0.039 A 
ATOM     91  C   UNL     1       8.613  -0.211   2.935  1.00  0.00     0.003 A 
ATOM     92  C   UNL     1      10.258  -1.800   3.739  1.00  0.00     0.058 A 
ATOM     93  C   UNL     1       9.920  -0.503   3.326  1.00  0.00     0.013 A 
BRANCH  92  94
ATOM     94  C   UNL     1      11.667  -2.122   4.162  1.00  0.00     0.416 C 
ATOM     95  F   UNL     1      12.571  -1.925   3.163  1.00  0.00    -0.166 F 
ATOM     96  F   UNL     1      12.089  -1.352   5.204  1.00  0.00    -0.166 F 
ATOM     97  F   UNL     1      11.836  -3.413   4.566  1.00  0.00    -0.166 F 
ENDBRANCH  92  94
ENDBRANCH  86  88
ENDBRANCH  82  86
ENDBRANCH  78  80
ENDBRANCH  77  78
ENDBRANCH  76  77
ENDBRANCH  75  76
ENDBRANCH  74  75
ENDBRANCH  73  74
ENDBRANCH  72  73
ENDBRANCH   1  72
TORSDOF 26
