REMARK SMILES Cc1ccc(F)cc1S(=O)(=O)Nc1cc(C(=O)OCCOCCOCCOCCOC(=O)c2ccc(-c3c4nc(c(-c5ccc(S(=O)(=O)[O-])cc5)c5ccc([nH]5)c(-c5ccc(S(=O)(=O)[O-])cc5)c5nc(c(-c6ccc(S(=O)(=O)[O-])cc6)c6ccc3[nH]6)C=C5)C=C4)cc2)ccc1N(C)Cc1ccccc1
REMARK SMILES IDX 24 1 23 2 22 3 21 4 20 5 19 6 18 7 16 8 17 9 15 10 13 11
REMARK SMILES IDX 14 12 95 13 94 14 93 15 12 16 9 18 10 19 11 20 8 21 1 22
REMARK SMILES IDX 2 23 3 24 4 25 7 26 5 27 6 28 96 29 97 30 98 31 99 32 100 33
REMARK SMILES IDX 104 34 101 35 103 36 102 37 25 38 26 39 27 40 28 41 29 42
REMARK SMILES IDX 30 43 31 44 32 45 33 46 34 47 92 48 35 49 91 50 36 51 37 52
REMARK SMILES IDX 38 53 85 54 39 55 90 56 84 57 86 58 40 59 89 60 83 61 82 62
REMARK SMILES IDX 41 64 71 65 52 66 70 67 53 68 56 69 69 70 87 71 54 72 55 73
REMARK SMILES IDX 68 75 88 76 57 77 42 78 43 79 51 80 44 81 50 82 45 83 46 84
REMARK SMILES IDX 47 85 48 86 49 87 72 88 73 89 81 90 74 91 80 92 75 93 76 94
REMARK SMILES IDX 77 95 78 96 79 97 58 98 59 99 67 100 60 101 66 102 61 103
REMARK SMILES IDX 62 104 63 105 64 106 65 107
REMARK H PARENT 12 17 86 63 56 74
REMARK Flexibility Score: inf
ROOT
ATOM      1  O   UNL     1       8.738   0.987   1.050  1.00  0.00    -0.377 OA
ENDROOT
BRANCH   1   2
ATOM      2  C   UNL     1       8.235  -0.239   0.565  1.00  0.00     0.188 C 
BRANCH   2   3
ATOM      3  C   UNL     1       8.397  -0.568  -0.933  1.00  0.00     0.188 C 
BRANCH   3   4
ATOM      4  O   UNL     1       9.478   0.028  -1.614  1.00  0.00    -0.376 OA
BRANCH   4   5
ATOM      5  C   UNL     1       9.378   1.350  -2.121  1.00  0.00     0.202 C 
BRANCH   5   6
ATOM      6  C   UNL     1       8.159   2.288  -1.950  1.00  0.00     0.261 C 
BRANCH   6   7
ATOM      7  O   UNL     1       7.258   2.033  -0.847  1.00  0.00    -0.460 OA
BRANCH   7   8
ATOM      8  C   UNL     1       6.047   1.564  -1.225  1.00  0.00     0.338 C 
ATOM      9  O   UNL     1       5.702   1.491  -2.397  1.00  0.00    -0.246 OA
BRANCH   8  10
ATOM     10  C   UNL     1       5.245   0.861  -0.159  1.00  0.00     0.062 A 
ATOM     11  C   UNL     1       3.779  -1.088   0.176  1.00  0.00     0.073 A 
ATOM     12  C   UNL     1       4.879  -0.452  -0.456  1.00  0.00     0.044 A 
ATOM     13  C   UNL     1       3.110  -0.568   1.291  1.00  0.00     0.061 A 
ATOM     14  C   UNL     1       3.647   0.704   1.689  1.00  0.00     0.029 A 
ATOM     15  C   UNL     1       4.658   1.431   0.960  1.00  0.00     0.018 A 
BRANCH  11  16
ATOM     16  N   UNL     1       3.061  -2.000  -0.656  1.00  0.00    -0.277 N 
ATOM     17  H   UNL     1       3.031  -2.976  -0.528  1.00  0.00     0.180 HD
BRANCH  16  18
ATOM     18  S   UNL     1       2.249  -1.135  -1.927  1.00  0.00     0.262 S 
ATOM     19  O   UNL     1       1.254  -2.000  -2.490  1.00  0.00    -0.201 OA
ATOM     20  O   UNL     1       3.322  -0.737  -2.825  1.00  0.00    -0.201 OA
BRANCH  18  21
ATOM     21  C   UNL     1       1.426   0.352  -1.220  1.00  0.00     0.093 A 
ATOM     22  C   UNL     1       2.809   2.095  -2.447  1.00  0.00     0.046 C 
ATOM     23  C   UNL     1       1.660   1.667  -1.611  1.00  0.00    -0.030 A 
ATOM     24  C   UNL     1       0.807   2.711  -1.158  1.00  0.00     0.008 A 
ATOM     25  C   UNL     1      -0.244   2.486  -0.277  1.00  0.00     0.039 A 
ATOM     26  C   UNL     1       0.446   0.207  -0.242  1.00  0.00     0.061 A 
ATOM     27  C   UNL     1      -0.390   1.220   0.215  1.00  0.00     0.124 A 
ATOM     28  F   UNL     1      -1.314   0.953   1.149  1.00  0.00    -0.207 F 
ENDBRANCH  18  21
ENDBRANCH  16  18
ENDBRANCH  11  16
BRANCH  13  29
ATOM     29  N   UNL     1       1.918  -1.150   1.825  1.00  0.00    -0.369 N 
ATOM     30  C   UNL     1       1.401  -0.480   3.030  1.00  0.00     0.144 C 
BRANCH  29  31
ATOM     31  C   UNL     1       1.348  -2.591   1.633  1.00  0.00     0.151 C 
BRANCH  31  32
ATOM     32  C   UNL     1       0.500  -3.174   0.424  1.00  0.00    -0.029 A 
ATOM     33  C   UNL     1      -0.586  -2.628  -0.303  1.00  0.00     0.005 A 
ATOM     34  C   UNL     1       0.756  -4.520   0.079  1.00  0.00     0.005 A 
ATOM     35  C   UNL     1      -1.061  -3.193  -1.514  1.00  0.00     0.000 A 
ATOM     36  C   UNL     1       0.200  -5.146  -1.059  1.00  0.00     0.000 A 
ATOM     37  C   UNL     1      -0.630  -4.443  -1.917  1.00  0.00     0.000 A 
ENDBRANCH  31  32
ENDBRANCH  29  31
ENDBRANCH  13  29
ENDBRANCH   8  10
ENDBRANCH   7   8
ENDBRANCH   6   7
ENDBRANCH   5   6
ENDBRANCH   4   5
ENDBRANCH   3   4
ENDBRANCH   2   3
ENDBRANCH   1   2
BRANCH   1  38
ATOM     38  C   UNL     1      10.137   1.221   1.045  1.00  0.00     0.188 C 
BRANCH  38  39
ATOM     39  C   UNL     1      11.152   0.086   0.777  1.00  0.00     0.188 C 
BRANCH  39  40
ATOM     40  O   UNL     1      10.649  -1.237   0.870  1.00  0.00    -0.376 OA
BRANCH  40  41
ATOM     41  C   UNL     1      10.846  -1.958   2.077  1.00  0.00     0.202 C 
BRANCH  41  42
ATOM     42  C   UNL     1      10.219  -1.411   3.373  1.00  0.00     0.261 C 
BRANCH  42  43
ATOM     43  O   UNL     1      10.547  -0.060   3.715  1.00  0.00    -0.460 OA
BRANCH  43  44
ATOM     44  C   UNL     1      11.853   0.204   3.946  1.00  0.00     0.338 C 
ATOM     45  O   UNL     1      12.774  -0.586   3.922  1.00  0.00    -0.246 OA
BRANCH  44  46
ATOM     46  C   UNL     1      12.006   1.672   4.031  1.00  0.00     0.060 A 
ATOM     47  C   UNL     1      12.864   2.309   3.124  1.00  0.00     0.016 A 
ATOM     48  C   UNL     1      11.305   2.410   4.987  1.00  0.00     0.016 A 
ATOM     49  C   UNL     1      13.072   3.683   3.211  1.00  0.00     0.010 A 
ATOM     50  C   UNL     1      11.535   3.783   5.092  1.00  0.00     0.010 A 
ATOM     51  C   UNL     1      12.460   4.412   4.239  1.00  0.00    -0.014 A 
BRANCH  51  52
ATOM     52  C   UNL     1      13.009   5.741   4.594  1.00  0.00     0.031 A 
ATOM     53  C   UNL     1      14.025   5.801   5.704  1.00  0.00     0.074 A 
ATOM     54  C   UNL     1      12.667   6.854   3.923  1.00  0.00     0.049 A 
ATOM     55  N   UNL     1      14.652   6.832   6.204  1.00  0.00    -0.248 NA
ATOM     56  C   UNL     1      14.377   4.517   6.335  1.00  0.00     0.031 C 
ATOM     57  C   UNL     1      11.749   6.914   2.788  1.00  0.00     0.029 A 
ATOM     58  N   UNL     1      13.068   8.153   4.105  1.00  0.00    -0.354 N 
ATOM     59  C   UNL     1      15.465   6.324   7.211  1.00  0.00     0.074 A 
ATOM     60  C   UNL     1      15.218   4.902   7.281  1.00  0.00     0.031 C 
ATOM     61  C   UNL     1      11.661   8.189   2.370  1.00  0.00     0.029 A 
ATOM     62  C   UNL     1      12.487   9.037   3.229  1.00  0.00     0.049 A 
ATOM     63  H   UNL     1      13.712   8.427   4.798  1.00  0.00     0.167 HD
ATOM     64  C   UNL     1      16.348   6.978   8.002  1.00  0.00     0.031 A 
ATOM     65  C   UNL     1      12.603  10.377   3.141  1.00  0.00     0.031 A 
ATOM     66  C   UNL     1      16.570   8.397   7.948  1.00  0.00     0.049 A 
ATOM     67  C   UNL     1      13.516  11.102   4.097  1.00  0.00     0.074 A 
ATOM     68  C   UNL     1      17.433   9.164   8.709  1.00  0.00     0.029 A 
ATOM     69  N   UNL     1      15.912   9.266   7.089  1.00  0.00    -0.354 N 
ATOM     70  N   UNL     1      14.282  10.611   5.043  1.00  0.00    -0.248 NA
ATOM     71  C   UNL     1      13.588  12.564   3.963  1.00  0.00     0.031 C 
ATOM     72  C   UNL     1      17.250  10.505   8.355  1.00  0.00     0.029 A 
ATOM     73  C   UNL     1      16.332  10.565   7.318  1.00  0.00     0.049 A 
ATOM     74  H   UNL     1      15.246   8.998   6.416  1.00  0.00     0.167 HD
ATOM     75  C   UNL     1      14.959  11.699   5.588  1.00  0.00     0.074 A 
ATOM     76  C   UNL     1      14.513  12.871   4.862  1.00  0.00     0.031 C 
ATOM     77  C   UNL     1      15.876  11.724   6.588  1.00  0.00     0.031 A 
BRANCH  64  78
ATOM     78  C   UNL     1      17.091   6.156   9.025  1.00  0.00    -0.014 A 
ATOM     79  C   UNL     1      18.036   5.185   8.642  1.00  0.00     0.010 A 
ATOM     80  C   UNL     1      16.826   6.346  10.393  1.00  0.00     0.010 A 
ATOM     81  C   UNL     1      18.649   4.375   9.602  1.00  0.00     0.020 A 
ATOM     82  C   UNL     1      17.465   5.564  11.359  1.00  0.00     0.020 A 
ATOM     83  C   UNL     1      18.353   4.565  10.955  1.00  0.00     0.054 A 
BRANCH  83  84
ATOM     84  S   UNL     1      19.148   3.490  12.179  1.00  0.00     0.124 S 
ATOM     85  O   UNL     1      18.470   2.217  11.946  1.00  0.00    -0.237 OA
ATOM     86  O   UNL     1      20.552   3.535  11.779  1.00  0.00    -0.237 OA
ATOM     87  O   UNL     1      18.845   4.132  13.455  1.00  0.00    -0.744 OA
ENDBRANCH  83  84
ENDBRANCH  64  78
BRANCH  65  88
ATOM     88  C   UNL     1      11.844  11.119   2.097  1.00  0.00    -0.014 A 
ATOM     89  C   UNL     1      12.514  11.724   1.019  1.00  0.00     0.010 A 
ATOM     90  C   UNL     1      10.441  11.210   2.165  1.00  0.00     0.010 A 
ATOM     91  C   UNL     1      11.798  12.408   0.032  1.00  0.00     0.020 A 
ATOM     92  C   UNL     1       9.719  11.868   1.165  1.00  0.00     0.020 A 
ATOM     93  C   UNL     1      10.403  12.467   0.107  1.00  0.00     0.054 A 
BRANCH  93  94
ATOM     94  S   UNL     1       9.493  13.293  -1.228  1.00  0.00     0.124 S 
ATOM     95  O   UNL     1       9.839  14.694  -1.013  1.00  0.00    -0.237 OA
ATOM     96  O   UNL     1      10.063  12.675  -2.423  1.00  0.00    -0.237 OA
ATOM     97  O   UNL     1       8.100  12.943  -0.960  1.00  0.00    -0.744 OA
ENDBRANCH  93  94
ENDBRANCH  65  88
BRANCH  77  98
ATOM     98  C   UNL     1      16.508  13.052   6.925  1.00  0.00    -0.014 A 
ATOM     99  C   UNL     1      15.782  14.083   7.545  1.00  0.00     0.010 A 
ATOM    100  C   UNL     1      17.877  13.247   6.658  1.00  0.00     0.010 A 
ATOM    101  C   UNL     1      16.402  15.298   7.854  1.00  0.00     0.020 A 
ATOM    102  C   UNL     1      18.509  14.445   6.996  1.00  0.00     0.020 A 
ATOM    103  C   UNL     1      17.762  15.471   7.577  1.00  0.00     0.054 A 
BRANCH 103 104
ATOM    104  S   UNL     1      18.551  17.044   8.017  1.00  0.00     0.124 S 
ATOM    105  O   UNL     1      17.981  17.956   7.030  1.00  0.00    -0.237 OA
ATOM    106  O   UNL     1      18.106  17.250   9.394  1.00  0.00    -0.237 OA
ATOM    107  O   UNL     1      19.978  16.772   7.864  1.00  0.00    -0.744 OA
ENDBRANCH 103 104
ENDBRANCH  77  98
ENDBRANCH  51  52
ENDBRANCH  44  46
ENDBRANCH  43  44
ENDBRANCH  42  43
ENDBRANCH  41  42
ENDBRANCH  40  41
ENDBRANCH  39  40
ENDBRANCH  38  39
ENDBRANCH   1  38
TORSDOF 29
