REMARK SMILES CS(=O)(=O)c1ccc(/C=C(/C(=O)OCCOCCOCCOCCOC(=O)c2ccc(-c3c4nc(c(-c5ccc(S(=O)(=O)[O-])cc5)c5ccc([nH]5)c(-c5ccc(S(=O)(=O)[O-])cc5)c5nc(c(-c6ccc(S(=O)(=O)[O-])cc6)c6ccc3[nH]6)C=C5)C=C4)cc2)c2cccc(-c3ccc(S(C)(=O)=O)cc3)c2)cc1
REMARK SMILES IDX 19 1 18 2 17 3 16 4 15 5 14 6 13 7 11 8 12 9 10 10 9 11 8 12
REMARK SMILES IDX 5 13 6 14 105 15 7 16 104 17 2 18 1 19 3 20 4 21 88 22 89 23
REMARK SMILES IDX 103 24 90 25 92 26 91 27 93 28 94 29 102 30 95 31 101 32
REMARK SMILES IDX 96 33 97 34 98 35 99 36 100 37 20 38 21 39 22 40 23 41 24 42
REMARK SMILES IDX 25 43 26 44 27 45 28 46 29 47 87 48 30 49 86 50 31 51 32 52
REMARK SMILES IDX 33 53 80 54 34 55 85 56 79 57 81 58 35 59 84 60 78 61 77 62
REMARK SMILES IDX 36 64 66 65 47 66 65 67 48 68 51 69 64 70 82 71 49 72 50 73
REMARK SMILES IDX 63 75 83 76 52 77 37 78 38 79 46 80 39 81 45 82 40 83 41 84
REMARK SMILES IDX 42 85 43 86 44 87 67 88 68 89 76 90 69 91 75 92 70 93 71 94
REMARK SMILES IDX 72 95 73 96 74 97 53 98 54 99 62 100 55 101 61 102 56 103
REMARK SMILES IDX 57 104 58 105 59 106 60 107
REMARK H PARENT 81 63 51 74
REMARK Flexibility Score: inf
ROOT
ATOM      1  O   UNL     1       0.475   9.536   3.379  1.00  0.00    -0.377 OA
ENDROOT
BRANCH   1   2
ATOM      2  C   UNL     1       1.299   8.613   4.063  1.00  0.00     0.188 C 
BRANCH   2   3
ATOM      3  C   UNL     1       2.627   9.084   4.695  1.00  0.00     0.188 C 
BRANCH   3   4
ATOM      4  O   UNL     1       3.010  10.415   4.378  1.00  0.00    -0.376 OA
BRANCH   4   5
ATOM      5  C   UNL     1       4.127  10.544   3.507  1.00  0.00     0.202 C 
BRANCH   5   6
ATOM      6  C   UNL     1       3.806  10.267   2.033  1.00  0.00     0.261 C 
BRANCH   6   7
ATOM      7  O   UNL     1       3.259   8.962   1.783  1.00  0.00    -0.460 OA
BRANCH   7   8
ATOM      8  C   UNL     1       4.076   7.906   2.000  1.00  0.00     0.338 C 
ATOM      9  O   UNL     1       5.248   7.972   2.342  1.00  0.00    -0.246 OA
BRANCH   8  10
ATOM     10  C   UNL     1       3.310   6.620   1.917  1.00  0.00     0.067 C 
ATOM     11  C   UNL     1       2.358   6.485   0.961  1.00  0.00     0.024 C 
BRANCH  11  12
ATOM     12  C   UNL     1       1.625   5.268   0.535  1.00  0.00    -0.025 A 
ATOM     13  C   UNL     1       0.609   2.862  -0.510  1.00  0.00     0.067 A 
ATOM     14  C   UNL     1       0.826   2.984   0.861  1.00  0.00     0.021 A 
ATOM     15  C   UNL     1       0.789   3.962  -1.348  1.00  0.00     0.021 A 
ATOM     16  C   UNL     1       1.301   4.195   1.378  1.00  0.00     0.009 A 
ATOM     17  C   UNL     1       1.289   5.158  -0.823  1.00  0.00     0.009 A 
BRANCH  13  18
ATOM     18  S   UNL     1       0.186   1.294  -1.231  1.00  0.00     0.175 S 
ATOM     19  C   UNL     1       1.048   0.070  -0.279  1.00  0.00     0.163 C 
ATOM     20  O   UNL     1       0.765   1.265  -2.562  1.00  0.00    -0.224 OA
ATOM     21  O   UNL     1      -1.236   1.103  -1.025  1.00  0.00    -0.224 OA
ENDBRANCH  13  18
ENDBRANCH  11  12
BRANCH  10  22
ATOM     22  C   UNL     1       3.705   5.537   2.837  1.00  0.00    -0.010 A 
ATOM     23  C   UNL     1       3.288   5.515   4.176  1.00  0.00     0.009 A 
ATOM     24  C   UNL     1       4.412   4.447   2.338  1.00  0.00     0.017 A 
ATOM     25  C   UNL     1       3.583   4.433   5.002  1.00  0.00     0.001 A 
ATOM     26  C   UNL     1       4.655   3.316   3.132  1.00  0.00    -0.018 A 
ATOM     27  C   UNL     1       4.259   3.336   4.479  1.00  0.00     0.009 A 
BRANCH  26  28
ATOM     28  C   UNL     1       5.189   2.109   2.497  1.00  0.00    -0.018 A 
ATOM     29  C   UNL     1       4.528   0.879   2.659  1.00  0.00     0.010 A 
ATOM     30  C   UNL     1       6.280   2.182   1.614  1.00  0.00     0.010 A 
ATOM     31  C   UNL     1       4.930  -0.243   1.942  1.00  0.00     0.021 A 
ATOM     32  C   UNL     1       6.687   1.065   0.889  1.00  0.00     0.021 A 
ATOM     33  C   UNL     1       6.009  -0.139   1.063  1.00  0.00     0.067 A 
BRANCH  33  34
ATOM     34  S   UNL     1       6.499  -1.575   0.150  1.00  0.00     0.175 S 
ATOM     35  C   UNL     1       7.214  -2.602   1.406  1.00  0.00     0.163 C 
ATOM     36  O   UNL     1       5.286  -2.210  -0.327  1.00  0.00    -0.224 OA
ATOM     37  O   UNL     1       7.558  -1.190  -0.763  1.00  0.00    -0.224 OA
ENDBRANCH  33  34
ENDBRANCH  26  28
ENDBRANCH  10  22
ENDBRANCH   8  10
ENDBRANCH   7   8
ENDBRANCH   6   7
ENDBRANCH   5   6
ENDBRANCH   4   5
ENDBRANCH   3   4
ENDBRANCH   2   3
ENDBRANCH   1   2
BRANCH   1  38
ATOM     38  C   UNL     1       0.344  10.851   3.892  1.00  0.00     0.188 C 
BRANCH  38  39
ATOM     39  C   UNL     1       0.328  11.061   5.420  1.00  0.00     0.188 C 
BRANCH  39  40
ATOM     40  O   UNL     1       0.149   9.872   6.183  1.00  0.00    -0.376 OA
BRANCH  40  41
ATOM     41  C   UNL     1      -1.140   9.672   6.745  1.00  0.00     0.202 C 
BRANCH  41  42
ATOM     42  C   UNL     1      -2.241   9.322   5.737  1.00  0.00     0.261 C 
BRANCH  42  43
ATOM     43  O   UNL     1      -2.542  10.337   4.768  1.00  0.00    -0.460 OA
BRANCH  43  44
ATOM     44  C   UNL     1      -2.927  11.554   5.211  1.00  0.00     0.338 C 
ATOM     45  O   UNL     1      -3.093  11.905   6.365  1.00  0.00    -0.246 OA
BRANCH  44  46
ATOM     46  C   UNL     1      -2.915  12.453   4.040  1.00  0.00     0.060 A 
ATOM     47  C   UNL     1      -2.042  13.550   4.022  1.00  0.00     0.016 A 
ATOM     48  C   UNL     1      -3.709  12.157   2.931  1.00  0.00     0.016 A 
ATOM     49  C   UNL     1      -1.955  14.351   2.882  1.00  0.00     0.010 A 
ATOM     50  C   UNL     1      -3.645  12.976   1.806  1.00  0.00     0.010 A 
ATOM     51  C   UNL     1      -2.778  14.083   1.780  1.00  0.00    -0.014 A 
BRANCH  51  52
ATOM     52  C   UNL     1      -2.881  15.045   0.660  1.00  0.00     0.031 A 
ATOM     53  C   UNL     1      -3.969  16.078   0.715  1.00  0.00     0.074 A 
ATOM     54  C   UNL     1      -2.058  14.978  -0.402  1.00  0.00     0.049 A 
ATOM     55  N   UNL     1      -4.333  16.947  -0.190  1.00  0.00    -0.248 NA
ATOM     56  C   UNL     1      -4.754  16.133   1.960  1.00  0.00     0.031 C 
ATOM     57  C   UNL     1      -0.933  14.056  -0.548  1.00  0.00     0.029 A 
ATOM     58  N   UNL     1      -2.060  15.697  -1.571  1.00  0.00    -0.354 N 
ATOM     59  C   UNL     1      -5.392  17.649   0.372  1.00  0.00     0.074 A 
ATOM     60  C   UNL     1      -5.626  17.090   1.685  1.00  0.00     0.031 C 
ATOM     61  C   UNL     1      -0.361  14.256  -1.750  1.00  0.00     0.029 A 
ATOM     62  C   UNL     1      -1.107  15.286  -2.472  1.00  0.00     0.049 A 
ATOM     63  H   UNL     1      -2.684  16.438  -1.747  1.00  0.00     0.167 HD
ATOM     64  C   UNL     1      -6.109  18.666  -0.160  1.00  0.00     0.031 A 
ATOM     65  C   UNL     1      -0.887  15.673  -3.745  1.00  0.00     0.031 A 
ATOM     66  C   UNL     1      -5.900  19.191  -1.481  1.00  0.00     0.049 A 
ATOM     67  C   UNL     1      -1.777  16.723  -4.363  1.00  0.00     0.074 A 
ATOM     68  C   UNL     1      -6.570  20.224  -2.112  1.00  0.00     0.029 A 
ATOM     69  N   UNL     1      -4.963  18.709  -2.383  1.00  0.00    -0.354 N 
ATOM     70  N   UNL     1      -2.758  17.399  -3.813  1.00  0.00    -0.248 NA
ATOM     71  C   UNL     1      -1.536  17.053  -5.775  1.00  0.00     0.031 C 
ATOM     72  C   UNL     1      -6.080  20.325  -3.418  1.00  0.00     0.029 A 
ATOM     73  C   UNL     1      -5.063  19.396  -3.580  1.00  0.00     0.049 A 
ATOM     74  H   UNL     1      -4.322  17.985  -2.199  1.00  0.00     0.167 HD
ATOM     75  C   UNL     1      -3.239  18.247  -4.807  1.00  0.00     0.074 A 
ATOM     76  C   UNL     1      -2.433  18.009  -5.986  1.00  0.00     0.031 C 
ATOM     77  C   UNL     1      -4.256  19.142  -4.748  1.00  0.00     0.031 A 
BRANCH  64  78
ATOM     78  C   UNL     1      -7.216  19.238   0.681  1.00  0.00    -0.014 A 
ATOM     79  C   UNL     1      -6.936  20.015   1.821  1.00  0.00     0.010 A 
ATOM     80  C   UNL     1      -8.555  19.001   0.325  1.00  0.00     0.010 A 
ATOM     81  C   UNL     1      -7.977  20.504   2.614  1.00  0.00     0.020 A 
ATOM     82  C   UNL     1      -9.599  19.511   1.101  1.00  0.00     0.020 A 
ATOM     83  C   UNL     1      -9.302  20.243   2.252  1.00  0.00     0.054 A 
BRANCH  83  84
ATOM     84  S   UNL     1     -10.633  20.891   3.300  1.00  0.00     0.124 S 
ATOM     85  O   UNL     1     -10.544  20.021   4.471  1.00  0.00    -0.237 OA
ATOM     86  O   UNL     1     -10.224  22.277   3.516  1.00  0.00    -0.237 OA
ATOM     87  O   UNL     1     -11.832  20.718   2.485  1.00  0.00    -0.744 OA
ENDBRANCH  83  84
ENDBRANCH  64  78
BRANCH  65  88
ATOM     88  C   UNL     1       0.202  15.040  -4.540  1.00  0.00    -0.014 A 
ATOM     89  C   UNL     1       1.345  15.777  -4.897  1.00  0.00     0.010 A 
ATOM     90  C   UNL     1       0.104  13.695  -4.941  1.00  0.00     0.010 A 
ATOM     91  C   UNL     1       2.366  15.182  -5.644  1.00  0.00     0.020 A 
ATOM     92  C   UNL     1       1.134  13.089  -5.666  1.00  0.00     0.020 A 
ATOM     93  C   UNL     1       2.257  13.839  -6.018  1.00  0.00     0.054 A 
BRANCH  93  94
ATOM     94  S   UNL     1       3.628  13.071  -6.926  1.00  0.00     0.124 S 
ATOM     95  O   UNL     1       3.494  13.673  -8.248  1.00  0.00    -0.237 OA
ATOM     96  O   UNL     1       4.793  13.494  -6.152  1.00  0.00    -0.237 OA
ATOM     97  O   UNL     1       3.328  11.643  -6.852  1.00  0.00    -0.744 OA
ENDBRANCH  93  94
ENDBRANCH  65  88
BRANCH  77  98
ATOM     98  C   UNL     1      -4.556  19.947  -5.984  1.00  0.00    -0.014 A 
ATOM     99  C   UNL     1      -5.206  19.366  -7.087  1.00  0.00     0.010 A 
ATOM    100  C   UNL     1      -4.270  21.325  -6.005  1.00  0.00     0.010 A 
ATOM    101  C   UNL     1      -5.555  20.146  -8.193  1.00  0.00     0.020 A 
ATOM    102  C   UNL     1      -4.641  22.113  -7.098  1.00  0.00     0.020 A 
ATOM    103  C   UNL     1      -5.276  21.517  -8.189  1.00  0.00     0.054 A 
BRANCH 103 104
ATOM    104  S   UNL     1      -5.810  22.520  -9.602  1.00  0.00     0.124 S 
ATOM    105  O   UNL     1      -4.870  22.109 -10.641  1.00  0.00    -0.237 OA
ATOM    106  O   UNL     1      -7.192  22.088  -9.798  1.00  0.00    -0.237 OA
ATOM    107  O   UNL     1      -5.655  23.895  -9.131  1.00  0.00    -0.744 OA
ENDBRANCH 103 104
ENDBRANCH  77  98
ENDBRANCH  51  52
ENDBRANCH  44  46
ENDBRANCH  43  44
ENDBRANCH  42  43
ENDBRANCH  41  42
ENDBRANCH  40  41
ENDBRANCH  39  40
ENDBRANCH  38  39
ENDBRANCH   1  38
TORSDOF 28
