REMARK SMILES O=C(OCCOCCOCCOCCOC(=O)c1cc(S(=O)(=O)NNC(=O)[C@H]2C=C(c3ccccc3)N=N2)ccc1F)c1ccc(-c2c3nc(c(-c4ccc(S(=O)(=O)[O-])cc4)c4ccc([nH]4)c(-c4ccc(S(=O)(=O)[O-])cc4)c4nc(c(-c5ccc(S(=O)(=O)[O-])cc5)c5ccc2[nH]5)C=C4)C=C3)cc1
REMARK SMILES IDX 10 1 9 2 8 3 7 4 6 5 5 6 4 7 3 8 2 9 1 10 43 11 44 12 102 13
REMARK SMILES IDX 45 14 101 15 46 16 47 17 48 18 95 19 49 20 100 21 94 22
REMARK SMILES IDX 96 23 50 24 99 25 93 26 92 27 51 29 81 30 62 31 80 32 63 33
REMARK SMILES IDX 66 34 79 35 97 36 64 37 65 38 78 40 98 41 67 42 52 43 53 44
REMARK SMILES IDX 61 45 54 46 60 47 55 48 56 49 57 50 58 51 59 52 82 53 83 54
REMARK SMILES IDX 91 55 84 56 90 57 85 58 86 59 87 60 88 61 89 62 68 63 69 64
REMARK SMILES IDX 77 65 70 66 76 67 71 68 72 69 73 70 74 71 75 72 11 73 12 74
REMARK SMILES IDX 13 75 14 76 15 77 16 78 17 79 18 80 19 81 41 82 20 83 40 84
REMARK SMILES IDX 42 85 39 86 21 87 22 88 23 89 24 90 25 92 26 93 27 95 28 96
REMARK SMILES IDX 29 97 38 98 30 99 37 100 31 101 32 102 36 103 33 104 35 105
REMARK SMILES IDX 34 106
REMARK H PARENT 96 28 66 39 24 91 25 94
REMARK Flexibility Score: inf
ROOT
ATOM      1  C   UNL     1       8.294  -2.592  10.384  1.00  0.00     0.188 C 
ENDROOT
BRANCH   1   2
ATOM      2  O   UNL     1       8.588  -2.173  11.697  1.00  0.00    -0.377 OA
BRANCH   2   3
ATOM      3  C   UNL     1       9.348  -0.979  11.760  1.00  0.00     0.188 C 
BRANCH   3   4
ATOM      4  C   UNL     1       8.685   0.296  11.211  1.00  0.00     0.188 C 
BRANCH   4   5
ATOM      5  O   UNL     1       8.308   0.499   9.861  1.00  0.00    -0.376 OA
BRANCH   5   6
ATOM      6  C   UNL     1       8.970   0.156   8.663  1.00  0.00     0.202 C 
BRANCH   6   7
ATOM      7  C   UNL     1      10.481   0.060   8.441  1.00  0.00     0.261 C 
BRANCH   7   8
ATOM      8  O   UNL     1      11.276  -0.247   9.573  1.00  0.00    -0.460 OA
BRANCH   8   9
ATOM      9  C   UNL     1      11.825   0.590  10.475  1.00  0.00     0.338 C 
ATOM     10  O   UNL     1      12.571   0.106  11.326  1.00  0.00    -0.246 OA
BRANCH   9  11
ATOM     11  C   UNL     1      11.497   2.039  10.578  1.00  0.00     0.060 A 
ATOM     12  C   UNL     1      10.882   2.825   9.601  1.00  0.00     0.016 A 
ATOM     13  C   UNL     1      11.893   2.648  11.786  1.00  0.00     0.016 A 
ATOM     14  C   UNL     1      10.846   4.198   9.732  1.00  0.00     0.010 A 
ATOM     15  C   UNL     1      11.832   4.020  11.938  1.00  0.00     0.010 A 
ATOM     16  C   UNL     1      11.399   4.783  10.863  1.00  0.00    -0.014 A 
BRANCH  16  17
ATOM     17  C   UNL     1      11.601   6.215  10.819  1.00  0.00     0.031 A 
ATOM     18  C   UNL     1      10.381   7.051  10.865  1.00  0.00     0.074 A 
ATOM     19  C   UNL     1      12.848   6.717  10.752  1.00  0.00     0.049 A 
ATOM     20  N   UNL     1       9.923   7.843   9.953  1.00  0.00    -0.248 NA
ATOM     21  C   UNL     1       9.504   6.899  12.034  1.00  0.00     0.031 C 
ATOM     22  C   UNL     1      14.114   6.000  10.945  1.00  0.00     0.029 A 
ATOM     23  N   UNL     1      13.238   8.011  10.629  1.00  0.00    -0.354 N 
ATOM     24  C   UNL     1       8.798   8.446  10.508  1.00  0.00     0.074 A 
ATOM     25  C   UNL     1       8.504   7.721  11.720  1.00  0.00     0.031 C 
ATOM     26  C   UNL     1      15.091   6.898  11.193  1.00  0.00     0.029 A 
ATOM     27  C   UNL     1      14.545   8.235  11.034  1.00  0.00     0.049 A 
ATOM     28  H   UNL     1      12.650   8.721  10.285  1.00  0.00     0.167 HD
ATOM     29  C   UNL     1       8.314   9.635  10.056  1.00  0.00     0.031 A 
ATOM     30  C   UNL     1      15.100   9.436  11.324  1.00  0.00     0.031 A 
ATOM     31  C   UNL     1       8.839   9.985   8.764  1.00  0.00     0.049 A 
ATOM     32  C   UNL     1      14.268  10.479  10.673  1.00  0.00     0.074 A 
ATOM     33  C   UNL     1       8.777   9.426   7.505  1.00  0.00     0.029 A 
ATOM     34  N   UNL     1       9.863  10.902   8.727  1.00  0.00    -0.354 N 
ATOM     35  N   UNL     1      14.173  10.618   9.380  1.00  0.00    -0.248 NA
ATOM     36  C   UNL     1      13.194  11.092  11.441  1.00  0.00     0.031 C 
ATOM     37  C   UNL     1      10.047   9.695   6.918  1.00  0.00     0.029 A 
ATOM     38  C   UNL     1      10.794  10.441   7.833  1.00  0.00     0.049 A 
ATOM     39  H   UNL     1       9.917  11.737   9.246  1.00  0.00     0.167 HD
ATOM     40  C   UNL     1      12.845  10.953   9.150  1.00  0.00     0.074 A 
ATOM     41  C   UNL     1      12.322  11.338  10.458  1.00  0.00     0.031 C 
ATOM     42  C   UNL     1      12.224  10.622   7.978  1.00  0.00     0.031 A 
BRANCH  29  43
ATOM     43  C   UNL     1       7.664  10.655  10.955  1.00  0.00    -0.014 A 
ATOM     44  C   UNL     1       7.084  11.806  10.386  1.00  0.00     0.010 A 
ATOM     45  C   UNL     1       7.857  10.656  12.353  1.00  0.00     0.010 A 
ATOM     46  C   UNL     1       6.777  12.926  11.171  1.00  0.00     0.020 A 
ATOM     47  C   UNL     1       7.512  11.747  13.149  1.00  0.00     0.020 A 
ATOM     48  C   UNL     1       7.010  12.892  12.547  1.00  0.00     0.054 A 
BRANCH  48  49
ATOM     49  S   UNL     1       6.735  14.383  13.534  1.00  0.00     0.124 S 
ATOM     50  O   UNL     1       7.781  15.269  13.033  1.00  0.00    -0.237 OA
ATOM     51  O   UNL     1       5.367  14.746  13.174  1.00  0.00    -0.237 OA
ATOM     52  O   UNL     1       6.911  13.920  14.909  1.00  0.00    -0.744 OA
ENDBRANCH  48  49
ENDBRANCH  29  43
BRANCH  30  53
ATOM     53  C   UNL     1      16.063   9.714  12.416  1.00  0.00    -0.014 A 
ATOM     54  C   UNL     1      16.749  10.939  12.482  1.00  0.00     0.010 A 
ATOM     55  C   UNL     1      16.117   8.869  13.547  1.00  0.00     0.010 A 
ATOM     56  C   UNL     1      17.416  11.327  13.657  1.00  0.00     0.020 A 
ATOM     57  C   UNL     1      16.789   9.242  14.714  1.00  0.00     0.020 A 
ATOM     58  C   UNL     1      17.415  10.483  14.772  1.00  0.00     0.054 A 
BRANCH  58  59
ATOM     59  S   UNL     1      18.121  11.068  16.339  1.00  0.00     0.124 S 
ATOM     60  O   UNL     1      19.552  11.072  16.052  1.00  0.00    -0.237 OA
ATOM     61  O   UNL     1      17.503  12.382  16.494  1.00  0.00    -0.237 OA
ATOM     62  O   UNL     1      17.685  10.065  17.309  1.00  0.00    -0.744 OA
ENDBRANCH  58  59
ENDBRANCH  30  53
BRANCH  42  63
ATOM     63  C   UNL     1      13.075  10.152   6.821  1.00  0.00    -0.014 A 
ATOM     64  C   UNL     1      13.871   8.990   6.866  1.00  0.00     0.010 A 
ATOM     65  C   UNL     1      12.936  10.821   5.592  1.00  0.00     0.010 A 
ATOM     66  C   UNL     1      14.528   8.526   5.717  1.00  0.00     0.020 A 
ATOM     67  C   UNL     1      13.573  10.354   4.440  1.00  0.00     0.020 A 
ATOM     68  C   UNL     1      14.373   9.212   4.509  1.00  0.00     0.054 A 
BRANCH  68  69
ATOM     69  S   UNL     1      15.175   8.572   3.012  1.00  0.00     0.124 S 
ATOM     70  O   UNL     1      16.589   8.821   3.278  1.00  0.00    -0.237 OA
ATOM     71  O   UNL     1      14.774   7.166   3.005  1.00  0.00    -0.237 OA
ATOM     72  O   UNL     1      14.598   9.376   1.935  1.00  0.00    -0.744 OA
ENDBRANCH  68  69
ENDBRANCH  42  63
ENDBRANCH  16  17
ENDBRANCH   9  11
ENDBRANCH   8   9
ENDBRANCH   7   8
ENDBRANCH   6   7
ENDBRANCH   5   6
ENDBRANCH   4   5
ENDBRANCH   3   4
ENDBRANCH   2   3
ENDBRANCH   1   2
BRANCH   1  73
ATOM     73  C   UNL     1       6.834  -2.343   9.954  1.00  0.00     0.188 C 
BRANCH  73  74
ATOM     74  O   UNL     1       5.893  -1.751  10.837  1.00  0.00    -0.376 OA
BRANCH  74  75
ATOM     75  C   UNL     1       5.913  -2.070  12.218  1.00  0.00     0.202 C 
BRANCH  75  76
ATOM     76  C   UNL     1       5.813  -3.539  12.660  1.00  0.00     0.261 C 
BRANCH  76  77
ATOM     77  O   UNL     1       6.660  -4.470  11.967  1.00  0.00    -0.460 OA
BRANCH  77  78
ATOM     78  C   UNL     1       6.050  -5.326  11.107  1.00  0.00     0.341 C 
ATOM     79  O   UNL     1       4.880  -5.383  10.808  1.00  0.00    -0.246 OA
BRANCH  78  80
ATOM     80  C   UNL     1       7.101  -6.097  10.418  1.00  0.00     0.097 A 
ATOM     81  C   UNL     1       7.402  -5.810   9.083  1.00  0.00     0.040 A 
ATOM     82  C   UNL     1       7.835  -7.054  11.105  1.00  0.00     0.137 A 
ATOM     83  C   UNL     1       8.516  -6.411   8.485  1.00  0.00     0.085 A 
ATOM     84  C   UNL     1       8.893  -7.714  10.477  1.00  0.00     0.041 A 
ATOM     85  F   UNL     1       7.539  -7.363  12.375  1.00  0.00    -0.206 F 
ATOM     86  C   UNL     1       9.255  -7.379   9.167  1.00  0.00     0.025 A 
BRANCH  83  87
ATOM     87  S   UNL     1       8.988  -5.847   6.874  1.00  0.00     0.257 S 
ATOM     88  O   UNL     1       7.775  -5.579   6.131  1.00  0.00    -0.205 OA
ATOM     89  O   UNL     1      10.001  -4.836   7.067  1.00  0.00    -0.205 OA
BRANCH  87  90
ATOM     90  N   UNL     1       9.731  -7.178   6.128  1.00  0.00    -0.123 NA
ATOM     91  H   UNL     1      10.414  -7.551   6.788  1.00  0.00     0.167 HD
BRANCH  90  92
ATOM     92  N   UNL     1       8.904  -8.275   5.707  1.00  0.00    -0.275 N 
ATOM     93  C   UNL     1       8.992  -8.965   4.527  1.00  0.00     0.265 C 
ATOM     94  H   UNL     1       8.200  -8.561   6.332  1.00  0.00     0.186 HD
ATOM     95  O   UNL     1       8.329 -10.005   4.426  1.00  0.00    -0.271 OA
BRANCH  93  96
ATOM     96  C   UNL     1       9.824  -8.456   3.345  1.00  0.00     0.244 C 
ATOM     97  C   UNL     1       9.901  -6.991   3.113  1.00  0.00     0.042 C 
ATOM     98  N   UNL     1      11.247  -8.833   3.546  1.00  0.00    -0.171 NA
ATOM     99  C   UNL     1      11.206  -6.712   3.105  1.00  0.00     0.091 C 
ATOM    100  N   UNL     1      11.980  -7.823   3.344  1.00  0.00    -0.155 NA
BRANCH  99 101
ATOM    101  C   UNL     1      11.800  -5.383   2.972  1.00  0.00     0.002 A 
ATOM    102  C   UNL     1      12.755  -5.120   1.982  1.00  0.00     0.010 A 
ATOM    103  C   UNL     1      11.478  -4.370   3.885  1.00  0.00     0.010 A 
ATOM    104  C   UNL     1      13.381  -3.871   1.918  1.00  0.00     0.001 A 
ATOM    105  C   UNL     1      12.120  -3.133   3.836  1.00  0.00     0.001 A 
ATOM    106  C   UNL     1      13.072  -2.884   2.853  1.00  0.00     0.000 A 
ENDBRANCH  99 101
ENDBRANCH  93  96
ENDBRANCH  90  92
ENDBRANCH  87  90
ENDBRANCH  83  87
ENDBRANCH  78  80
ENDBRANCH  77  78
ENDBRANCH  76  77
ENDBRANCH  75  76
ENDBRANCH  74  75
ENDBRANCH  73  74
ENDBRANCH   1  73
TORSDOF 28
