REMARK SMILES Cc1coc2cc3c(cc12)[C@@H](C)[C@H](CCC(=O)N[C@@H](Cc1c[nH]c2ccccc12)C(=O)OCCOCCOCCOCCOC(=O)c1ccc(-c2c4nc(c(-c5ccc(S(=O)(=O)[O-])cc5)c5ccc([nH]5)c(-c5ccc(S(=O)(=O)[O-])cc5)c5nc(c(-c6ccc(S(=O)(=O)[O-])cc6)c6ccc2[nH]6)C=C5)C=C4)cc1)C(=O)O3
REMARK SMILES IDX 37 1 36 2 35 3 34 4 33 5 32 6 30 7 31 8 19 9 18 10 16 11
REMARK SMILES IDX 17 12 15 14 14 15 13 16 1 17 2 18 3 19 10 20 4 21 5 22 9 23
REMARK SMILES IDX 6 24 8 25 7 26 11 27 109 28 12 29 107 30 108 31 20 32 21 33
REMARK SMILES IDX 22 34 29 35 23 36 24 37 28 38 25 40 27 41 26 42 38 43 39 44
REMARK SMILES IDX 40 45 41 46 42 47 43 48 44 49 45 50 46 51 47 52 48 53 106 54
REMARK SMILES IDX 49 55 105 56 50 57 51 58 52 59 99 60 53 61 104 62 98 63
REMARK SMILES IDX 100 64 54 65 103 66 97 67 96 68 55 70 85 71 66 72 84 73
REMARK SMILES IDX 67 74 70 75 83 76 101 77 68 78 69 79 82 81 102 82 71 83
REMARK SMILES IDX 56 84 57 85 65 86 58 87 64 88 59 89 60 90 61 91 62 92 63 93
REMARK SMILES IDX 86 94 87 95 95 96 88 97 94 98 89 99 90 100 91 101 92 102
REMARK SMILES IDX 93 103 72 104 73 105 81 106 74 107 80 108 75 109 76 110
REMARK SMILES IDX 77 111 78 112 79 113
REMARK H PARENT 18 13 23 39 100 69 70 80
REMARK Flexibility Score: inf
ROOT
ATOM      1  C   UNL     1      -0.260  -4.729   7.702  1.00  0.00     0.188 C 
ENDROOT
BRANCH   1   2
ATOM      2  C   UNL     1       0.644  -5.923   7.399  1.00  0.00     0.188 C 
BRANCH   2   3
ATOM      3  O   UNL     1       1.972  -5.856   7.912  1.00  0.00    -0.376 OA
BRANCH   3   4
ATOM      4  C   UNL     1       2.746  -4.716   7.567  1.00  0.00     0.202 C 
BRANCH   4   5
ATOM      5  C   UNL     1       3.264  -4.561   6.131  1.00  0.00     0.261 C 
BRANCH   5   6
ATOM      6  O   UNL     1       2.268  -4.397   5.106  1.00  0.00    -0.462 OA
BRANCH   6   7
ATOM      7  C   UNL     1       2.029  -5.500   4.354  1.00  0.00     0.329 C 
ATOM      8  O   UNL     1       2.344  -6.647   4.666  1.00  0.00    -0.250 OA
BRANCH   7   9
ATOM      9  C   UNL     1       1.303  -5.196   2.902  1.00  0.00     0.196 C 
BRANCH   9  10
ATOM     10  N   UNL     1      -0.672  -5.115   2.407  1.00  0.00    -0.342 N 
ATOM     11  C   UNL     1      -1.962  -5.596   2.082  1.00  0.00     0.220 C 
ATOM     12  O   UNL     1      -2.852  -4.754   1.949  1.00  0.00    -0.275 OA
ATOM     13  H   UNL     1      -0.819  -4.143   2.374  1.00  0.00     0.164 HD
BRANCH  11  14
ATOM     14  C   UNL     1      -2.298  -7.055   2.043  1.00  0.00     0.101 C 
BRANCH  14  15
ATOM     15  C   UNL     1      -1.074  -7.785   1.613  1.00  0.00     0.026 C 
BRANCH  15  16
ATOM     16  C   UNL     1       0.084  -6.944   2.124  1.00  0.00     0.107 C 
ATOM     17  C   UNL     1       0.935   0.338  -0.860  1.00  0.00     0.048 C 
ATOM     18  C   UNL     1       0.385  -0.024   0.466  1.00  0.00    -0.005 A 
ATOM     19  C   UNL     1      -0.077   0.854   1.421  1.00  0.00     0.199 A 
ATOM     20  C   UNL     1       0.283  -1.343   1.036  1.00  0.00     0.024 A 
ATOM     21  O   UNL     1      -0.379   0.210   2.567  1.00  0.00    -0.464 OA
ATOM     22  C   UNL     1      -0.102  -1.115   2.382  1.00  0.00     0.137 A 
ATOM     23  C   UNL     1       0.520  -2.652   0.479  1.00  0.00     0.020 A 
ATOM     24  C   UNL     1      -0.199  -2.020   3.446  1.00  0.00     0.095 A 
ATOM     25  C   UNL     1       0.465  -3.695   1.379  1.00  0.00    -0.001 A 
ATOM     26  C   UNL     1       0.209  -3.248   3.007  1.00  0.00     0.138 A 
ATOM     27  C   UNL     1       0.437  -5.519   0.790  1.00  0.00     0.034 C 
ATOM     28  O   UNL     1      -0.220  -4.582   4.152  1.00  0.00    -0.426 OA
ATOM     29  C   UNL     1       1.500  -6.003  -0.206  1.00  0.00     0.014 C 
ATOM     30  C   UNL     1      -0.334  -6.347   3.949  1.00  0.00     0.314 C 
ATOM     31  O   UNL     1      -0.806  -7.041   4.851  1.00  0.00    -0.251 OA
ENDBRANCH  15  16
ENDBRANCH  14  15
ENDBRANCH  11  14
ENDBRANCH   9  10
BRANCH   9  32
ATOM     32  C   UNL     1       2.704  -4.455   2.211  1.00  0.00     0.074 C 
BRANCH  32  33
ATOM     33  C   UNL     1       3.321  -3.092   2.412  1.00  0.00    -0.020 A 
ATOM     34  C   UNL     1       3.069  -2.013   3.232  1.00  0.00     0.087 A 
ATOM     35  C   UNL     1       4.489  -2.716   1.642  1.00  0.00     0.003 A 
ATOM     36  N   UNL     1       3.864  -0.963   2.834  1.00  0.00    -0.361 N 
ATOM     37  C   UNL     1       4.747  -1.369   1.865  1.00  0.00     0.046 A 
ATOM     38  C   UNL     1       5.340  -3.423   0.767  1.00  0.00     0.010 A 
ATOM     39  H   UNL     1       3.808  -0.048   3.194  1.00  0.00     0.166 HD
ATOM     40  C   UNL     1       5.766  -0.671   1.205  1.00  0.00     0.026 A 
ATOM     41  C   UNL     1       6.395  -2.757   0.139  1.00  0.00     0.001 A 
ATOM     42  C   UNL     1       6.596  -1.398   0.345  1.00  0.00     0.002 A 
ENDBRANCH  32  33
ENDBRANCH   9  32
ENDBRANCH   7   9
ENDBRANCH   6   7
ENDBRANCH   5   6
ENDBRANCH   4   5
ENDBRANCH   3   4
ENDBRANCH   2   3
ENDBRANCH   1   2
BRANCH   1  43
ATOM     43  O   UNL     1      -0.001  -3.650   6.808  1.00  0.00    -0.377 OA
BRANCH  43  44
ATOM     44  C   UNL     1       0.091  -2.347   7.367  1.00  0.00     0.188 C 
BRANCH  44  45
ATOM     45  C   UNL     1      -0.868  -2.009   8.511  1.00  0.00     0.188 C 
BRANCH  45  46
ATOM     46  O   UNL     1      -2.243  -2.309   8.291  1.00  0.00    -0.376 OA
BRANCH  46  47
ATOM     47  C   UNL     1      -2.809  -1.877   7.051  1.00  0.00     0.202 C 
BRANCH  47  48
ATOM     48  C   UNL     1      -2.959  -0.355   6.902  1.00  0.00     0.261 C 
BRANCH  48  49
ATOM     49  O   UNL     1      -1.681   0.229   6.610  1.00  0.00    -0.460 OA
BRANCH  49  50
ATOM     50  C   UNL     1      -1.304   1.288   7.369  1.00  0.00     0.338 C 
ATOM     51  O   UNL     1      -2.006   1.985   8.078  1.00  0.00    -0.246 OA
BRANCH  50  52
ATOM     52  C   UNL     1       0.170   1.212   7.450  1.00  0.00     0.060 A 
ATOM     53  C   UNL     1       0.940   0.960   6.311  1.00  0.00     0.016 A 
ATOM     54  C   UNL     1       0.736   1.154   8.732  1.00  0.00     0.016 A 
ATOM     55  C   UNL     1       2.269   0.591   6.468  1.00  0.00     0.010 A 
ATOM     56  C   UNL     1       2.057   0.749   8.887  1.00  0.00     0.010 A 
ATOM     57  C   UNL     1       2.820   0.459   7.754  1.00  0.00    -0.014 A 
BRANCH  57  58
ATOM     58  C   UNL     1       4.259   0.212   7.840  1.00  0.00     0.031 A 
ATOM     59  C   UNL     1       5.091   1.408   7.562  1.00  0.00     0.074 A 
ATOM     60  C   UNL     1       4.856  -0.909   8.285  1.00  0.00     0.049 A 
ATOM     61  N   UNL     1       5.943   1.603   6.611  1.00  0.00    -0.248 NA
ATOM     62  C   UNL     1       4.858   2.577   8.427  1.00  0.00     0.031 C 
ATOM     63  C   UNL     1       4.219  -1.999   9.017  1.00  0.00     0.029 A 
ATOM     64  N   UNL     1       6.180  -1.260   8.272  1.00  0.00    -0.354 N 
ATOM     65  C   UNL     1       6.500   2.851   6.873  1.00  0.00     0.074 A 
ATOM     66  C   UNL     1       5.682   3.469   7.885  1.00  0.00     0.031 C 
ATOM     67  C   UNL     1       5.173  -2.814   9.517  1.00  0.00     0.029 A 
ATOM     68  C   UNL     1       6.480  -2.350   9.078  1.00  0.00     0.049 A 
ATOM     69  H   UNL     1       6.857  -0.783   7.740  1.00  0.00     0.167 HD
ATOM     70  C   UNL     1       7.727   3.220   6.421  1.00  0.00     0.031 A 
ATOM     71  C   UNL     1       7.705  -2.796   9.453  1.00  0.00     0.031 A 
ATOM     72  C   UNL     1       8.207   2.377   5.363  1.00  0.00     0.049 A 
ATOM     73  C   UNL     1       8.733  -2.182   8.579  1.00  0.00     0.074 A 
ATOM     74  C   UNL     1       7.772   2.061   4.093  1.00  0.00     0.029 A 
ATOM     75  N   UNL     1       9.178   1.463   5.687  1.00  0.00    -0.354 N 
ATOM     76  N   UNL     1       8.929  -2.473   7.324  1.00  0.00    -0.248 NA
ATOM     77  C   UNL     1       9.392  -0.972   9.049  1.00  0.00     0.031 C 
ATOM     78  C   UNL     1       8.250   0.746   3.840  1.00  0.00     0.029 A 
ATOM     79  C   UNL     1       8.959   0.319   4.963  1.00  0.00     0.049 A 
ATOM     80  H   UNL     1       9.909   1.604   6.331  1.00  0.00     0.167 HD
ATOM     81  C   UNL     1       9.430  -1.310   6.758  1.00  0.00     0.074 A 
ATOM     82  C   UNL     1       9.788  -0.461   7.884  1.00  0.00     0.031 C 
ATOM     83  C   UNL     1       9.257  -1.020   5.436  1.00  0.00     0.031 A 
BRANCH  70  84
ATOM     84  C   UNL     1       8.628   4.156   7.189  1.00  0.00    -0.014 A 
ATOM     85  C   UNL     1       8.488   4.370   8.578  1.00  0.00     0.010 A 
ATOM     86  C   UNL     1       9.790   4.664   6.580  1.00  0.00     0.010 A 
ATOM     87  C   UNL     1       9.420   5.097   9.316  1.00  0.00     0.020 A 
ATOM     88  C   UNL     1      10.763   5.349   7.324  1.00  0.00     0.020 A 
ATOM     89  C   UNL     1      10.563   5.572   8.687  1.00  0.00     0.054 A 
BRANCH  89  90
ATOM     90  S   UNL     1      11.816   6.385   9.708  1.00  0.00     0.124 S 
ATOM     91  O   UNL     1      11.192   7.679   9.970  1.00  0.00    -0.237 OA
ATOM     92  O   UNL     1      11.915   5.489  10.857  1.00  0.00    -0.237 OA
ATOM     93  O   UNL     1      12.991   6.418   8.842  1.00  0.00    -0.744 OA
ENDBRANCH  89  90
ENDBRANCH  70  84
BRANCH  71  94
ATOM     94  C   UNL     1       8.060  -3.453  10.741  1.00  0.00    -0.014 A 
ATOM     95  C   UNL     1       7.282  -3.205  11.891  1.00  0.00     0.010 A 
ATOM     96  C   UNL     1       9.295  -4.106  10.917  1.00  0.00     0.010 A 
ATOM     97  C   UNL     1       7.730  -3.546  13.168  1.00  0.00     0.020 A 
ATOM     98  C   UNL     1       9.761  -4.437  12.203  1.00  0.00     0.020 A 
ATOM     99  C   UNL     1       8.986  -4.124  13.321  1.00  0.00     0.054 A 
BRANCH  99 100
ATOM    100  S   UNL     1       9.605  -4.351  15.010  1.00  0.00     0.124 S 
ATOM    101  O   UNL     1       9.738  -2.971  15.470  1.00  0.00    -0.237 OA
ATOM    102  O   UNL     1       8.531  -5.117  15.639  1.00  0.00    -0.237 OA
ATOM    103  O   UNL     1      10.861  -5.074  14.828  1.00  0.00    -0.744 OA
ENDBRANCH  99 100
ENDBRANCH  71  94
BRANCH  83 104
ATOM    104  C   UNL     1       9.131  -2.150   4.444  1.00  0.00    -0.014 A 
ATOM    105  C   UNL     1       9.996  -2.111   3.333  1.00  0.00     0.010 A 
ATOM    106  C   UNL     1       8.183  -3.185   4.513  1.00  0.00     0.010 A 
ATOM    107  C   UNL     1       9.947  -3.090   2.339  1.00  0.00     0.020 A 
ATOM    108  C   UNL     1       8.139  -4.183   3.526  1.00  0.00     0.020 A 
ATOM    109  C   UNL     1       9.034  -4.137   2.453  1.00  0.00     0.054 A 
BRANCH 109 110
ATOM    110  S   UNL     1       9.008  -5.411   1.160  1.00  0.00     0.124 S 
ATOM    111  O   UNL     1       9.272  -4.652  -0.063  1.00  0.00    -0.237 OA
ATOM    112  O   UNL     1      10.087  -6.301   1.578  1.00  0.00    -0.237 OA
ATOM    113  O   UNL     1       7.662  -5.976   1.243  1.00  0.00    -0.744 OA
ENDBRANCH 109 110
ENDBRANCH  83 104
ENDBRANCH  57  58
ENDBRANCH  50  52
ENDBRANCH  49  50
ENDBRANCH  48  49
ENDBRANCH  47  48
ENDBRANCH  46  47
ENDBRANCH  45  46
ENDBRANCH  44  45
ENDBRANCH  43  44
ENDBRANCH   1  43
TORSDOF 29
