REMARK SMILES Cc1ccc(NC(=O)[C@H]2CC(Cl)=CC[C@@H]2C(=O)OCCOCCOCCOCCOC(=O)c2ccc(-c3c4nc(c(-c5ccc(S(=O)(=O)[O-])cc5)c5ccc([nH]5)c(-c5ccc(S(=O)(=O)[O-])cc5)c5nc(c(-c6ccc(S(=O)(=O)[O-])cc6)c6ccc3[nH]6)C=C5)C=C4)cc2)cc1[N+](=O)[O-]
REMARK SMILES IDX 24 1 23 2 22 3 21 4 20 5 19 6 18 7 16 8 17 9 15 10 9 11
REMARK SMILES IDX 10 12 11 13 14 14 12 15 13 16 7 17 6 18 8 20 5 21 1 22 2 23
REMARK SMILES IDX 3 24 94 25 4 26 93 27 95 28 96 29 97 30 25 31 26 32 27 33
REMARK SMILES IDX 28 34 29 35 30 36 31 37 32 38 33 39 34 40 92 41 35 42 91 43
REMARK SMILES IDX 36 44 37 45 38 46 85 47 39 48 90 49 84 50 86 51 40 52 89 53
REMARK SMILES IDX 83 54 82 55 41 57 71 58 52 59 70 60 53 61 56 62 69 63 87 64
REMARK SMILES IDX 54 65 55 66 68 68 88 69 57 70 42 71 43 72 51 73 44 74 50 75
REMARK SMILES IDX 45 76 46 77 47 78 48 79 49 80 72 81 73 82 81 83 74 84 80 85
REMARK SMILES IDX 75 86 76 87 77 88 78 89 79 90 58 91 59 92 67 93 60 94 66 95
REMARK SMILES IDX 61 96 62 97 63 98 64 99 65 100
REMARK H PARENT 6 19 86 56 56 67
REMARK Flexibility Score: inf
ROOT
ATOM      1  O   UNL     1      -0.876  -2.514   3.641  1.00  0.00    -0.377 OA
ENDROOT
BRANCH   1   2
ATOM      2  C   UNL     1      -0.962  -3.241   2.451  1.00  0.00     0.188 C 
BRANCH   2   3
ATOM      3  C   UNL     1       0.123  -2.756   1.514  1.00  0.00     0.188 C 
BRANCH   3   4
ATOM      4  O   UNL     1       0.203  -1.109   1.534  1.00  0.00    -0.376 OA
BRANCH   4   5
ATOM      5  C   UNL     1       0.402   0.189   0.154  1.00  0.00     0.202 C 
BRANCH   5   6
ATOM      6  C   UNL     1      -0.572   0.721  -1.876  1.00  0.00     0.261 C 
BRANCH   6   7
ATOM      7  O   UNL     1      -1.168  -0.643  -3.133  1.00  0.00    -0.463 OA
BRANCH   7   8
ATOM      8  C   UNL     1      -1.807  -2.254  -3.214  1.00  0.00     0.310 C 
ATOM      9  O   UNL     1      -1.328  -3.063  -4.008  1.00  0.00    -0.252 OA
BRANCH   8  10
ATOM     10  C   UNL     1      -3.142  -3.119  -2.186  1.00  0.00     0.116 C 
ATOM     11  C   UNL     1      -3.446  -3.192  -0.406  1.00  0.00     0.098 C 
ATOM     12  C   UNL     1      -4.434  -4.284  -0.006  1.00  0.00     0.062 C 
ATOM     13  C   UNL     1      -3.895  -5.583  -0.482  1.00  0.00     0.015 C 
ATOM     14  C   UNL     1      -3.236  -4.608  -2.700  1.00  0.00     0.044 C 
ATOM     15  Cl  UNL     1      -3.857  -6.867   0.668  1.00  0.00    -0.089 Cl
ATOM     16  C   UNL     1      -3.328  -5.715  -1.684  1.00  0.00    -0.010 C 
BRANCH  11  17
ATOM     17  C   UNL     1      -3.855  -1.975   0.568  1.00  0.00     0.228 C 
ATOM     18  N   UNL     1      -2.900  -1.174   1.187  1.00  0.00    -0.326 N 
ATOM     19  H   UNL     1      -3.135  -0.750   2.044  1.00  0.00     0.169 HD
ATOM     20  O   UNL     1      -5.043  -1.669   0.718  1.00  0.00    -0.274 OA
BRANCH  18  21
ATOM     21  C   UNL     1      -1.589  -0.932   0.647  1.00  0.00     0.048 A 
ATOM     22  C   UNL     1       2.545   0.469  -2.436  1.00  0.00     0.052 C 
ATOM     23  C   UNL     1       1.163   0.178  -1.791  1.00  0.00     0.027 A 
ATOM     24  C   UNL     1       0.258  -1.571  -2.078  1.00  0.00     0.012 A 
ATOM     25  C   UNL     1       0.385   1.691  -0.727  1.00  0.00     0.274 A 
ATOM     26  C   UNL     1      -0.960  -2.324  -0.672  1.00  0.00     0.027 A 
ATOM     27  C   UNL     1      -1.101   1.031   0.454  1.00  0.00     0.112 A 
BRANCH  25  28
ATOM     28  N   UNL     1       1.031   3.012  -0.763  1.00  0.00     0.063 N 
ATOM     29  O   UNL     1       0.339   3.995  -0.538  1.00  0.00    -0.258 OA
ATOM     30  O   UNL     1       2.224   3.077  -1.079  1.00  0.00    -0.258 OA
ENDBRANCH  25  28
ENDBRANCH  18  21
ENDBRANCH  11  17
ENDBRANCH   8  10
ENDBRANCH   7   8
ENDBRANCH   6   7
ENDBRANCH   5   6
ENDBRANCH   4   5
ENDBRANCH   3   4
ENDBRANCH   2   3
ENDBRANCH   1   2
BRANCH   1  31
ATOM     31  C   UNL     1       0.458  -2.154   3.960  1.00  0.00     0.188 C 
BRANCH  31  32
ATOM     32  C   UNL     1       1.011  -2.156   5.372  1.00  0.00     0.188 C 
BRANCH  32  33
ATOM     33  O   UNL     1       0.143  -2.811   6.239  1.00  0.00    -0.376 OA
BRANCH  33  34
ATOM     34  C   UNL     1      -1.134  -2.212   6.040  1.00  0.00     0.202 C 
BRANCH  34  35
ATOM     35  C   UNL     1      -1.176  -0.626   5.604  1.00  0.00     0.261 C 
BRANCH  35  36
ATOM     36  O   UNL     1       0.029   0.352   4.889  1.00  0.00    -0.460 OA
BRANCH  36  37
ATOM     37  C   UNL     1       1.078   0.988   4.213  1.00  0.00     0.338 C 
ATOM     38  O   UNL     1       1.182   2.216   4.310  1.00  0.00    -0.246 OA
BRANCH  37  39
ATOM     39  C   UNL     1       2.168   0.444   3.176  1.00  0.00     0.060 A 
ATOM     40  C   UNL     1       2.643   1.169   2.088  1.00  0.00     0.016 A 
ATOM     41  C   UNL     1       2.724  -0.806   3.082  1.00  0.00     0.016 A 
ATOM     42  C   UNL     1       2.909   0.451   0.824  1.00  0.00     0.010 A 
ATOM     43  C   UNL     1       2.720  -1.485   1.811  1.00  0.00     0.010 A 
ATOM     44  C   UNL     1       2.303  -0.856   0.640  1.00  0.00    -0.014 A 
BRANCH  44  45
ATOM     45  C   UNL     1       0.696  -1.415  -0.360  1.00  0.00     0.031 A 
ATOM     46  C   UNL     1       1.966  -2.517  -1.135  1.00  0.00     0.074 A 
ATOM     47  C   UNL     1      -0.989  -0.657  -0.979  1.00  0.00     0.049 A 
ATOM     48  N   UNL     1       2.486  -2.194  -2.310  1.00  0.00    -0.248 NA
ATOM     49  C   UNL     1       2.746  -3.600  -0.536  1.00  0.00     0.031 C 
ATOM     50  C   UNL     1      -2.671  -0.909  -1.804  1.00  0.00     0.029 A 
ATOM     51  N   UNL     1      -2.445   0.468  -0.778  1.00  0.00    -0.354 N 
ATOM     52  C   UNL     1       3.055  -3.303  -2.802  1.00  0.00     0.074 A 
ATOM     53  C   UNL     1       3.528  -3.927  -1.580  1.00  0.00     0.031 C 
ATOM     54  C   UNL     1      -3.426  -0.015  -2.535  1.00  0.00     0.029 A 
ATOM     55  C   UNL     1      -3.263   1.094  -1.730  1.00  0.00     0.049 A 
ATOM     56  H   UNL     1      -2.686   0.661   0.157  1.00  0.00     0.167 HD
ATOM     57  C   UNL     1       2.751  -3.758  -4.063  1.00  0.00     0.031 A 
ATOM     58  C   UNL     1      -3.219   2.434  -1.922  1.00  0.00     0.031 A 
ATOM     59  C   UNL     1       1.677  -2.963  -4.889  1.00  0.00     0.049 A 
ATOM     60  C   UNL     1      -2.320   2.436  -3.419  1.00  0.00     0.074 A 
ATOM     61  C   UNL     1       0.587  -3.348  -5.664  1.00  0.00     0.029 A 
ATOM     62  N   UNL     1       1.496  -1.535  -4.892  1.00  0.00    -0.354 N 
ATOM     63  N   UNL     1      -1.971   1.315  -4.090  1.00  0.00    -0.248 NA
ATOM     64  C   UNL     1      -1.709   3.554  -4.134  1.00  0.00     0.031 C 
ATOM     65  C   UNL     1      -0.243  -2.195  -6.018  1.00  0.00     0.029 A 
ATOM     66  C   UNL     1       0.231  -1.028  -5.409  1.00  0.00     0.049 A 
ATOM     67  H   UNL     1       2.196  -0.928  -4.560  1.00  0.00     0.167 HD
ATOM     68  C   UNL     1      -0.947   1.455  -5.043  1.00  0.00     0.074 A 
ATOM     69  C   UNL     1      -0.960   2.945  -5.101  1.00  0.00     0.031 C 
ATOM     70  C   UNL     1      -0.087   0.494  -5.694  1.00  0.00     0.031 A 
BRANCH  57  71
ATOM     71  C   UNL     1       3.234  -5.207  -4.349  1.00  0.00    -0.014 A 
ATOM     72  C   UNL     1       2.589  -6.040  -5.270  1.00  0.00     0.010 A 
ATOM     73  C   UNL     1       4.353  -5.809  -3.702  1.00  0.00     0.010 A 
ATOM     74  C   UNL     1       2.987  -7.375  -5.497  1.00  0.00     0.020 A 
ATOM     75  C   UNL     1       4.730  -7.153  -3.867  1.00  0.00     0.020 A 
ATOM     76  C   UNL     1       4.053  -7.927  -4.790  1.00  0.00     0.054 A 
BRANCH  76  77
ATOM     77  S   UNL     1       4.610  -9.605  -5.181  1.00  0.00     0.124 S 
ATOM     78  O   UNL     1       3.429 -10.410  -4.880  1.00  0.00    -0.237 OA
ATOM     79  O   UNL     1       4.956  -9.492  -6.595  1.00  0.00    -0.237 OA
ATOM     80  O   UNL     1       5.745  -9.815  -4.283  1.00  0.00    -0.744 OA
ENDBRANCH  76  77
ENDBRANCH  57  71
BRANCH  58  81
ATOM     81  C   UNL     1      -3.213   3.046  -0.313  1.00  0.00    -0.014 A 
ATOM     82  C   UNL     1      -4.095   2.365   0.641  1.00  0.00     0.010 A 
ATOM     83  C   UNL     1      -2.337   3.899   0.415  1.00  0.00     0.010 A 
ATOM     84  C   UNL     1      -3.966   2.341   2.087  1.00  0.00     0.020 A 
ATOM     85  C   UNL     1      -2.193   3.898   1.906  1.00  0.00     0.020 A 
ATOM     86  C   UNL     1      -3.002   3.103   2.732  1.00  0.00     0.054 A 
BRANCH  86  87
ATOM     87  S   UNL     1      -2.836   2.967   4.590  1.00  0.00     0.124 S 
ATOM     88  O   UNL     1      -3.726   4.023   5.061  1.00  0.00    -0.237 OA
ATOM     89  O   UNL     1      -3.304   1.608   4.869  1.00  0.00    -0.237 OA
ATOM     90  O   UNL     1      -1.425   3.196   4.852  1.00  0.00    -0.744 OA
ENDBRANCH  86  87
ENDBRANCH  58  81
BRANCH  70  91
ATOM     91  C   UNL     1       0.564   0.857  -7.036  1.00  0.00    -0.014 A 
ATOM     92  C   UNL     1       0.032   1.812  -7.905  1.00  0.00     0.010 A 
ATOM     93  C   UNL     1       1.598   0.036  -7.570  1.00  0.00     0.010 A 
ATOM     94  C   UNL     1       0.616   2.050  -9.153  1.00  0.00     0.020 A 
ATOM     95  C   UNL     1       2.140   0.209  -8.835  1.00  0.00     0.020 A 
ATOM     96  C   UNL     1       1.678   1.260  -9.598  1.00  0.00     0.054 A 
BRANCH  96  97
ATOM     97  S   UNL     1       2.431   1.603 -11.194  1.00  0.00     0.124 S 
ATOM     98  O   UNL     1       1.269   1.699 -12.074  1.00  0.00    -0.237 OA
ATOM     99  O   UNL     1       3.125   2.860 -10.924  1.00  0.00    -0.237 OA
ATOM    100  O   UNL     1       3.297   0.451 -11.432  1.00  0.00    -0.744 OA
ENDBRANCH  96  97
ENDBRANCH  70  91
ENDBRANCH  44  45
ENDBRANCH  37  39
ENDBRANCH  36  37
ENDBRANCH  35  36
ENDBRANCH  34  35
ENDBRANCH  33  34
ENDBRANCH  32  33
ENDBRANCH  31  32
ENDBRANCH   1  31
TORSDOF 26
