REMARK SMILES CC1(C)NC(=O)N(CCC(=O)N2CCC[C@H]2C(=O)OCCOCCOCCOCCOC(=O)c2ccc(-c3c4nc(c(-c5ccc(S(=O)(=O)[O-])cc5)c5ccc([nH]5)c(-c5ccc(S(=O)(=O)[O-])cc5)c5nc(c(-c6ccc(S(=O)(=O)[O-])cc6)c6ccc3[nH]6)C=C5)C=C4)cc2)C1=O
REMARK SMILES IDX 24 1 23 2 22 3 21 4 20 5 19 6 17 7 18 8 16 9 12 10 13 11
REMARK SMILES IDX 14 12 15 13 10 14 11 15 9 16 8 17 7 18 1 19 2 20 3 21 4 22
REMARK SMILES IDX 94 23 5 24 95 26 6 27 25 28 26 29 27 30 28 31 29 32 30 33
REMARK SMILES IDX 31 34 32 35 33 36 34 37 35 38 93 39 36 40 92 41 37 42 38 43
REMARK SMILES IDX 39 44 86 45 40 46 91 47 85 48 87 49 41 50 90 51 84 52 83 53
REMARK SMILES IDX 42 55 72 56 53 57 71 58 54 59 57 60 70 61 88 62 55 63 56 64
REMARK SMILES IDX 69 66 89 67 58 68 43 69 44 70 52 71 45 72 51 73 46 74 47 75
REMARK SMILES IDX 48 76 49 77 50 78 73 79 74 80 82 81 75 82 81 83 76 84 77 85
REMARK SMILES IDX 78 86 79 87 80 88 59 89 60 90 68 91 61 92 67 93 62 94 63 95
REMARK SMILES IDX 64 96 65 97 66 98
REMARK H PARENT 4 25 87 54 57 65
REMARK Flexibility Score: inf
ROOT
ATOM      1  C   UNL     1      -1.083   0.120   4.791  1.00  0.00     0.188 C 
ENDROOT
BRANCH   1   2
ATOM      2  C   UNL     1      -0.473   0.650   3.486  1.00  0.00     0.188 C 
BRANCH   2   3
ATOM      3  O   UNL     1      -1.411   1.345   2.672  1.00  0.00    -0.376 OA
BRANCH   3   4
ATOM      4  C   UNL     1      -2.288   0.589   1.842  1.00  0.00     0.202 C 
BRANCH   4   5
ATOM      5  C   UNL     1      -2.869  -0.763   2.297  1.00  0.00     0.261 C 
BRANCH   5   6
ATOM      6  O   UNL     1      -1.930  -1.695   2.870  1.00  0.00    -0.462 OA
BRANCH   6   7
ATOM      7  C   UNL     1      -1.152  -2.451   2.070  1.00  0.00     0.328 C 
ATOM      8  O   UNL     1      -1.198  -2.436   0.846  1.00  0.00    -0.250 OA
BRANCH   7   9
ATOM      9  C   UNL     1      -0.252  -3.416   2.874  1.00  0.00     0.195 C 
ATOM     10  N   UNL     1      -0.048  -3.236   4.326  1.00  0.00    -0.329 N 
ATOM     11  C   UNL     1      -0.975  -4.121   5.016  1.00  0.00     0.120 C 
ATOM     12  C   UNL     1      -1.002  -5.364   4.151  1.00  0.00     0.024 C 
ATOM     13  C   UNL     1      -0.868  -4.822   2.733  1.00  0.00     0.039 C 
BRANCH  10  14
ATOM     14  C   UNL     1       1.243  -3.105   4.852  1.00  0.00     0.225 C 
ATOM     15  O   UNL     1       1.768  -3.990   5.531  1.00  0.00    -0.275 OA
BRANCH  14  16
ATOM     16  C   UNL     1       1.896  -1.729   4.771  1.00  0.00     0.122 C 
BRANCH  16  17
ATOM     17  C   UNL     1       3.058  -1.486   3.812  1.00  0.00     0.140 C 
BRANCH  17  18
ATOM     18  N   UNL     1       2.704  -1.350   2.406  1.00  0.00    -0.262 N 
ATOM     19  C   UNL     1       3.172   0.120  -0.702  1.00  0.00     0.045 C 
ATOM     20  C   UNL     1       2.164  -0.497   0.253  1.00  0.00     0.115 C 
ATOM     21  C   UNL     1       0.748  -0.092  -0.116  1.00  0.00     0.045 C 
ATOM     22  N   UNL     1       2.317  -1.931   0.299  1.00  0.00    -0.324 N 
ATOM     23  C   UNL     1       2.487  -0.173   1.731  1.00  0.00     0.255 C 
ATOM     24  C   UNL     1       2.720  -2.385   1.527  1.00  0.00     0.325 C 
ATOM     25  H   UNL     1       2.149  -2.522  -0.471  1.00  0.00     0.166 HD
ATOM     26  O   UNL     1       2.551   0.952   2.207  1.00  0.00    -0.272 OA
ATOM     27  O   UNL     1       3.017  -3.544   1.760  1.00  0.00    -0.248 OA
ENDBRANCH  17  18
ENDBRANCH  16  17
ENDBRANCH  14  16
ENDBRANCH  10  14
ENDBRANCH   7   9
ENDBRANCH   6   7
ENDBRANCH   5   6
ENDBRANCH   4   5
ENDBRANCH   3   4
ENDBRANCH   2   3
ENDBRANCH   1   2
BRANCH   1  28
ATOM     28  O   UNL     1      -2.403   0.597   4.931  1.00  0.00    -0.377 OA
BRANCH  28  29
ATOM     29  C   UNL     1      -2.509   1.754   5.734  1.00  0.00     0.188 C 
BRANCH  29  30
ATOM     30  C   UNL     1      -1.474   2.884   5.563  1.00  0.00     0.188 C 
BRANCH  30  31
ATOM     31  O   UNL     1      -0.144   2.493   5.934  1.00  0.00    -0.376 OA
BRANCH  31  32
ATOM     32  C   UNL     1       0.342   2.985   7.180  1.00  0.00     0.202 C 
BRANCH  32  33
ATOM     33  C   UNL     1      -0.002   2.094   8.384  1.00  0.00     0.261 C 
BRANCH  33  34
ATOM     34  O   UNL     1      -1.403   1.926   8.651  1.00  0.00    -0.460 OA
BRANCH  34  35
ATOM     35  C   UNL     1      -2.149   3.037   8.855  1.00  0.00     0.338 C 
ATOM     36  O   UNL     1      -1.736   4.178   8.975  1.00  0.00    -0.246 OA
BRANCH  35  37
ATOM     37  C   UNL     1      -3.570   2.667   8.633  1.00  0.00     0.060 A 
ATOM     38  C   UNL     1      -4.340   3.484   7.792  1.00  0.00     0.016 A 
ATOM     39  C   UNL     1      -4.096   1.462   9.114  1.00  0.00     0.016 A 
ATOM     40  C   UNL     1      -5.638   3.103   7.443  1.00  0.00     0.010 A 
ATOM     41  C   UNL     1      -5.407   1.097   8.792  1.00  0.00     0.010 A 
ATOM     42  C   UNL     1      -6.192   1.933   7.981  1.00  0.00    -0.014 A 
BRANCH  42  43
ATOM     43  C   UNL     1      -7.666   1.771   7.971  1.00  0.00     0.031 A 
ATOM     44  C   UNL     1      -8.421   2.448   9.085  1.00  0.00     0.074 A 
ATOM     45  C   UNL     1      -8.324   1.079   7.024  1.00  0.00     0.049 A 
ATOM     46  N   UNL     1      -9.707   2.494   9.312  1.00  0.00    -0.248 NA
ATOM     47  C   UNL     1      -7.606   3.176  10.075  1.00  0.00     0.031 C 
ATOM     48  C   UNL     1      -7.715   0.404   5.880  1.00  0.00     0.029 A 
ATOM     49  N   UNL     1      -9.668   0.832   6.885  1.00  0.00    -0.354 N 
ATOM     50  C   UNL     1      -9.853   3.271  10.455  1.00  0.00     0.074 A 
ATOM     51  C   UNL     1      -8.529   3.643  10.898  1.00  0.00     0.031 C 
ATOM     52  C   UNL     1      -8.685  -0.193   5.161  1.00  0.00     0.029 A 
ATOM     53  C   UNL     1      -9.979   0.042   5.803  1.00  0.00     0.049 A 
ATOM     54  H   UNL     1     -10.347   1.187   7.503  1.00  0.00     0.167 HD
ATOM     55  C   UNL     1     -10.987   3.649  11.085  1.00  0.00     0.031 A 
ATOM     56  C   UNL     1     -11.169  -0.442   5.392  1.00  0.00     0.031 A 
ATOM     57  C   UNL     1     -12.300   3.231  10.687  1.00  0.00     0.049 A 
ATOM     58  C   UNL     1     -12.418  -0.084   6.161  1.00  0.00     0.074 A 
ATOM     59  C   UNL     1     -13.514   3.533  11.274  1.00  0.00     0.029 A 
ATOM     60  N   UNL     1     -12.565   2.402   9.609  1.00  0.00    -0.354 N 
ATOM     61  N   UNL     1     -12.544   0.679   7.223  1.00  0.00    -0.248 NA
ATOM     62  C   UNL     1     -13.687  -0.645   5.672  1.00  0.00     0.031 C 
ATOM     63  C   UNL     1     -14.513   2.845  10.577  1.00  0.00     0.029 A 
ATOM     64  C   UNL     1     -13.924   2.163   9.523  1.00  0.00     0.049 A 
ATOM     65  H   UNL     1     -11.887   2.038   8.995  1.00  0.00     0.167 HD
ATOM     66  C   UNL     1     -13.906   0.707   7.512  1.00  0.00     0.074 A 
ATOM     67  C   UNL     1     -14.563  -0.104   6.508  1.00  0.00     0.031 C 
ATOM     68  C   UNL     1     -14.556   1.349   8.516  1.00  0.00     0.031 A 
BRANCH  55  69
ATOM     69  C   UNL     1     -10.828   4.525  12.295  1.00  0.00    -0.014 A 
ATOM     70  C   UNL     1     -10.438   5.871  12.164  1.00  0.00     0.010 A 
ATOM     71  C   UNL     1     -11.039   3.991  13.578  1.00  0.00     0.010 A 
ATOM     72  C   UNL     1     -10.219   6.655  13.299  1.00  0.00     0.020 A 
ATOM     73  C   UNL     1     -10.845   4.780  14.714  1.00  0.00     0.020 A 
ATOM     74  C   UNL     1     -10.416   6.101  14.567  1.00  0.00     0.054 A 
BRANCH  74  75
ATOM     75  S   UNL     1     -10.123   7.139  16.025  1.00  0.00     0.124 S 
ATOM     76  O   UNL     1      -8.664   7.191  16.067  1.00  0.00    -0.237 OA
ATOM     77  O   UNL     1     -10.785   8.391  15.667  1.00  0.00    -0.237 OA
ATOM     78  O   UNL     1     -10.752   6.394  17.112  1.00  0.00    -0.744 OA
ENDBRANCH  74  75
ENDBRANCH  55  69
BRANCH  56  79
ATOM     79  C   UNL     1     -11.243  -1.338   4.203  1.00  0.00    -0.014 A 
ATOM     80  C   UNL     1     -11.829  -0.900   3.001  1.00  0.00     0.010 A 
ATOM     81  C   UNL     1     -10.729  -2.646   4.272  1.00  0.00     0.010 A 
ATOM     82  C   UNL     1     -11.905  -1.756   1.896  1.00  0.00     0.020 A 
ATOM     83  C   UNL     1     -10.783  -3.496   3.162  1.00  0.00     0.020 A 
ATOM     84  C   UNL     1     -11.378  -3.047   1.982  1.00  0.00     0.054 A 
BRANCH  84  85
ATOM     85  S   UNL     1     -11.426  -4.117   0.516  1.00  0.00     0.124 S 
ATOM     86  O   UNL     1     -12.830  -4.512   0.472  1.00  0.00    -0.237 OA
ATOM     87  O   UNL     1     -10.987  -3.217  -0.547  1.00  0.00    -0.237 OA
ATOM     88  O   UNL     1     -10.483  -5.185   0.844  1.00  0.00    -0.744 OA
ENDBRANCH  84  85
ENDBRANCH  56  79
BRANCH  68  89
ATOM     89  C   UNL     1     -16.055   1.230   8.568  1.00  0.00    -0.014 A 
ATOM     90  C   UNL     1     -16.678   0.045   8.997  1.00  0.00     0.010 A 
ATOM     91  C   UNL     1     -16.849   2.351   8.262  1.00  0.00     0.010 A 
ATOM     92  C   UNL     1     -18.070  -0.024   9.094  1.00  0.00     0.020 A 
ATOM     93  C   UNL     1     -18.239   2.293   8.382  1.00  0.00     0.020 A 
ATOM     94  C   UNL     1     -18.842   1.101   8.785  1.00  0.00     0.054 A 
BRANCH  94  95
ATOM     95  S   UNL     1     -20.644   1.003   8.969  1.00  0.00     0.124 S 
ATOM     96  O   UNL     1     -21.026   0.219   7.798  1.00  0.00    -0.237 OA
ATOM     97  O   UNL     1     -20.801   0.329  10.256  1.00  0.00    -0.237 OA
ATOM     98  O   UNL     1     -21.070   2.401   8.949  1.00  0.00    -0.744 OA
ENDBRANCH  94  95
ENDBRANCH  68  89
ENDBRANCH  42  43
ENDBRANCH  35  37
ENDBRANCH  34  35
ENDBRANCH  33  34
ENDBRANCH  32  33
ENDBRANCH  31  32
ENDBRANCH  30  31
ENDBRANCH  29  30
ENDBRANCH  28  29
ENDBRANCH   1  28
TORSDOF 27
