REMARK SMILES NS(=O)(=O)c1ccc(-n2nc(C(=O)OCCOCCOCCOCCOC(=O)c3ccc(-c4c5nc(c(-c6ccc(S(=O)(=O)[O-])cc6)c6ccc([nH]6)c(-c6ccc(S(=O)(=O)[O-])cc6)c6nc(c(-c7ccc(S(=O)(=O)[O-])cc7)c7ccc4[nH]7)C=C6)C=C5)cc3)cc2-c2cc3ccccc3s2)cc1
REMARK SMILES IDX 20 1 19 2 18 3 17 4 16 5 15 6 14 7 12 8 13 9 11 10 9 11
REMARK SMILES IDX 10 12 90 13 89 14 8 15 5 16 6 17 101 18 7 19 100 20 2 21
REMARK SMILES IDX 3 22 4 23 1 24 91 27 92 28 99 29 93 30 98 31 94 32 97 33
REMARK SMILES IDX 95 34 96 35 21 36 22 37 23 38 24 39 25 40 26 41 27 42 28 43
REMARK SMILES IDX 29 44 30 45 88 46 31 47 87 48 32 49 33 50 34 51 81 52 35 53
REMARK SMILES IDX 86 54 80 55 82 56 36 57 85 58 79 59 78 60 37 62 67 63 48 64
REMARK SMILES IDX 66 65 49 66 52 67 65 68 83 69 50 70 51 71 64 73 84 74 53 75
REMARK SMILES IDX 38 76 39 77 47 78 40 79 46 80 41 81 42 82 43 83 44 84 45 85
REMARK SMILES IDX 68 86 69 87 77 88 70 89 76 90 71 91 72 92 73 93 74 94 75 95
REMARK SMILES IDX 54 96 55 97 63 98 56 99 62 100 57 101 58 102 59 103 60 104
REMARK SMILES IDX 61 105
REMARK H PARENT 1 25 1 26 82 61 52 72
REMARK Flexibility Score: inf
ROOT
ATOM      1  O   UNL     1       1.489  11.479  -2.606  1.00  0.00    -0.377 OA
ENDROOT
BRANCH   1   2
ATOM      2  C   UNL     1       0.977  10.260  -2.092  1.00  0.00     0.188 C 
BRANCH   2   3
ATOM      3  C   UNL     1       1.253   9.993  -0.591  1.00  0.00     0.188 C 
BRANCH   3   4
ATOM      4  O   UNL     1       2.059  10.842   0.227  1.00  0.00    -0.376 OA
BRANCH   4   5
ATOM      5  C   UNL     1       2.996  11.754  -0.320  1.00  0.00     0.202 C 
BRANCH   5   6
ATOM      6  C   UNL     1       4.242  11.187  -1.003  1.00  0.00     0.261 C 
BRANCH   6   7
ATOM      7  O   UNL     1       3.991  10.023  -1.783  1.00  0.00    -0.458 OA
BRANCH   7   8
ATOM      8  C   UNL     1       4.019   8.836  -1.104  1.00  0.00     0.358 C 
ATOM      9  O   UNL     1       4.428   8.694   0.042  1.00  0.00    -0.244 OA
BRANCH   8  10
ATOM     10  C   UNL     1       3.471   7.760  -1.937  1.00  0.00     0.171 A 
ATOM     11  N   UNL     1       2.803   5.837  -2.592  1.00  0.00    -0.231 N 
ATOM     12  N   UNL     1       2.965   6.603  -1.477  1.00  0.00    -0.160 NA
ATOM     13  C   UNL     1       3.243   6.489  -3.720  1.00  0.00     0.085 A 
ATOM     14  C   UNL     1       3.360   7.809  -3.336  1.00  0.00     0.068 A 
BRANCH  11  15
ATOM     15  C   UNL     1       2.264   4.547  -2.458  1.00  0.00     0.065 A 
ATOM     16  C   UNL     1       1.228   2.021  -2.003  1.00  0.00     0.082 A 
ATOM     17  C   UNL     1       2.501   2.160  -2.572  1.00  0.00     0.024 A 
ATOM     18  C   UNL     1       0.456   3.140  -1.680  1.00  0.00     0.024 A 
ATOM     19  C   UNL     1       3.018   3.432  -2.820  1.00  0.00     0.030 A 
ATOM     20  C   UNL     1       0.991   4.412  -1.877  1.00  0.00     0.030 A 
BRANCH  16  21
ATOM     21  S   UNL     1       0.586   0.400  -1.712  1.00  0.00     0.238 S 
ATOM     22  O   UNL     1       1.211  -0.529  -2.627  1.00  0.00    -0.207 OA
ATOM     23  O   UNL     1      -0.843   0.467  -1.530  1.00  0.00    -0.207 OA
BRANCH  21  24
ATOM     24  N   UNL     1       1.224   0.047  -0.199  1.00  0.00    -0.225 NA
ATOM     25  H   UNL     1       0.920  -0.884   0.090  1.00  0.00     0.137 HD
ATOM     26  H   UNL     1       0.896   0.736   0.478  1.00  0.00     0.137 HD
ENDBRANCH  21  24
ENDBRANCH  16  21
ENDBRANCH  11  15
BRANCH  13  27
ATOM     27  C   UNL     1       3.664   6.003  -5.008  1.00  0.00     0.054 A 
ATOM     28  C   UNL     1       3.086   6.306  -6.238  1.00  0.00     0.031 A 
ATOM     29  S   UNL     1       5.389   6.145  -5.308  1.00  0.00    -0.134 S 
ATOM     30  C   UNL     1       3.772   7.492  -6.742  1.00  0.00    -0.007 A 
ATOM     31  C   UNL     1       5.020   7.641  -6.119  1.00  0.00     0.035 A 
ATOM     32  C   UNL     1       3.322   8.536  -7.580  1.00  0.00     0.009 A 
ATOM     33  C   UNL     1       5.745   8.842  -6.157  1.00  0.00     0.019 A 
ATOM     34  C   UNL     1       4.026   9.747  -7.606  1.00  0.00     0.001 A 
ATOM     35  C   UNL     1       5.194   9.911  -6.867  1.00  0.00     0.001 A 
ENDBRANCH  13  27
ENDBRANCH   8  10
ENDBRANCH   7   8
ENDBRANCH   6   7
ENDBRANCH   5   6
ENDBRANCH   4   5
ENDBRANCH   3   4
ENDBRANCH   2   3
ENDBRANCH   1   2
BRANCH   1  36
ATOM     36  C   UNL     1       0.521  12.522  -2.720  1.00  0.00     0.188 C 
BRANCH  36  37
ATOM     37  C   UNL     1      -0.225  12.898  -1.419  1.00  0.00     0.188 C 
BRANCH  37  38
ATOM     38  O   UNL     1      -0.783  11.780  -0.733  1.00  0.00    -0.376 OA
BRANCH  38  39
ATOM     39  C   UNL     1      -2.188  11.587  -0.707  1.00  0.00     0.202 C 
BRANCH  39  40
ATOM     40  C   UNL     1      -2.769  10.994  -1.986  1.00  0.00     0.261 C 
BRANCH  40  41
ATOM     41  O   UNL     1      -2.402  11.712  -3.151  1.00  0.00    -0.460 OA
BRANCH  41  42
ATOM     42  C   UNL     1      -2.783  13.004  -3.191  1.00  0.00     0.338 C 
ATOM     43  O   UNL     1      -3.301  13.654  -2.302  1.00  0.00    -0.246 OA
BRANCH  42  44
ATOM     44  C   UNL     1      -2.573  13.494  -4.553  1.00  0.00     0.060 A 
ATOM     45  C   UNL     1      -2.934  14.822  -4.785  1.00  0.00     0.016 A 
ATOM     46  C   UNL     1      -2.426  12.553  -5.582  1.00  0.00     0.016 A 
ATOM     47  C   UNL     1      -3.449  15.131  -6.018  1.00  0.00     0.010 A 
ATOM     48  C   UNL     1      -2.978  12.850  -6.795  1.00  0.00     0.010 A 
ATOM     49  C   UNL     1      -3.570  14.101  -6.951  1.00  0.00    -0.014 A 
BRANCH  49  50
ATOM     50  C   UNL     1      -4.374  14.334  -8.121  1.00  0.00     0.031 A 
ATOM     51  C   UNL     1      -3.632  14.943  -9.230  1.00  0.00     0.074 A 
ATOM     52  C   UNL     1      -5.640  13.892  -8.203  1.00  0.00     0.049 A 
ATOM     53  N   UNL     1      -3.715  16.159  -9.648  1.00  0.00    -0.248 NA
ATOM     54  C   UNL     1      -2.530  14.164  -9.815  1.00  0.00     0.031 C 
ATOM     55  C   UNL     1      -6.353  13.007  -7.278  1.00  0.00     0.029 A 
ATOM     56  N   UNL     1      -6.514  14.046  -9.227  1.00  0.00    -0.354 N 
ATOM     57  C   UNL     1      -2.827  16.231 -10.709  1.00  0.00     0.074 A 
ATOM     58  C   UNL     1      -1.966  15.081 -10.599  1.00  0.00     0.031 C 
ATOM     59  C   UNL     1      -7.453  12.523  -7.899  1.00  0.00     0.029 A 
ATOM     60  C   UNL     1      -7.571  13.150  -9.207  1.00  0.00     0.049 A 
ATOM     61  H   UNL     1      -6.407  14.734  -9.924  1.00  0.00     0.167 HD
ATOM     62  C   UNL     1      -3.050  17.052 -11.770  1.00  0.00     0.031 A 
ATOM     63  C   UNL     1      -8.411  12.889 -10.238  1.00  0.00     0.031 A 
ATOM     64  C   UNL     1      -4.090  18.011 -11.500  1.00  0.00     0.049 A 
ATOM     65  C   UNL     1      -8.305  14.020 -11.199  1.00  0.00     0.074 A 
ATOM     66  C   UNL     1      -4.275  18.996 -10.550  1.00  0.00     0.029 A 
ATOM     67  N   UNL     1      -5.332  17.756 -12.037  1.00  0.00    -0.354 N 
ATOM     68  N   UNL     1      -8.732  15.223 -10.937  1.00  0.00    -0.248 NA
ATOM     69  C   UNL     1      -7.327  13.938 -12.276  1.00  0.00     0.031 C 
ATOM     70  C   UNL     1      -5.668  18.973 -10.253  1.00  0.00     0.029 A 
ATOM     71  C   UNL     1      -6.271  18.012 -11.069  1.00  0.00     0.049 A 
ATOM     72  H   UNL     1      -5.515  17.445 -12.954  1.00  0.00     0.167 HD
ATOM     73  C   UNL     1      -7.781  16.072 -11.488  1.00  0.00     0.074 A 
ATOM     74  C   UNL     1      -7.014  15.232 -12.403  1.00  0.00     0.031 C 
ATOM     75  C   UNL     1      -7.524  17.296 -10.934  1.00  0.00     0.031 A 
BRANCH  62  76
ATOM     76  C   UNL     1      -2.614  16.702 -13.167  1.00  0.00    -0.014 A 
ATOM     77  C   UNL     1      -2.747  17.665 -14.182  1.00  0.00     0.010 A 
ATOM     78  C   UNL     1      -2.320  15.380 -13.568  1.00  0.00     0.010 A 
ATOM     79  C   UNL     1      -2.647  17.307 -15.532  1.00  0.00     0.020 A 
ATOM     80  C   UNL     1      -2.164  15.024 -14.904  1.00  0.00     0.020 A 
ATOM     81  C   UNL     1      -2.369  15.984 -15.881  1.00  0.00     0.054 A 
BRANCH  81  82
ATOM     82  S   UNL     1      -2.360  15.502 -17.622  1.00  0.00     0.124 S 
ATOM     83  O   UNL     1      -3.771  15.635 -17.972  1.00  0.00    -0.237 OA
ATOM     84  O   UNL     1      -1.461  16.489 -18.212  1.00  0.00    -0.237 OA
ATOM     85  O   UNL     1      -1.846  14.134 -17.594  1.00  0.00    -0.744 OA
ENDBRANCH  81  82
ENDBRANCH  62  76
BRANCH  63  86
ATOM     86  C   UNL     1      -9.078  11.606 -10.567  1.00  0.00    -0.014 A 
ATOM     87  C   UNL     1     -10.094  11.550 -11.537  1.00  0.00     0.010 A 
ATOM     88  C   UNL     1      -8.540  10.385 -10.111  1.00  0.00     0.010 A 
ATOM     89  C   UNL     1     -10.509  10.322 -12.078  1.00  0.00     0.020 A 
ATOM     90  C   UNL     1      -8.958   9.157 -10.633  1.00  0.00     0.020 A 
ATOM     91  C   UNL     1      -9.922   9.133 -11.636  1.00  0.00     0.054 A 
BRANCH  91  92
ATOM     92  S   UNL     1     -10.322   7.572 -12.472  1.00  0.00     0.124 S 
ATOM     93  O   UNL     1     -11.689   7.321 -12.025  1.00  0.00    -0.237 OA
ATOM     94  O   UNL     1     -10.169   7.919 -13.882  1.00  0.00    -0.237 OA
ATOM     95  O   UNL     1      -9.319   6.640 -11.957  1.00  0.00    -0.744 OA
ENDBRANCH  91  92
ENDBRANCH  63  86
BRANCH  75  96
ATOM     96  C   UNL     1      -8.497  17.822  -9.899  1.00  0.00    -0.014 A 
ATOM     97  C   UNL     1      -8.793  17.145  -8.698  1.00  0.00     0.010 A 
ATOM     98  C   UNL     1      -9.035  19.106 -10.090  1.00  0.00     0.010 A 
ATOM     99  C   UNL     1      -9.640  17.717  -7.739  1.00  0.00     0.020 A 
ATOM    100  C   UNL     1      -9.863  19.692  -9.127  1.00  0.00     0.020 A 
ATOM    101  C   UNL     1     -10.174  18.988  -7.963  1.00  0.00     0.054 A 
BRANCH 101 102
ATOM    102  S   UNL     1     -11.244  19.735  -6.703  1.00  0.00     0.124 S 
ATOM    103  O   UNL     1     -12.460  18.934  -6.805  1.00  0.00    -0.237 OA
ATOM    104  O   UNL     1     -10.474  19.557  -5.474  1.00  0.00    -0.237 OA
ATOM    105  O   UNL     1     -11.380  21.124  -7.142  1.00  0.00    -0.744 OA
ENDBRANCH 101 102
ENDBRANCH  75  96
ENDBRANCH  49  50
ENDBRANCH  42  44
ENDBRANCH  41  42
ENDBRANCH  40  41
ENDBRANCH  39  40
ENDBRANCH  38  39
ENDBRANCH  37  38
ENDBRANCH  36  37
ENDBRANCH   1  36
TORSDOF 27
