REMARK SMILES O=C(COc1ccc(/C=C2/C(=O)[NH+]=C(O)N=C2O)cc1Cl)OCCOCCOCCOCCOC(=O)c1ccc(-c2c3nc(c(-c4ccc(S(=O)(=O)[O-])cc4)c4ccc([nH]4)c(-c4ccc(S(=O)(=O)[O-])cc4)c4nc(c(-c5ccc(S(=O)(=O)[O-])cc5)c5ccc2[nH]5)C=C4)C=C3)cc1
REMARK SMILES IDX 27 1 26 2 25 3 24 4 23 5 22 6 2 7 1 8 3 9 4 10 5 11 6 12
REMARK SMILES IDX 20 13 7 14 19 15 21 16 8 17 9 18 10 19 11 20 17 21 12 22
REMARK SMILES IDX 13 23 16 24 14 25 18 27 15 29 28 31 29 32 30 33 31 34 32 35
REMARK SMILES IDX 33 36 34 37 35 38 36 39 37 40 38 41 96 42 39 43 95 44 40 45
REMARK SMILES IDX 41 46 42 47 89 48 43 49 94 50 88 51 90 52 44 53 93 54 87 55
REMARK SMILES IDX 86 56 45 58 75 59 56 60 74 61 57 62 60 63 73 64 91 65 58 66
REMARK SMILES IDX 59 67 72 69 92 70 61 71 46 72 47 73 55 74 48 75 54 76 49 77
REMARK SMILES IDX 50 78 51 79 52 80 53 81 76 82 77 83 85 84 78 85 84 86 79 87
REMARK SMILES IDX 80 88 81 89 82 90 83 91 62 92 63 93 71 94 64 95 70 96 65 97
REMARK SMILES IDX 66 98 67 99 68 100 69 101
REMARK H PARENT 13 26 18 28 15 30 90 57 60 68
REMARK Flexibility Score: inf
ROOT
ATOM      1  C   UNL     1       2.138   0.971   2.275  1.00  0.00     0.188 C 
ENDROOT
BRANCH   1   2
ATOM      2  C   UNL     1       2.918  -0.344   2.106  1.00  0.00     0.188 C 
BRANCH   2   3
ATOM      3  O   UNL     1       4.278  -0.195   1.724  1.00  0.00    -0.376 OA
BRANCH   3   4
ATOM      4  C   UNL     1       4.712  -0.024   0.388  1.00  0.00     0.202 C 
BRANCH   4   5
ATOM      5  C   UNL     1       3.943   0.898  -0.565  1.00  0.00     0.261 C 
BRANCH   5   6
ATOM      6  O   UNL     1       2.514   0.708  -0.634  1.00  0.00    -0.461 OA
BRANCH   6   7
ATOM      7  C   UNL     1       1.863  -0.461  -0.802  1.00  0.00     0.344 C 
ATOM      8  O   UNL     1       0.657  -0.543  -0.577  1.00  0.00    -0.248 OA
BRANCH   7   9
ATOM      9  C   UNL     1       2.670  -1.678  -1.191  1.00  0.00     0.352 C 
BRANCH   9  10
ATOM     10  O   UNL     1       3.741  -1.383  -2.090  1.00  0.00    -0.480 OA
BRANCH  10  11
ATOM     11  C   UNL     1       3.360  -1.720  -3.352  1.00  0.00     0.138 A 
ATOM     12  C   UNL     1       3.881  -2.916  -3.827  1.00  0.00     0.048 A 
ATOM     13  C   UNL     1       2.409  -1.003  -4.080  1.00  0.00     0.083 A 
ATOM     14  C   UNL     1       3.316  -3.486  -4.955  1.00  0.00     0.012 A 
ATOM     15  C   UNL     1       1.782  -1.625  -5.145  1.00  0.00     0.032 A 
ATOM     16  Cl  UNL     1       1.961   0.617  -3.721  1.00  0.00    -0.080 Cl
ATOM     17  C   UNL     1       2.185  -2.903  -5.541  1.00  0.00    -0.023 A 
BRANCH  17  18
ATOM     18  C   UNL     1       1.419  -3.547  -6.604  1.00  0.00     0.032 C 
ATOM     19  C   UNL     1       1.201  -4.857  -6.805  1.00  0.00     0.154 C 
ATOM     20  C   UNL     1       0.566  -5.224  -8.091  1.00  0.00     0.349 C 
ATOM     21  C   UNL     1       1.634  -6.025  -6.045  1.00  0.00     0.345 C 
ATOM     22  O   UNL     1      -0.300  -4.525  -8.605  1.00  0.00    -0.240 OA
ATOM     23  N   UNL     1       1.087  -6.345  -8.673  1.00  0.00    -0.168 N 
ATOM     24  N   UNL     1       1.881  -7.159  -6.591  1.00  0.00     0.036 NA
ATOM     25  C   UNL     1       1.698  -7.191  -7.930  1.00  0.00     0.500 C 
ATOM     26  H   UNL     1       0.996  -6.498  -9.641  1.00  0.00     0.319 HD
BRANCH  21  27
ATOM     27  O   UNL     1       1.705  -5.925  -4.707  1.00  0.00    -0.474 OA
ATOM     28  H   UNL     1       1.528  -5.106  -4.289  1.00  0.00     0.297 HD
ENDBRANCH  21  27
BRANCH  25  29
ATOM     29  O   UNL     1       2.240  -8.264  -8.511  1.00  0.00    -0.443 OA
ATOM     30  H   UNL     1       2.170  -8.381  -9.438  1.00  0.00     0.301 HD
ENDBRANCH  25  29
ENDBRANCH  17  18
ENDBRANCH  10  11
ENDBRANCH   9  10
ENDBRANCH   7   9
ENDBRANCH   6   7
ENDBRANCH   5   6
ENDBRANCH   4   5
ENDBRANCH   3   4
ENDBRANCH   2   3
ENDBRANCH   1   2
BRANCH   1  31
ATOM     31  O   UNL     1       2.710   1.879   3.206  1.00  0.00    -0.377 OA
BRANCH  31  32
ATOM     32  C   UNL     1       4.042   2.268   2.907  1.00  0.00     0.188 C 
BRANCH  32  33
ATOM     33  C   UNL     1       5.129   1.551   3.736  1.00  0.00     0.188 C 
BRANCH  33  34
ATOM     34  O   UNL     1       4.813   0.570   4.713  1.00  0.00    -0.376 OA
BRANCH  34  35
ATOM     35  C   UNL     1       3.622   0.633   5.477  1.00  0.00     0.202 C 
BRANCH  35  36
ATOM     36  C   UNL     1       3.165   1.908   6.205  1.00  0.00     0.261 C 
BRANCH  36  37
ATOM     37  O   UNL     1       3.489   3.158   5.601  1.00  0.00    -0.460 OA
BRANCH  37  38
ATOM     38  C   UNL     1       4.672   3.698   5.971  1.00  0.00     0.338 C 
ATOM     39  O   UNL     1       5.471   3.248   6.772  1.00  0.00    -0.246 OA
BRANCH  38  40
ATOM     40  C   UNL     1       4.942   4.845   5.078  1.00  0.00     0.060 A 
ATOM     41  C   UNL     1       6.175   4.897   4.410  1.00  0.00     0.016 A 
ATOM     42  C   UNL     1       3.978   5.835   4.870  1.00  0.00     0.016 A 
ATOM     43  C   UNL     1       6.466   5.963   3.565  1.00  0.00     0.010 A 
ATOM     44  C   UNL     1       4.286   6.926   4.060  1.00  0.00     0.010 A 
ATOM     45  C   UNL     1       5.549   7.012   3.448  1.00  0.00    -0.014 A 
BRANCH  45  46
ATOM     46  C   UNL     1       6.029   8.329   2.981  1.00  0.00     0.031 A 
ATOM     47  C   UNL     1       6.561   9.268   4.029  1.00  0.00     0.074 A 
ATOM     48  C   UNL     1       6.000   8.680   1.685  1.00  0.00     0.049 A 
ATOM     49  N   UNL     1       6.964  10.504   3.910  1.00  0.00    -0.248 NA
ATOM     50  C   UNL     1       6.643   8.736   5.402  1.00  0.00     0.031 C 
ATOM     51  C   UNL     1       5.564   7.827   0.582  1.00  0.00     0.029 A 
ATOM     52  N   UNL     1       6.337   9.866   1.086  1.00  0.00    -0.354 N 
ATOM     53  C   UNL     1       7.330  10.900   5.191  1.00  0.00     0.074 A 
ATOM     54  C   UNL     1       7.084   9.785   6.075  1.00  0.00     0.031 C 
ATOM     55  C   UNL     1       5.642   8.528  -0.564  1.00  0.00     0.029 A 
ATOM     56  C   UNL     1       6.096   9.886  -0.265  1.00  0.00     0.049 A 
ATOM     57  H   UNL     1       6.717  10.630   1.578  1.00  0.00     0.167 HD
ATOM     58  C   UNL     1       7.823  12.091   5.597  1.00  0.00     0.031 A 
ATOM     59  C   UNL     1       6.202  10.899  -1.148  1.00  0.00     0.031 A 
ATOM     60  C   UNL     1       8.032  13.204   4.715  1.00  0.00     0.049 A 
ATOM     61  C   UNL     1       6.675  12.246  -0.662  1.00  0.00     0.074 A 
ATOM     62  C   UNL     1       8.521  14.461   5.016  1.00  0.00     0.029 A 
ATOM     63  N   UNL     1       7.749  13.194   3.357  1.00  0.00    -0.354 N 
ATOM     64  N   UNL     1       7.029  12.609   0.550  1.00  0.00    -0.248 NA
ATOM     65  C   UNL     1       6.770  13.318  -1.662  1.00  0.00     0.031 C 
ATOM     66  C   UNL     1       8.482  15.230   3.849  1.00  0.00     0.029 A 
ATOM     67  C   UNL     1       8.032  14.431   2.808  1.00  0.00     0.049 A 
ATOM     68  H   UNL     1       7.399  12.421   2.858  1.00  0.00     0.167 HD
ATOM     69  C   UNL     1       7.420  13.941   0.450  1.00  0.00     0.074 A 
ATOM     70  C   UNL     1       7.263  14.317  -0.941  1.00  0.00     0.031 C 
ATOM     71  C   UNL     1       7.874  14.777   1.417  1.00  0.00     0.031 A 
BRANCH  58  72
ATOM     72  C   UNL     1       8.108  12.253   7.066  1.00  0.00    -0.014 A 
ATOM     73  C   UNL     1       9.170  11.569   7.686  1.00  0.00     0.010 A 
ATOM     74  C   UNL     1       7.292  13.098   7.840  1.00  0.00     0.010 A 
ATOM     75  C   UNL     1       9.382  11.692   9.061  1.00  0.00     0.020 A 
ATOM     76  C   UNL     1       7.520  13.247   9.210  1.00  0.00     0.020 A 
ATOM     77  C   UNL     1       8.552  12.527   9.815  1.00  0.00     0.054 A 
BRANCH  77  78
ATOM     78  S   UNL     1       8.855  12.677  11.597  1.00  0.00     0.124 S 
ATOM     79  O   UNL     1       8.382  11.386  12.092  1.00  0.00    -0.237 OA
ATOM     80  O   UNL     1      10.299  12.883  11.660  1.00  0.00    -0.237 OA
ATOM     81  O   UNL     1       8.046  13.828  11.991  1.00  0.00    -0.744 OA
ENDBRANCH  77  78
ENDBRANCH  58  72
BRANCH  59  82
ATOM     82  C   UNL     1       5.834  10.682  -2.574  1.00  0.00    -0.014 A 
ATOM     83  C   UNL     1       6.819  10.673  -3.576  1.00  0.00     0.010 A 
ATOM     84  C   UNL     1       4.491  10.467  -2.936  1.00  0.00     0.010 A 
ATOM     85  C   UNL     1       6.469  10.459  -4.913  1.00  0.00     0.020 A 
ATOM     86  C   UNL     1       4.140  10.226  -4.267  1.00  0.00     0.020 A 
ATOM     87  C   UNL     1       5.131  10.231  -5.249  1.00  0.00     0.054 A 
BRANCH  87  88
ATOM     88  S   UNL     1       4.712   9.886  -6.981  1.00  0.00     0.124 S 
ATOM     89  O   UNL     1       4.887  11.195  -7.603  1.00  0.00    -0.237 OA
ATOM     90  O   UNL     1       5.699   8.873  -7.347  1.00  0.00    -0.237 OA
ATOM     91  O   UNL     1       3.334   9.405  -6.910  1.00  0.00    -0.744 OA
ENDBRANCH  87  88
ENDBRANCH  59  82
BRANCH  71  92
ATOM     92  C   UNL     1       8.287  16.165   1.006  1.00  0.00    -0.014 A 
ATOM     93  C   UNL     1       7.339  17.143   0.663  1.00  0.00     0.010 A 
ATOM     94  C   UNL     1       9.651  16.514   1.046  1.00  0.00     0.010 A 
ATOM     95  C   UNL     1       7.749  18.441   0.344  1.00  0.00     0.020 A 
ATOM     96  C   UNL     1      10.062  17.817   0.757  1.00  0.00     0.020 A 
ATOM     97  C   UNL     1       9.108  18.770   0.396  1.00  0.00     0.054 A 
BRANCH  97  98
ATOM     98  S   UNL     1       9.609  20.474   0.033  1.00  0.00     0.124 S 
ATOM     99  O   UNL     1       9.433  20.541  -1.415  1.00  0.00    -0.237 OA
ATOM    100  O   UNL     1       8.662  21.261   0.819  1.00  0.00    -0.237 OA
ATOM    101  O   UNL     1      10.994  20.535   0.495  1.00  0.00    -0.744 OA
ENDBRANCH  97  98
ENDBRANCH  71  92
ENDBRANCH  45  46
ENDBRANCH  38  40
ENDBRANCH  37  38
ENDBRANCH  36  37
ENDBRANCH  35  36
ENDBRANCH  34  35
ENDBRANCH  33  34
ENDBRANCH  32  33
ENDBRANCH  31  32
ENDBRANCH   1  31
TORSDOF 28
