REMARK SMILES COc1ccc(NC(=O)N[C@@H]2C=C[C@H](C(=O)OCCOCCOCCOCCOC(=O)c3ccc(-c4c5nc(c(-c6ccc(S(=O)(=O)[O-])cc6)c6ccc([nH]6)c(-c6ccc(S(=O)(=O)[O-])cc6)c6nc(c(-c7ccc(S(=O)(=O)[O-])cc7)c7ccc4[nH]7)C=C6)C=C5)cc3)C2)c(C)c1
REMARK SMILES IDX 23 1 22 2 21 3 20 4 19 5 18 6 17 7 15 8 16 9 14 10 11 11
REMARK SMILES IDX 12 12 92 13 13 14 10 15 7 16 8 17 9 19 6 21 3 22 4 23 95 24
REMARK SMILES IDX 5 25 93 26 94 27 2 28 1 29 24 30 25 31 26 32 27 33 28 34
REMARK SMILES IDX 29 35 30 36 31 37 32 38 33 39 91 40 34 41 90 42 35 43 36 44
REMARK SMILES IDX 37 45 84 46 38 47 89 48 83 49 85 50 39 51 88 52 82 53 81 54
REMARK SMILES IDX 40 56 70 57 51 58 69 59 52 60 55 61 68 62 86 63 53 64 54 65
REMARK SMILES IDX 67 67 87 68 56 69 41 70 42 71 50 72 43 73 49 74 44 75 45 76
REMARK SMILES IDX 46 77 47 78 48 79 71 80 72 81 80 82 73 83 79 84 74 85 75 86
REMARK SMILES IDX 76 87 77 88 78 89 57 90 58 91 66 92 59 93 65 94 60 95 61 96
REMARK SMILES IDX 62 97 63 98 64 99
REMARK H PARENT 7 18 10 20 85 55 55 66
REMARK Flexibility Score: inf
ROOT
ATOM      1  O   UNL     1       3.296   2.517  -0.621  1.00  0.00    -0.377 OA
ENDROOT
BRANCH   1   2
ATOM      2  C   UNL     1       4.270   2.010   0.256  1.00  0.00     0.188 C 
BRANCH   2   3
ATOM      3  C   UNL     1       5.084   0.760  -0.076  1.00  0.00     0.188 C 
BRANCH   3   4
ATOM      4  O   UNL     1       4.510  -0.532   0.028  1.00  0.00    -0.376 OA
BRANCH   4   5
ATOM      5  C   UNL     1       3.109  -0.646   0.158  1.00  0.00     0.202 C 
BRANCH   5   6
ATOM      6  C   UNL     1       2.787  -1.354   1.461  1.00  0.00     0.261 C 
BRANCH   6   7
ATOM      7  O   UNL     1       2.613  -0.333   2.450  1.00  0.00    -0.463 OA
BRANCH   7   8
ATOM      8  C   UNL     1       3.109  -0.555   3.677  1.00  0.00     0.312 C 
ATOM      9  O   UNL     1       3.467  -1.643   4.119  1.00  0.00    -0.252 OA
BRANCH   8  10
ATOM     10  C   UNL     1       3.519   0.771   4.299  1.00  0.00     0.124 C 
ATOM     11  C   UNL     1       4.253   3.009   3.604  1.00  0.00     0.107 C 
ATOM     12  C   UNL     1       5.147   1.922   3.142  1.00  0.00    -0.006 C 
ATOM     13  C   UNL     1       2.975   2.152   3.767  1.00  0.00     0.048 C 
ATOM     14  C   UNL     1       4.917   0.771   3.756  1.00  0.00    -0.014 C 
BRANCH  11  15
ATOM     15  N   UNL     1       4.425   4.081   2.659  1.00  0.00    -0.332 N 
ATOM     16  N   UNL     1       6.658   4.964   3.115  1.00  0.00    -0.308 N 
ATOM     17  C   UNL     1       5.505   4.863   2.386  1.00  0.00     0.319 C 
ATOM     18  H   UNL     1       7.298   5.596   2.716  1.00  0.00     0.171 HD
ATOM     19  O   UNL     1       5.429   5.607   1.400  1.00  0.00    -0.248 OA
ATOM     20  H   UNL     1       3.627   4.282   2.119  1.00  0.00     0.165 HD
BRANCH  16  21
ATOM     21  C   UNL     1       7.150   4.382   4.301  1.00  0.00     0.046 A 
ATOM     22  C   UNL     1       7.091   3.396   6.891  1.00  0.00     0.119 A 
ATOM     23  C   UNL     1       6.910   2.553   5.823  1.00  0.00     0.048 A 
ATOM     24  C   UNL     1       7.724   4.612   6.615  1.00  0.00     0.052 A 
ATOM     25  C   UNL     1       7.128   3.040   4.546  1.00  0.00     0.030 A 
ATOM     26  C   UNL     1       7.827   5.084   5.281  1.00  0.00    -0.024 A 
ATOM     27  C   UNL     1       8.897   6.068   4.909  1.00  0.00     0.047 C 
BRANCH  22  28
ATOM     28  O   UNL     1       6.832   3.046   8.185  1.00  0.00    -0.497 OA
ATOM     29  C   UNL     1       5.945   1.928   8.338  1.00  0.00     0.278 C 
ENDBRANCH  22  28
ENDBRANCH  16  21
ENDBRANCH  11  15
ENDBRANCH   8  10
ENDBRANCH   7   8
ENDBRANCH   6   7
ENDBRANCH   5   6
ENDBRANCH   4   5
ENDBRANCH   3   4
ENDBRANCH   2   3
ENDBRANCH   1   2
BRANCH   1  30
ATOM     30  C   UNL     1       3.287   2.051  -1.939  1.00  0.00     0.188 C 
BRANCH  30  31
ATOM     31  C   UNL     1       4.076   2.825  -3.001  1.00  0.00     0.188 C 
BRANCH  31  32
ATOM     32  O   UNL     1       4.827   3.957  -2.625  1.00  0.00    -0.376 OA
BRANCH  32  33
ATOM     33  C   UNL     1       4.135   4.949  -1.866  1.00  0.00     0.202 C 
BRANCH  33  34
ATOM     34  C   UNL     1       2.717   5.444  -2.274  1.00  0.00     0.261 C 
BRANCH  34  35
ATOM     35  O   UNL     1       1.733   4.447  -2.647  1.00  0.00    -0.460 OA
BRANCH  35  36
ATOM     36  C   UNL     1       1.057   4.566  -3.833  1.00  0.00     0.338 C 
ATOM     37  O   UNL     1       1.244   5.372  -4.736  1.00  0.00    -0.246 OA
BRANCH  36  38
ATOM     38  C   UNL     1       0.260   3.315  -4.005  1.00  0.00     0.060 A 
ATOM     39  C   UNL     1      -1.013   3.159  -3.462  1.00  0.00     0.016 A 
ATOM     40  C   UNL     1       0.995   2.185  -4.328  1.00  0.00     0.016 A 
ATOM     41  C   UNL     1      -1.361   1.931  -2.883  1.00  0.00     0.010 A 
ATOM     42  C   UNL     1       0.727   1.022  -3.625  1.00  0.00     0.010 A 
ATOM     43  C   UNL     1      -0.371   0.949  -2.763  1.00  0.00    -0.014 A 
BRANCH  43  44
ATOM     44  C   UNL     1      -0.200   0.139  -1.523  1.00  0.00     0.031 A 
ATOM     45  C   UNL     1       0.250  -1.302  -1.576  1.00  0.00     0.074 A 
ATOM     46  C   UNL     1      -0.184   0.846  -0.354  1.00  0.00     0.049 A 
ATOM     47  N   UNL     1       0.271  -2.123  -0.578  1.00  0.00    -0.248 NA
ATOM     48  C   UNL     1       0.782  -1.947  -2.780  1.00  0.00     0.031 C 
ATOM     49  C   UNL     1       0.204   0.418   0.978  1.00  0.00     0.029 A 
ATOM     50  N   UNL     1      -0.591   2.163  -0.117  1.00  0.00    -0.354 N 
ATOM     51  C   UNL     1       1.004  -3.263  -0.915  1.00  0.00     0.074 A 
ATOM     52  C   UNL     1       1.294  -3.093  -2.313  1.00  0.00     0.031 C 
ATOM     53  C   UNL     1      -0.056   1.355   1.901  1.00  0.00     0.029 A 
ATOM     54  C   UNL     1      -0.879   2.332   1.250  1.00  0.00     0.049 A 
ATOM     55  H   UNL     1      -0.664   2.866  -0.803  1.00  0.00     0.167 HD
ATOM     56  C   UNL     1       1.358  -4.173   0.052  1.00  0.00     0.031 A 
ATOM     57  C   UNL     1      -2.187   2.457   1.611  1.00  0.00     0.031 A 
ATOM     58  C   UNL     1       0.635  -3.898   1.319  1.00  0.00     0.049 A 
ATOM     59  C   UNL     1      -2.809   1.109   2.094  1.00  0.00     0.074 A 
ATOM     60  C   UNL     1       0.980  -3.754   2.655  1.00  0.00     0.029 A 
ATOM     61  N   UNL     1      -0.699  -3.481   1.249  1.00  0.00    -0.354 N 
ATOM     62  N   UNL     1      -2.246  -0.070   1.861  1.00  0.00    -0.248 NA
ATOM     63  C   UNL     1      -3.979   0.931   2.959  1.00  0.00     0.031 C 
ATOM     64  C   UNL     1      -0.065  -3.007   3.295  1.00  0.00     0.029 A 
ATOM     65  C   UNL     1      -1.096  -2.803   2.386  1.00  0.00     0.049 A 
ATOM     66  H   UNL     1      -1.287  -3.651   0.478  1.00  0.00     0.167 HD
ATOM     67  C   UNL     1      -2.887  -1.093   2.514  1.00  0.00     0.074 A 
ATOM     68  C   UNL     1      -3.986  -0.405   3.174  1.00  0.00     0.031 C 
ATOM     69  C   UNL     1      -2.503  -2.417   2.538  1.00  0.00     0.031 A 
BRANCH  56  70
ATOM     70  C   UNL     1       2.481  -5.234  -0.075  1.00  0.00    -0.014 A 
ATOM     71  C   UNL     1       2.806  -6.059   1.029  1.00  0.00     0.010 A 
ATOM     72  C   UNL     1       3.306  -5.438  -1.208  1.00  0.00     0.010 A 
ATOM     73  C   UNL     1       3.850  -7.013   1.009  1.00  0.00     0.020 A 
ATOM     74  C   UNL     1       4.337  -6.411  -1.257  1.00  0.00     0.020 A 
ATOM     75  C   UNL     1       4.602  -7.199  -0.144  1.00  0.00     0.054 A 
BRANCH  75  76
ATOM     76  S   UNL     1       5.875  -8.501  -0.179  1.00  0.00     0.124 S 
ATOM     77  O   UNL     1       6.831  -8.043   0.826  1.00  0.00    -0.237 OA
ATOM     78  O   UNL     1       5.115  -9.697   0.176  1.00  0.00    -0.237 OA
ATOM     79  O   UNL     1       6.367  -8.472  -1.556  1.00  0.00    -0.744 OA
ENDBRANCH  75  76
ENDBRANCH  56  70
BRANCH  57  80
ATOM     80  C   UNL     1      -2.589   3.863   1.200  1.00  0.00    -0.014 A 
ATOM     81  C   UNL     1      -1.954   4.890   1.960  1.00  0.00     0.010 A 
ATOM     82  C   UNL     1      -2.778   4.155  -0.175  1.00  0.00     0.010 A 
ATOM     83  C   UNL     1      -1.326   6.000   1.350  1.00  0.00     0.020 A 
ATOM     84  C   UNL     1      -2.161   5.281  -0.785  1.00  0.00     0.020 A 
ATOM     85  C   UNL     1      -1.399   6.170  -0.028  1.00  0.00     0.054 A 
BRANCH  85  86
ATOM     86  S   UNL     1      -0.358   7.442  -0.832  1.00  0.00     0.124 S 
ATOM     87  O   UNL     1      -1.144   8.655  -0.634  1.00  0.00    -0.237 OA
ATOM     88  O   UNL     1       0.887   7.376  -0.070  1.00  0.00    -0.237 OA
ATOM     89  O   UNL     1      -0.262   6.973  -2.211  1.00  0.00    -0.744 OA
ENDBRANCH  85  86
ENDBRANCH  57  80
BRANCH  69  90
ATOM     90  C   UNL     1      -3.463  -3.593   2.714  1.00  0.00    -0.014 A 
ATOM     91  C   UNL     1      -4.852  -3.477   2.602  1.00  0.00     0.010 A 
ATOM     92  C   UNL     1      -2.943  -4.920   2.764  1.00  0.00     0.010 A 
ATOM     93  C   UNL     1      -5.676  -4.611   2.584  1.00  0.00     0.020 A 
ATOM     94  C   UNL     1      -3.747  -6.057   2.679  1.00  0.00     0.020 A 
ATOM     95  C   UNL     1      -5.119  -5.892   2.618  1.00  0.00     0.054 A 
BRANCH  95  96
ATOM     96  S   UNL     1      -6.206  -7.332   2.539  1.00  0.00     0.124 S 
ATOM     97  O   UNL     1      -6.710  -7.396   3.909  1.00  0.00    -0.237 OA
ATOM     98  O   UNL     1      -7.185  -6.941   1.528  1.00  0.00    -0.237 OA
ATOM     99  O   UNL     1      -5.316  -8.422   2.147  1.00  0.00    -0.744 OA
ENDBRANCH  95  96
ENDBRANCH  69  90
ENDBRANCH  43  44
ENDBRANCH  36  38
ENDBRANCH  35  36
ENDBRANCH  34  35
ENDBRANCH  33  34
ENDBRANCH  32  33
ENDBRANCH  31  32
ENDBRANCH  30  31
ENDBRANCH   1  30
TORSDOF 26
