REMARK SMILES O=C(OCCOCCOCCOCCOC(=O)c1ccc(-c2cccc(O)c2)cc1Cl)c1ccc(-c2c3nc(c(-c4ccc(S(=O)(=O)[O-])cc4)c4ccc([nH]4)c(-c4ccc(S(=O)(=O)[O-])cc4)c4nc(c(-c5ccc(S(=O)(=O)[O-])cc5)c5ccc2[nH]5)C=C4)C=C3)cc1
REMARK SMILES IDX 8 1 7 2 6 3 5 4 4 5 3 6 2 7 1 8 32 9 33 10 91 11 34 12 90 13
REMARK SMILES IDX 35 14 36 15 37 16 84 17 38 18 89 19 83 20 85 21 39 22 88 23
REMARK SMILES IDX 82 24 81 25 40 27 70 28 51 29 69 30 52 31 55 32 68 33 86 34
REMARK SMILES IDX 53 35 54 36 67 38 87 39 56 40 41 41 42 42 50 43 43 44 49 45
REMARK SMILES IDX 44 46 45 47 46 48 47 49 48 50 71 51 72 52 80 53 73 54 79 55
REMARK SMILES IDX 74 56 75 57 76 58 77 59 78 60 57 61 58 62 66 63 59 64 65 65
REMARK SMILES IDX 60 66 61 67 62 68 63 69 64 70 9 71 10 72 11 73 12 74 13 75
REMARK SMILES IDX 14 76 15 77 16 78 17 79 18 80 19 81 30 82 20 83 29 84 31 85
REMARK SMILES IDX 21 86 22 87 23 88 28 89 24 90 26 91 25 92 27 93
REMARK H PARENT 85 26 55 37 27 94
REMARK Flexibility Score: inf
ROOT
ATOM      1  C   UNL     1       1.803   0.581  -2.790  1.00  0.00     0.188 C 
ENDROOT
BRANCH   1   2
ATOM      2  C   UNL     1       2.282  -0.213  -1.577  1.00  0.00     0.188 C 
BRANCH   2   3
ATOM      3  O   UNL     1       3.634   0.079  -1.246  1.00  0.00    -0.376 OA
BRANCH   3   4
ATOM      4  C   UNL     1       4.422  -0.936  -0.634  1.00  0.00     0.202 C 
BRANCH   4   5
ATOM      5  C   UNL     1       3.840  -1.677   0.575  1.00  0.00     0.261 C 
BRANCH   5   6
ATOM      6  O   UNL     1       2.459  -1.411   0.879  1.00  0.00    -0.460 OA
BRANCH   6   7
ATOM      7  C   UNL     1       1.898  -0.452   1.652  1.00  0.00     0.338 C 
ATOM      8  O   UNL     1       0.705  -0.546   1.936  1.00  0.00    -0.246 OA
BRANCH   7   9
ATOM      9  C   UNL     1       2.647   0.726   2.169  1.00  0.00     0.060 A 
ATOM     10  C   UNL     1       3.693   1.352   1.501  1.00  0.00     0.016 A 
ATOM     11  C   UNL     1       2.202   1.303   3.366  1.00  0.00     0.016 A 
ATOM     12  C   UNL     1       4.419   2.381   2.075  1.00  0.00     0.010 A 
ATOM     13  C   UNL     1       2.871   2.400   3.920  1.00  0.00     0.010 A 
ATOM     14  C   UNL     1       4.035   2.886   3.310  1.00  0.00    -0.014 A 
BRANCH  14  15
ATOM     15  C   UNL     1       5.001   3.732   4.037  1.00  0.00     0.031 A 
ATOM     16  C   UNL     1       5.681   3.122   5.232  1.00  0.00     0.074 A 
ATOM     17  C   UNL     1       5.376   4.928   3.547  1.00  0.00     0.049 A 
ATOM     18  N   UNL     1       6.505   3.665   6.084  1.00  0.00    -0.248 NA
ATOM     19  C   UNL     1       5.392   1.700   5.502  1.00  0.00     0.031 C 
ATOM     20  C   UNL     1       4.886   5.528   2.302  1.00  0.00     0.029 A 
ATOM     21  N   UNL     1       6.293   5.832   4.010  1.00  0.00    -0.354 N 
ATOM     22  C   UNL     1       6.773   2.676   7.024  1.00  0.00     0.074 A 
ATOM     23  C   UNL     1       6.031   1.500   6.642  1.00  0.00     0.031 C 
ATOM     24  C   UNL     1       5.544   6.677   2.079  1.00  0.00     0.029 A 
ATOM     25  C   UNL     1       6.434   6.937   3.204  1.00  0.00     0.049 A 
ATOM     26  H   UNL     1       6.803   5.704   4.843  1.00  0.00     0.167 HD
ATOM     27  C   UNL     1       7.563   2.753   8.118  1.00  0.00     0.031 A 
ATOM     28  C   UNL     1       7.180   8.044   3.381  1.00  0.00     0.031 A 
ATOM     29  C   UNL     1       8.309   3.933   8.453  1.00  0.00     0.049 A 
ATOM     30  C   UNL     1       8.000   8.137   4.641  1.00  0.00     0.074 A 
ATOM     31  C   UNL     1       9.095   4.177   9.561  1.00  0.00     0.029 A 
ATOM     32  N   UNL     1       8.367   5.068   7.654  1.00  0.00    -0.354 N 
ATOM     33  N   UNL     1       8.158   7.240   5.589  1.00  0.00    -0.248 NA
ATOM     34  C   UNL     1       8.726   9.391   4.867  1.00  0.00     0.031 C 
ATOM     35  C   UNL     1       9.596   5.479   9.452  1.00  0.00     0.029 A 
ATOM     36  C   UNL     1       9.170   6.021   8.247  1.00  0.00     0.049 A 
ATOM     37  H   UNL     1       7.904   5.176   6.792  1.00  0.00     0.167 HD
ATOM     38  C   UNL     1       9.018   7.814   6.516  1.00  0.00     0.074 A 
ATOM     39  C   UNL     1       9.360   9.128   6.002  1.00  0.00     0.031 C 
ATOM     40  C   UNL     1       9.485   7.311   7.686  1.00  0.00     0.031 A 
BRANCH  27  41
ATOM     41  C   UNL     1       7.564   1.571   9.048  1.00  0.00    -0.014 A 
ATOM     42  C   UNL     1       8.180   0.353   8.705  1.00  0.00     0.010 A 
ATOM     43  C   UNL     1       6.880   1.670  10.273  1.00  0.00     0.010 A 
ATOM     44  C   UNL     1       8.065  -0.758   9.548  1.00  0.00     0.020 A 
ATOM     45  C   UNL     1       6.787   0.570  11.130  1.00  0.00     0.020 A 
ATOM     46  C   UNL     1       7.361  -0.644  10.751  1.00  0.00     0.054 A 
BRANCH  46  47
ATOM     47  S   UNL     1       7.213  -2.102  11.821  1.00  0.00     0.124 S 
ATOM     48  O   UNL     1       6.238  -2.911  11.093  1.00  0.00    -0.237 OA
ATOM     49  O   UNL     1       8.576  -2.627  11.838  1.00  0.00    -0.237 OA
ATOM     50  O   UNL     1       6.743  -1.554  13.091  1.00  0.00    -0.744 OA
ENDBRANCH  46  47
ENDBRANCH  27  41
BRANCH  28  51
ATOM     51  C   UNL     1       7.141   9.155   2.388  1.00  0.00    -0.014 A 
ATOM     52  C   UNL     1       8.284   9.510   1.649  1.00  0.00     0.010 A 
ATOM     53  C   UNL     1       5.948   9.871   2.172  1.00  0.00     0.010 A 
ATOM     54  C   UNL     1       8.239  10.567   0.732  1.00  0.00     0.020 A 
ATOM     55  C   UNL     1       5.890  10.907   1.235  1.00  0.00     0.020 A 
ATOM     56  C   UNL     1       7.041  11.259   0.530  1.00  0.00     0.054 A 
BRANCH  56  57
ATOM     57  S   UNL     1       6.993  12.603  -0.689  1.00  0.00     0.124 S 
ATOM     58  O   UNL     1       7.720  13.664   0.001  1.00  0.00    -0.237 OA
ATOM     59  O   UNL     1       7.674  12.012  -1.838  1.00  0.00    -0.237 OA
ATOM     60  O   UNL     1       5.564  12.843  -0.877  1.00  0.00    -0.744 OA
ENDBRANCH  56  57
ENDBRANCH  28  51
BRANCH  40  61
ATOM     61  C   UNL     1      10.452   8.166   8.452  1.00  0.00    -0.014 A 
ATOM     62  C   UNL     1      10.022   9.302   9.159  1.00  0.00     0.010 A 
ATOM     63  C   UNL     1      11.805   7.785   8.506  1.00  0.00     0.010 A 
ATOM     64  C   UNL     1      10.940  10.066   9.880  1.00  0.00     0.020 A 
ATOM     65  C   UNL     1      12.719   8.530   9.249  1.00  0.00     0.020 A 
ATOM     66  C   UNL     1      12.283   9.676   9.918  1.00  0.00     0.054 A 
BRANCH  66  67
ATOM     67  S   UNL     1      13.451  10.661  10.892  1.00  0.00     0.124 S 
ATOM     68  O   UNL     1      13.657  11.822  10.032  1.00  0.00    -0.237 OA
ATOM     69  O   UNL     1      12.710  10.914  12.125  1.00  0.00    -0.237 OA
ATOM     70  O   UNL     1      14.608   9.780  11.038  1.00  0.00    -0.744 OA
ENDBRANCH  66  67
ENDBRANCH  40  61
ENDBRANCH  14  15
ENDBRANCH   7   9
ENDBRANCH   6   7
ENDBRANCH   5   6
ENDBRANCH   4   5
ENDBRANCH   3   4
ENDBRANCH   2   3
ENDBRANCH   1   2
BRANCH   1  71
ATOM     71  O   UNL     1       2.502   0.319  -4.002  1.00  0.00    -0.377 OA
BRANCH  71  72
ATOM     72  C   UNL     1       3.923   0.358  -3.929  1.00  0.00     0.188 C 
BRANCH  72  73
ATOM     73  C   UNL     1       4.622   1.644  -3.421  1.00  0.00     0.188 C 
BRANCH  73  74
ATOM     74  O   UNL     1       3.738   2.653  -2.953  1.00  0.00    -0.376 OA
BRANCH  74  75
ATOM     75  C   UNL     1       3.706   3.845  -3.732  1.00  0.00     0.202 C 
BRANCH  75  76
ATOM     76  C   UNL     1       3.011   3.715  -5.095  1.00  0.00     0.261 C 
BRANCH  76  77
ATOM     77  O   UNL     1       3.458   2.607  -5.894  1.00  0.00    -0.460 OA
BRANCH  77  78
ATOM     78  C   UNL     1       4.609   2.728  -6.590  1.00  0.00     0.339 C 
ATOM     79  O   UNL     1       5.350   3.695  -6.626  1.00  0.00    -0.246 OA
BRANCH  78  80
ATOM     80  C   UNL     1       4.957   1.384  -7.104  1.00  0.00     0.078 A 
ATOM     81  C   UNL     1       6.151   0.805  -6.639  1.00  0.00     0.018 A 
ATOM     82  C   UNL     1       4.094   0.635  -7.908  1.00  0.00     0.056 A 
ATOM     83  C   UNL     1       6.454  -0.526  -6.944  1.00  0.00     0.010 A 
ATOM     84  C   UNL     1       4.419  -0.690  -8.231  1.00  0.00     0.030 A 
ATOM     85  Cl  UNL     1       2.643   1.291  -8.579  1.00  0.00    -0.083 Cl
ATOM     86  C   UNL     1       5.600  -1.286  -7.756  1.00  0.00    -0.017 A 
BRANCH  86  87
ATOM     87  C   UNL     1       5.994  -2.626  -8.203  1.00  0.00    -0.015 A 
ATOM     88  C   UNL     1       6.603  -2.767  -9.462  1.00  0.00     0.009 A 
ATOM     89  C   UNL     1       5.809  -3.773  -7.419  1.00  0.00     0.054 A 
ATOM     90  C   UNL     1       7.022  -4.014  -9.926  1.00  0.00     0.004 A 
ATOM     91  C   UNL     1       6.230  -5.017  -7.891  1.00  0.00     0.116 A 
ATOM     92  C   UNL     1       6.837  -5.146  -9.138  1.00  0.00     0.046 A 
BRANCH  91  93
ATOM     93  O   UNL     1       6.035  -6.107  -7.093  1.00  0.00    -0.508 OA
ATOM     94  H   UNL     1       6.307  -6.955  -7.383  1.00  0.00     0.293 HD
ENDBRANCH  91  93
ENDBRANCH  86  87
ENDBRANCH  78  80
ENDBRANCH  77  78
ENDBRANCH  76  77
ENDBRANCH  75  76
ENDBRANCH  74  75
ENDBRANCH  73  74
ENDBRANCH  72  73
ENDBRANCH  71  72
ENDBRANCH   1  71
TORSDOF 25
