REMARK SMILES CC[C@H](NC(=O)[C@H]1[C@@H](C(=O)OCCOCCOCCOCCOC(=O)c2ccc(-c3c4nc(c(-c5ccc(S(=O)(=O)[O-])cc5)c5ccc([nH]5)c(-c5ccc(S(=O)(=O)[O-])cc5)c5nc(c(-c6ccc(S(=O)(=O)[O-])cc6)c6ccc3[nH]6)C=C5)C=C4)cc2)[C@@H]2C=C[C@H]1C2)c1ccccc1
REMARK SMILES IDX 17 1 16 2 15 3 14 4 13 5 12 6 11 7 9 8 10 9 8 10 7 11 89 12
REMARK SMILES IDX 86 13 88 14 90 15 87 16 5 17 4 18 6 20 3 21 2 22 1 23 91 24
REMARK SMILES IDX 92 25 96 26 93 27 95 28 94 29 18 30 19 31 20 32 21 33 22 34
REMARK SMILES IDX 23 35 24 36 25 37 26 38 27 39 85 40 28 41 84 42 29 43 30 44
REMARK SMILES IDX 31 45 78 46 32 47 83 48 77 49 79 50 33 51 82 52 76 53 75 54
REMARK SMILES IDX 34 56 64 57 45 58 63 59 46 60 49 61 62 62 80 63 47 64 48 65
REMARK SMILES IDX 61 67 81 68 50 69 35 70 36 71 44 72 37 73 43 74 38 75 39 76
REMARK SMILES IDX 40 77 41 78 42 79 65 80 66 81 74 82 67 83 73 84 68 85 69 86
REMARK SMILES IDX 70 87 71 88 72 89 51 90 52 91 60 92 53 93 59 94 54 95 55 96
REMARK SMILES IDX 56 97 57 98 58 99
REMARK H PARENT 4 19 79 55 49 66
REMARK Flexibility Score: inf
ROOT
ATOM      1  O   UNL     1       5.160  -4.787   1.417  1.00  0.00    -0.377 OA
ENDROOT
BRANCH   1   2
ATOM      2  C   UNL     1       5.314  -5.205   0.081  1.00  0.00     0.188 C 
BRANCH   2   3
ATOM      3  C   UNL     1       5.016  -4.145  -0.977  1.00  0.00     0.188 C 
BRANCH   3   4
ATOM      4  O   UNL     1       5.118  -2.792  -0.573  1.00  0.00    -0.376 OA
BRANCH   4   5
ATOM      5  C   UNL     1       4.272  -2.384   0.503  1.00  0.00     0.202 C 
BRANCH   5   6
ATOM      6  C   UNL     1       2.805  -2.868   0.518  1.00  0.00     0.261 C 
BRANCH   6   7
ATOM      7  O   UNL     1       2.583  -4.290   0.751  1.00  0.00    -0.463 OA
BRANCH   7   8
ATOM      8  C   UNL     1       1.846  -5.004  -0.135  1.00  0.00     0.310 C 
ATOM      9  O   UNL     1       1.540  -4.584  -1.249  1.00  0.00    -0.252 OA
BRANCH   8  10
ATOM     10  C   UNL     1       1.314  -6.364   0.364  1.00  0.00     0.119 C 
ATOM     11  C   UNL     1       1.879  -7.091   1.606  1.00  0.00     0.100 C 
ATOM     12  C   UNL     1       2.563  -8.346   0.953  1.00  0.00     0.025 C 
ATOM     13  C   UNL     1       1.404  -7.455  -0.741  1.00  0.00     0.027 C 
ATOM     14  C   UNL     1       1.397  -9.283   0.674  1.00  0.00    -0.027 C 
ATOM     15  C   UNL     1       2.808  -7.989  -0.521  1.00  0.00     0.017 C 
ATOM     16  C   UNL     1       0.664  -8.708  -0.296  1.00  0.00    -0.027 C 
BRANCH  11  17
ATOM     17  C   UNL     1       2.641  -6.298   2.638  1.00  0.00     0.225 C 
ATOM     18  N   UNL     1       2.023  -5.235   3.256  1.00  0.00    -0.349 N 
ATOM     19  H   UNL     1       2.642  -4.543   3.582  1.00  0.00     0.164 HD
ATOM     20  O   UNL     1       3.765  -6.644   3.002  1.00  0.00    -0.275 OA
BRANCH  18  21
ATOM     21  C   UNL     1       0.593  -4.943   3.521  1.00  0.00     0.112 C 
BRANCH  21  22
ATOM     22  C   UNL     1       0.363  -4.853   5.051  1.00  0.00     0.026 C 
ATOM     23  C   UNL     1       1.394  -4.043   5.845  1.00  0.00     0.006 C 
ENDBRANCH  21  22
BRANCH  21  24
ATOM     24  C   UNL     1       0.024  -3.747   2.739  1.00  0.00    -0.026 A 
ATOM     25  C   UNL     1       0.076  -2.418   3.178  1.00  0.00     0.006 A 
ATOM     26  C   UNL     1      -0.627  -3.950   1.510  1.00  0.00     0.006 A 
ATOM     27  C   UNL     1      -0.347  -1.355   2.364  1.00  0.00     0.000 A 
ATOM     28  C   UNL     1      -0.967  -2.899   0.652  1.00  0.00     0.000 A 
ATOM     29  C   UNL     1      -0.809  -1.591   1.075  1.00  0.00     0.000 A 
ENDBRANCH  21  24
ENDBRANCH  18  21
ENDBRANCH  11  17
ENDBRANCH   8  10
ENDBRANCH   7   8
ENDBRANCH   6   7
ENDBRANCH   5   6
ENDBRANCH   4   5
ENDBRANCH   3   4
ENDBRANCH   2   3
ENDBRANCH   1   2
BRANCH   1  30
ATOM     30  C   UNL     1       6.286  -4.739   2.275  1.00  0.00     0.188 C 
BRANCH  30  31
ATOM     31  C   UNL     1       7.652  -4.961   1.632  1.00  0.00     0.188 C 
BRANCH  31  32
ATOM     32  O   UNL     1       7.963  -6.273   1.142  1.00  0.00    -0.376 OA
BRANCH  32  33
ATOM     33  C   UNL     1       7.258  -7.402   1.663  1.00  0.00     0.202 C 
BRANCH  33  34
ATOM     34  C   UNL     1       7.904  -8.027   2.894  1.00  0.00     0.261 C 
BRANCH  34  35
ATOM     35  O   UNL     1       7.677  -7.227   4.058  1.00  0.00    -0.460 OA
BRANCH  35  36
ATOM     36  C   UNL     1       8.644  -6.323   4.338  1.00  0.00     0.338 C 
ATOM     37  O   UNL     1       9.702  -6.157   3.768  1.00  0.00    -0.246 OA
BRANCH  36  38
ATOM     38  C   UNL     1       8.143  -5.445   5.407  1.00  0.00     0.060 A 
ATOM     39  C   UNL     1       8.249  -4.055   5.258  1.00  0.00     0.016 A 
ATOM     40  C   UNL     1       7.648  -6.009   6.582  1.00  0.00     0.016 A 
ATOM     41  C   UNL     1       7.920  -3.220   6.320  1.00  0.00     0.010 A 
ATOM     42  C   UNL     1       7.335  -5.177   7.648  1.00  0.00     0.010 A 
ATOM     43  C   UNL     1       7.525  -3.789   7.535  1.00  0.00    -0.014 A 
BRANCH  43  44
ATOM     44  C   UNL     1       7.551  -2.996   8.778  1.00  0.00     0.031 A 
ATOM     45  C   UNL     1       8.759  -3.137   9.662  1.00  0.00     0.074 A 
ATOM     46  C   UNL     1       6.503  -2.240   9.136  1.00  0.00     0.049 A 
ATOM     47  N   UNL     1       8.940  -2.727  10.887  1.00  0.00    -0.248 NA
ATOM     48  C   UNL     1       9.909  -3.861   9.089  1.00  0.00     0.031 C 
ATOM     49  C   UNL     1       5.313  -2.000   8.323  1.00  0.00     0.029 A 
ATOM     50  N   UNL     1       6.264  -1.561  10.301  1.00  0.00    -0.354 N 
ATOM     51  C   UNL     1      10.209  -3.170  11.243  1.00  0.00     0.074 A 
ATOM     52  C   UNL     1      10.745  -3.896  10.114  1.00  0.00     0.031 C 
ATOM     53  C   UNL     1       4.452  -1.247   9.029  1.00  0.00     0.029 A 
ATOM     54  C   UNL     1       5.011  -1.001  10.357  1.00  0.00     0.049 A 
ATOM     55  H   UNL     1       6.925  -1.481  11.027  1.00  0.00     0.167 HD
ATOM     56  C   UNL     1      10.863  -2.988  12.413  1.00  0.00     0.031 A 
ATOM     57  C   UNL     1       4.380  -0.400  11.383  1.00  0.00     0.031 A 
ATOM     58  C   UNL     1      10.300  -2.277  13.528  1.00  0.00     0.049 A 
ATOM     59  C   UNL     1       5.098  -0.269  12.702  1.00  0.00     0.074 A 
ATOM     60  C   UNL     1      10.871  -2.016  14.759  1.00  0.00     0.029 A 
ATOM     61  N   UNL     1       9.030  -1.719  13.545  1.00  0.00    -0.354 N 
ATOM     62  N   UNL     1       6.301  -0.681  13.031  1.00  0.00    -0.248 NA
ATOM     63  C   UNL     1       4.378   0.412  13.786  1.00  0.00     0.031 C 
ATOM     64  C   UNL     1       9.922  -1.355  15.544  1.00  0.00     0.029 A 
ATOM     65  C   UNL     1       8.790  -1.133  14.774  1.00  0.00     0.049 A 
ATOM     66  H   UNL     1       8.394  -1.738  12.794  1.00  0.00     0.167 HD
ATOM     67  C   UNL     1       6.498  -0.268  14.344  1.00  0.00     0.074 A 
ATOM     68  C   UNL     1       5.291   0.424  14.748  1.00  0.00     0.031 C 
ATOM     69  C   UNL     1       7.583  -0.434  15.142  1.00  0.00     0.031 A 
BRANCH  56  70
ATOM     70  C   UNL     1      12.230  -3.603  12.555  1.00  0.00    -0.014 A 
ATOM     71  C   UNL     1      13.330  -3.128  11.818  1.00  0.00     0.010 A 
ATOM     72  C   UNL     1      12.424  -4.657  13.467  1.00  0.00     0.010 A 
ATOM     73  C   UNL     1      14.588  -3.719  11.962  1.00  0.00     0.020 A 
ATOM     74  C   UNL     1      13.688  -5.229  13.639  1.00  0.00     0.020 A 
ATOM     75  C   UNL     1      14.759  -4.765  12.873  1.00  0.00     0.054 A 
BRANCH  75  76
ATOM     76  S   UNL     1      16.410  -5.490  13.064  1.00  0.00     0.124 S 
ATOM     77  O   UNL     1      16.576  -6.202  11.799  1.00  0.00    -0.237 OA
ATOM     78  O   UNL     1      17.257  -4.313  13.237  1.00  0.00    -0.237 OA
ATOM     79  O   UNL     1      16.283  -6.341  14.245  1.00  0.00    -0.744 OA
ENDBRANCH  75  76
ENDBRANCH  56  70
BRANCH  57  80
ATOM     80  C   UNL     1       2.992   0.106  11.206  1.00  0.00    -0.014 A 
ATOM     81  C   UNL     1       2.731   1.487  11.209  1.00  0.00     0.010 A 
ATOM     82  C   UNL     1       1.924  -0.791  11.018  1.00  0.00     0.010 A 
ATOM     83  C   UNL     1       1.426   1.962  11.044  1.00  0.00     0.020 A 
ATOM     84  C   UNL     1       0.623  -0.320  10.821  1.00  0.00     0.020 A 
ATOM     85  C   UNL     1       0.381   1.054  10.846  1.00  0.00     0.054 A 
BRANCH  85  86
ATOM     86  S   UNL     1      -1.293   1.698  10.579  1.00  0.00     0.124 S 
ATOM     87  O   UNL     1      -1.639   2.206  11.902  1.00  0.00    -0.237 OA
ATOM     88  O   UNL     1      -1.079   2.709   9.547  1.00  0.00    -0.237 OA
ATOM     89  O   UNL     1      -2.045   0.523  10.142  1.00  0.00    -0.744 OA
ENDBRANCH  85  86
ENDBRANCH  57  80
BRANCH  69  90
ATOM     90  C   UNL     1       7.553   0.202  16.507  1.00  0.00    -0.014 A 
ATOM     91  C   UNL     1       6.755  -0.308  17.544  1.00  0.00     0.010 A 
ATOM     92  C   UNL     1       8.419   1.281  16.772  1.00  0.00     0.010 A 
ATOM     93  C   UNL     1       6.810   0.262  18.819  1.00  0.00     0.020 A 
ATOM     94  C   UNL     1       8.500   1.832  18.052  1.00  0.00     0.020 A 
ATOM     95  C   UNL     1       7.686   1.325  19.066  1.00  0.00     0.054 A 
BRANCH  95  96
ATOM     96  S   UNL     1       7.788   2.000  20.745  1.00  0.00     0.124 S 
ATOM     97  O   UNL     1       6.511   2.697  20.871  1.00  0.00    -0.237 OA
ATOM     98  O   UNL     1       7.932   0.798  21.564  1.00  0.00    -0.237 OA
ATOM     99  O   UNL     1       8.967   2.862  20.703  1.00  0.00    -0.744 OA
ENDBRANCH  95  96
ENDBRANCH  69  90
ENDBRANCH  43  44
ENDBRANCH  36  38
ENDBRANCH  35  36
ENDBRANCH  34  35
ENDBRANCH  33  34
ENDBRANCH  32  33
ENDBRANCH  31  32
ENDBRANCH  30  31
ENDBRANCH   1  30
TORSDOF 27
