REMARK SMILES C[C@H]1[C@H](C(=O)OCCOCCOCCOCCOC(=O)c2ccc(-c3c4nc(c(-c5ccc(S(=O)(=O)[O-])cc5)c5ccc([nH]5)c(-c5ccc(S(=O)(=O)[O-])cc5)c5nc(c(-c6ccc(S(=O)(=O)[O-])cc6)c6ccc3[nH]6)C=C5)C=C4)cc2)CC[N@@H+]1Cc1nnnn1-c1ccccc1
REMARK SMILES IDX 12 1 11 2 10 3 9 4 8 5 7 6 6 7 4 8 5 9 3 10 1 11 2 12 83 13
REMARK SMILES IDX 81 14 82 15 84 17 85 18 86 19 89 20 87 21 88 22 90 23 91 24
REMARK SMILES IDX 95 25 92 26 94 27 93 28 13 29 14 30 15 31 16 32 17 33 18 34
REMARK SMILES IDX 19 35 20 36 21 37 22 38 80 39 23 40 79 41 24 42 25 43 26 44
REMARK SMILES IDX 73 45 27 46 78 47 72 48 74 49 28 50 77 51 71 52 70 53 29 55
REMARK SMILES IDX 59 56 40 57 58 58 41 59 44 60 57 61 75 62 42 63 43 64 56 66
REMARK SMILES IDX 76 67 45 68 30 69 31 70 39 71 32 72 38 73 33 74 34 75 35 76
REMARK SMILES IDX 36 77 37 78 60 79 61 80 69 81 62 82 68 83 63 84 64 85 65 86
REMARK SMILES IDX 66 87 67 88 46 89 47 90 55 91 48 92 54 93 49 94 50 95 51 96
REMARK SMILES IDX 52 97 53 98
REMARK H PARENT 83 16 74 54 44 65
REMARK Flexibility Score: inf
ROOT
ATOM      1  O   UNL     1       2.928   1.811   2.949  1.00  0.00    -0.377 OA
ENDROOT
BRANCH   1   2
ATOM      2  C   UNL     1       1.992   2.235   1.999  1.00  0.00     0.188 C 
BRANCH   2   3
ATOM      3  C   UNL     1       1.843   3.708   1.618  1.00  0.00     0.188 C 
BRANCH   3   4
ATOM      4  O   UNL     1       1.148   4.608   2.464  1.00  0.00    -0.376 OA
BRANCH   4   5
ATOM      5  C   UNL     1      -0.031   4.250   3.167  1.00  0.00     0.202 C 
BRANCH   5   6
ATOM      6  C   UNL     1      -1.189   3.466   2.523  1.00  0.00     0.261 C 
BRANCH   6   7
ATOM      7  O   UNL     1      -0.814   2.304   1.758  1.00  0.00    -0.463 OA
BRANCH   7   8
ATOM      8  C   UNL     1      -0.942   2.376   0.420  1.00  0.00     0.315 C 
ATOM      9  O   UNL     1      -1.453   3.329  -0.164  1.00  0.00    -0.252 OA
BRANCH   8  10
ATOM     10  C   UNL     1      -0.383   1.190  -0.368  1.00  0.00     0.162 C 
ATOM     11  C   UNL     1       1.690  -0.239  -0.599  1.00  0.00     0.076 C 
ATOM     12  C   UNL     1       0.430   0.038   0.257  1.00  0.00     0.195 C 
ATOM     13  N   UNL     1      -0.379  -1.176   0.152  1.00  0.00    -0.326 N 
ATOM     14  C   UNL     1      -1.547   0.502  -1.067  1.00  0.00     0.083 C 
ATOM     15  C   UNL     1      -1.299  -0.990  -0.951  1.00  0.00     0.263 C 
ATOM     16  H   UNL     1       0.199  -1.980  -0.091  1.00  0.00     0.348 HD
BRANCH  13  17
ATOM     17  C   UNL     1      -0.846  -1.768   1.413  1.00  0.00     0.343 C 
BRANCH  17  18
ATOM     18  C   UNL     1      -1.590  -0.906   2.379  1.00  0.00     0.210 A 
ATOM     19  N   UNL     1      -1.072  -0.315   3.442  1.00  0.00    -0.107 NA
ATOM     20  N   UNL     1      -2.917  -0.522   2.291  1.00  0.00    -0.192 N 
ATOM     21  N   UNL     1      -2.049   0.500   3.945  1.00  0.00    -0.023 NA
ATOM     22  N   UNL     1      -3.137   0.459   3.191  1.00  0.00    -0.040 NA
BRANCH  20  23
ATOM     23  C   UNL     1      -3.883  -0.894   1.338  1.00  0.00     0.069 A 
ATOM     24  C   UNL     1      -4.593   0.111   0.671  1.00  0.00     0.028 A 
ATOM     25  C   UNL     1      -4.011  -2.233   0.954  1.00  0.00     0.028 A 
ATOM     26  C   UNL     1      -5.289  -0.214  -0.493  1.00  0.00     0.002 A 
ATOM     27  C   UNL     1      -4.748  -2.553  -0.184  1.00  0.00     0.002 A 
ATOM     28  C   UNL     1      -5.349  -1.539  -0.930  1.00  0.00     0.000 A 
ENDBRANCH  20  23
ENDBRANCH  17  18
ENDBRANCH  13  17
ENDBRANCH   8  10
ENDBRANCH   7   8
ENDBRANCH   6   7
ENDBRANCH   5   6
ENDBRANCH   4   5
ENDBRANCH   3   4
ENDBRANCH   2   3
ENDBRANCH   1   2
BRANCH   1  29
ATOM     29  C   UNL     1       2.687   2.307   4.243  1.00  0.00     0.188 C 
BRANCH  29  30
ATOM     30  C   UNL     1       3.607   3.485   4.527  1.00  0.00     0.188 C 
BRANCH  30  31
ATOM     31  O   UNL     1       4.575   3.853   3.559  1.00  0.00    -0.376 OA
BRANCH  31  32
ATOM     32  C   UNL     1       5.344   2.924   2.808  1.00  0.00     0.202 C 
BRANCH  32  33
ATOM     33  C   UNL     1       5.700   1.464   3.186  1.00  0.00     0.261 C 
BRANCH  33  34
ATOM     34  O   UNL     1       5.123   0.862   4.342  1.00  0.00    -0.460 OA
BRANCH  34  35
ATOM     35  C   UNL     1       5.649   1.220   5.527  1.00  0.00     0.338 C 
ATOM     36  O   UNL     1       6.568   2.000   5.717  1.00  0.00    -0.246 OA
BRANCH  35  37
ATOM     37  C   UNL     1       4.794   0.646   6.588  1.00  0.00     0.060 A 
ATOM     38  C   UNL     1       4.223   1.523   7.517  1.00  0.00     0.016 A 
ATOM     39  C   UNL     1       4.548  -0.729   6.666  1.00  0.00     0.016 A 
ATOM     40  C   UNL     1       3.453   1.027   8.562  1.00  0.00     0.010 A 
ATOM     41  C   UNL     1       3.805  -1.232   7.739  1.00  0.00     0.010 A 
ATOM     42  C   UNL     1       3.302  -0.356   8.717  1.00  0.00    -0.014 A 
BRANCH  42  43
ATOM     43  C   UNL     1       2.879  -0.856  10.045  1.00  0.00     0.031 A 
ATOM     44  C   UNL     1       3.960  -1.224  11.028  1.00  0.00     0.074 A 
ATOM     45  C   UNL     1       1.585  -0.879  10.408  1.00  0.00     0.049 A 
ATOM     46  N   UNL     1       3.854  -1.611  12.272  1.00  0.00    -0.248 NA
ATOM     47  C   UNL     1       5.348  -1.134  10.543  1.00  0.00     0.031 C 
ATOM     48  C   UNL     1       0.459  -0.487   9.562  1.00  0.00     0.029 A 
ATOM     49  N   UNL     1       1.006  -1.235  11.600  1.00  0.00    -0.354 N 
ATOM     50  C   UNL     1       5.157  -1.812  12.714  1.00  0.00     0.074 A 
ATOM     51  C   UNL     1       6.034  -1.542  11.598  1.00  0.00     0.031 C 
ATOM     52  C   UNL     1      -0.680  -0.623  10.266  1.00  0.00     0.029 A 
ATOM     53  C   UNL     1      -0.363  -1.133  11.600  1.00  0.00     0.049 A 
ATOM     54  H   UNL     1       1.524  -1.536  12.381  1.00  0.00     0.167 HD
ATOM     55  C   UNL     1       5.588  -2.177  13.943  1.00  0.00     0.031 A 
ATOM     56  C   UNL     1      -1.257  -1.427  12.565  1.00  0.00     0.031 A 
ATOM     57  C   UNL     1       4.710  -2.460  15.046  1.00  0.00     0.049 A 
ATOM     58  C   UNL     1      -0.757  -1.909  13.904  1.00  0.00     0.074 A 
ATOM     59  C   UNL     1       5.042  -2.838  16.335  1.00  0.00     0.029 A 
ATOM     60  N   UNL     1       3.326  -2.402  14.989  1.00  0.00    -0.354 N 
ATOM     61  N   UNL     1       0.479  -2.078  14.314  1.00  0.00    -0.248 NA
ATOM     62  C   UNL     1      -1.774  -2.222  14.917  1.00  0.00     0.031 C 
ATOM     63  C   UNL     1       3.856  -3.072  17.038  1.00  0.00     0.029 A 
ATOM     64  C   UNL     1       2.787  -2.765  16.211  1.00  0.00     0.049 A 
ATOM     65  H   UNL     1       2.804  -2.141  14.196  1.00  0.00     0.167 HD
ATOM     66  C   UNL     1       0.387  -2.486  15.642  1.00  0.00     0.074 A 
ATOM     67  C   UNL     1      -1.024  -2.519  15.969  1.00  0.00     0.031 C 
ATOM     68  C   UNL     1       1.378  -2.799  16.516  1.00  0.00     0.031 A 
BRANCH  55  69
ATOM     69  C   UNL     1       7.073  -2.335  14.140  1.00  0.00    -0.014 A 
ATOM     70  C   UNL     1       7.937  -1.224  14.137  1.00  0.00     0.010 A 
ATOM     71  C   UNL     1       7.611  -3.617  14.352  1.00  0.00     0.010 A 
ATOM     72  C   UNL     1       9.314  -1.398  14.306  1.00  0.00     0.020 A 
ATOM     73  C   UNL     1       8.982  -3.792  14.552  1.00  0.00     0.020 A 
ATOM     74  C   UNL     1       9.828  -2.682  14.512  1.00  0.00     0.054 A 
BRANCH  74  75
ATOM     75  S   UNL     1      11.614  -2.876  14.756  1.00  0.00     0.124 S 
ATOM     76  O   UNL     1      12.133  -2.599  13.418  1.00  0.00    -0.237 OA
ATOM     77  O   UNL     1      11.911  -1.863  15.766  1.00  0.00    -0.237 OA
ATOM     78  O   UNL     1      11.756  -4.259  15.204  1.00  0.00    -0.744 OA
ENDBRANCH  74  75
ENDBRANCH  55  69
BRANCH  56  79
ATOM     79  C   UNL     1      -2.716  -1.287  12.300  1.00  0.00    -0.014 A 
ATOM     80  C   UNL     1      -3.486  -0.319  12.968  1.00  0.00     0.010 A 
ATOM     81  C   UNL     1      -3.349  -2.141  11.376  1.00  0.00     0.010 A 
ATOM     82  C   UNL     1      -4.862  -0.222  12.735  1.00  0.00     0.020 A 
ATOM     83  C   UNL     1      -4.717  -2.026  11.117  1.00  0.00     0.020 A 
ATOM     84  C   UNL     1      -5.468  -1.075  11.808  1.00  0.00     0.054 A 
BRANCH  84  85
ATOM     85  S   UNL     1      -7.246  -0.902  11.489  1.00  0.00     0.124 S 
ATOM     86  O   UNL     1      -7.828  -1.419  12.723  1.00  0.00    -0.237 OA
ATOM     87  O   UNL     1      -7.389   0.536  11.276  1.00  0.00    -0.237 OA
ATOM     88  O   UNL     1      -7.463  -1.725  10.302  1.00  0.00    -0.744 OA
ENDBRANCH  84  85
ENDBRANCH  56  79
BRANCH  68  89
ATOM     89  C   UNL     1       0.974  -3.162  17.922  1.00  0.00    -0.014 A 
ATOM     90  C   UNL     1       0.296  -4.361  18.209  1.00  0.00     0.010 A 
ATOM     91  C   UNL     1       1.310  -2.298  18.982  1.00  0.00     0.010 A 
ATOM     92  C   UNL     1      -0.085  -4.662  19.520  1.00  0.00     0.020 A 
ATOM     93  C   UNL     1       0.964  -2.612  20.298  1.00  0.00     0.020 A 
ATOM     94  C   UNL     1       0.248  -3.783  20.555  1.00  0.00     0.054 A 
BRANCH  94  95
ATOM     95  S   UNL     1      -0.247  -4.201  22.249  1.00  0.00     0.124 S 
ATOM     96  O   UNL     1      -1.689  -3.969  22.209  1.00  0.00    -0.237 OA
ATOM     97  O   UNL     1       0.161  -5.598  22.367  1.00  0.00    -0.237 OA
ATOM     98  O   UNL     1       0.512  -3.264  23.074  1.00  0.00    -0.744 OA
ENDBRANCH  94  95
ENDBRANCH  68  89
ENDBRANCH  42  43
ENDBRANCH  35  37
ENDBRANCH  34  35
ENDBRANCH  33  34
ENDBRANCH  32  33
ENDBRANCH  31  32
ENDBRANCH  30  31
ENDBRANCH  29  30
ENDBRANCH   1  29
TORSDOF 26
