REMARK SMILES O=C(OCCOCCOCCOCCOC(=O)[C@]12CCC[NH2+][C@@H]1CCN(C(=O)Cc1c(F)cccc1Cl)C2)c1ccc(-c2c3nc(c(-c4ccc(S(=O)(=O)[O-])cc4)c4ccc([nH]4)c(-c4ccc(S(=O)(=O)[O-])cc4)c4nc(c(-c5ccc(S(=O)(=O)[O-])cc5)c5ccc2[nH]5)C=C4)C=C3)cc1
REMARK SMILES IDX 9 1 8 2 7 3 6 4 5 5 4 6 3 7 2 8 1 9 39 10 40 11 98 12 41 13
REMARK SMILES IDX 97 14 42 15 43 16 44 17 91 18 45 19 96 20 90 21 92 22 46 23
REMARK SMILES IDX 95 24 89 25 88 26 47 28 77 29 58 30 76 31 59 32 62 33 75 34
REMARK SMILES IDX 93 35 60 36 61 37 74 39 94 40 63 41 48 42 49 43 57 44 50 45
REMARK SMILES IDX 56 46 51 47 52 48 53 49 54 50 55 51 78 52 79 53 87 54 80 55
REMARK SMILES IDX 86 56 81 57 82 58 83 59 84 60 85 61 64 62 65 63 73 64 66 65
REMARK SMILES IDX 72 66 67 67 68 68 69 69 70 70 71 71 10 72 11 73 12 74 13 75
REMARK SMILES IDX 14 76 15 77 16 78 17 79 18 80 19 81 23 82 38 83 20 84 22 85
REMARK SMILES IDX 24 86 26 87 21 88 25 91 27 92 28 93 29 94 30 95 31 96 36 97
REMARK SMILES IDX 32 98 33 99 35 100 37 101 34 102
REMARK H PARENT 92 27 62 38 22 89 22 90
REMARK Flexibility Score: inf
ROOT
ATOM      1  O   UNL     1       3.334  -0.788   3.064  1.00  0.00    -0.377 OA
ENDROOT
BRANCH   1   2
ATOM      2  C   UNL     1       2.393  -0.741   1.998  1.00  0.00     0.188 C 
BRANCH   2   3
ATOM      3  C   UNL     1       2.660   0.342   0.964  1.00  0.00     0.188 C 
BRANCH   3   4
ATOM      4  O   UNL     1       3.939   0.137   0.403  1.00  0.00    -0.376 OA
BRANCH   4   5
ATOM      5  C   UNL     1       4.725   1.253   0.008  1.00  0.00     0.202 C 
BRANCH   5   6
ATOM      6  C   UNL     1       4.054   2.118  -1.047  1.00  0.00     0.261 C 
BRANCH   6   7
ATOM      7  O   UNL     1       3.865   1.322  -2.228  1.00  0.00    -0.460 OA
BRANCH   7   8
ATOM      8  C   UNL     1       2.698   0.629  -2.305  1.00  0.00     0.338 C 
ATOM      9  O   UNL     1       1.583   1.030  -2.051  1.00  0.00    -0.246 OA
BRANCH   8  10
ATOM     10  C   UNL     1       3.064  -0.751  -2.691  1.00  0.00     0.060 A 
ATOM     11  C   UNL     1       4.069  -1.397  -1.968  1.00  0.00     0.016 A 
ATOM     12  C   UNL     1       2.480  -1.387  -3.781  1.00  0.00     0.016 A 
ATOM     13  C   UNL     1       4.553  -2.619  -2.327  1.00  0.00     0.010 A 
ATOM     14  C   UNL     1       2.980  -2.633  -4.174  1.00  0.00     0.010 A 
ATOM     15  C   UNL     1       4.031  -3.225  -3.452  1.00  0.00    -0.014 A 
BRANCH  15  16
ATOM     16  C   UNL     1       4.811  -4.370  -3.914  1.00  0.00     0.031 A 
ATOM     17  C   UNL     1       5.799  -4.120  -5.006  1.00  0.00     0.074 A 
ATOM     18  C   UNL     1       4.805  -5.494  -3.176  1.00  0.00     0.049 A 
ATOM     19  N   UNL     1       6.534  -4.974  -5.653  1.00  0.00    -0.248 NA
ATOM     20  C   UNL     1       6.010  -2.713  -5.410  1.00  0.00     0.031 C 
ATOM     21  C   UNL     1       4.064  -5.679  -1.919  1.00  0.00     0.029 A 
ATOM     22  N   UNL     1       5.470  -6.672  -3.343  1.00  0.00    -0.354 N 
ATOM     23  C   UNL     1       7.229  -4.224  -6.592  1.00  0.00     0.074 A 
ATOM     24  C   UNL     1       6.880  -2.839  -6.400  1.00  0.00     0.031 C 
ATOM     25  C   UNL     1       4.305  -6.911  -1.445  1.00  0.00     0.029 A 
ATOM     26  C   UNL     1       5.126  -7.623  -2.412  1.00  0.00     0.049 A 
ATOM     27  H   UNL     1       6.129  -6.826  -4.058  1.00  0.00     0.167 HD
ATOM     28  C   UNL     1       8.047  -4.692  -7.557  1.00  0.00     0.031 A 
ATOM     29  C   UNL     1       5.383  -8.942  -2.415  1.00  0.00     0.031 A 
ATOM     30  C   UNL     1       8.340  -6.091  -7.687  1.00  0.00     0.049 A 
ATOM     31  C   UNL     1       6.171  -9.463  -3.588  1.00  0.00     0.074 A 
ATOM     32  C   UNL     1       9.070  -6.738  -8.662  1.00  0.00     0.029 A 
ATOM     33  N   UNL     1       7.895  -7.061  -6.795  1.00  0.00    -0.354 N 
ATOM     34  N   UNL     1       6.747  -8.784  -4.556  1.00  0.00    -0.248 NA
ATOM     35  C   UNL     1       6.315 -10.916  -3.698  1.00  0.00     0.031 C 
ATOM     36  C   UNL     1       9.005  -8.110  -8.396  1.00  0.00     0.029 A 
ATOM     37  C   UNL     1       8.295  -8.309  -7.218  1.00  0.00     0.049 A 
ATOM     38  H   UNL     1       7.372  -6.881  -5.981  1.00  0.00     0.167 HD
ATOM     39  C   UNL     1       7.326  -9.727  -5.391  1.00  0.00     0.074 A 
ATOM     40  C   UNL     1       7.060 -11.022  -4.790  1.00  0.00     0.031 C 
ATOM     41  C   UNL     1       8.000  -9.556  -6.555  1.00  0.00     0.031 A 
BRANCH  28  42
ATOM     42  C   UNL     1       8.528  -3.722  -8.595  1.00  0.00    -0.014 A 
ATOM     43  C   UNL     1       9.536  -2.778  -8.335  1.00  0.00     0.010 A 
ATOM     44  C   UNL     1       7.942  -3.764  -9.874  1.00  0.00     0.010 A 
ATOM     45  C   UNL     1       9.945  -1.891  -9.337  1.00  0.00     0.020 A 
ATOM     46  C   UNL     1       8.361  -2.895 -10.883  1.00  0.00     0.020 A 
ATOM     47  C   UNL     1       9.360  -1.961 -10.607  1.00  0.00     0.054 A 
BRANCH  47  48
ATOM     48  S   UNL     1       9.957  -0.846 -11.907  1.00  0.00     0.124 S 
ATOM     49  O   UNL     1       9.450   0.447 -11.457  1.00  0.00    -0.237 OA
ATOM     50  O   UNL     1      11.406  -1.014 -11.828  1.00  0.00    -0.237 OA
ATOM     51  O   UNL     1       9.338  -1.367 -13.124  1.00  0.00    -0.744 OA
ENDBRANCH  47  48
ENDBRANCH  28  42
BRANCH  29  52
ATOM     52  C   UNL     1       4.767  -9.849  -1.405  1.00  0.00    -0.014 A 
ATOM     53  C   UNL     1       5.555 -10.661  -0.573  1.00  0.00     0.010 A 
ATOM     54  C   UNL     1       3.363  -9.942  -1.304  1.00  0.00     0.010 A 
ATOM     55  C   UNL     1       4.956 -11.576   0.302  1.00  0.00     0.020 A 
ATOM     56  C   UNL     1       2.760 -10.826  -0.406  1.00  0.00     0.020 A 
ATOM     57  C   UNL     1       3.562 -11.657   0.373  1.00  0.00     0.054 A 
BRANCH  57  58
ATOM     58  S   UNL     1       2.805 -12.864   1.497  1.00  0.00     0.124 S 
ATOM     59  O   UNL     1       3.083 -14.125   0.818  1.00  0.00    -0.237 OA
ATOM     60  O   UNL     1       3.538 -12.638   2.741  1.00  0.00    -0.237 OA
ATOM     61  O   UNL     1       1.399 -12.467   1.531  1.00  0.00    -0.744 OA
ENDBRANCH  57  58
ENDBRANCH  29  52
BRANCH  41  62
ATOM     62  C   UNL     1       8.505 -10.798  -7.223  1.00  0.00    -0.014 A 
ATOM     63  C   UNL     1       7.625 -11.658  -7.900  1.00  0.00     0.010 A 
ATOM     64  C   UNL     1       9.889 -11.045  -7.253  1.00  0.00     0.010 A 
ATOM     65  C   UNL     1       8.123 -12.761  -8.588  1.00  0.00     0.020 A 
ATOM     66  C   UNL     1      10.392 -12.127  -7.970  1.00  0.00     0.020 A 
ATOM     67  C   UNL     1       9.504 -12.983  -8.626  1.00  0.00     0.054 A 
BRANCH  67  68
ATOM     68  S   UNL     1      10.130 -14.377  -9.597  1.00  0.00     0.124 S 
ATOM     69  O   UNL     1       9.748 -15.518  -8.770  1.00  0.00    -0.237 OA
ATOM     70  O   UNL     1       9.403 -14.240 -10.856  1.00  0.00    -0.237 OA
ATOM     71  O   UNL     1      11.567 -14.122  -9.682  1.00  0.00    -0.744 OA
ENDBRANCH  67  68
ENDBRANCH  41  62
ENDBRANCH  15  16
ENDBRANCH   8  10
ENDBRANCH   7   8
ENDBRANCH   6   7
ENDBRANCH   5   6
ENDBRANCH   4   5
ENDBRANCH   3   4
ENDBRANCH   2   3
ENDBRANCH   1   2
BRANCH   1  72
ATOM     72  C   UNL     1       4.712  -0.875   2.704  1.00  0.00     0.188 C 
BRANCH  72  73
ATOM     73  C   UNL     1       5.172  -2.109   1.914  1.00  0.00     0.188 C 
BRANCH  73  74
ATOM     74  O   UNL     1       4.125  -2.875   1.369  1.00  0.00    -0.376 OA
BRANCH  74  75
ATOM     75  C   UNL     1       3.585  -3.964   2.099  1.00  0.00     0.202 C 
BRANCH  75  76
ATOM     76  C   UNL     1       3.538  -4.097   3.639  1.00  0.00     0.261 C 
BRANCH  76  77
ATOM     77  O   UNL     1       3.554  -2.939   4.492  1.00  0.00    -0.463 OA
BRANCH  77  78
ATOM     78  C   UNL     1       4.758  -2.647   5.050  1.00  0.00     0.320 C 
ATOM     79  O   UNL     1       5.798  -3.181   4.665  1.00  0.00    -0.251 OA
BRANCH  78  80
ATOM     80  C   UNL     1       4.733  -1.687   6.267  1.00  0.00     0.137 C 
ATOM     81  C   UNL     1       6.177  -1.716   6.848  1.00  0.00     0.033 C 
ATOM     82  C   UNL     1       3.825  -2.225   7.375  1.00  0.00     0.203 C 
ATOM     83  C   UNL     1       4.396  -0.192   6.005  1.00  0.00     0.144 C 
ATOM     84  C   UNL     1       6.591  -3.089   7.383  1.00  0.00     0.063 C 
ATOM     85  N   UNL     1       4.068  -3.629   7.726  1.00  0.00    -0.343 N 
ATOM     86  C   UNL     1       2.344  -1.938   7.072  1.00  0.00     0.088 C 
ATOM     87  N   UNL     1       2.978   0.174   5.885  1.00  0.00    -0.341 N 
ATOM     88  C   UNL     1       5.455  -4.102   7.592  1.00  0.00     0.260 C 
ATOM     89  H   UNL     1       3.788  -3.759   8.699  1.00  0.00     0.346 HD
ATOM     90  H   UNL     1       3.527  -4.175   7.056  1.00  0.00     0.346 HD
ATOM     91  C   UNL     1       2.094  -0.440   6.869  1.00  0.00     0.125 C 
BRANCH  87  92
ATOM     92  C   UNL     1       2.660   1.297   5.098  1.00  0.00     0.227 C 
ATOM     93  O   UNL     1       3.532   1.881   4.440  1.00  0.00    -0.275 OA
BRANCH  92  94
ATOM     94  C   UNL     1       1.241   1.890   5.106  1.00  0.00     0.140 C 
BRANCH  94  95
ATOM     95  C   UNL     1       0.474   1.778   3.800  1.00  0.00     0.016 A 
ATOM     96  C   UNL     1       0.686   2.725   2.783  1.00  0.00     0.128 A 
ATOM     97  C   UNL     1      -0.448   0.755   3.525  1.00  0.00     0.047 A 
ATOM     98  F   UNL     1       1.516   3.757   2.992  1.00  0.00    -0.207 F 
ATOM     99  C   UNL     1       0.068   2.631   1.532  1.00  0.00     0.039 A 
ATOM    100  C   UNL     1      -1.061   0.646   2.265  1.00  0.00     0.021 A 
ATOM    101  Cl  UNL     1      -0.863  -0.453   4.685  1.00  0.00    -0.084 Cl
ATOM    102  C   UNL     1      -0.791   1.572   1.262  1.00  0.00     0.005 A 
ENDBRANCH  94  95
ENDBRANCH  92  94
ENDBRANCH  87  92
ENDBRANCH  78  80
ENDBRANCH  77  78
ENDBRANCH  76  77
ENDBRANCH  75  76
ENDBRANCH  74  75
ENDBRANCH  73  74
ENDBRANCH  72  73
ENDBRANCH   1  72
TORSDOF 26
