REMARK SMILES C[N@@H+]1CCN(C(=O)c2ccc3[nH]c4c(c3c2)CSCC4)C[C@H]1C(=O)OCCOCCOCCOCCOC(=O)c1ccc(-c2c3nc(c(-c4ccc(S(=O)(=O)[O-])cc4)c4ccc([nH]4)c(-c4ccc(S(=O)(=O)[O-])cc4)c4nc(c(-c5ccc(S(=O)(=O)[O-])cc5)c5ccc2[nH]5)C=C4)C=C3)cc1
REMARK SMILES IDX 32 1 31 2 30 3 29 4 28 5 27 6 26 7 25 8 23 9 24 10 22 11
REMARK SMILES IDX 1 12 2 13 3 14 4 16 21 17 5 18 6 19 7 20 8 21 9 22 16 23
REMARK SMILES IDX 10 24 15 25 11 26 14 27 12 28 13 29 17 30 20 32 18 33 19 34
REMARK SMILES IDX 33 35 34 36 35 37 36 38 37 39 38 40 39 41 40 42 41 43 99 44
REMARK SMILES IDX 42 45 98 46 43 47 44 48 45 49 92 50 46 51 97 52 91 53 93 54
REMARK SMILES IDX 47 55 96 56 90 57 89 58 48 60 78 61 59 62 77 63 60 64 63 65
REMARK SMILES IDX 76 66 94 67 61 68 62 69 75 71 95 72 64 73 49 74 50 75 58 76
REMARK SMILES IDX 51 77 57 78 52 79 53 80 54 81 55 82 56 83 79 84 80 85 88 86
REMARK SMILES IDX 81 87 87 88 82 89 83 90 84 91 85 92 86 93 65 94 66 95 74 96
REMARK SMILES IDX 67 97 73 98 68 99 69 100 70 101 71 102 72 103
REMARK H PARENT 2 15 12 31 93 59 63 70
REMARK Flexibility Score: inf
ROOT
ATOM      1  C   UNL     1       4.255  -2.343  -1.067  1.00  0.00     0.188 C 
ENDROOT
BRANCH   1   2
ATOM      2  O   UNL     1       3.413  -2.012   0.035  1.00  0.00    -0.377 OA
BRANCH   2   3
ATOM      3  C   UNL     1       3.416  -2.873   1.162  1.00  0.00     0.188 C 
BRANCH   3   4
ATOM      4  C   UNL     1       2.750  -4.238   0.965  1.00  0.00     0.188 C 
BRANCH   4   5
ATOM      5  O   UNL     1       3.194  -4.864  -0.220  1.00  0.00    -0.376 OA
BRANCH   5   6
ATOM      6  C   UNL     1       2.280  -5.021  -1.309  1.00  0.00     0.202 C 
BRANCH   6   7
ATOM      7  C   UNL     1       1.009  -4.166  -1.561  1.00  0.00     0.261 C 
BRANCH   7   8
ATOM      8  O   UNL     1       1.009  -2.746  -1.275  1.00  0.00    -0.459 OA
BRANCH   8   9
ATOM      9  C   UNL     1       0.206  -2.408  -0.235  1.00  0.00     0.366 C 
ATOM     10  O   UNL     1      -0.223  -3.236   0.577  1.00  0.00    -0.245 OA
BRANCH   9  11
ATOM     11  C   UNL     1      -0.267  -0.977  -0.068  1.00  0.00     0.314 C 
ATOM     12  C   UNL     1       1.834   0.304  -0.377  1.00  0.00     0.333 C 
ATOM     13  N   UNL     1       0.411   0.229  -0.665  1.00  0.00    -0.323 N 
ATOM     14  C   UNL     1      -0.250   1.432  -0.069  1.00  0.00     0.284 C 
ATOM     15  H   UNL     1       0.321   0.172  -1.679  1.00  0.00     0.348 HD
ATOM     16  C   UNL     1      -1.777   1.473  -0.287  1.00  0.00     0.181 C 
ATOM     17  C   UNL     1      -1.746  -0.967  -0.513  1.00  0.00     0.197 C 
ATOM     18  N   UNL     1      -2.399   0.208   0.085  1.00  0.00    -0.326 N 
BRANCH  18  19
ATOM     19  C   UNL     1      -3.437   0.168   1.001  1.00  0.00     0.254 C 
ATOM     20  O   UNL     1      -3.897   1.159   1.562  1.00  0.00    -0.269 OA
BRANCH  19  21
ATOM     21  C   UNL     1      -4.043  -1.145   1.295  1.00  0.00     0.040 A 
ATOM     22  C   UNL     1      -3.399  -2.055   2.136  1.00  0.00     0.016 A 
ATOM     23  C   UNL     1      -5.246  -1.458   0.652  1.00  0.00     0.024 A 
ATOM     24  C   UNL     1      -3.930  -3.334   2.325  1.00  0.00     0.027 A 
ATOM     25  C   UNL     1      -5.805  -2.732   0.851  1.00  0.00     0.004 A 
ATOM     26  C   UNL     1      -5.132  -3.641   1.671  1.00  0.00     0.046 A 
ATOM     27  C   UNL     1      -6.975  -3.383   0.355  1.00  0.00    -0.009 A 
ATOM     28  N   UNL     1      -5.840  -4.821   1.623  1.00  0.00    -0.358 N 
ATOM     29  C   UNL     1      -7.002  -4.638   0.926  1.00  0.00     0.021 A 
ATOM     30  C   UNL     1      -7.970  -2.828  -0.606  1.00  0.00     0.107 C 
ATOM     31  H   UNL     1      -5.553  -5.670   2.031  1.00  0.00     0.166 HD
ATOM     32  C   UNL     1      -8.051  -5.672   0.754  1.00  0.00     0.065 C 
ATOM     33  S   UNL     1      -9.427  -3.892  -0.945  1.00  0.00    -0.157 SA
ATOM     34  C   UNL     1      -9.403  -4.991   0.519  1.00  0.00     0.076 C 
ENDBRANCH  19  21
ENDBRANCH  18  19
ENDBRANCH   9  11
ENDBRANCH   8   9
ENDBRANCH   7   8
ENDBRANCH   6   7
ENDBRANCH   5   6
ENDBRANCH   4   5
ENDBRANCH   3   4
ENDBRANCH   2   3
ENDBRANCH   1   2
BRANCH   1  35
ATOM     35  C   UNL     1       5.700  -2.669  -0.693  1.00  0.00     0.188 C 
BRANCH  35  36
ATOM     36  O   UNL     1       6.388  -1.669   0.065  1.00  0.00    -0.376 OA
BRANCH  36  37
ATOM     37  C   UNL     1       6.156  -0.307  -0.304  1.00  0.00     0.202 C 
BRANCH  37  38
ATOM     38  C   UNL     1       6.799   0.132  -1.627  1.00  0.00     0.261 C 
BRANCH  38  39
ATOM     39  O   UNL     1       6.183  -0.538  -2.738  1.00  0.00    -0.460 OA
BRANCH  39  40
ATOM     40  C   UNL     1       7.016  -1.192  -3.583  1.00  0.00     0.338 C 
ATOM     41  O   UNL     1       8.222  -1.036  -3.697  1.00  0.00    -0.246 OA
BRANCH  40  42
ATOM     42  C   UNL     1       6.268  -2.344  -4.132  1.00  0.00     0.060 A 
ATOM     43  C   UNL     1       4.939  -2.223  -4.543  1.00  0.00     0.016 A 
ATOM     44  C   UNL     1       6.878  -3.607  -4.058  1.00  0.00     0.016 A 
ATOM     45  C   UNL     1       4.221  -3.374  -4.856  1.00  0.00     0.010 A 
ATOM     46  C   UNL     1       6.149  -4.760  -4.351  1.00  0.00     0.010 A 
ATOM     47  C   UNL     1       4.819  -4.647  -4.753  1.00  0.00    -0.014 A 
BRANCH  47  48
ATOM     48  C   UNL     1       4.082  -5.776  -5.333  1.00  0.00     0.031 A 
ATOM     49  C   UNL     1       3.875  -5.649  -6.806  1.00  0.00     0.074 A 
ATOM     50  C   UNL     1       3.727  -6.946  -4.764  1.00  0.00     0.049 A 
ATOM     51  N   UNL     1       2.764  -5.536  -7.455  1.00  0.00    -0.248 NA
ATOM     52  C   UNL     1       5.082  -5.546  -7.640  1.00  0.00     0.031 C 
ATOM     53  C   UNL     1       4.136  -7.506  -3.477  1.00  0.00     0.029 A 
ATOM     54  N   UNL     1       2.959  -7.941  -5.308  1.00  0.00    -0.354 N 
ATOM     55  C   UNL     1       3.113  -5.486  -8.802  1.00  0.00     0.074 A 
ATOM     56  C   UNL     1       4.550  -5.382  -8.850  1.00  0.00     0.031 C 
ATOM     57  C   UNL     1       3.784  -8.815  -3.433  1.00  0.00     0.029 A 
ATOM     58  C   UNL     1       3.004  -9.142  -4.617  1.00  0.00     0.049 A 
ATOM     59  H   UNL     1       2.420  -7.814  -6.122  1.00  0.00     0.167 HD
ATOM     60  C   UNL     1       2.215  -5.677  -9.807  1.00  0.00     0.031 A 
ATOM     61  C   UNL     1       2.486 -10.328  -5.025  1.00  0.00     0.031 A 
ATOM     62  C   UNL     1       0.856  -5.580  -9.354  1.00  0.00     0.049 A 
ATOM     63  C   UNL     1       1.455 -10.058  -6.055  1.00  0.00     0.074 A 
ATOM     64  C   UNL     1       0.080  -4.581  -8.804  1.00  0.00     0.029 A 
ATOM     65  N   UNL     1       0.176  -6.754  -9.145  1.00  0.00    -0.354 N 
ATOM     66  N   UNL     1       0.317  -9.470  -5.822  1.00  0.00    -0.248 NA
ATOM     67  C   UNL     1       1.806 -10.204  -7.459  1.00  0.00     0.031 C 
ATOM     68  C   UNL     1      -0.812  -5.245  -7.915  1.00  0.00     0.029 A 
ATOM     69  C   UNL     1      -0.546  -6.615  -7.986  1.00  0.00     0.049 A 
ATOM     70  H   UNL     1       0.202  -7.551  -9.722  1.00  0.00     0.167 HD
ATOM     71  C   UNL     1       0.001  -8.823  -7.004  1.00  0.00     0.074 A 
ATOM     72  C   UNL     1       0.870  -9.426  -8.006  1.00  0.00     0.031 C 
ATOM     73  C   UNL     1      -0.735  -7.673  -7.008  1.00  0.00     0.031 A 
BRANCH  60  74
ATOM     74  C   UNL     1       2.577  -6.229 -11.162  1.00  0.00    -0.014 A 
ATOM     75  C   UNL     1       3.771  -6.941 -11.401  1.00  0.00     0.010 A 
ATOM     76  C   UNL     1       1.608  -6.248 -12.186  1.00  0.00     0.010 A 
ATOM     77  C   UNL     1       4.009  -7.608 -12.604  1.00  0.00     0.020 A 
ATOM     78  C   UNL     1       1.817  -6.955 -13.380  1.00  0.00     0.020 A 
ATOM     79  C   UNL     1       3.023  -7.623 -13.583  1.00  0.00     0.054 A 
BRANCH  79  80
ATOM     80  S   UNL     1       3.317  -8.609 -15.073  1.00  0.00     0.124 S 
ATOM     81  O   UNL     1       4.336  -7.819 -15.759  1.00  0.00    -0.237 OA
ATOM     82  O   UNL     1       3.771  -9.882 -14.521  1.00  0.00    -0.237 OA
ATOM     83  O   UNL     1       2.009  -8.645 -15.723  1.00  0.00    -0.744 OA
ENDBRANCH  79  80
ENDBRANCH  60  74
BRANCH  61  84
ATOM     84  C   UNL     1       3.026 -11.697  -4.832  1.00  0.00    -0.014 A 
ATOM     85  C   UNL     1       4.416 -11.886  -4.706  1.00  0.00     0.010 A 
ATOM     86  C   UNL     1       2.229 -12.826  -5.114  1.00  0.00     0.010 A 
ATOM     87  C   UNL     1       5.000 -13.134  -4.946  1.00  0.00     0.020 A 
ATOM     88  C   UNL     1       2.810 -14.080  -5.361  1.00  0.00     0.020 A 
ATOM     89  C   UNL     1       4.198 -14.214  -5.316  1.00  0.00     0.054 A 
BRANCH  89  90
ATOM     90  S   UNL     1       5.013 -15.751  -5.834  1.00  0.00     0.124 S 
ATOM     91  O   UNL     1       5.671 -15.341  -7.072  1.00  0.00    -0.237 OA
ATOM     92  O   UNL     1       5.906 -16.028  -4.712  1.00  0.00    -0.237 OA
ATOM     93  O   UNL     1       3.909 -16.693  -5.995  1.00  0.00    -0.744 OA
ENDBRANCH  89  90
ENDBRANCH  61  84
BRANCH  73  94
ATOM     94  C   UNL     1      -1.560  -7.322  -5.787  1.00  0.00    -0.014 A 
ATOM     95  C   UNL     1      -2.901  -6.943  -5.991  1.00  0.00     0.010 A 
ATOM     96  C   UNL     1      -1.026  -7.205  -4.488  1.00  0.00     0.010 A 
ATOM     97  C   UNL     1      -3.675  -6.432  -4.946  1.00  0.00     0.020 A 
ATOM     98  C   UNL     1      -1.807  -6.722  -3.428  1.00  0.00     0.020 A 
ATOM     99  C   UNL     1      -3.119  -6.312  -3.671  1.00  0.00     0.054 A 
BRANCH  99 100
ATOM    100  S   UNL     1      -4.130  -5.598  -2.341  1.00  0.00     0.124 S 
ATOM    101  O   UNL     1      -4.070  -4.172  -2.655  1.00  0.00    -0.237 OA
ATOM    102  O   UNL     1      -5.428  -6.238  -2.546  1.00  0.00    -0.237 OA
ATOM    103  O   UNL     1      -3.431  -6.002  -1.123  1.00  0.00    -0.744 OA
ENDBRANCH  99 100
ENDBRANCH  73  94
ENDBRANCH  47  48
ENDBRANCH  40  42
ENDBRANCH  39  40
ENDBRANCH  38  39
ENDBRANCH  37  38
ENDBRANCH  36  37
ENDBRANCH  35  36
ENDBRANCH   1  35
TORSDOF 25
