REMARK SMILES Cn1ncc(C(=O)OCCOCCOCCOCCOC(=O)c2ccc(-c3c4nc(c(-c5ccc(S(=O)(=O)[O-])cc5)c5ccc([nH]5)c(-c5ccc(S(=O)(=O)[O-])cc5)c5nc(c(-c6ccc(S(=O)(=O)[O-])cc6)c6ccc3[nH]6)C=C5)C=C4)cc2)c1C(=O)Nc1nccc(-c2ccc(OC(F)F)cc2)n1
REMARK SMILES IDX 13 1 12 2 11 3 10 4 9 5 8 6 6 7 7 8 5 9 1 10 2 11 3 12 83 13
REMARK SMILES IDX 4 14 84 15 85 16 86 17 87 19 88 20 102 21 89 22 91 23 90 24
REMARK SMILES IDX 92 25 93 26 101 27 94 28 100 29 95 30 96 31 97 32 98 33
REMARK SMILES IDX 99 34 14 35 15 36 16 37 17 38 18 39 19 40 20 41 21 42 22 43
REMARK SMILES IDX 23 44 24 45 82 46 25 47 81 48 26 49 27 50 28 51 75 52 29 53
REMARK SMILES IDX 80 54 74 55 76 56 30 57 79 58 73 59 72 60 31 62 61 63 42 64
REMARK SMILES IDX 60 65 43 66 46 67 59 68 77 69 44 70 45 71 58 73 78 74 47 75
REMARK SMILES IDX 32 76 33 77 41 78 34 79 40 80 35 81 36 82 37 83 38 84 39 85
REMARK SMILES IDX 62 86 63 87 71 88 64 89 70 90 65 91 66 92 67 93 68 94 69 95
REMARK SMILES IDX 48 96 49 97 57 98 50 99 56 100 51 101 52 102 53 103 54 104
REMARK SMILES IDX 55 105
REMARK H PARENT 86 18 76 61 46 72
REMARK Flexibility Score: inf
ROOT
ATOM      1  C   UNL     1       2.822  -1.492  -2.067  1.00  0.00     0.188 C 
ENDROOT
BRANCH   1   2
ATOM      2  C   UNL     1       4.211  -1.236  -1.436  1.00  0.00     0.188 C 
BRANCH   2   3
ATOM      3  O   UNL     1       4.963  -2.395  -1.081  1.00  0.00    -0.376 OA
BRANCH   3   4
ATOM      4  C   UNL     1       5.039  -2.724   0.302  1.00  0.00     0.202 C 
BRANCH   4   5
ATOM      5  C   UNL     1       3.825  -3.519   0.789  1.00  0.00     0.261 C 
BRANCH   5   6
ATOM      6  O   UNL     1       2.618  -2.752   0.702  1.00  0.00    -0.460 OA
BRANCH   6   7
ATOM      7  C   UNL     1       2.520  -1.715   1.568  1.00  0.00     0.342 C 
ATOM      8  O   UNL     1       3.344  -1.464   2.443  1.00  0.00    -0.246 OA
BRANCH   7   9
ATOM      9  C   UNL     1       1.467  -0.782   1.226  1.00  0.00     0.111 A 
ATOM     10  C   UNL     1      -1.660   0.732   1.576  1.00  0.00     0.174 C 
ATOM     11  N   UNL     1      -0.410   0.281   1.013  1.00  0.00    -0.262 N 
ATOM     12  N   UNL     1       0.526   1.247   0.860  1.00  0.00    -0.180 NA
ATOM     13  C   UNL     1       0.104  -1.001   0.969  1.00  0.00     0.140 A 
ATOM     14  C   UNL     1       1.662   0.605   1.098  1.00  0.00     0.151 A 
BRANCH  13  15
ATOM     15  C   UNL     1      -0.556  -2.296   0.938  1.00  0.00     0.277 C 
ATOM     16  O   UNL     1       0.055  -3.307   1.303  1.00  0.00    -0.267 OA
ATOM     17  N   UNL     1      -1.863  -2.533   0.643  1.00  0.00    -0.289 N 
ATOM     18  H   UNL     1      -2.123  -3.456   0.865  1.00  0.00     0.173 HD
BRANCH  17  19
ATOM     19  C   UNL     1      -2.916  -1.824   0.116  1.00  0.00     0.230 A 
ATOM     20  N   UNL     1      -4.102  -2.283   0.544  1.00  0.00    -0.221 NA
ATOM     21  N   UNL     1      -2.764  -0.743  -0.651  1.00  0.00    -0.213 NA
ATOM     22  C   UNL     1      -5.189  -1.553   0.256  1.00  0.00     0.117 A 
ATOM     23  C   UNL     1      -3.894  -0.064  -0.977  1.00  0.00     0.076 A 
ATOM     24  C   UNL     1      -5.143  -0.414  -0.501  1.00  0.00     0.049 A 
BRANCH  23  25
ATOM     25  C   UNL     1      -3.714   1.126  -1.813  1.00  0.00     0.001 A 
ATOM     26  C   UNL     1      -3.423   1.010  -3.178  1.00  0.00     0.014 A 
ATOM     27  C   UNL     1      -3.830   2.415  -1.269  1.00  0.00     0.014 A 
ATOM     28  C   UNL     1      -3.238   2.150  -3.966  1.00  0.00     0.047 A 
ATOM     29  C   UNL     1      -3.624   3.555  -2.054  1.00  0.00     0.047 A 
ATOM     30  C   UNL     1      -3.317   3.429  -3.407  1.00  0.00     0.126 A 
BRANCH  30  31
ATOM     31  O   UNL     1      -3.078   4.451  -4.279  1.00  0.00    -0.435 OA
BRANCH  31  32
ATOM     32  C   UNL     1      -2.968   5.768  -3.756  1.00  0.00     0.542 C 
ATOM     33  F   UNL     1      -4.151   6.154  -3.219  1.00  0.00    -0.167 F 
ATOM     34  F   UNL     1      -2.026   5.815  -2.784  1.00  0.00    -0.167 F 
ENDBRANCH  31  32
ENDBRANCH  30  31
ENDBRANCH  23  25
ENDBRANCH  17  19
ENDBRANCH  13  15
ENDBRANCH   7   9
ENDBRANCH   6   7
ENDBRANCH   5   6
ENDBRANCH   4   5
ENDBRANCH   3   4
ENDBRANCH   2   3
ENDBRANCH   1   2
BRANCH   1  35
ATOM     35  O   UNL     1       2.586  -2.525  -3.014  1.00  0.00    -0.377 OA
BRANCH  35  36
ATOM     36  C   UNL     1       3.566  -3.533  -3.180  1.00  0.00     0.188 C 
BRANCH  36  37
ATOM     37  C   UNL     1       4.806  -3.056  -3.953  1.00  0.00     0.188 C 
BRANCH  37  38
ATOM     38  O   UNL     1       4.694  -1.706  -4.412  1.00  0.00    -0.376 OA
BRANCH  38  39
ATOM     39  C   UNL     1       4.341  -1.552  -5.783  1.00  0.00     0.202 C 
BRANCH  39  40
ATOM     40  C   UNL     1       2.896  -1.929  -6.145  1.00  0.00     0.261 C 
BRANCH  40  41
ATOM     41  O   UNL     1       2.572  -3.324  -6.025  1.00  0.00    -0.460 OA
BRANCH  41  42
ATOM     42  C   UNL     1       3.303  -4.204  -6.742  1.00  0.00     0.338 C 
ATOM     43  O   UNL     1       4.187  -3.957  -7.541  1.00  0.00    -0.246 OA
BRANCH  42  44
ATOM     44  C   UNL     1       2.967  -5.557  -6.257  1.00  0.00     0.060 A 
ATOM     45  C   UNL     1       3.993  -6.375  -5.768  1.00  0.00     0.016 A 
ATOM     46  C   UNL     1       1.644  -6.006  -6.275  1.00  0.00     0.016 A 
ATOM     47  C   UNL     1       3.700  -7.663  -5.322  1.00  0.00     0.010 A 
ATOM     48  C   UNL     1       1.355  -7.303  -5.850  1.00  0.00     0.010 A 
ATOM     49  C   UNL     1       2.386  -8.146  -5.400  1.00  0.00    -0.014 A 
BRANCH  49  50
ATOM     50  C   UNL     1       2.117  -9.590  -5.211  1.00  0.00     0.031 A 
ATOM     51  C   UNL     1       2.154 -10.480  -6.423  1.00  0.00     0.074 A 
ATOM     52  C   UNL     1       1.840 -10.102  -3.999  1.00  0.00     0.049 A 
ATOM     53  N   UNL     1       1.927 -11.764  -6.515  1.00  0.00    -0.248 NA
ATOM     54  C   UNL     1       2.490  -9.832  -7.703  1.00  0.00     0.031 C 
ATOM     55  C   UNL     1       1.801  -9.348  -2.747  1.00  0.00     0.029 A 
ATOM     56  N   UNL     1       1.529 -11.387  -3.630  1.00  0.00    -0.354 N 
ATOM     57  C   UNL     1       2.098 -12.079  -7.858  1.00  0.00     0.074 A 
ATOM     58  C   UNL     1       2.419 -10.850  -8.548  1.00  0.00     0.031 C 
ATOM     59  C   UNL     1       1.472 -10.185  -1.746  1.00  0.00     0.029 A 
ATOM     60  C   UNL     1       1.254 -11.525  -2.290  1.00  0.00     0.049 A 
ATOM     61  H   UNL     1       1.505 -12.139  -4.265  1.00  0.00     0.167 HD
ATOM     62  C   UNL     1       1.999 -13.285  -8.464  1.00  0.00     0.031 A 
ATOM     63  C   UNL     1       0.856 -12.606  -1.591  1.00  0.00     0.031 A 
ATOM     64  C   UNL     1       1.648 -14.502  -7.787  1.00  0.00     0.049 A 
ATOM     65  C   UNL     1       0.677 -13.924  -2.303  1.00  0.00     0.074 A 
ATOM     66  C   UNL     1       1.526 -15.775  -8.314  1.00  0.00     0.029 A 
ATOM     67  N   UNL     1       1.347 -14.594  -6.438  1.00  0.00    -0.354 N 
ATOM     68  N   UNL     1       0.878 -14.213  -3.567  1.00  0.00    -0.248 NA
ATOM     69  C   UNL     1       0.219 -15.061  -1.491  1.00  0.00     0.031 C 
ATOM     70  C   UNL     1       1.106 -16.631  -7.290  1.00  0.00     0.029 A 
ATOM     71  C   UNL     1       1.015 -15.898  -6.117  1.00  0.00     0.049 A 
ATOM     72  H   UNL     1       1.367 -13.842  -5.802  1.00  0.00     0.167 HD
ATOM     73  C   UNL     1       0.594 -15.570  -3.695  1.00  0.00     0.074 A 
ATOM     74  C   UNL     1       0.217 -16.045  -2.380  1.00  0.00     0.031 C 
ATOM     75  C   UNL     1       0.642 -16.352  -4.802  1.00  0.00     0.031 A 
BRANCH  62  76
ATOM     76  C   UNL     1       2.249 -13.329  -9.945  1.00  0.00    -0.014 A 
ATOM     77  C   UNL     1       3.552 -13.213 -10.461  1.00  0.00     0.010 A 
ATOM     78  C   UNL     1       1.171 -13.502 -10.831  1.00  0.00     0.010 A 
ATOM     79  C   UNL     1       3.769 -13.235 -11.841  1.00  0.00     0.020 A 
ATOM     80  C   UNL     1       1.386 -13.546 -12.210  1.00  0.00     0.020 A 
ATOM     81  C   UNL     1       2.683 -13.396 -12.707  1.00  0.00     0.054 A 
BRANCH  81  82
ATOM     82  S   UNL     1       2.992 -13.437 -14.494  1.00  0.00     0.124 S 
ATOM     83  O   UNL     1       3.238 -12.027 -14.789  1.00  0.00    -0.237 OA
ATOM     84  O   UNL     1       4.156 -14.313 -14.600  1.00  0.00    -0.237 OA
ATOM     85  O   UNL     1       1.754 -13.982 -15.047  1.00  0.00    -0.744 OA
ENDBRANCH  81  82
ENDBRANCH  62  76
BRANCH  63  86
ATOM     86  C   UNL     1       0.577 -12.493  -0.134  1.00  0.00    -0.014 A 
ATOM     87  C   UNL     1       1.433 -13.088   0.809  1.00  0.00     0.010 A 
ATOM     88  C   UNL     1      -0.563 -11.803   0.317  1.00  0.00     0.010 A 
ATOM     89  C   UNL     1       1.144 -13.011   2.176  1.00  0.00     0.020 A 
ATOM     90  C   UNL     1      -0.843 -11.704   1.683  1.00  0.00     0.020 A 
ATOM     91  C   UNL     1       0.006 -12.321   2.604  1.00  0.00     0.054 A 
BRANCH  91  92
ATOM     92  S   UNL     1      -0.331 -12.200   4.383  1.00  0.00     0.124 S 
ATOM     93  O   UNL     1      -0.854 -13.529   4.683  1.00  0.00    -0.237 OA
ATOM     94  O   UNL     1       0.987 -11.899   4.937  1.00  0.00    -0.237 OA
ATOM     95  O   UNL     1      -1.300 -11.110   4.473  1.00  0.00    -0.744 OA
ENDBRANCH  91  92
ENDBRANCH  63  86
BRANCH  75  96
ATOM     96  C   UNL     1       0.307 -17.810  -4.639  1.00  0.00    -0.014 A 
ATOM     97  C   UNL     1      -1.023 -18.236  -4.476  1.00  0.00     0.010 A 
ATOM     98  C   UNL     1       1.331 -18.771  -4.720  1.00  0.00     0.010 A 
ATOM     99  C   UNL     1      -1.320 -19.598  -4.374  1.00  0.00     0.020 A 
ATOM    100  C   UNL     1       1.035 -20.134  -4.640  1.00  0.00     0.020 A 
ATOM    101  C   UNL     1      -0.289 -20.539  -4.455  1.00  0.00     0.054 A 
BRANCH 101 102
ATOM    102  S   UNL     1      -0.703 -22.303  -4.373  1.00  0.00     0.124 S 
ATOM    103  O   UNL     1      -0.939 -22.493  -2.945  1.00  0.00    -0.237 OA
ATOM    104  O   UNL     1      -1.887 -22.397  -5.224  1.00  0.00    -0.237 OA
ATOM    105  O   UNL     1       0.489 -22.963  -4.901  1.00  0.00    -0.744 OA
ENDBRANCH 101 102
ENDBRANCH  75  96
ENDBRANCH  49  50
ENDBRANCH  42  44
ENDBRANCH  41  42
ENDBRANCH  40  41
ENDBRANCH  39  40
ENDBRANCH  38  39
ENDBRANCH  37  38
ENDBRANCH  36  37
ENDBRANCH  35  36
ENDBRANCH   1  35
TORSDOF 28
