REMARK SMILES C[C@@H](C(=O)OCCOCCOCCOCCOC(=O)c1ccc(-c2c3nc(c(-c4ccc(S(=O)(=O)[O-])cc4)c4ccc([nH]4)c(-c4ccc(S(=O)(=O)[O-])cc4)c4nc(c(-c5ccc(S(=O)(=O)[O-])cc5)c5ccc2[nH]5)C=C4)C=C3)cc1)c1ccc(-c2cccc(OC(=O)NCCC3CCCCC3)c2)c(F)c1
REMARK SMILES IDX 9 1 8 2 7 3 6 4 5 5 3 6 4 7 2 8 1 9 80 10 81 11 104 12 82 13
REMARK SMILES IDX 102 14 83 15 103 16 84 17 85 18 101 19 86 20 88 21 87 22
REMARK SMILES IDX 89 23 90 24 91 25 92 26 93 28 94 29 95 30 96 31 100 32 97 33
REMARK SMILES IDX 99 34 98 35 10 36 11 37 12 38 13 39 14 40 15 41 16 42 17 43
REMARK SMILES IDX 18 44 19 45 20 46 21 47 79 48 22 49 78 50 23 51 24 52 25 53
REMARK SMILES IDX 72 54 26 55 77 56 71 57 73 58 27 59 76 60 70 61 69 62 28 64
REMARK SMILES IDX 58 65 39 66 57 67 40 68 43 69 56 70 74 71 41 72 42 73 55 75
REMARK SMILES IDX 75 76 44 77 29 78 30 79 38 80 31 81 37 82 32 83 33 84 34 85
REMARK SMILES IDX 35 86 36 87 59 88 60 89 68 90 61 91 67 92 62 93 63 94 64 95
REMARK SMILES IDX 65 96 66 97 45 98 46 99 54 100 47 101 53 102 48 103 49 104
REMARK SMILES IDX 50 105 51 106 52 107
REMARK H PARENT 92 27 73 63 43 74
REMARK Flexibility Score: inf
ROOT
ATOM      1  C   UNL     1       0.044  -1.081   3.415  1.00  0.00     0.188 C 
ENDROOT
BRANCH   1   2
ATOM      2  O   UNL     1       0.704  -1.834   4.413  1.00  0.00    -0.376 OA
BRANCH   2   3
ATOM      3  C   UNL     1       1.901  -2.545   4.132  1.00  0.00     0.202 C 
BRANCH   3   4
ATOM      4  C   UNL     1       2.374  -2.978   2.728  1.00  0.00     0.261 C 
BRANCH   4   5
ATOM      5  O   UNL     1       1.896  -2.215   1.611  1.00  0.00    -0.463 OA
BRANCH   5   6
ATOM      6  C   UNL     1       1.099  -2.856   0.726  1.00  0.00     0.313 C 
ATOM      7  O   UNL     1       0.797  -4.043   0.814  1.00  0.00    -0.252 OA
BRANCH   6   8
ATOM      8  C   UNL     1       0.526  -1.932  -0.369  1.00  0.00     0.126 C 
ATOM      9  C   UNL     1       1.406  -0.721  -0.717  1.00  0.00     0.025 C 
BRANCH   8  10
ATOM     10  C   UNL     1      -0.976  -1.679  -0.171  1.00  0.00    -0.031 A 
ATOM     11  C   UNL     1      -1.577  -0.415  -0.046  1.00  0.00     0.005 A 
ATOM     12  C   UNL     1      -1.823  -2.797  -0.101  1.00  0.00     0.044 A 
ATOM     13  C   UNL     1      -2.966  -0.285   0.165  1.00  0.00     0.012 A 
ATOM     14  C   UNL     1      -3.193  -2.662   0.109  1.00  0.00     0.131 A 
ATOM     15  C   UNL     1      -3.799  -1.411   0.249  1.00  0.00     0.018 A 
ATOM     16  F   UNL     1      -3.930  -3.782   0.167  1.00  0.00    -0.206 F 
BRANCH  15  17
ATOM     17  C   UNL     1      -5.249  -1.307   0.487  1.00  0.00    -0.012 A 
ATOM     18  C   UNL     1      -6.091  -0.598  -0.382  1.00  0.00     0.009 A 
ATOM     19  C   UNL     1      -5.832  -1.975   1.581  1.00  0.00     0.056 A 
ATOM     20  C   UNL     1      -7.476  -0.576  -0.178  1.00  0.00     0.004 A 
ATOM     21  C   UNL     1      -7.209  -1.938   1.797  1.00  0.00     0.133 A 
ATOM     22  C   UNL     1      -8.036  -1.249   0.909  1.00  0.00     0.047 A 
BRANCH  21  23
ATOM     23  O   UNL     1      -7.869  -2.580   2.877  1.00  0.00    -0.410 OA
BRANCH  23  24
ATOM     24  C   UNL     1      -7.230  -3.118   3.990  1.00  0.00     0.412 C 
ATOM     25  O   UNL     1      -6.018  -3.174   4.184  1.00  0.00    -0.224 OA
ATOM     26  N   UNL     1      -8.074  -3.593   4.948  1.00  0.00    -0.321 N 
ATOM     27  H   UNL     1      -7.644  -3.956   5.756  1.00  0.00     0.167 HD
BRANCH  26  28
ATOM     28  C   UNL     1      -9.520  -3.634   4.935  1.00  0.00     0.119 C 
BRANCH  28  29
ATOM     29  C   UNL     1     -10.037  -5.075   4.967  1.00  0.00     0.025 C 
BRANCH  29  30
ATOM     30  C   UNL     1      -9.614  -5.887   6.212  1.00  0.00    -0.009 C 
ATOM     31  C   UNL     1     -10.265  -5.355   7.500  1.00  0.00     0.003 C 
ATOM     32  C   UNL     1      -9.953  -7.374   6.007  1.00  0.00     0.003 C 
ATOM     33  C   UNL     1      -9.918  -6.212   8.717  1.00  0.00     0.000 C 
ATOM     34  C   UNL     1      -9.583  -8.213   7.228  1.00  0.00     0.000 C 
ATOM     35  C   UNL     1     -10.252  -7.682   8.490  1.00  0.00     0.000 C 
ENDBRANCH  29  30
ENDBRANCH  28  29
ENDBRANCH  26  28
ENDBRANCH  23  24
ENDBRANCH  21  23
ENDBRANCH  15  17
ENDBRANCH   8  10
ENDBRANCH   6   8
ENDBRANCH   5   6
ENDBRANCH   4   5
ENDBRANCH   3   4
ENDBRANCH   2   3
ENDBRANCH   1   2
BRANCH   1  36
ATOM     36  C   UNL     1       0.775   0.105   2.767  1.00  0.00     0.188 C 
BRANCH  36  37
ATOM     37  O   UNL     1       2.185   0.067   2.841  1.00  0.00    -0.377 OA
BRANCH  37  38
ATOM     38  C   UNL     1       2.820   0.643   3.973  1.00  0.00     0.188 C 
BRANCH  38  39
ATOM     39  C   UNL     1       2.032   0.857   5.281  1.00  0.00     0.188 C 
BRANCH  39  40
ATOM     40  O   UNL     1       0.713   1.358   5.110  1.00  0.00    -0.376 OA
BRANCH  40  41
ATOM     41  C   UNL     1       0.492   2.754   5.239  1.00  0.00     0.202 C 
BRANCH  41  42
ATOM     42  C   UNL     1       1.153   3.682   4.206  1.00  0.00     0.261 C 
BRANCH  42  43
ATOM     43  O   UNL     1       2.586   3.643   4.134  1.00  0.00    -0.460 OA
BRANCH  43  44
ATOM     44  C   UNL     1       3.280   3.914   5.261  1.00  0.00     0.338 C 
ATOM     45  O   UNL     1       2.827   4.255   6.337  1.00  0.00    -0.246 OA
BRANCH  44  46
ATOM     46  C   UNL     1       4.689   3.529   5.024  1.00  0.00     0.060 A 
ATOM     47  C   UNL     1       5.270   2.551   5.841  1.00  0.00     0.016 A 
ATOM     48  C   UNL     1       5.428   4.126   4.000  1.00  0.00     0.016 A 
ATOM     49  C   UNL     1       6.608   2.197   5.664  1.00  0.00     0.010 A 
ATOM     50  C   UNL     1       6.774   3.786   3.838  1.00  0.00     0.010 A 
ATOM     51  C   UNL     1       7.380   2.848   4.693  1.00  0.00    -0.014 A 
BRANCH  51  52
ATOM     52  C   UNL     1       8.857   2.706   4.711  1.00  0.00     0.031 A 
ATOM     53  C   UNL     1       9.668   3.788   5.374  1.00  0.00     0.074 A 
ATOM     54  C   UNL     1       9.469   1.635   4.174  1.00  0.00     0.049 A 
ATOM     55  N   UNL     1      10.965   3.912   5.471  1.00  0.00    -0.248 NA
ATOM     56  C   UNL     1       8.909   4.877   6.012  1.00  0.00     0.031 C 
ATOM     57  C   UNL     1       8.795   0.498   3.550  1.00  0.00     0.029 A 
ATOM     58  N   UNL     1      10.805   1.338   4.063  1.00  0.00    -0.354 N 
ATOM     59  C   UNL     1      11.179   5.094   6.170  1.00  0.00     0.074 A 
ATOM     60  C   UNL     1       9.879   5.667   6.443  1.00  0.00     0.031 C 
ATOM     61  C   UNL     1       9.724  -0.370   3.110  1.00  0.00     0.029 A 
ATOM     62  C   UNL     1      11.056   0.169   3.386  1.00  0.00     0.049 A 
ATOM     63  H   UNL     1      11.516   1.909   4.434  1.00  0.00     0.167 HD
ATOM     64  C   UNL     1      12.351   5.652   6.557  1.00  0.00     0.031 A 
ATOM     65  C   UNL     1      12.225  -0.389   3.009  1.00  0.00     0.031 A 
ATOM     66  C   UNL     1      13.642   5.089   6.265  1.00  0.00     0.049 A 
ATOM     67  C   UNL     1      13.520   0.293   3.373  1.00  0.00     0.074 A 
ATOM     68  C   UNL     1      14.890   5.574   6.616  1.00  0.00     0.029 A 
ATOM     69  N   UNL     1      13.854   3.923   5.545  1.00  0.00    -0.354 N 
ATOM     70  N   UNL     1      13.707   1.402   4.050  1.00  0.00    -0.248 NA
ATOM     71  C   UNL     1      14.762  -0.356   2.929  1.00  0.00     0.031 C 
ATOM     72  C   UNL     1      15.857   4.737   6.050  1.00  0.00     0.029 A 
ATOM     73  C   UNL     1      15.212   3.688   5.414  1.00  0.00     0.049 A 
ATOM     74  H   UNL     1      13.144   3.348   5.180  1.00  0.00     0.167 HD
ATOM     75  C   UNL     1      15.087   1.564   4.140  1.00  0.00     0.074 A 
ATOM     76  C   UNL     1      15.685   0.433   3.461  1.00  0.00     0.031 C 
ATOM     77  C   UNL     1      15.795   2.557   4.735  1.00  0.00     0.031 A 
BRANCH  64  78
ATOM     78  C   UNL     1      12.286   6.960   7.303  1.00  0.00    -0.014 A 
ATOM     79  C   UNL     1      11.778   7.031   8.613  1.00  0.00     0.010 A 
ATOM     80  C   UNL     1      12.770   8.132   6.693  1.00  0.00     0.010 A 
ATOM     81  C   UNL     1      11.716   8.257   9.282  1.00  0.00     0.020 A 
ATOM     82  C   UNL     1      12.741   9.353   7.371  1.00  0.00     0.020 A 
ATOM     83  C   UNL     1      12.198   9.411   8.656  1.00  0.00     0.054 A 
BRANCH  83  84
ATOM     84  S   UNL     1      12.125  10.982   9.557  1.00  0.00     0.124 S 
ATOM     85  O   UNL     1      10.690  11.256   9.571  1.00  0.00    -0.237 OA
ATOM     86  O   UNL     1      12.710  10.636  10.850  1.00  0.00    -0.237 OA
ATOM     87  O   UNL     1      12.923  11.891   8.738  1.00  0.00    -0.744 OA
ENDBRANCH  83  84
ENDBRANCH  64  78
BRANCH  65  88
ATOM     88  C   UNL     1      12.226  -1.651   2.216  1.00  0.00    -0.014 A 
ATOM     89  C   UNL     1      12.721  -2.848   2.763  1.00  0.00     0.010 A 
ATOM     90  C   UNL     1      11.729  -1.659   0.899  1.00  0.00     0.010 A 
ATOM     91  C   UNL     1      12.733  -4.023   2.003  1.00  0.00     0.020 A 
ATOM     92  C   UNL     1      11.710  -2.837   0.148  1.00  0.00     0.020 A 
ATOM     93  C   UNL     1      12.222  -4.011   0.703  1.00  0.00     0.054 A 
BRANCH  93  94
ATOM     94  S   UNL     1      12.195  -5.560  -0.242  1.00  0.00     0.124 S 
ATOM     95  O   UNL     1      13.611  -5.770  -0.523  1.00  0.00    -0.237 OA
ATOM     96  O   UNL     1      11.592  -6.494   0.706  1.00  0.00    -0.237 OA
ATOM     97  O   UNL     1      11.366  -5.240  -1.402  1.00  0.00    -0.744 OA
ENDBRANCH  93  94
ENDBRANCH  65  88
BRANCH  77  98
ATOM     98  C   UNL     1      17.300   2.451   4.720  1.00  0.00    -0.014 A 
ATOM     99  C   UNL     1      18.039   2.623   3.537  1.00  0.00     0.010 A 
ATOM    100  C   UNL     1      17.988   2.238   5.930  1.00  0.00     0.010 A 
ATOM    101  C   UNL     1      19.435   2.550   3.558  1.00  0.00     0.020 A 
ATOM    102  C   UNL     1      19.384   2.197   5.961  1.00  0.00     0.020 A 
ATOM    103  C   UNL     1      20.099   2.339   4.771  1.00  0.00     0.054 A 
BRANCH 103 104
ATOM    104  S   UNL     1      21.912   2.293   4.776  1.00  0.00     0.124 S 
ATOM    105  O   UNL     1      22.187   1.021   4.113  1.00  0.00    -0.237 OA
ATOM    106  O   UNL     1      22.265   3.488   4.014  1.00  0.00    -0.237 OA
ATOM    107  O   UNL     1      22.257   2.342   6.196  1.00  0.00    -0.744 OA
ENDBRANCH 103 104
ENDBRANCH  77  98
ENDBRANCH  51  52
ENDBRANCH  44  46
ENDBRANCH  43  44
ENDBRANCH  42  43
ENDBRANCH  41  42
ENDBRANCH  40  41
ENDBRANCH  39  40
ENDBRANCH  38  39
ENDBRANCH  37  38
ENDBRANCH  36  37
ENDBRANCH   1  36
TORSDOF 30
