REMARK SMILES CC1(C)[C@H](O)CC[C@@]2(C)[C@H]1CC[C@@]1(C)Oc3oc(C(=O)OCCOCCOCCOCCOC(=O)c4ccc(-c5c6nc(c(-c7ccc(S(=O)(=O)[O-])cc7)c7ccc([nH]7)c(-c7ccc(S(=O)(=O)[O-])cc7)c7nc(c(-c8ccc(S(=O)(=O)[O-])cc8)c8ccc5[nH]8)C=C7)C=C6)cc4)cc(=O)c3C[C@@H]21
REMARK SMILES IDX 28 1 27 2 26 3 25 4 24 5 23 6 22 7 21 8 19 9 20 10 18 11
REMARK SMILES IDX 1 12 2 13 4 14 10 15 3 16 6 17 8 18 11 19 7 20 101 21 9 22
REMARK SMILES IDX 12 23 13 24 100 25 15 26 14 27 99 28 16 29 97 30 17 31 96 32
REMARK SMILES IDX 98 33 5 34 29 36 30 37 31 38 32 39 33 40 34 41 35 42 36 43
REMARK SMILES IDX 37 44 95 45 38 46 94 47 39 48 40 49 41 50 88 51 42 52 93 53
REMARK SMILES IDX 87 54 89 55 43 56 92 57 86 58 85 59 44 61 74 62 55 63 73 64
REMARK SMILES IDX 56 65 59 66 72 67 90 68 57 69 58 70 71 72 91 73 60 74 45 75
REMARK SMILES IDX 46 76 54 77 47 78 53 79 48 80 49 81 50 82 51 83 52 84 75 85
REMARK SMILES IDX 76 86 84 87 77 88 83 89 78 90 79 91 80 92 81 93 82 94 61 95
REMARK SMILES IDX 62 96 70 97 63 98 69 99 64 100 65 101 66 102 67 103 68 104
REMARK H PARENT 5 35 89 60 59 71
REMARK Flexibility Score: inf
ROOT
ATOM      1  C   UNL     1      -7.083   9.265   7.748  1.00  0.00     0.188 C 
ENDROOT
BRANCH   1   2
ATOM      2  O   UNL     1      -5.987   9.027   6.863  1.00  0.00    -0.377 OA
BRANCH   2   3
ATOM      3  C   UNL     1      -4.813   8.414   7.371  1.00  0.00     0.188 C 
BRANCH   3   4
ATOM      4  C   UNL     1      -3.950   9.343   8.248  1.00  0.00     0.188 C 
BRANCH   4   5
ATOM      5  O   UNL     1      -4.602  10.553   8.599  1.00  0.00    -0.376 OA
BRANCH   5   6
ATOM      6  C   UNL     1      -4.468  11.707   7.789  1.00  0.00     0.202 C 
BRANCH   6   7
ATOM      7  C   UNL     1      -4.513  11.646   6.257  1.00  0.00     0.261 C 
BRANCH   7   8
ATOM      8  O   UNL     1      -3.841  10.560   5.612  1.00  0.00    -0.457 OA
BRANCH   8   9
ATOM      9  C   UNL     1      -2.496  10.444   5.702  1.00  0.00     0.374 C 
ATOM     10  O   UNL     1      -1.741  11.160   6.335  1.00  0.00    -0.242 OA
BRANCH   9  11
ATOM     11  C   UNL     1      -2.093   9.247   4.916  1.00  0.00     0.219 A 
ATOM     12  C   UNL     1       1.364   0.554   1.717  1.00  0.00     0.014 C 
ATOM     13  C   UNL     1       0.896   1.874   1.063  1.00  0.00    -0.006 C 
ATOM     14  C   UNL     1      -0.402   1.537   0.247  1.00  0.00     0.120 C 
ATOM     15  C   UNL     1       0.668   3.074   2.117  1.00  0.00     0.004 C 
ATOM     16  C   UNL     1       2.018   2.296   0.074  1.00  0.00     0.014 C 
ATOM     17  C   UNL     1      -1.175   2.753  -0.231  1.00  0.00     0.033 C 
ATOM     18  C   UNL     1      -0.831   3.495   2.255  1.00  0.00    -0.022 C 
ATOM     19  C   UNL     1       1.366   2.984   3.489  1.00  0.00     0.009 C 
ATOM     20  C   UNL     1      -1.258   3.863   0.798  1.00  0.00     0.010 C 
ATOM     21  C   UNL     1      -1.031   4.744   3.201  1.00  0.00     0.044 C 
ATOM     22  C   UNL     1      -1.737   2.358   2.801  1.00  0.00     0.012 C 
ATOM     23  C   UNL     1       1.228   4.303   4.298  1.00  0.00     0.049 C 
ATOM     24  C   UNL     1      -0.235   4.756   4.551  1.00  0.00     0.113 C 
ATOM     25  C   UNL     1      -0.760   6.065   2.482  1.00  0.00     0.055 C 
ATOM     26  O   UNL     1      -0.234   6.077   5.224  1.00  0.00    -0.458 OA
ATOM     27  C   UNL     1      -0.837   3.811   5.614  1.00  0.00     0.057 C 
ATOM     28  C   UNL     1      -1.224   7.153   3.358  1.00  0.00     0.081 A 
ATOM     29  C   UNL     1      -0.936   7.149   4.662  1.00  0.00     0.292 A 
ATOM     30  C   UNL     1      -2.096   8.185   2.771  1.00  0.00     0.192 A 
ATOM     31  O   UNL     1      -1.312   8.232   5.479  1.00  0.00    -0.418 OA
ATOM     32  C   UNL     1      -2.523   9.259   3.650  1.00  0.00     0.107 A 
ATOM     33  O   UNL     1      -2.462   8.160   1.604  1.00  0.00    -0.289 OA
BRANCH  14  34
ATOM     34  O   UNL     1      -0.134   0.704  -0.884  1.00  0.00    -0.393 OA
ATOM     35  H   UNL     1       0.419   1.187  -1.518  1.00  0.00     0.210 HD
ENDBRANCH  14  34
ENDBRANCH   9  11
ENDBRANCH   8   9
ENDBRANCH   7   8
ENDBRANCH   6   7
ENDBRANCH   5   6
ENDBRANCH   4   5
ENDBRANCH   3   4
ENDBRANCH   2   3
ENDBRANCH   1   2
BRANCH   1  36
ATOM     36  C   UNL     1      -6.946   9.194   9.290  1.00  0.00     0.188 C 
BRANCH  36  37
ATOM     37  O   UNL     1      -6.007   8.234   9.752  1.00  0.00    -0.376 OA
BRANCH  37  38
ATOM     38  C   UNL     1      -6.483   7.065  10.386  1.00  0.00     0.202 C 
BRANCH  38  39
ATOM     39  C   UNL     1      -7.213   6.065   9.485  1.00  0.00     0.261 C 
BRANCH  39  40
ATOM     40  O   UNL     1      -8.318   6.590   8.740  1.00  0.00    -0.460 OA
BRANCH  40  41
ATOM     41  C   UNL     1      -9.392   7.012   9.441  1.00  0.00     0.338 C 
ATOM     42  O   UNL     1      -9.532   7.007  10.652  1.00  0.00    -0.246 OA
BRANCH  41  43
ATOM     43  C   UNL     1     -10.313   7.634   8.475  1.00  0.00     0.060 A 
ATOM     44  C   UNL     1     -10.554   9.013   8.536  1.00  0.00     0.016 A 
ATOM     45  C   UNL     1     -10.910   6.847   7.487  1.00  0.00     0.016 A 
ATOM     46  C   UNL     1     -11.410   9.607   7.609  1.00  0.00     0.010 A 
ATOM     47  C   UNL     1     -11.793   7.437   6.583  1.00  0.00     0.010 A 
ATOM     48  C   UNL     1     -12.065   8.813   6.658  1.00  0.00    -0.014 A 
BRANCH  48  49
ATOM     49  C   UNL     1     -13.200   9.373   5.893  1.00  0.00     0.031 A 
ATOM     50  C   UNL     1     -14.574   9.251   6.488  1.00  0.00     0.074 A 
ATOM     51  C   UNL     1     -13.021   9.979   4.707  1.00  0.00     0.049 A 
ATOM     52  N   UNL     1     -15.724   9.629   5.997  1.00  0.00    -0.248 NA
ATOM     53  C   UNL     1     -14.662   8.625   7.820  1.00  0.00     0.031 C 
ATOM     54  C   UNL     1     -11.731  10.207   4.058  1.00  0.00     0.029 A 
ATOM     55  N   UNL     1     -13.938  10.517   3.839  1.00  0.00    -0.354 N 
ATOM     56  C   UNL     1     -16.668   9.295   6.959  1.00  0.00     0.074 A 
ATOM     57  C   UNL     1     -15.965   8.659   8.050  1.00  0.00     0.031 C 
ATOM     58  C   UNL     1     -11.941  10.839   2.889  1.00  0.00     0.029 A 
ATOM     59  C   UNL     1     -13.378  11.033   2.696  1.00  0.00     0.049 A 
ATOM     60  H   UNL     1     -14.905  10.533   4.020  1.00  0.00     0.167 HD
ATOM     61  C   UNL     1     -18.003   9.507   6.939  1.00  0.00     0.031 A 
ATOM     62  C   UNL     1     -13.960  11.585   1.612  1.00  0.00     0.031 A 
ATOM     63  C   UNL     1     -18.703  10.110   5.841  1.00  0.00     0.049 A 
ATOM     64  C   UNL     1     -15.460  11.717   1.562  1.00  0.00     0.074 A 
ATOM     65  C   UNL     1     -20.059  10.353   5.720  1.00  0.00     0.029 A 
ATOM     66  N   UNL     1     -18.106  10.555   4.672  1.00  0.00    -0.354 N 
ATOM     67  N   UNL     1     -16.343  11.386   2.474  1.00  0.00    -0.248 NA
ATOM     68  C   UNL     1     -16.042  12.296   0.343  1.00  0.00     0.031 C 
ATOM     69  C   UNL     1     -20.289  10.901   4.456  1.00  0.00     0.029 A 
ATOM     70  C   UNL     1     -19.069  11.055   3.815  1.00  0.00     0.049 A 
ATOM     71  H   UNL     1     -17.141  10.522   4.482  1.00  0.00     0.167 HD
ATOM     72  C   UNL     1     -17.582  11.739   1.950  1.00  0.00     0.074 A 
ATOM     73  C   UNL     1     -17.337  12.306   0.640  1.00  0.00     0.031 C 
ATOM     74  C   UNL     1     -18.809  11.614   2.512  1.00  0.00     0.031 A 
BRANCH  61  75
ATOM     75  C   UNL     1     -18.794   9.060   8.135  1.00  0.00    -0.014 A 
ATOM     76  C   UNL     1     -18.735   9.775   9.344  1.00  0.00     0.010 A 
ATOM     77  C   UNL     1     -19.642   7.944   8.033  1.00  0.00     0.010 A 
ATOM     78  C   UNL     1     -19.498   9.367  10.440  1.00  0.00     0.020 A 
ATOM     79  C   UNL     1     -20.425   7.547   9.120  1.00  0.00     0.020 A 
ATOM     80  C   UNL     1     -20.343   8.259  10.319  1.00  0.00     0.054 A 
BRANCH  80  81
ATOM     81  S   UNL     1     -21.334   7.769  11.756  1.00  0.00     0.124 S 
ATOM     82  O   UNL     1     -20.306   7.491  12.756  1.00  0.00    -0.237 OA
ATOM     83  O   UNL     1     -22.142   8.960  11.999  1.00  0.00    -0.237 OA
ATOM     84  O   UNL     1     -22.073   6.599  11.287  1.00  0.00    -0.744 OA
ENDBRANCH  80  81
ENDBRANCH  61  75
BRANCH  62  85
ATOM     85  C   UNL     1     -13.105  12.062   0.493  1.00  0.00    -0.014 A 
ATOM     86  C   UNL     1     -12.874  13.436   0.313  1.00  0.00     0.010 A 
ATOM     87  C   UNL     1     -12.459  11.140  -0.352  1.00  0.00     0.010 A 
ATOM     88  C   UNL     1     -11.993  13.880  -0.678  1.00  0.00     0.020 A 
ATOM     89  C   UNL     1     -11.564  11.580  -1.332  1.00  0.00     0.020 A 
ATOM     90  C   UNL     1     -11.329  12.948  -1.482  1.00  0.00     0.054 A 
BRANCH  90  91
ATOM     91  S   UNL     1     -10.124  13.553  -2.696  1.00  0.00     0.124 S 
ATOM     92  O   UNL     1     -10.938  14.431  -3.531  1.00  0.00    -0.237 OA
ATOM     93  O   UNL     1      -9.142  14.220  -1.844  1.00  0.00    -0.237 OA
ATOM     94  O   UNL     1      -9.651  12.334  -3.349  1.00  0.00    -0.744 OA
ENDBRANCH  90  91
ENDBRANCH  62  85
BRANCH  74  95
ATOM     95  C   UNL     1     -20.003  12.115   1.745  1.00  0.00    -0.014 A 
ATOM     96  C   UNL     1     -20.554  11.364   0.694  1.00  0.00     0.010 A 
ATOM     97  C   UNL     1     -20.666  13.276   2.185  1.00  0.00     0.010 A 
ATOM     98  C   UNL     1     -21.754  11.764   0.099  1.00  0.00     0.020 A 
ATOM     99  C   UNL     1     -21.876  13.667   1.607  1.00  0.00     0.020 A 
ATOM    100  C   UNL     1     -22.415  12.905   0.569  1.00  0.00     0.054 A 
BRANCH 100 101
ATOM    101  S   UNL     1     -24.008  13.353  -0.172  1.00  0.00     0.124 S 
ATOM    102  O   UNL     1     -23.650  13.556  -1.574  1.00  0.00    -0.237 OA
ATOM    103  O   UNL     1     -24.824  12.173   0.103  1.00  0.00    -0.237 OA
ATOM    104  O   UNL     1     -24.402  14.562   0.548  1.00  0.00    -0.744 OA
ENDBRANCH 100 101
ENDBRANCH  74  95
ENDBRANCH  48  49
ENDBRANCH  41  43
ENDBRANCH  40  41
ENDBRANCH  39  40
ENDBRANCH  38  39
ENDBRANCH  37  38
ENDBRANCH  36  37
ENDBRANCH   1  36
TORSDOF 24
