REMARK SMILES CC1(C)[C@H](C(=O)Nc2cccc3[nH]ccc23)[C@H]1C(=O)OCCOCCOCCOCCOC(=O)c1ccc(-c2c3nc(c(-c4ccc(S(=O)(=O)[O-])cc4)c4ccc([nH]4)c(-c4ccc(S(=O)(=O)[O-])cc4)c4nc(c(-c5ccc(S(=O)(=O)[O-])cc5)c5ccc2[nH]5)C=C4)C=C3)cc1
REMARK SMILES IDX 27 1 26 2 25 3 24 4 23 5 22 6 21 7 20 8 18 9 19 10 17 11
REMARK SMILES IDX 1 12 2 13 3 14 4 15 5 16 6 17 7 18 8 20 9 21 16 22 10 23
REMARK SMILES IDX 12 24 15 25 11 26 13 27 14 28 28 30 29 31 30 32 31 33 32 34
REMARK SMILES IDX 33 35 34 36 35 37 36 38 94 39 37 40 93 41 38 42 39 43 40 44
REMARK SMILES IDX 87 45 41 46 92 47 86 48 88 49 42 50 91 51 85 52 84 53 43 55
REMARK SMILES IDX 73 56 54 57 72 58 55 59 58 60 71 61 89 62 56 63 57 64 70 66
REMARK SMILES IDX 90 67 59 68 44 69 45 70 53 71 46 72 52 73 47 74 48 75 49 76
REMARK SMILES IDX 50 77 51 78 74 79 75 80 83 81 76 82 82 83 77 84 78 85 79 86
REMARK SMILES IDX 80 87 81 88 60 89 61 90 69 91 62 92 68 93 63 94 64 95 65 96
REMARK SMILES IDX 66 97 67 98
REMARK H PARENT 7 19 13 29 88 54 58 65
REMARK Flexibility Score: inf
ROOT
ATOM      1  C   UNL     1       0.533  -3.162   3.821  1.00  0.00     0.188 C 
ENDROOT
BRANCH   1   2
ATOM      2  O   UNL     1       0.520  -2.077   2.895  1.00  0.00    -0.377 OA
BRANCH   2   3
ATOM      3  C   UNL     1      -0.070  -0.845   3.277  1.00  0.00     0.188 C 
BRANCH   3   4
ATOM      4  C   UNL     1      -1.521  -0.846   3.786  1.00  0.00     0.188 C 
BRANCH   4   5
ATOM      5  O   UNL     1      -1.995  -2.136   4.147  1.00  0.00    -0.376 OA
BRANCH   5   6
ATOM      6  C   UNL     1      -3.088  -2.642   3.392  1.00  0.00     0.202 C 
BRANCH   6   7
ATOM      7  C   UNL     1      -2.841  -2.954   1.907  1.00  0.00     0.261 C 
BRANCH   7   8
ATOM      8  O   UNL     1      -1.938  -2.048   1.264  1.00  0.00    -0.463 OA
BRANCH   8   9
ATOM      9  C   UNL     1      -2.445  -1.063   0.496  1.00  0.00     0.310 C 
ATOM     10  O   UNL     1      -3.628  -0.845   0.277  1.00  0.00    -0.252 OA
BRANCH   9  11
ATOM     11  C   UNL     1      -1.386  -0.127   0.047  1.00  0.00     0.118 C 
ATOM     12  C   UNL     1       0.228  -2.011  -0.856  1.00  0.00     0.013 C 
ATOM     13  C   UNL     1      -0.068  -0.549  -0.607  1.00  0.00    -0.009 C 
ATOM     14  C   UNL     1       1.179   0.220  -0.246  1.00  0.00     0.013 C 
ATOM     15  C   UNL     1      -1.188   0.089  -1.432  1.00  0.00     0.100 C 
BRANCH  15  16
ATOM     16  C   UNL     1      -1.160   1.451  -2.049  1.00  0.00     0.228 C 
ATOM     17  O   UNL     1      -0.801   1.573  -3.215  1.00  0.00    -0.274 OA
ATOM     18  N   UNL     1      -1.809   2.459  -1.373  1.00  0.00    -0.325 N 
ATOM     19  H   UNL     1      -2.749   2.630  -1.612  1.00  0.00     0.169 HD
BRANCH  18  20
ATOM     20  C   UNL     1      -1.244   3.266  -0.368  1.00  0.00     0.050 A 
ATOM     21  C   UNL     1       0.139   3.308  -0.155  1.00  0.00     0.027 A 
ATOM     22  C   UNL     1      -2.071   4.061   0.460  1.00  0.00     0.023 A 
ATOM     23  C   UNL     1       0.691   3.987   0.929  1.00  0.00     0.004 A 
ATOM     24  C   UNL     1      -1.490   4.739   1.536  1.00  0.00     0.047 A 
ATOM     25  C   UNL     1      -3.467   4.354   0.503  1.00  0.00     0.030 A 
ATOM     26  C   UNL     1      -0.119   4.692   1.816  1.00  0.00     0.027 A 
ATOM     27  N   UNL     1      -2.498   5.397   2.203  1.00  0.00    -0.361 N 
ATOM     28  C   UNL     1      -3.694   5.196   1.568  1.00  0.00     0.083 A 
ATOM     29  H   UNL     1      -2.377   5.935   3.018  1.00  0.00     0.166 HD
ENDBRANCH  18  20
ENDBRANCH  15  16
ENDBRANCH   9  11
ENDBRANCH   8   9
ENDBRANCH   7   8
ENDBRANCH   6   7
ENDBRANCH   5   6
ENDBRANCH   4   5
ENDBRANCH   3   4
ENDBRANCH   2   3
ENDBRANCH   1   2
BRANCH   1  30
ATOM     30  C   UNL     1       0.539  -2.893   5.342  1.00  0.00     0.188 C 
BRANCH  30  31
ATOM     31  O   UNL     1       0.985  -1.598   5.728  1.00  0.00    -0.376 OA
BRANCH  31  32
ATOM     32  C   UNL     1       2.322  -1.511   6.203  1.00  0.00     0.202 C 
BRANCH  32  33
ATOM     33  C   UNL     1       3.396  -1.693   5.123  1.00  0.00     0.261 C 
BRANCH  33  34
ATOM     34  O   UNL     1       3.493  -3.020   4.582  1.00  0.00    -0.460 OA
BRANCH  34  35
ATOM     35  C   UNL     1       3.752  -4.026   5.445  1.00  0.00     0.338 C 
ATOM     36  O   UNL     1       3.966  -3.942   6.640  1.00  0.00    -0.246 OA
BRANCH  35  37
ATOM     37  C   UNL     1       3.566  -5.292   4.715  1.00  0.00     0.060 A 
ATOM     38  C   UNL     1       2.590  -6.194   5.155  1.00  0.00     0.016 A 
ATOM     39  C   UNL     1       4.355  -5.578   3.599  1.00  0.00     0.016 A 
ATOM     40  C   UNL     1       2.418  -7.407   4.487  1.00  0.00     0.010 A 
ATOM     41  C   UNL     1       4.194  -6.799   2.945  1.00  0.00     0.010 A 
ATOM     42  C   UNL     1       3.244  -7.728   3.401  1.00  0.00    -0.014 A 
BRANCH  42  43
ATOM     43  C   UNL     1       3.242  -9.098   2.841  1.00  0.00     0.031 A 
ATOM     44  C   UNL     1       4.246 -10.086   3.364  1.00  0.00     0.074 A 
ATOM     45  C   UNL     1       2.380  -9.452   1.872  1.00  0.00     0.049 A 
ATOM     46  N   UNL     1       4.474 -11.315   2.982  1.00  0.00    -0.248 NA
ATOM     47  C   UNL     1       5.109  -9.624   4.465  1.00  0.00     0.031 C 
ATOM     48  C   UNL     1       1.337  -8.596   1.310  1.00  0.00     0.029 A 
ATOM     49  N   UNL     1       2.259 -10.631   1.181  1.00  0.00    -0.354 N 
ATOM     50  C   UNL     1       5.506 -11.774   3.791  1.00  0.00     0.074 A 
ATOM     51  C   UNL     1       5.876 -10.684   4.669  1.00  0.00     0.031 C 
ATOM     52  C   UNL     1       0.689  -9.276   0.347  1.00  0.00     0.029 A 
ATOM     53  C   UNL     1       1.293 -10.600   0.204  1.00  0.00     0.049 A 
ATOM     54  H   UNL     1       2.811 -11.425   1.368  1.00  0.00     0.167 HD
ATOM     55  C   UNL     1       6.093 -12.993   3.805  1.00  0.00     0.031 A 
ATOM     56  C   UNL     1       0.956 -11.525  -0.717  1.00  0.00     0.031 A 
ATOM     57  C   UNL     1       5.749 -14.064   2.910  1.00  0.00     0.049 A 
ATOM     58  C   UNL     1       1.692 -12.840  -0.749  1.00  0.00     0.074 A 
ATOM     59  C   UNL     1       6.278 -15.341   2.852  1.00  0.00     0.029 A 
ATOM     60  N   UNL     1       4.800 -13.977   1.903  1.00  0.00    -0.354 N 
ATOM     61  N   UNL     1       2.642 -13.274   0.045  1.00  0.00    -0.248 NA
ATOM     62  C   UNL     1       1.310 -13.789  -1.804  1.00  0.00     0.031 C 
ATOM     63  C   UNL     1       5.688 -16.008   1.774  1.00  0.00     0.029 A 
ATOM     64  C   UNL     1       4.752 -15.165   1.195  1.00  0.00     0.049 A 
ATOM     65  H   UNL     1       4.242 -13.187   1.720  1.00  0.00     0.167 HD
ATOM     66  C   UNL     1       2.960 -14.551  -0.405  1.00  0.00     0.074 A 
ATOM     67  C   UNL     1       2.090 -14.827  -1.530  1.00  0.00     0.031 C 
ATOM     68  C   UNL     1       3.888 -15.419   0.070  1.00  0.00     0.031 A 
BRANCH  55  69
ATOM     69  C   UNL     1       7.200 -13.211   4.799  1.00  0.00    -0.014 A 
ATOM     70  C   UNL     1       6.926 -13.342   6.172  1.00  0.00     0.010 A 
ATOM     71  C   UNL     1       8.531 -13.296   4.353  1.00  0.00     0.010 A 
ATOM     72  C   UNL     1       7.968 -13.514   7.087  1.00  0.00     0.020 A 
ATOM     73  C   UNL     1       9.574 -13.491   5.262  1.00  0.00     0.020 A 
ATOM     74  C   UNL     1       9.286 -13.580   6.626  1.00  0.00     0.054 A 
BRANCH  74  75
ATOM     75  S   UNL     1      10.620 -13.808   7.833  1.00  0.00     0.124 S 
ATOM     76  O   UNL     1      10.695 -12.487   8.451  1.00  0.00    -0.237 OA
ATOM     77  O   UNL     1      10.101 -14.873   8.688  1.00  0.00    -0.237 OA
ATOM     78  O   UNL     1      11.771 -14.177   7.013  1.00  0.00    -0.744 OA
ENDBRANCH  74  75
ENDBRANCH  55  69
BRANCH  56  79
ATOM     79  C   UNL     1      -0.113 -11.231  -1.709  1.00  0.00    -0.014 A 
ATOM     80  C   UNL     1      -1.352 -11.891  -1.642  1.00  0.00     0.010 A 
ATOM     81  C   UNL     1       0.106 -10.288  -2.730  1.00  0.00     0.010 A 
ATOM     82  C   UNL     1      -2.349 -11.620  -2.584  1.00  0.00     0.020 A 
ATOM     83  C   UNL     1      -0.897  -9.997  -3.659  1.00  0.00     0.020 A 
ATOM     84  C   UNL     1      -2.116 -10.673  -3.585  1.00  0.00     0.054 A 
BRANCH  84  85
ATOM     85  S   UNL     1      -3.446 -10.296  -4.761  1.00  0.00     0.124 S 
ATOM     86  O   UNL     1      -3.432 -11.473  -5.623  1.00  0.00    -0.237 OA
ATOM     87  O   UNL     1      -4.610 -10.164  -3.888  1.00  0.00    -0.237 OA
ATOM     88  O   UNL     1      -3.004  -9.052  -5.388  1.00  0.00    -0.744 OA
ENDBRANCH  84  85
ENDBRANCH  56  79
BRANCH  68  89
ATOM     89  C   UNL     1       4.006 -16.755  -0.614  1.00  0.00    -0.014 A 
ATOM     90  C   UNL     1       4.611 -16.870  -1.878  1.00  0.00     0.010 A 
ATOM     91  C   UNL     1       3.567 -17.917   0.045  1.00  0.00     0.010 A 
ATOM     92  C   UNL     1       4.754 -18.124  -2.481  1.00  0.00     0.020 A 
ATOM     93  C   UNL     1       3.731 -19.174  -0.543  1.00  0.00     0.020 A 
ATOM     94  C   UNL     1       4.313 -19.268  -1.809  1.00  0.00     0.054 A 
BRANCH  94  95
ATOM     95  S   UNL     1       4.558 -20.889  -2.587  1.00  0.00     0.124 S 
ATOM     96  O   UNL     1       3.525 -20.889  -3.620  1.00  0.00    -0.237 OA
ATOM     97  O   UNL     1       5.933 -20.808  -3.074  1.00  0.00    -0.237 OA
ATOM     98  O   UNL     1       4.346 -21.834  -1.494  1.00  0.00    -0.744 OA
ENDBRANCH  94  95
ENDBRANCH  68  89
ENDBRANCH  42  43
ENDBRANCH  35  37
ENDBRANCH  34  35
ENDBRANCH  33  34
ENDBRANCH  32  33
ENDBRANCH  31  32
ENDBRANCH  30  31
ENDBRANCH   1  30
TORSDOF 25
