REMARK SMILES COc1cc(NS(=O)(=O)c2cc(C)c(C(=O)OCCOCCOCCOCCOC(=O)c3ccc(-c4c5nc(c(-c6ccc(S(=O)(=O)[O-])cc6)c6ccc([nH]6)c(-c6ccc(S(=O)(=O)[O-])cc6)c6nc(c(-c7ccc(S(=O)(=O)[O-])cc7)c7ccc4[nH]7)C=C6)C=C5)cc3)s2)cc(OC)c1
REMARK SMILES IDX 22 1 21 2 20 3 19 4 18 5 17 6 15 7 16 8 14 9 10 10 11 11
REMARK SMILES IDX 92 12 12 13 13 14 7 15 8 16 9 17 6 18 5 20 3 21 4 22 97 23
REMARK SMILES IDX 94 24 93 25 2 26 1 27 95 28 96 29 23 30 24 31 25 32 26 33
REMARK SMILES IDX 27 34 28 35 29 36 30 37 31 38 32 39 33 40 91 41 34 42 90 43
REMARK SMILES IDX 35 44 36 45 37 46 84 47 38 48 89 49 83 50 85 51 39 52 88 53
REMARK SMILES IDX 82 54 81 55 40 57 70 58 51 59 69 60 52 61 55 62 68 63 86 64
REMARK SMILES IDX 53 65 54 66 67 68 87 69 56 70 41 71 42 72 50 73 43 74 49 75
REMARK SMILES IDX 44 76 45 77 46 78 47 79 48 80 71 81 72 82 80 83 73 84 79 85
REMARK SMILES IDX 74 86 75 87 76 88 77 89 78 90 57 91 58 92 66 93 59 94 65 95
REMARK SMILES IDX 60 96 61 97 62 98 63 99 64 100
REMARK H PARENT 6 19 85 56 55 67
REMARK Flexibility Score: inf
ROOT
ATOM      1  C   UNL     1      -4.245   1.294   3.184  1.00  0.00     0.188 C 
ENDROOT
BRANCH   1   2
ATOM      2  C   UNL     1      -3.021   2.074   3.697  1.00  0.00     0.188 C 
BRANCH   2   3
ATOM      3  O   UNL     1      -2.761   3.291   3.002  1.00  0.00    -0.376 OA
BRANCH   3   4
ATOM      4  C   UNL     1      -1.544   3.340   2.268  1.00  0.00     0.202 C 
BRANCH   4   5
ATOM      5  C   UNL     1      -1.644   2.713   0.871  1.00  0.00     0.261 C 
BRANCH   5   6
ATOM      6  O   UNL     1      -2.071   1.345   0.869  1.00  0.00    -0.459 OA
BRANCH   6   7
ATOM      7  C   UNL     1      -1.251   0.448   1.470  1.00  0.00     0.348 C 
ATOM      8  O   UNL     1      -0.145   0.733   1.922  1.00  0.00    -0.245 OA
BRANCH   7   9
ATOM      9  C   UNL     1      -1.925  -0.832   1.600  1.00  0.00     0.116 A 
ATOM     10  C   UNL     1      -2.300  -3.159   2.314  1.00  0.00     0.141 A 
ATOM     11  C   UNL     1      -3.179  -2.779   1.318  1.00  0.00     0.038 A 
ATOM     12  S   UNL     1      -1.466  -1.811   2.938  1.00  0.00    -0.115 S 
ATOM     13  C   UNL     1      -2.928  -1.440   0.847  1.00  0.00    -0.024 A 
ATOM     14  C   UNL     1      -3.587  -0.882  -0.378  1.00  0.00     0.046 C 
BRANCH  10  15
ATOM     15  S   UNL     1      -1.784  -4.754   2.905  1.00  0.00     0.271 S 
ATOM     16  O   UNL     1      -2.953  -5.599   2.782  1.00  0.00    -0.200 OA
ATOM     17  O   UNL     1      -1.145  -4.567   4.191  1.00  0.00    -0.200 OA
BRANCH  15  18
ATOM     18  N   UNL     1      -0.609  -5.390   1.828  1.00  0.00    -0.279 N 
ATOM     19  H   UNL     1      -0.663  -6.319   1.507  1.00  0.00     0.180 HD
BRANCH  18  20
ATOM     20  C   UNL     1       0.457  -4.518   1.410  1.00  0.00     0.056 A 
ATOM     21  C   UNL     1       1.156  -2.511   0.225  1.00  0.00     0.124 A 
ATOM     22  C   UNL     1       0.192  -3.474   0.525  1.00  0.00     0.073 A 
ATOM     23  C   UNL     1       2.456  -2.697   0.675  1.00  0.00     0.093 A 
ATOM     24  C   UNL     1       2.772  -3.827   1.442  1.00  0.00     0.124 A 
ATOM     25  C   UNL     1       1.760  -4.704   1.860  1.00  0.00     0.073 A 
BRANCH  21  26
ATOM     26  O   UNL     1       0.682  -1.453  -0.496  1.00  0.00    -0.497 OA
ATOM     27  C   UNL     1       1.526  -0.323  -0.681  1.00  0.00     0.278 C 
ENDBRANCH  21  26
BRANCH  24  28
ATOM     28  O   UNL     1       4.040  -4.161   1.844  1.00  0.00    -0.497 OA
ATOM     29  C   UNL     1       5.097  -3.597   1.069  1.00  0.00     0.278 C 
ENDBRANCH  24  28
ENDBRANCH  18  20
ENDBRANCH  15  18
ENDBRANCH  10  15
ENDBRANCH   7   9
ENDBRANCH   6   7
ENDBRANCH   5   6
ENDBRANCH   4   5
ENDBRANCH   3   4
ENDBRANCH   2   3
ENDBRANCH   1   2
BRANCH   1  30
ATOM     30  O   UNL     1      -4.908   1.779   2.032  1.00  0.00    -0.377 OA
BRANCH  30  31
ATOM     31  C   UNL     1      -5.371   3.125   2.008  1.00  0.00     0.188 C 
BRANCH  31  32
ATOM     32  C   UNL     1      -5.590   3.926   3.311  1.00  0.00     0.188 C 
BRANCH  32  33
ATOM     33  O   UNL     1      -5.763   3.146   4.488  1.00  0.00    -0.376 OA
BRANCH  33  34
ATOM     34  C   UNL     1      -7.087   3.049   4.995  1.00  0.00     0.202 C 
BRANCH  34  35
ATOM     35  C   UNL     1      -8.008   2.139   4.176  1.00  0.00     0.261 C 
BRANCH  35  36
ATOM     36  O   UNL     1      -8.308   2.615   2.856  1.00  0.00    -0.460 OA
BRANCH  36  37
ATOM     37  C   UNL     1      -8.909   3.821   2.752  1.00  0.00     0.338 C 
ATOM     38  O   UNL     1      -9.272   4.551   3.655  1.00  0.00    -0.246 OA
BRANCH  37  39
ATOM     39  C   UNL     1      -8.888   4.192   1.327  1.00  0.00     0.060 A 
ATOM     40  C   UNL     1      -8.225   5.362   0.935  1.00  0.00     0.016 A 
ATOM     41  C   UNL     1      -9.498   3.363   0.384  1.00  0.00     0.016 A 
ATOM     42  C   UNL     1      -8.189   5.717  -0.413  1.00  0.00     0.010 A 
ATOM     43  C   UNL     1      -9.481   3.731  -0.959  1.00  0.00     0.010 A 
ATOM     44  C   UNL     1      -8.847   4.920  -1.359  1.00  0.00    -0.014 A 
BRANCH  44  45
ATOM     45  C   UNL     1      -9.044   5.403  -2.743  1.00  0.00     0.031 A 
ATOM     46  C   UNL     1     -10.309   6.150  -3.057  1.00  0.00     0.074 A 
ATOM     47  C   UNL     1      -8.143   5.146  -3.706  1.00  0.00     0.049 A 
ATOM     48  N   UNL     1     -10.752   6.578  -4.208  1.00  0.00    -0.248 NA
ATOM     49  C   UNL     1     -11.193   6.450  -1.917  1.00  0.00     0.031 C 
ATOM     50  C   UNL     1      -6.863   4.467  -3.511  1.00  0.00     0.029 A 
ATOM     51  N   UNL     1      -8.183   5.416  -5.050  1.00  0.00    -0.354 N 
ATOM     52  C   UNL     1     -11.967   7.194  -3.935  1.00  0.00     0.074 A 
ATOM     53  C   UNL     1     -12.201   7.067  -2.513  1.00  0.00     0.031 C 
ATOM     54  C   UNL     1      -6.245   4.358  -4.702  1.00  0.00     0.029 A 
ATOM     55  C   UNL     1      -7.103   4.924  -5.742  1.00  0.00     0.049 A 
ATOM     56  H   UNL     1      -8.915   5.915  -5.479  1.00  0.00     0.167 HD
ATOM     57  C   UNL     1     -12.814   7.809  -4.792  1.00  0.00     0.031 A 
ATOM     58  C   UNL     1      -6.854   4.905  -7.067  1.00  0.00     0.031 A 
ATOM     59  C   UNL     1     -12.597   7.899  -6.209  1.00  0.00     0.049 A 
ATOM     60  C   UNL     1      -7.859   5.507  -8.015  1.00  0.00     0.074 A 
ATOM     61  C   UNL     1     -13.395   8.503  -7.165  1.00  0.00     0.029 A 
ATOM     62  N   UNL     1     -11.510   7.356  -6.876  1.00  0.00    -0.354 N 
ATOM     63  N   UNL     1      -8.993   6.109  -7.742  1.00  0.00    -0.248 NA
ATOM     64  C   UNL     1      -7.553   5.423  -9.450  1.00  0.00     0.031 C 
ATOM     65  C   UNL     1     -12.815   8.278  -8.418  1.00  0.00     0.029 A 
ATOM     66  C   UNL     1     -11.629   7.583  -8.236  1.00  0.00     0.049 A 
ATOM     67  H   UNL     1     -10.764   6.879  -6.446  1.00  0.00     0.167 HD
ATOM     68  C   UNL     1      -9.523   6.495  -8.969  1.00  0.00     0.074 A 
ATOM     69  C   UNL     1      -8.583   6.067  -9.984  1.00  0.00     0.031 C 
ATOM     70  C   UNL     1     -10.683   7.147  -9.232  1.00  0.00     0.031 A 
BRANCH  57  71
ATOM     71  C   UNL     1     -14.072   8.393  -4.213  1.00  0.00    -0.014 A 
ATOM     72  C   UNL     1     -14.035   9.562  -3.433  1.00  0.00     0.010 A 
ATOM     73  C   UNL     1     -15.307   7.768  -4.459  1.00  0.00     0.010 A 
ATOM     74  C   UNL     1     -15.209  10.075  -2.875  1.00  0.00     0.020 A 
ATOM     75  C   UNL     1     -16.487   8.292  -3.922  1.00  0.00     0.020 A 
ATOM     76  C   UNL     1     -16.427   9.432  -3.119  1.00  0.00     0.054 A 
BRANCH  76  77
ATOM     77  S   UNL     1     -17.937  10.123  -2.390  1.00  0.00     0.124 S 
ATOM     78  O   UNL     1     -17.796   9.741  -0.988  1.00  0.00    -0.237 OA
ATOM     79  O   UNL     1     -17.804  11.551  -2.668  1.00  0.00    -0.237 OA
ATOM     80  O   UNL     1     -19.011   9.449  -3.115  1.00  0.00    -0.744 OA
ENDBRANCH  76  77
ENDBRANCH  57  71
BRANCH  58  81
ATOM     81  C   UNL     1      -5.610   4.270  -7.581  1.00  0.00    -0.014 A 
ATOM     82  C   UNL     1      -4.578   5.055  -8.122  1.00  0.00     0.010 A 
ATOM     83  C   UNL     1      -5.452   2.873  -7.530  1.00  0.00     0.010 A 
ATOM     84  C   UNL     1      -3.413   4.455  -8.610  1.00  0.00     0.020 A 
ATOM     85  C   UNL     1      -4.280   2.271  -7.995  1.00  0.00     0.020 A 
ATOM     86  C   UNL     1      -3.270   3.066  -8.540  1.00  0.00     0.054 A 
BRANCH  86  87
ATOM     87  S   UNL     1      -1.723   2.313  -9.119  1.00  0.00     0.124 S 
ATOM     88  O   UNL     1      -1.870   2.392 -10.568  1.00  0.00    -0.237 OA
ATOM     89  O   UNL     1      -0.709   3.188  -8.536  1.00  0.00    -0.237 OA
ATOM     90  O   UNL     1      -1.768   0.966  -8.554  1.00  0.00    -0.744 OA
ENDBRANCH  86  87
ENDBRANCH  58  81
BRANCH  70  91
ATOM     91  C   UNL     1     -10.994   7.467 -10.669  1.00  0.00    -0.014 A 
ATOM     92  C   UNL     1     -11.436   6.471 -11.555  1.00  0.00     0.010 A 
ATOM     93  C   UNL     1     -10.924   8.801 -11.113  1.00  0.00     0.010 A 
ATOM     94  C   UNL     1     -11.787   6.800 -12.867  1.00  0.00     0.020 A 
ATOM     95  C   UNL     1     -11.296   9.137 -12.416  1.00  0.00     0.020 A 
ATOM     96  C   UNL     1     -11.718   8.132 -13.289  1.00  0.00     0.054 A 
BRANCH  96  97
ATOM     97  S   UNL     1     -12.242   8.544 -14.976  1.00  0.00     0.124 S 
ATOM     98  O   UNL     1     -11.118   8.056 -15.771  1.00  0.00    -0.237 OA
ATOM     99  O   UNL     1     -13.486   7.792 -15.120  1.00  0.00    -0.237 OA
ATOM    100  O   UNL     1     -12.400   9.996 -14.945  1.00  0.00    -0.744 OA
ENDBRANCH  96  97
ENDBRANCH  70  91
ENDBRANCH  44  45
ENDBRANCH  37  39
ENDBRANCH  36  37
ENDBRANCH  35  36
ENDBRANCH  34  35
ENDBRANCH  33  34
ENDBRANCH  32  33
ENDBRANCH  31  32
ENDBRANCH  30  31
ENDBRANCH   1  30
TORSDOF 28
