REMARK SMILES C[C@H]([C@@H]1CCCO1)n1c(SCC(=O)OCCOCCOCCOCCOC(=O)c2ccc(-c3c4nc(c(-c5ccc(S(=O)(=O)[O-])cc5)c5ccc([nH]5)c(-c5ccc(S(=O)(=O)[O-])cc5)c5nc(c(-c6ccc(S(=O)(=O)[O-])cc6)c6ccc3[nH]6)C=C5)C=C4)cc2)nc2cnccc21
REMARK SMILES IDX 19 1 18 2 17 3 16 4 15 5 14 6 12 7 13 8 11 9 10 10 9 11 8 12
REMARK SMILES IDX 95 13 89 14 90 15 94 16 91 17 93 18 92 19 2 20 1 21 3 22
REMARK SMILES IDX 4 23 7 24 5 25 6 26 20 27 21 28 22 29 23 30 24 31 25 32
REMARK SMILES IDX 26 33 27 34 28 35 29 36 30 37 88 38 31 39 87 40 32 41 33 42
REMARK SMILES IDX 34 43 81 44 35 45 86 46 80 47 82 48 36 49 85 50 79 51 78 52
REMARK SMILES IDX 37 54 67 55 48 56 66 57 49 58 52 59 65 60 83 61 50 62 51 63
REMARK SMILES IDX 64 65 84 66 53 67 38 68 39 69 47 70 40 71 46 72 41 73 42 74
REMARK SMILES IDX 43 75 44 76 45 77 68 78 69 79 77 80 70 81 76 82 71 83 72 84
REMARK SMILES IDX 73 85 74 86 75 87 54 88 55 89 63 90 56 91 62 92 57 93 58 94
REMARK SMILES IDX 59 95 60 96 61 97
REMARK H PARENT 82 53 52 64
REMARK Flexibility Score: inf
ROOT
ATOM      1  C   UNL     1      -1.080  -2.454   2.222  1.00  0.00     0.188 C 
ENDROOT
BRANCH   1   2
ATOM      2  C   UNL     1       0.262  -2.336   1.512  1.00  0.00     0.188 C 
BRANCH   2   3
ATOM      3  O   UNL     1       1.304  -3.202   1.912  1.00  0.00    -0.376 OA
BRANCH   3   4
ATOM      4  C   UNL     1       2.034  -2.922   3.098  1.00  0.00     0.202 C 
BRANCH   4   5
ATOM      5  C   UNL     1       1.428  -2.076   4.230  1.00  0.00     0.261 C 
BRANCH   5   6
ATOM      6  O   UNL     1       0.727  -0.875   3.842  1.00  0.00    -0.463 OA
BRANCH   6   7
ATOM      7  C   UNL     1       1.392   0.022   3.077  1.00  0.00     0.316 C 
ATOM      8  O   UNL     1       2.561  -0.090   2.721  1.00  0.00    -0.251 OA
BRANCH   7   9
ATOM      9  C   UNL     1       0.541   1.192   2.665  1.00  0.00     0.200 C 
BRANCH   9  10
ATOM     10  S   UNL     1      -0.995   1.014   1.760  1.00  0.00    -0.076 SA
BRANCH  10  11
ATOM     11  C   UNL     1      -1.296   0.176   0.250  1.00  0.00     0.170 A 
ATOM     12  N   UNL     1      -0.616  -0.361  -0.859  1.00  0.00    -0.313 N 
ATOM     13  C   UNL     1      -1.601  -1.084  -1.593  1.00  0.00     0.072 A 
ATOM     14  N   UNL     1      -2.602  -0.016   0.099  1.00  0.00    -0.221 NA
ATOM     15  C   UNL     1      -2.810  -0.800  -0.987  1.00  0.00     0.108 A 
ATOM     16  C   UNL     1      -1.550  -1.933  -2.712  1.00  0.00     0.049 A 
ATOM     17  C   UNL     1      -3.995  -1.336  -1.508  1.00  0.00     0.141 A 
ATOM     18  C   UNL     1      -2.770  -2.436  -3.151  1.00  0.00     0.113 A 
ATOM     19  N   UNL     1      -3.966  -2.163  -2.587  1.00  0.00    -0.262 NA
BRANCH  12  20
ATOM     20  C   UNL     1       0.739  -0.343  -1.443  1.00  0.00     0.116 C 
ATOM     21  C   UNL     1       1.624  -1.571  -1.176  1.00  0.00     0.034 C 
BRANCH  20  22
ATOM     22  C   UNL     1       1.571   0.945  -1.587  1.00  0.00     0.141 C 
ATOM     23  C   UNL     1       1.707   1.823  -0.378  1.00  0.00     0.036 C 
ATOM     24  O   UNL     1       0.985   1.758  -2.631  1.00  0.00    -0.376 OA
ATOM     25  C   UNL     1       1.502   3.219  -0.894  1.00  0.00     0.031 C 
ATOM     26  C   UNL     1       0.543   2.977  -2.033  1.00  0.00     0.160 C 
ENDBRANCH  20  22
ENDBRANCH  12  20
ENDBRANCH  10  11
ENDBRANCH   9  10
ENDBRANCH   7   9
ENDBRANCH   6   7
ENDBRANCH   5   6
ENDBRANCH   4   5
ENDBRANCH   3   4
ENDBRANCH   2   3
ENDBRANCH   1   2
BRANCH   1  27
ATOM     27  O   UNL     1      -1.138  -3.503   3.136  1.00  0.00    -0.377 OA
BRANCH  27  28
ATOM     28  C   UNL     1      -0.737  -4.770   2.679  1.00  0.00     0.188 C 
BRANCH  28  29
ATOM     29  C   UNL     1      -0.559  -5.274   1.242  1.00  0.00     0.188 C 
BRANCH  29  30
ATOM     30  O   UNL     1      -1.092  -4.437   0.234  1.00  0.00    -0.376 OA
BRANCH  30  31
ATOM     31  C   UNL     1      -2.296  -4.859  -0.378  1.00  0.00     0.202 C 
BRANCH  31  32
ATOM     32  C   UNL     1      -3.591  -4.612   0.408  1.00  0.00     0.261 C 
BRANCH  32  33
ATOM     33  O   UNL     1      -3.540  -5.127   1.743  1.00  0.00    -0.460 OA
BRANCH  33  34
ATOM     34  C   UNL     1      -4.170  -6.295   2.046  1.00  0.00     0.338 C 
ATOM     35  O   UNL     1      -4.907  -6.938   1.351  1.00  0.00    -0.246 OA
BRANCH  34  36
ATOM     36  C   UNL     1      -3.470  -6.777   3.271  1.00  0.00     0.060 A 
ATOM     37  C   UNL     1      -3.358  -5.952   4.399  1.00  0.00     0.016 A 
ATOM     38  C   UNL     1      -2.553  -7.820   3.047  1.00  0.00     0.016 A 
ATOM     39  C   UNL     1      -2.207  -6.061   5.186  1.00  0.00     0.010 A 
ATOM     40  C   UNL     1      -1.393  -7.905   3.819  1.00  0.00     0.010 A 
ATOM     41  C   UNL     1      -1.173  -6.969   4.830  1.00  0.00    -0.014 A 
BRANCH  41  42
ATOM     42  C   UNL     1       0.044  -6.984   5.663  1.00  0.00     0.031 A 
ATOM     43  C   UNL     1      -0.335  -7.360   7.040  1.00  0.00     0.074 A 
ATOM     44  C   UNL     1       1.349  -6.834   5.336  1.00  0.00     0.049 A 
ATOM     45  N   UNL     1      -0.326  -6.633   8.106  1.00  0.00    -0.248 NA
ATOM     46  C   UNL     1      -1.062  -8.636   7.155  1.00  0.00     0.031 C 
ATOM     47  C   UNL     1       1.956  -6.760   4.006  1.00  0.00     0.029 A 
ATOM     48  N   UNL     1       2.450  -6.804   6.163  1.00  0.00    -0.354 N 
ATOM     49  C   UNL     1      -0.891  -7.448   9.075  1.00  0.00     0.074 A 
ATOM     50  C   UNL     1      -1.560  -8.517   8.380  1.00  0.00     0.031 C 
ATOM     51  C   UNL     1       3.298  -6.873   4.109  1.00  0.00     0.029 A 
ATOM     52  C   UNL     1       3.662  -7.009   5.505  1.00  0.00     0.049 A 
ATOM     53  H   UNL     1       2.386  -6.652   7.134  1.00  0.00     0.167 HD
ATOM     54  C   UNL     1      -0.514  -7.387  10.378  1.00  0.00     0.031 A 
ATOM     55  C   UNL     1       4.850  -7.408   6.039  1.00  0.00     0.031 A 
ATOM     56  C   UNL     1       0.117  -6.139  10.705  1.00  0.00     0.049 A 
ATOM     57  C   UNL     1       4.803  -7.128   7.495  1.00  0.00     0.074 A 
ATOM     58  C   UNL     1      -0.272  -4.816  10.630  1.00  0.00     0.029 A 
ATOM     59  N   UNL     1       1.485  -6.129  10.843  1.00  0.00    -0.354 N 
ATOM     60  N   UNL     1       4.802  -5.929   8.011  1.00  0.00    -0.248 NA
ATOM     61  C   UNL     1       4.317  -8.185   8.368  1.00  0.00     0.031 C 
ATOM     62  C   UNL     1       0.905  -4.099  10.282  1.00  0.00     0.029 A 
ATOM     63  C   UNL     1       1.962  -5.008  10.213  1.00  0.00     0.049 A 
ATOM     64  H   UNL     1       2.025  -6.806  11.310  1.00  0.00     0.167 HD
ATOM     65  C   UNL     1       3.933  -6.011   9.090  1.00  0.00     0.074 A 
ATOM     66  C   UNL     1       3.723  -7.441   9.302  1.00  0.00     0.031 C 
ATOM     67  C   UNL     1       3.248  -4.921   9.545  1.00  0.00     0.031 A 
BRANCH  54  68
ATOM     68  C   UNL     1      -0.393  -8.636  11.211  1.00  0.00    -0.014 A 
ATOM     69  C   UNL     1      -0.343  -9.933  10.649  1.00  0.00     0.010 A 
ATOM     70  C   UNL     1      -0.093  -8.527  12.578  1.00  0.00     0.010 A 
ATOM     71  C   UNL     1      -0.066 -11.067  11.400  1.00  0.00     0.020 A 
ATOM     72  C   UNL     1       0.249  -9.656  13.335  1.00  0.00     0.020 A 
ATOM     73  C   UNL     1       0.245 -10.920  12.741  1.00  0.00     0.054 A 
BRANCH  73  74
ATOM     74  S   UNL     1       0.722 -12.403  13.650  1.00  0.00     0.124 S 
ATOM     75  O   UNL     1      -0.546 -13.124  13.728  1.00  0.00    -0.237 OA
ATOM     76  O   UNL     1       1.730 -12.994  12.774  1.00  0.00    -0.237 OA
ATOM     77  O   UNL     1       1.226 -11.878  14.915  1.00  0.00    -0.744 OA
ENDBRANCH  73  74
ENDBRANCH  54  68
BRANCH  55  78
ATOM     78  C   UNL     1       5.768  -8.438   5.449  1.00  0.00    -0.014 A 
ATOM     79  C   UNL     1       5.318  -9.275   4.406  1.00  0.00     0.010 A 
ATOM     80  C   UNL     1       6.972  -8.805   6.086  1.00  0.00     0.010 A 
ATOM     81  C   UNL     1       5.964 -10.468   4.078  1.00  0.00     0.020 A 
ATOM     82  C   UNL     1       7.626 -10.015   5.771  1.00  0.00     0.020 A 
ATOM     83  C   UNL     1       7.085 -10.860   4.800  1.00  0.00     0.054 A 
BRANCH  83  84
ATOM     84  S   UNL     1       7.713 -12.539   4.523  1.00  0.00     0.124 S 
ATOM     85  O   UNL     1       6.622 -13.357   5.048  1.00  0.00    -0.237 OA
ATOM     86  O   UNL     1       7.878 -12.580   3.071  1.00  0.00    -0.237 OA
ATOM     87  O   UNL     1       8.953 -12.579   5.290  1.00  0.00    -0.744 OA
ENDBRANCH  83  84
ENDBRANCH  55  78
BRANCH  67  88
ATOM     88  C   UNL     1       3.672  -3.529   9.124  1.00  0.00    -0.014 A 
ATOM     89  C   UNL     1       3.791  -2.566  10.146  1.00  0.00     0.010 A 
ATOM     90  C   UNL     1       3.739  -3.091   7.787  1.00  0.00     0.010 A 
ATOM     91  C   UNL     1       3.901  -1.206   9.853  1.00  0.00     0.020 A 
ATOM     92  C   UNL     1       3.887  -1.726   7.486  1.00  0.00     0.020 A 
ATOM     93  C   UNL     1       3.927  -0.790   8.523  1.00  0.00     0.054 A 
BRANCH  93  94
ATOM     94  S   UNL     1       3.962   0.993   8.187  1.00  0.00     0.124 S 
ATOM     95  O   UNL     1       2.634   1.418   8.623  1.00  0.00    -0.237 OA
ATOM     96  O   UNL     1       5.070   1.456   9.020  1.00  0.00    -0.237 OA
ATOM     97  O   UNL     1       4.192   1.078   6.747  1.00  0.00    -0.744 OA
ENDBRANCH  93  94
ENDBRANCH  67  88
ENDBRANCH  41  42
ENDBRANCH  34  36
ENDBRANCH  33  34
ENDBRANCH  32  33
ENDBRANCH  31  32
ENDBRANCH  30  31
ENDBRANCH  29  30
ENDBRANCH  28  29
ENDBRANCH  27  28
ENDBRANCH   1  27
TORSDOF 27
