REMARK SMILES O=C(OCCOCCOCCOCCOC(=O)c1nccnc1C(=O)Nc1n[nH]c2ncccc12)c1ccc(-c2c3nc(c(-c4ccc(S(=O)(=O)[O-])cc4)c4ccc([nH]4)c(-c4ccc(S(=O)(=O)[O-])cc4)c4nc(c(-c5ccc(S(=O)(=O)[O-])cc5)c5ccc2[nH]5)C=C4)C=C3)cc1
REMARK SMILES IDX 8 1 7 2 6 3 5 4 4 5 3 6 2 7 1 8 36 9 37 10 95 11 38 12 94 13
REMARK SMILES IDX 39 14 40 15 41 16 88 17 42 18 93 19 87 20 89 21 43 22 92 23
REMARK SMILES IDX 86 24 85 25 44 27 74 28 55 29 73 30 56 31 59 32 72 33 90 34
REMARK SMILES IDX 57 35 58 36 71 38 91 39 60 40 45 41 46 42 54 43 47 44 53 45
REMARK SMILES IDX 48 46 49 47 50 48 51 49 52 50 75 51 76 52 84 53 77 54 83 55
REMARK SMILES IDX 78 56 79 57 80 58 81 59 82 60 61 61 62 62 70 63 63 64 69 65
REMARK SMILES IDX 64 66 65 67 66 68 67 69 68 70 9 71 10 72 11 73 12 74 13 75
REMARK SMILES IDX 14 76 15 77 16 78 17 79 18 80 19 81 23 82 20 83 22 84 21 85
REMARK SMILES IDX 24 86 25 87 26 88 27 90 28 91 35 92 29 93 30 94 34 95 31 97
REMARK SMILES IDX 33 98 32 99
REMARK H PARENT 89 26 59 37 26 89 29 96
REMARK Flexibility Score: inf
ROOT
ATOM      1  C   UNL     1       2.160   1.153  -1.785  1.00  0.00     0.188 C 
ENDROOT
BRANCH   1   2
ATOM      2  C   UNL     1       1.892   0.383  -0.512  1.00  0.00     0.188 C 
BRANCH   2   3
ATOM      3  O   UNL     1       3.091  -0.234  -0.073  1.00  0.00    -0.376 OA
BRANCH   3   4
ATOM      4  C   UNL     1       3.380  -1.526  -0.564  1.00  0.00     0.202 C 
BRANCH   4   5
ATOM      5  C   UNL     1       3.762  -2.402   0.632  1.00  0.00     0.261 C 
BRANCH   5   6
ATOM      6  O   UNL     1       2.779  -2.392   1.698  1.00  0.00    -0.460 OA
BRANCH   6   7
ATOM      7  C   UNL     1       2.193  -1.300   2.257  1.00  0.00     0.338 C 
ATOM      8  O   UNL     1       0.986  -1.341   2.501  1.00  0.00    -0.246 OA
BRANCH   7   9
ATOM      9  C   UNL     1       2.973  -0.092   2.716  1.00  0.00     0.060 A 
ATOM     10  C   UNL     1       4.278   0.233   2.327  1.00  0.00     0.016 A 
ATOM     11  C   UNL     1       2.311   0.801   3.584  1.00  0.00     0.016 A 
ATOM     12  C   UNL     1       4.919   1.375   2.797  1.00  0.00     0.010 A 
ATOM     13  C   UNL     1       2.965   1.923   4.110  1.00  0.00     0.010 A 
ATOM     14  C   UNL     1       4.294   2.172   3.753  1.00  0.00    -0.014 A 
BRANCH  14  15
ATOM     15  C   UNL     1       5.185   2.958   4.628  1.00  0.00     0.031 A 
ATOM     16  C   UNL     1       5.799   2.206   5.782  1.00  0.00     0.074 A 
ATOM     17  C   UNL     1       5.556   4.211   4.321  1.00  0.00     0.049 A 
ATOM     18  N   UNL     1       6.688   2.598   6.653  1.00  0.00    -0.248 NA
ATOM     19  C   UNL     1       5.373   0.802   5.952  1.00  0.00     0.031 C 
ATOM     20  C   UNL     1       5.111   4.965   3.148  1.00  0.00     0.029 A 
ATOM     21  N   UNL     1       6.424   5.058   4.957  1.00  0.00    -0.354 N 
ATOM     22  C   UNL     1       6.925   1.491   7.463  1.00  0.00     0.074 A 
ATOM     23  C   UNL     1       6.092   0.415   6.989  1.00  0.00     0.031 C 
ATOM     24  C   UNL     1       5.721   6.165   3.146  1.00  0.00     0.029 A 
ATOM     25  C   UNL     1       6.569   6.273   4.331  1.00  0.00     0.049 A 
ATOM     26  H   UNL     1       6.899   4.819   5.785  1.00  0.00     0.167 HD
ATOM     27  C   UNL     1       7.753   1.386   8.525  1.00  0.00     0.031 A 
ATOM     28  C   UNL     1       7.298   7.346   4.697  1.00  0.00     0.031 A 
ATOM     29  C   UNL     1       8.520   2.489   9.024  1.00  0.00     0.049 A 
ATOM     30  C   UNL     1       8.120   7.247   5.960  1.00  0.00     0.074 A 
ATOM     31  C   UNL     1       9.316   2.552  10.150  1.00  0.00     0.029 A 
ATOM     32  N   UNL     1       8.565   3.738   8.420  1.00  0.00    -0.354 N 
ATOM     33  N   UNL     1       8.295   6.212   6.752  1.00  0.00    -0.248 NA
ATOM     34  C   UNL     1       8.837   8.456   6.382  1.00  0.00     0.031 C 
ATOM     35  C   UNL     1       9.805   3.859  10.253  1.00  0.00     0.029 A 
ATOM     36  C   UNL     1       9.361   4.589   9.159  1.00  0.00     0.049 A 
ATOM     37  H   UNL     1       8.098   3.981   7.587  1.00  0.00     0.167 HD
ATOM     38  C   UNL     1       9.162   6.639   7.752  1.00  0.00     0.074 A 
ATOM     39  C   UNL     1       9.484   8.022   7.456  1.00  0.00     0.031 C 
ATOM     40  C   UNL     1       9.652   5.959   8.819  1.00  0.00     0.031 A 
BRANCH  27  41
ATOM     41  C   UNL     1       7.761   0.069   9.249  1.00  0.00    -0.014 A 
ATOM     42  C   UNL     1       8.372  -1.071   8.694  1.00  0.00     0.010 A 
ATOM     43  C   UNL     1       7.079  -0.046  10.473  1.00  0.00     0.010 A 
ATOM     44  C   UNL     1       8.257  -2.313   9.329  1.00  0.00     0.020 A 
ATOM     45  C   UNL     1       6.981  -1.280  11.121  1.00  0.00     0.020 A 
ATOM     46  C   UNL     1       7.553  -2.410  10.533  1.00  0.00     0.054 A 
BRANCH  46  47
ATOM     47  S   UNL     1       7.396  -4.034  11.327  1.00  0.00     0.124 S 
ATOM     48  O   UNL     1       6.416  -4.695  10.469  1.00  0.00    -0.237 OA
ATOM     49  O   UNL     1       8.756  -4.562  11.250  1.00  0.00    -0.237 OA
ATOM     50  O   UNL     1       6.930  -3.717  12.675  1.00  0.00    -0.744 OA
ENDBRANCH  46  47
ENDBRANCH  27  41
BRANCH  28  51
ATOM     51  C   UNL     1       7.255   8.605   3.899  1.00  0.00    -0.014 A 
ATOM     52  C   UNL     1       8.394   9.084   3.228  1.00  0.00     0.010 A 
ATOM     53  C   UNL     1       6.062   9.349   3.821  1.00  0.00     0.010 A 
ATOM     54  C   UNL     1       8.347  10.289   2.514  1.00  0.00     0.020 A 
ATOM     55  C   UNL     1       6.003  10.538   3.087  1.00  0.00     0.020 A 
ATOM     56  C   UNL     1       7.151  11.009   2.450  1.00  0.00     0.054 A 
BRANCH  56  57
ATOM     57  S   UNL     1       7.098  12.553   1.494  1.00  0.00     0.124 S 
ATOM     58  O   UNL     1       7.821  13.474   2.366  1.00  0.00    -0.237 OA
ATOM     59  O   UNL     1       7.779  12.184   0.257  1.00  0.00    -0.237 OA
ATOM     60  O   UNL     1       5.667  12.817   1.353  1.00  0.00    -0.744 OA
ENDBRANCH  56  57
ENDBRANCH  28  51
BRANCH  40  61
ATOM     61  C   UNL     1      10.614   6.688   9.713  1.00  0.00    -0.014 A 
ATOM     62  C   UNL     1      10.170   7.673  10.611  1.00  0.00     0.010 A 
ATOM     63  C   UNL     1      11.972   6.322   9.701  1.00  0.00     0.010 A 
ATOM     64  C   UNL     1      11.078   8.305  11.462  1.00  0.00     0.020 A 
ATOM     65  C   UNL     1      12.877   6.933  10.568  1.00  0.00     0.020 A 
ATOM     66  C   UNL     1      12.426   7.932  11.433  1.00  0.00     0.054 A 
BRANCH  66  67
ATOM     67  S   UNL     1      13.580   8.735  12.578  1.00  0.00     0.124 S 
ATOM     68  O   UNL     1      13.785  10.032  11.940  1.00  0.00    -0.237 OA
ATOM     69  O   UNL     1      12.827   8.761  13.829  1.00  0.00    -0.237 OA
ATOM     70  O   UNL     1      14.741   7.848  12.575  1.00  0.00    -0.744 OA
ENDBRANCH  66  67
ENDBRANCH  40  61
ENDBRANCH  14  15
ENDBRANCH   7   9
ENDBRANCH   6   7
ENDBRANCH   5   6
ENDBRANCH   4   5
ENDBRANCH   3   4
ENDBRANCH   2   3
ENDBRANCH   1   2
BRANCH   1  71
ATOM     71  O   UNL     1       3.501   1.624  -1.847  1.00  0.00    -0.377 OA
BRANCH  71  72
ATOM     72  C   UNL     1       3.931   2.603  -0.907  1.00  0.00     0.188 C 
BRANCH  72  73
ATOM     73  C   UNL     1       3.330   4.000  -1.145  1.00  0.00     0.188 C 
BRANCH  73  74
ATOM     74  O   UNL     1       3.772   4.569  -2.398  1.00  0.00    -0.376 OA
BRANCH  74  75
ATOM     75  C   UNL     1       2.711   5.045  -3.247  1.00  0.00     0.202 C 
BRANCH  75  76
ATOM     76  C   UNL     1       3.259   5.666  -4.569  1.00  0.00     0.261 C 
BRANCH  76  77
ATOM     77  O   UNL     1       3.572   4.697  -5.617  1.00  0.00    -0.458 OA
BRANCH  77  78
ATOM     78  C   UNL     1       4.823   4.652  -6.186  1.00  0.00     0.359 C 
ATOM     79  O   UNL     1       5.770   5.341  -5.864  1.00  0.00    -0.244 OA
BRANCH  78  80
ATOM     80  C   UNL     1       4.883   3.592  -7.259  1.00  0.00     0.179 A 
ATOM     81  N   UNL     1       3.719   3.404  -7.968  1.00  0.00    -0.245 NA
ATOM     82  C   UNL     1       5.989   2.767  -7.501  1.00  0.00     0.161 A 
ATOM     83  C   UNL     1       3.709   2.384  -8.860  1.00  0.00     0.132 A 
ATOM     84  N   UNL     1       5.956   1.736  -8.414  1.00  0.00    -0.247 NA
ATOM     85  C   UNL     1       4.800   1.566  -9.076  1.00  0.00     0.132 A 
BRANCH  82  86
ATOM     86  C   UNL     1       7.270   2.744  -6.747  1.00  0.00     0.278 C 
ATOM     87  O   UNL     1       8.224   3.409  -7.146  1.00  0.00    -0.267 OA
ATOM     88  N   UNL     1       7.411   1.825  -5.706  1.00  0.00    -0.303 N 
ATOM     89  H   UNL     1       8.241   1.309  -5.586  1.00  0.00     0.172 HD
BRANCH  88  90
ATOM     90  C   UNL     1       6.343   1.672  -4.855  1.00  0.00     0.164 A 
ATOM     91  N   UNL     1       6.337   2.519  -3.833  1.00  0.00    -0.155 NA
ATOM     92  C   UNL     1       5.058   1.104  -5.096  1.00  0.00     0.063 A 
ATOM     93  N   UNL     1       5.038   2.808  -3.730  1.00  0.00    -0.259 N 
ATOM     94  C   UNL     1       4.217   1.998  -4.462  1.00  0.00     0.157 A 
ATOM     95  C   UNL     1       4.443   0.114  -5.877  1.00  0.00     0.017 A 
ATOM     96  H   UNL     1       4.699   3.544  -3.172  1.00  0.00     0.192 HD
ATOM     97  N   UNL     1       2.878   2.106  -4.590  1.00  0.00    -0.237 NA
ATOM     98  C   UNL     1       3.044   0.130  -5.970  1.00  0.00     0.021 A 
ATOM     99  C   UNL     1       2.333   1.149  -5.356  1.00  0.00     0.113 A 
ENDBRANCH  88  90
ENDBRANCH  82  86
ENDBRANCH  78  80
ENDBRANCH  77  78
ENDBRANCH  76  77
ENDBRANCH  75  76
ENDBRANCH  74  75
ENDBRANCH  73  74
ENDBRANCH  72  73
ENDBRANCH  71  72
ENDBRANCH   1  71
TORSDOF 25
