REMARK SMILES Cc1cccc(S(=O)(=O)Nc2cc(C(=O)OCCOCCOCCOCCOC(=O)c3ccc(-c4c5nc(c(-c6ccc(S(=O)(=O)[O-])cc6)c6ccc([nH]6)c(-c6ccc(S(=O)(=O)[O-])cc6)c6nc(c(-c7ccc(S(=O)(=O)[O-])cc7)c7ccc4[nH]7)C=C6)C=C5)cc3)ccc2N2CCC[C@H](C[NH+]3CCCC3)C2)c1
REMARK SMILES IDX 22 1 21 2 20 3 19 4 18 5 17 6 16 7 14 8 15 9 13 10 11 11
REMARK SMILES IDX 12 12 93 13 92 14 91 15 10 16 7 18 8 19 9 20 6 21 1 22 2 23
REMARK SMILES IDX 3 24 106 25 4 26 5 27 94 28 95 29 105 30 96 31 98 32 97 33
REMARK SMILES IDX 99 34 100 35 101 36 104 37 102 39 103 40 23 41 24 42 25 43
REMARK SMILES IDX 26 44 27 45 28 46 29 47 30 48 31 49 32 50 90 51 33 52 89 53
REMARK SMILES IDX 34 54 35 55 36 56 83 57 37 58 88 59 82 60 84 61 38 62 87 63
REMARK SMILES IDX 81 64 80 65 39 67 69 68 50 69 68 70 51 71 54 72 67 73 85 74
REMARK SMILES IDX 52 75 53 76 66 78 86 79 55 80 40 81 41 82 49 83 42 84 48 85
REMARK SMILES IDX 43 86 44 87 45 88 46 89 47 90 70 91 71 92 79 93 72 94 78 95
REMARK SMILES IDX 73 96 74 97 75 98 76 99 77 100 56 101 57 102 65 103 58 104
REMARK SMILES IDX 64 105 59 106 60 107 61 108 62 109 63 110
REMARK H PARENT 10 17 100 38 84 66 54 77
REMARK Flexibility Score: inf
ROOT
ATOM      1  O   UNL     1       3.168   3.860  -3.664  1.00  0.00    -0.377 OA
ENDROOT
BRANCH   1   2
ATOM      2  C   UNL     1       4.565   3.809  -3.365  1.00  0.00     0.188 C 
BRANCH   2   3
ATOM      3  C   UNL     1       5.820   2.829  -3.898  1.00  0.00     0.188 C 
BRANCH   3   4
ATOM      4  O   UNL     1       6.196   1.068  -4.094  1.00  0.00    -0.376 OA
BRANCH   4   5
ATOM      5  C   UNL     1       5.351  -0.459  -3.824  1.00  0.00     0.202 C 
BRANCH   5   6
ATOM      6  C   UNL     1       4.059  -0.865  -2.520  1.00  0.00     0.261 C 
BRANCH   6   7
ATOM      7  O   UNL     1       3.603   0.174  -1.101  1.00  0.00    -0.460 OA
BRANCH   7   8
ATOM      8  C   UNL     1       3.962   1.305  -0.212  1.00  0.00     0.338 C 
ATOM      9  O   UNL     1       5.090   1.516   0.253  1.00  0.00    -0.246 OA
BRANCH   8  10
ATOM     10  C   UNL     1       3.027   2.522   0.263  1.00  0.00     0.062 A 
ATOM     11  C   UNL     1       1.038   4.048   0.342  1.00  0.00     0.073 A 
ATOM     12  C   UNL     1       1.855   3.100  -0.281  1.00  0.00     0.044 A 
ATOM     13  C   UNL     1       1.571   4.785   1.387  1.00  0.00     0.061 A 
ATOM     14  C   UNL     1       2.874   4.459   1.781  1.00  0.00     0.029 A 
ATOM     15  C   UNL     1       3.539   3.308   1.304  1.00  0.00     0.018 A 
BRANCH  11  16
ATOM     16  N   UNL     1      -0.272   4.360  -0.215  1.00  0.00    -0.277 N 
ATOM     17  H   UNL     1      -0.322   5.032  -0.932  1.00  0.00     0.180 HD
BRANCH  16  18
ATOM     18  S   UNL     1      -1.736   3.621   0.306  1.00  0.00     0.261 S 
ATOM     19  O   UNL     1      -2.562   3.495  -0.880  1.00  0.00    -0.201 OA
ATOM     20  O   UNL     1      -2.245   4.404   1.416  1.00  0.00    -0.201 OA
BRANCH  18  21
ATOM     21  C   UNL     1      -1.498   1.985   0.938  1.00  0.00     0.088 A 
ATOM     22  C   UNL     1       1.216   0.132   2.692  1.00  0.00     0.044 C 
ATOM     23  C   UNL     1      -0.127   0.395   2.108  1.00  0.00    -0.050 A 
ATOM     24  C   UNL     1      -0.981  -0.642   1.730  1.00  0.00     0.003 A 
ATOM     25  C   UNL     1      -0.425   1.709   1.763  1.00  0.00     0.025 A 
ATOM     26  C   UNL     1      -2.143  -0.354   1.017  1.00  0.00     0.002 A 
ATOM     27  C   UNL     1      -2.395   0.958   0.603  1.00  0.00     0.022 A 
ENDBRANCH  18  21
ENDBRANCH  16  18
ENDBRANCH  11  16
BRANCH  13  28
ATOM     28  N   UNL     1       0.846   5.823   1.938  1.00  0.00    -0.369 N 
ATOM     29  C   UNL     1       1.311   7.195   1.809  1.00  0.00     0.116 C 
ATOM     30  C   UNL     1      -0.094   5.506   3.010  1.00  0.00     0.126 C 
ATOM     31  C   UNL     1       1.819   7.712   3.151  1.00  0.00     0.022 C 
ATOM     32  C   UNL     1       0.452   5.933   4.379  1.00  0.00     0.064 C 
ATOM     33  C   UNL     1       0.824   7.423   4.279  1.00  0.00     0.013 C 
BRANCH  32  34
ATOM     34  C   UNL     1       1.582   4.969   4.823  1.00  0.00     0.267 C 
BRANCH  34  35
ATOM     35  N   UNL     1       2.053   4.937   6.205  1.00  0.00    -0.335 N 
ATOM     36  C   UNL     1       1.039   4.624   7.199  1.00  0.00     0.262 C 
ATOM     37  C   UNL     1       2.787   6.113   6.653  1.00  0.00     0.262 C 
ATOM     38  H   UNL     1       2.709   4.159   6.147  1.00  0.00     0.348 HD
ATOM     39  C   UNL     1       0.639   5.968   7.770  1.00  0.00     0.067 C 
ATOM     40  C   UNL     1       1.910   6.798   7.693  1.00  0.00     0.067 C 
ENDBRANCH  34  35
ENDBRANCH  32  34
ENDBRANCH  13  28
ENDBRANCH   8  10
ENDBRANCH   7   8
ENDBRANCH   6   7
ENDBRANCH   5   6
ENDBRANCH   4   5
ENDBRANCH   3   4
ENDBRANCH   2   3
ENDBRANCH   1   2
BRANCH   1  41
ATOM     41  C   UNL     1       2.580   4.161  -4.920  1.00  0.00     0.188 C 
BRANCH  41  42
ATOM     42  C   UNL     1       3.270   5.118  -5.861  1.00  0.00     0.188 C 
BRANCH  42  43
ATOM     43  O   UNL     1       4.645   4.780  -5.936  1.00  0.00    -0.376 OA
BRANCH  43  44
ATOM     44  C   UNL     1       5.437   5.692  -6.669  1.00  0.00     0.202 C 
BRANCH  44  45
ATOM     45  C   UNL     1       5.110   5.707  -8.167  1.00  0.00     0.261 C 
BRANCH  45  46
ATOM     46  O   UNL     1       5.513   4.487  -8.832  1.00  0.00    -0.460 OA
BRANCH  46  47
ATOM     47  C   UNL     1       4.528   3.581  -9.135  1.00  0.00     0.338 C 
ATOM     48  O   UNL     1       3.921   3.591 -10.209  1.00  0.00    -0.246 OA
BRANCH  47  49
ATOM     49  C   UNL     1       4.440   2.544  -8.079  1.00  0.00     0.060 A 
ATOM     50  C   UNL     1       3.334   1.818  -7.653  1.00  0.00     0.016 A 
ATOM     51  C   UNL     1       5.573   2.298  -7.385  1.00  0.00     0.016 A 
ATOM     52  C   UNL     1       3.252   1.238  -6.320  1.00  0.00     0.010 A 
ATOM     53  C   UNL     1       5.445   1.731  -6.122  1.00  0.00     0.010 A 
ATOM     54  C   UNL     1       4.236   1.431  -5.338  1.00  0.00    -0.014 A 
BRANCH  54  55
ATOM     55  C   UNL     1       4.008   1.331  -3.476  1.00  0.00     0.031 A 
ATOM     56  C   UNL     1       5.526   1.070  -2.186  1.00  0.00     0.074 A 
ATOM     57  C   UNL     1       2.592   1.232  -3.220  1.00  0.00     0.049 A 
ATOM     58  N   UNL     1       5.709  -0.073  -1.449  1.00  0.00    -0.248 NA
ATOM     59  C   UNL     1       7.139   1.462  -2.114  1.00  0.00     0.031 C 
ATOM     60  C   UNL     1       1.744   1.090  -2.012  1.00  0.00     0.029 A 
ATOM     61  N   UNL     1       1.527   1.040  -4.130  1.00  0.00    -0.354 N 
ATOM     62  C   UNL     1       6.880  -0.334  -0.809  1.00  0.00     0.074 A 
ATOM     63  C   UNL     1       7.803   0.532  -1.419  1.00  0.00     0.031 C 
ATOM     64  C   UNL     1       0.436   0.970  -2.179  1.00  0.00     0.029 A 
ATOM     65  C   UNL     1       0.355   0.555  -3.505  1.00  0.00     0.049 A 
ATOM     66  H   UNL     1       1.594   1.223  -5.095  1.00  0.00     0.167 HD
ATOM     67  C   UNL     1       6.980  -1.223   0.220  1.00  0.00     0.031 A 
ATOM     68  C   UNL     1      -0.114  -0.705  -3.671  1.00  0.00     0.031 A 
ATOM     69  C   UNL     1       5.676  -1.626   0.766  1.00  0.00     0.049 A 
ATOM     70  C   UNL     1       0.315  -1.759  -2.583  1.00  0.00     0.074 A 
ATOM     71  C   UNL     1       5.009  -1.221   1.903  1.00  0.00     0.029 A 
ATOM     72  N   UNL     1       4.745  -2.390   0.052  1.00  0.00    -0.354 N 
ATOM     73  N   UNL     1       1.347  -1.692  -1.744  1.00  0.00    -0.248 NA
ATOM     74  C   UNL     1      -0.475  -2.958  -2.329  1.00  0.00     0.031 C 
ATOM     75  C   UNL     1       3.695  -1.736   1.843  1.00  0.00     0.029 A 
ATOM     76  C   UNL     1       3.448  -2.292   0.587  1.00  0.00     0.049 A 
ATOM     77  H   UNL     1       4.973  -2.934  -0.736  1.00  0.00     0.167 HD
ATOM     78  C   UNL     1       1.389  -2.793  -0.890  1.00  0.00     0.074 A 
ATOM     79  C   UNL     1       0.211  -3.550  -1.333  1.00  0.00     0.031 C 
ATOM     80  C   UNL     1       2.292  -3.109   0.124  1.00  0.00     0.031 A 
BRANCH  67  81
ATOM     81  C   UNL     1       8.315  -1.315   0.948  1.00  0.00    -0.014 A 
ATOM     82  C   UNL     1       8.383  -1.169   2.344  1.00  0.00     0.010 A 
ATOM     83  C   UNL     1       9.550  -1.433   0.269  1.00  0.00     0.010 A 
ATOM     84  C   UNL     1       9.605  -1.008   3.017  1.00  0.00     0.020 A 
ATOM     85  C   UNL     1      10.781  -1.239   0.925  1.00  0.00     0.020 A 
ATOM     86  C   UNL     1      10.797  -1.002   2.298  1.00  0.00     0.054 A 
BRANCH  86  87
ATOM     87  S   UNL     1      12.347  -0.660   3.181  1.00  0.00     0.124 S 
ATOM     88  O   UNL     1      12.101   0.661   3.755  1.00  0.00    -0.237 OA
ATOM     89  O   UNL     1      12.412  -1.759   4.141  1.00  0.00    -0.237 OA
ATOM     90  O   UNL     1      13.363  -0.694   2.131  1.00  0.00    -0.744 OA
ENDBRANCH  86  87
ENDBRANCH  67  81
BRANCH  68  91
ATOM     91  C   UNL     1      -0.718  -0.698  -5.040  1.00  0.00    -0.014 A 
ATOM     92  C   UNL     1      -1.654   0.367  -5.277  1.00  0.00     0.010 A 
ATOM     93  C   UNL     1       0.079  -1.114  -6.114  1.00  0.00     0.010 A 
ATOM     94  C   UNL     1      -1.562   1.168  -6.424  1.00  0.00     0.020 A 
ATOM     95  C   UNL     1       0.125  -0.342  -7.293  1.00  0.00     0.020 A 
ATOM     96  C   UNL     1      -0.628   0.838  -7.399  1.00  0.00     0.054 A 
BRANCH  96  97
ATOM     97  S   UNL     1      -0.272   2.075  -8.689  1.00  0.00     0.124 S 
ATOM     98  O   UNL     1      -1.599   2.450  -9.164  1.00  0.00    -0.237 OA
ATOM     99  O   UNL     1       0.433   3.105  -7.922  1.00  0.00    -0.237 OA
ATOM    100  O   UNL     1       0.545   1.329  -9.642  1.00  0.00    -0.744 OA
ENDBRANCH  96  97
ENDBRANCH  68  91
BRANCH  80 101
ATOM    101  C   UNL     1       2.140  -4.370   0.968  1.00  0.00    -0.014 A 
ATOM    102  C   UNL     1       0.927  -4.846   1.485  1.00  0.00     0.010 A 
ATOM    103  C   UNL     1       3.322  -5.028   1.392  1.00  0.00     0.010 A 
ATOM    104  C   UNL     1       0.888  -6.020   2.252  1.00  0.00     0.020 A 
ATOM    105  C   UNL     1       3.302  -6.154   2.209  1.00  0.00     0.020 A 
ATOM    106  C   UNL     1       2.076  -6.680   2.583  1.00  0.00     0.054 A 
BRANCH 106 107
ATOM    107  S   UNL     1       2.015  -8.240   3.492  1.00  0.00     0.124 S 
ATOM    108  O   UNL     1       1.009  -7.976   4.517  1.00  0.00    -0.237 OA
ATOM    109  O   UNL     1       1.614  -9.174   2.443  1.00  0.00    -0.237 OA
ATOM    110  O   UNL     1       3.378  -8.408   3.990  1.00  0.00    -0.744 OA
ENDBRANCH 106 107
ENDBRANCH  80 101
ENDBRANCH  54  55
ENDBRANCH  47  49
ENDBRANCH  46  47
ENDBRANCH  45  46
ENDBRANCH  44  45
ENDBRANCH  43  44
ENDBRANCH  42  43
ENDBRANCH  41  42
ENDBRANCH   1  41
TORSDOF 29
