REMARK SMILES Cc1n[nH]c(C(=O)OCCOCCOCCOCCOC(=O)c2ccc(-c3c4nc(c(-c5ccc(S(=O)(=O)[O-])cc5)c5ccc([nH]5)c(-c5ccc(S(=O)(=O)[O-])cc5)c5nc(c(-c6ccc(S(=O)(=O)[O-])cc6)c6ccc3[nH]6)C=C5)C=C4)cc2)c1Br
REMARK SMILES IDX 15 1 14 2 13 3 12 4 11 5 10 6 9 7 8 8 6 9 7 10 5 11 1 12
REMARK SMILES IDX 2 13 3 14 83 15 4 16 84 17 16 19 17 20 18 21 19 22 20 23
REMARK SMILES IDX 21 24 22 25 23 26 24 27 82 28 25 29 81 30 26 31 27 32 28 33
REMARK SMILES IDX 75 34 29 35 80 36 74 37 76 38 30 39 79 40 73 41 72 42 31 44
REMARK SMILES IDX 61 45 42 46 60 47 43 48 46 49 59 50 77 51 44 52 45 53 58 55
REMARK SMILES IDX 78 56 47 57 32 58 33 59 41 60 34 61 40 62 35 63 36 64 37 65
REMARK SMILES IDX 38 66 39 67 62 68 63 69 71 70 64 71 70 72 65 73 66 74 67 75
REMARK SMILES IDX 68 76 69 77 48 78 49 79 57 80 50 81 56 82 51 83 52 84 53 85
REMARK SMILES IDX 54 86 55 87
REMARK H PARENT 4 18 76 43 46 54
REMARK Flexibility Score: inf
ROOT
ATOM      1  C   UNL     1       1.143  -3.482   7.074  1.00  0.00     0.188 C 
ENDROOT
BRANCH   1   2
ATOM      2  O   UNL     1       0.543  -3.361   5.782  1.00  0.00    -0.377 OA
BRANCH   2   3
ATOM      3  C   UNL     1       0.755  -2.118   5.130  1.00  0.00     0.188 C 
BRANCH   3   4
ATOM      4  C   UNL     1      -0.409  -1.127   5.320  1.00  0.00     0.188 C 
BRANCH   4   5
ATOM      5  O   UNL     1      -1.413  -1.395   6.282  1.00  0.00    -0.376 OA
BRANCH   5   6
ATOM      6  C   UNL     1      -2.153  -2.602   6.328  1.00  0.00     0.202 C 
BRANCH   6   7
ATOM      7  C   UNL     1      -2.324  -3.612   5.175  1.00  0.00     0.261 C 
BRANCH   7   8
ATOM      8  O   UNL     1      -1.638  -3.369   3.950  1.00  0.00    -0.459 OA
BRANCH   8   9
ATOM      9  C   UNL     1      -2.235  -2.485   3.093  1.00  0.00     0.357 C 
ATOM     10  O   UNL     1      -3.321  -2.010   3.228  1.00  0.00    -0.244 OA
BRANCH   9  11
ATOM     11  C   UNL     1      -1.241  -2.140   2.101  1.00  0.00     0.158 A 
ATOM     12  C   UNL     1       0.975  -0.152  -0.075  1.00  0.00     0.070 C 
ATOM     13  C   UNL     1       0.200  -1.127   0.732  1.00  0.00     0.074 A 
ATOM     14  N   UNL     1       0.619  -2.397   0.814  1.00  0.00    -0.179 NA
ATOM     15  C   UNL     1      -0.970  -0.933   1.498  1.00  0.00     0.073 A 
ATOM     16  N   UNL     1      -0.249  -2.973   1.664  1.00  0.00    -0.270 N 
ATOM     17  Br  UNL     1      -1.841   0.708   1.756  1.00  0.00    -0.046 Br
ATOM     18  H   UNL     1      -0.176  -3.913   1.948  1.00  0.00     0.190 HD
ENDBRANCH   9  11
ENDBRANCH   8   9
ENDBRANCH   7   8
ENDBRANCH   6   7
ENDBRANCH   5   6
ENDBRANCH   4   5
ENDBRANCH   3   4
ENDBRANCH   2   3
ENDBRANCH   1   2
BRANCH   1  19
ATOM     19  C   UNL     1       0.975  -2.311   8.076  1.00  0.00     0.188 C 
BRANCH  19  20
ATOM     20  O   UNL     1       1.162  -1.016   7.515  1.00  0.00    -0.376 OA
BRANCH  20  21
ATOM     21  C   UNL     1       2.318  -0.246   7.792  1.00  0.00     0.202 C 
BRANCH  21  22
ATOM     22  C   UNL     1       3.616  -0.738   7.169  1.00  0.00     0.261 C 
BRANCH  22  23
ATOM     23  O   UNL     1       3.839  -2.122   7.353  1.00  0.00    -0.460 OA
BRANCH  23  24
ATOM     24  C   UNL     1       4.054  -2.498   8.627  1.00  0.00     0.338 C 
ATOM     25  O   UNL     1       3.809  -1.869   9.640  1.00  0.00    -0.246 OA
BRANCH  24  26
ATOM     26  C   UNL     1       4.813  -3.745   8.594  1.00  0.00     0.060 A 
ATOM     27  C   UNL     1       5.086  -4.329   9.829  1.00  0.00     0.016 A 
ATOM     28  C   UNL     1       5.535  -4.048   7.429  1.00  0.00     0.016 A 
ATOM     29  C   UNL     1       6.258  -5.033   9.949  1.00  0.00     0.010 A 
ATOM     30  C   UNL     1       6.721  -4.715   7.561  1.00  0.00     0.010 A 
ATOM     31  C   UNL     1       7.100  -5.121   8.835  1.00  0.00    -0.014 A 
BRANCH  31  32
ATOM     32  C   UNL     1       8.369  -5.778   9.002  1.00  0.00     0.031 A 
ATOM     33  C   UNL     1       8.223  -7.243   9.036  1.00  0.00     0.074 A 
ATOM     34  C   UNL     1       9.536  -5.114   9.029  1.00  0.00     0.049 A 
ATOM     35  N   UNL     1       8.301  -8.002  10.075  1.00  0.00    -0.248 NA
ATOM     36  C   UNL     1       7.697  -7.908   7.833  1.00  0.00     0.031 C 
ATOM     37  C   UNL     1       9.786  -3.704   8.724  1.00  0.00     0.029 A 
ATOM     38  N   UNL     1      10.781  -5.614   9.227  1.00  0.00    -0.354 N 
ATOM     39  C   UNL     1       8.080  -9.285   9.599  1.00  0.00     0.074 A 
ATOM     40  C   UNL     1       7.480  -9.137   8.299  1.00  0.00     0.031 C 
ATOM     41  C   UNL     1      11.114  -3.527   8.526  1.00  0.00     0.029 A 
ATOM     42  C   UNL     1      11.806  -4.776   8.809  1.00  0.00     0.049 A 
ATOM     43  H   UNL     1      10.945  -6.496   9.632  1.00  0.00     0.167 HD
ATOM     44  C   UNL     1       8.691 -10.355  10.172  1.00  0.00     0.031 A 
ATOM     45  C   UNL     1      13.104  -5.129   8.632  1.00  0.00     0.031 A 
ATOM     46  C   UNL     1       9.243 -10.019  11.461  1.00  0.00     0.049 A 
ATOM     47  C   UNL     1      13.327  -6.387   9.393  1.00  0.00     0.074 A 
ATOM     48  C   UNL     1       8.719  -9.539  12.645  1.00  0.00     0.029 A 
ATOM     49  N   UNL     1      10.598  -9.782  11.510  1.00  0.00    -0.354 N 
ATOM     50  N   UNL     1      13.311  -6.448  10.695  1.00  0.00    -0.248 NA
ATOM     51  C   UNL     1      13.113  -7.657   8.713  1.00  0.00     0.031 C 
ATOM     52  C   UNL     1       9.709  -8.652  13.157  1.00  0.00     0.029 A 
ATOM     53  C   UNL     1      10.813  -8.685  12.303  1.00  0.00     0.049 A 
ATOM     54  H   UNL     1      11.293 -10.309  11.053  1.00  0.00     0.167 HD
ATOM     55  C   UNL     1      12.653  -7.635  10.989  1.00  0.00     0.074 A 
ATOM     56  C   UNL     1      12.656  -8.387   9.736  1.00  0.00     0.031 C 
ATOM     57  C   UNL     1      11.922  -7.767  12.135  1.00  0.00     0.031 A 
BRANCH  44  58
ATOM     58  C   UNL     1       9.178 -11.540   9.376  1.00  0.00    -0.014 A 
ATOM     59  C   UNL     1       9.807 -12.594  10.065  1.00  0.00     0.010 A 
ATOM     60  C   UNL     1       9.297 -11.533   7.969  1.00  0.00     0.010 A 
ATOM     61  C   UNL     1      10.583 -13.540   9.386  1.00  0.00     0.020 A 
ATOM     62  C   UNL     1      10.028 -12.498   7.279  1.00  0.00     0.020 A 
ATOM     63  C   UNL     1      10.697 -13.475   7.998  1.00  0.00     0.054 A 
BRANCH  63  64
ATOM     64  S   UNL     1      11.779 -14.641   7.141  1.00  0.00     0.124 S 
ATOM     65  O   UNL     1      13.095 -14.233   7.620  1.00  0.00    -0.237 OA
ATOM     66  O   UNL     1      11.292 -15.927   7.631  1.00  0.00    -0.237 OA
ATOM     67  O   UNL     1      11.514 -14.376   5.728  1.00  0.00    -0.744 OA
ENDBRANCH  63  64
ENDBRANCH  44  58
BRANCH  45  68
ATOM     68  C   UNL     1      14.070  -4.626   7.623  1.00  0.00    -0.014 A 
ATOM     69  C   UNL     1      15.432  -4.975   7.695  1.00  0.00     0.010 A 
ATOM     70  C   UNL     1      13.611  -4.035   6.428  1.00  0.00     0.010 A 
ATOM     71  C   UNL     1      16.282  -4.811   6.588  1.00  0.00     0.020 A 
ATOM     72  C   UNL     1      14.454  -3.857   5.325  1.00  0.00     0.020 A 
ATOM     73  C   UNL     1      15.780  -4.274   5.400  1.00  0.00     0.054 A 
BRANCH  73  74
ATOM     74  S   UNL     1      16.825  -4.253   3.913  1.00  0.00     0.124 S 
ATOM     75  O   UNL     1      17.800  -3.215   4.233  1.00  0.00    -0.237 OA
ATOM     76  O   UNL     1      17.343  -5.617   3.869  1.00  0.00    -0.237 OA
ATOM     77  O   UNL     1      15.889  -3.915   2.841  1.00  0.00    -0.744 OA
ENDBRANCH  73  74
ENDBRANCH  45  68
BRANCH  57  78
ATOM     78  C   UNL     1      12.126  -6.755  13.239  1.00  0.00    -0.014 A 
ATOM     79  C   UNL     1      11.931  -5.367  13.091  1.00  0.00     0.010 A 
ATOM     80  C   UNL     1      12.410  -7.258  14.521  1.00  0.00     0.010 A 
ATOM     81  C   UNL     1      12.062  -4.506  14.191  1.00  0.00     0.020 A 
ATOM     82  C   UNL     1      12.518  -6.409  15.623  1.00  0.00     0.020 A 
ATOM     83  C   UNL     1      12.360  -5.035  15.451  1.00  0.00     0.054 A 
BRANCH  83  84
ATOM     84  S   UNL     1      12.514  -3.922  16.875  1.00  0.00     0.124 S 
ATOM     85  O   UNL     1      13.739  -3.188  16.573  1.00  0.00    -0.237 OA
ATOM     86  O   UNL     1      11.280  -3.142  16.814  1.00  0.00    -0.237 OA
ATOM     87  O   UNL     1      12.605  -4.830  18.018  1.00  0.00    -0.744 OA
ENDBRANCH  83  84
ENDBRANCH  57  78
ENDBRANCH  31  32
ENDBRANCH  24  26
ENDBRANCH  23  24
ENDBRANCH  22  23
ENDBRANCH  21  22
ENDBRANCH  20  21
ENDBRANCH  19  20
ENDBRANCH   1  19
TORSDOF 23
