REMARK SMILES C[C@H](C(=O)OCCOCCOCCOCCOC(=O)c1ccc(-c2c3nc(c(-c4ccc(S(=O)(=O)[O-])cc4)c4ccc([nH]4)c(-c4ccc(S(=O)(=O)[O-])cc4)c4nc(c(-c5ccc(S(=O)(=O)[O-])cc5)c5ccc2[nH]5)C=C4)C=C3)cc1)N1C(=O)C[C@@H](N2C(=O)/C(=C/c3ccccc3)SC2=S)C1=O
REMARK SMILES IDX 11 1 10 2 9 3 8 4 7 5 6 6 5 7 3 8 4 9 2 10 1 11 80 12 81 13
REMARK SMILES IDX 99 14 82 15 83 16 84 17 100 18 85 19 86 20 97 21 87 22 88 23
REMARK SMILES IDX 96 24 98 25 89 26 90 27 91 28 95 29 92 30 94 31 93 32 12 33
REMARK SMILES IDX 13 34 14 35 15 36 16 37 17 38 18 39 19 40 20 41 21 42 79 43
REMARK SMILES IDX 22 44 78 45 23 46 24 47 25 48 72 49 26 50 77 51 71 52 73 53
REMARK SMILES IDX 27 54 76 55 70 56 69 57 28 59 58 60 39 61 57 62 40 63 43 64
REMARK SMILES IDX 56 65 74 66 41 67 42 68 55 70 75 71 44 72 29 73 30 74 38 75
REMARK SMILES IDX 31 76 37 77 32 78 33 79 34 80 35 81 36 82 59 83 60 84 68 85
REMARK SMILES IDX 61 86 67 87 62 88 63 89 64 90 65 91 66 92 45 93 46 94 54 95
REMARK SMILES IDX 47 96 53 97 48 98 49 99 50 100 51 101 52 102
REMARK H PARENT 73 58 43 69
REMARK Flexibility Score: inf
ROOT
ATOM      1  O   UNL     1       0.348  -2.200   0.601  1.00  0.00    -0.377 OA
ENDROOT
BRANCH   1   2
ATOM      2  C   UNL     1       1.484  -2.352  -0.231  1.00  0.00     0.188 C 
BRANCH   2   3
ATOM      3  C   UNL     1       2.718  -1.623   0.298  1.00  0.00     0.188 C 
BRANCH   3   4
ATOM      4  O   UNL     1       2.947  -1.661   1.700  1.00  0.00    -0.376 OA
BRANCH   4   5
ATOM      5  C   UNL     1       1.938  -1.129   2.561  1.00  0.00     0.202 C 
BRANCH   5   6
ATOM      6  C   UNL     1       1.401   0.294   2.298  1.00  0.00     0.261 C 
BRANCH   6   7
ATOM      7  O   UNL     1       0.646   0.480   1.071  1.00  0.00    -0.462 OA
BRANCH   7   8
ATOM      8  C   UNL     1       1.217   1.276   0.126  1.00  0.00     0.329 C 
ATOM      9  O   UNL     1       2.338   1.770   0.232  1.00  0.00    -0.250 OA
BRANCH   8  10
ATOM     10  C   UNL     1       0.405   1.433  -1.168  1.00  0.00     0.200 C 
ATOM     11  C   UNL     1       1.152   0.818  -2.356  1.00  0.00     0.044 C 
BRANCH  10  12
ATOM     12  N   UNL     1      -1.016   1.081  -1.135  1.00  0.00    -0.267 N 
ATOM     13  C   UNL     1      -1.955   2.053  -0.922  1.00  0.00     0.232 C 
ATOM     14  C   UNL     1      -1.583  -0.123  -1.448  1.00  0.00     0.253 C 
ATOM     15  O   UNL     1      -1.732   3.220  -0.635  1.00  0.00    -0.274 OA
ATOM     16  C   UNL     1      -3.330   1.511  -1.162  1.00  0.00     0.136 C 
ATOM     17  C   UNL     1      -3.097   0.025  -1.373  1.00  0.00     0.191 C 
ATOM     18  O   UNL     1      -1.021  -1.141  -1.827  1.00  0.00    -0.272 OA
BRANCH  17  19
ATOM     19  N   UNL     1      -3.726  -0.531  -2.584  1.00  0.00    -0.280 N 
ATOM     20  C   UNL     1      -3.306  -0.080  -3.825  1.00  0.00     0.266 C 
ATOM     21  C   UNL     1      -4.745  -1.461  -2.590  1.00  0.00     0.149 C 
ATOM     22  O   UNL     1      -2.473   0.796  -4.019  1.00  0.00    -0.268 OA
ATOM     23  C   UNL     1      -4.026  -0.787  -4.915  1.00  0.00     0.081 C 
ATOM     24  S   UNL     1      -5.200  -1.843  -4.248  1.00  0.00    -0.054 SA
ATOM     25  S   UNL     1      -5.517  -2.153  -1.285  1.00  0.00    -0.052 S 
ATOM     26  C   UNL     1      -3.731  -0.573  -6.205  1.00  0.00     0.029 C 
BRANCH  26  27
ATOM     27  C   UNL     1      -4.427  -1.139  -7.366  1.00  0.00    -0.024 A 
ATOM     28  C   UNL     1      -3.731  -1.915  -8.300  1.00  0.00     0.008 A 
ATOM     29  C   UNL     1      -5.777  -0.842  -7.596  1.00  0.00     0.008 A 
ATOM     30  C   UNL     1      -4.382  -2.400  -9.438  1.00  0.00     0.001 A 
ATOM     31  C   UNL     1      -6.426  -1.328  -8.732  1.00  0.00     0.001 A 
ATOM     32  C   UNL     1      -5.728  -2.107  -9.653  1.00  0.00     0.000 A 
ENDBRANCH  26  27
ENDBRANCH  17  19
ENDBRANCH  10  12
ENDBRANCH   8  10
ENDBRANCH   7   8
ENDBRANCH   6   7
ENDBRANCH   5   6
ENDBRANCH   4   5
ENDBRANCH   3   4
ENDBRANCH   2   3
ENDBRANCH   1   2
BRANCH   1  33
ATOM     33  C   UNL     1      -0.373  -3.374   0.966  1.00  0.00     0.188 C 
BRANCH  33  34
ATOM     34  C   UNL     1       0.446  -4.670   1.079  1.00  0.00     0.188 C 
BRANCH  34  35
ATOM     35  O   UNL     1       0.762  -5.391  -0.121  1.00  0.00    -0.376 OA
BRANCH  35  36
ATOM     36  C   UNL     1       0.028  -5.129  -1.315  1.00  0.00     0.202 C 
BRANCH  36  37
ATOM     37  C   UNL     1      -1.292  -5.883  -1.466  1.00  0.00     0.261 C 
BRANCH  37  38
ATOM     38  O   UNL     1      -2.226  -5.562  -0.430  1.00  0.00    -0.460 OA
BRANCH  38  39
ATOM     39  C   UNL     1      -2.197  -6.401   0.634  1.00  0.00     0.338 C 
ATOM     40  O   UNL     1      -1.508  -7.391   0.778  1.00  0.00    -0.246 OA
BRANCH  39  41
ATOM     41  C   UNL     1      -3.043  -5.837   1.700  1.00  0.00     0.060 A 
ATOM     42  C   UNL     1      -2.525  -5.778   3.001  1.00  0.00     0.016 A 
ATOM     43  C   UNL     1      -4.353  -5.439   1.431  1.00  0.00     0.016 A 
ATOM     44  C   UNL     1      -3.336  -5.364   4.051  1.00  0.00     0.010 A 
ATOM     45  C   UNL     1      -5.172  -5.046   2.486  1.00  0.00     0.010 A 
ATOM     46  C   UNL     1      -4.677  -5.052   3.801  1.00  0.00    -0.014 A 
BRANCH  46  47
ATOM     47  C   UNL     1      -5.617  -4.938   4.933  1.00  0.00     0.031 A 
ATOM     48  C   UNL     1      -6.457  -6.134   5.281  1.00  0.00     0.074 A 
ATOM     49  C   UNL     1      -5.705  -3.797   5.637  1.00  0.00     0.049 A 
ATOM     50  N   UNL     1      -7.393  -6.252   6.185  1.00  0.00    -0.248 NA
ATOM     51  C   UNL     1      -6.212  -7.360   4.501  1.00  0.00     0.031 C 
ATOM     52  C   UNL     1      -4.893  -2.601   5.416  1.00  0.00     0.029 A 
ATOM     53  N   UNL     1      -6.529  -3.462   6.678  1.00  0.00    -0.354 N 
ATOM     54  C   UNL     1      -7.861  -7.556   6.070  1.00  0.00     0.074 A 
ATOM     55  C   UNL     1      -7.126  -8.182   4.995  1.00  0.00     0.031 C 
ATOM     56  C   UNL     1      -5.269  -1.655   6.293  1.00  0.00     0.029 A 
ATOM     57  C   UNL     1      -6.373  -2.166   7.104  1.00  0.00     0.049 A 
ATOM     58  H   UNL     1      -7.171  -4.089   7.082  1.00  0.00     0.167 HD
ATOM     59  C   UNL     1      -8.820  -8.173   6.799  1.00  0.00     0.031 A 
ATOM     60  C   UNL     1      -7.064  -1.469   8.025  1.00  0.00     0.031 A 
ATOM     61  C   UNL     1      -9.553  -7.529   7.856  1.00  0.00     0.049 A 
ATOM     62  C   UNL     1      -8.183  -2.153   8.768  1.00  0.00     0.074 A 
ATOM     63  C   UNL     1     -10.534  -8.063   8.671  1.00  0.00     0.029 A 
ATOM     64  N   UNL     1      -9.393  -6.204   8.235  1.00  0.00    -0.354 N 
ATOM     65  N   UNL     1      -8.602  -3.393   8.669  1.00  0.00    -0.248 NA
ATOM     66  C   UNL     1      -8.915  -1.345   9.751  1.00  0.00     0.031 C 
ATOM     67  C   UNL     1     -11.015  -7.042   9.496  1.00  0.00     0.029 A 
ATOM     68  C   UNL     1     -10.281  -5.893   9.249  1.00  0.00     0.049 A 
ATOM     69  H   UNL     1      -8.744  -5.578   7.840  1.00  0.00     0.167 HD
ATOM     70  C   UNL     1      -9.625  -3.523   9.603  1.00  0.00     0.074 A 
ATOM     71  C   UNL     1      -9.750  -2.239  10.263  1.00  0.00     0.031 C 
ATOM     72  C   UNL     1     -10.389  -4.606   9.893  1.00  0.00     0.031 A 
BRANCH  59  73
ATOM     73  C   UNL     1      -9.162  -9.596   6.444  1.00  0.00    -0.014 A 
ATOM     74  C   UNL     1      -8.262 -10.651   6.684  1.00  0.00     0.010 A 
ATOM     75  C   UNL     1     -10.422  -9.887   5.892  1.00  0.00     0.010 A 
ATOM     76  C   UNL     1      -8.604 -11.963   6.345  1.00  0.00     0.020 A 
ATOM     77  C   UNL     1     -10.781 -11.201   5.581  1.00  0.00     0.020 A 
ATOM     78  C   UNL     1      -9.862 -12.230   5.796  1.00  0.00     0.054 A 
BRANCH  78  79
ATOM     79  S   UNL     1     -10.290 -13.946   5.395  1.00  0.00     0.124 S 
ATOM     80  O   UNL     1      -9.429 -14.211   4.245  1.00  0.00    -0.237 OA
ATOM     81  O   UNL     1      -9.938 -14.657   6.621  1.00  0.00    -0.237 OA
ATOM     82  O   UNL     1     -11.720 -13.889   5.100  1.00  0.00    -0.744 OA
ENDBRANCH  78  79
ENDBRANCH  59  73
BRANCH  60  83
ATOM     83  C   UNL     1      -6.730  -0.042   8.284  1.00  0.00    -0.014 A 
ATOM     84  C   UNL     1      -6.176   0.352   9.514  1.00  0.00     0.010 A 
ATOM     85  C   UNL     1      -6.961   0.932   7.295  1.00  0.00     0.010 A 
ATOM     86  C   UNL     1      -5.877   1.696   9.757  1.00  0.00     0.020 A 
ATOM     87  C   UNL     1      -6.634   2.271   7.522  1.00  0.00     0.020 A 
ATOM     88  C   UNL     1      -6.104   2.646   8.758  1.00  0.00     0.054 A 
BRANCH  88  89
ATOM     89  S   UNL     1      -5.662   4.375   9.081  1.00  0.00     0.124 S 
ATOM     90  O   UNL     1      -6.676   4.772  10.052  1.00  0.00    -0.237 OA
ATOM     91  O   UNL     1      -4.300   4.258   9.596  1.00  0.00    -0.237 OA
ATOM     92  O   UNL     1      -5.771   5.007   7.767  1.00  0.00    -0.744 OA
ENDBRANCH  88  89
ENDBRANCH  60  83
BRANCH  72  93
ATOM     93  C   UNL     1     -11.399  -4.467  11.002  1.00  0.00    -0.014 A 
ATOM     94  C   UNL     1     -12.555  -3.682  10.850  1.00  0.00     0.010 A 
ATOM     95  C   UNL     1     -11.213  -5.188  12.197  1.00  0.00     0.010 A 
ATOM     96  C   UNL     1     -13.488  -3.592  11.886  1.00  0.00     0.020 A 
ATOM     97  C   UNL     1     -12.160  -5.128  13.221  1.00  0.00     0.020 A 
ATOM     98  C   UNL     1     -13.286  -4.318  13.065  1.00  0.00     0.054 A 
BRANCH  98  99
ATOM     99  S   UNL     1     -14.535  -4.218  14.375  1.00  0.00     0.124 S 
ATOM    100  O   UNL     1     -14.338  -2.862  14.881  1.00  0.00    -0.237 OA
ATOM    101  O   UNL     1     -15.781  -4.442  13.646  1.00  0.00    -0.237 OA
ATOM    102  O   UNL     1     -14.158  -5.287  15.297  1.00  0.00    -0.744 OA
ENDBRANCH  98  99
ENDBRANCH  72  93
ENDBRANCH  46  47
ENDBRANCH  39  41
ENDBRANCH  38  39
ENDBRANCH  37  38
ENDBRANCH  36  37
ENDBRANCH  35  36
ENDBRANCH  34  35
ENDBRANCH  33  34
ENDBRANCH   1  33
TORSDOF 26
