REMARK SMILES CCCOc1ccc(C[N@H+]2CC[C@H](C(=O)OCCOCCOCCOCCOC(=O)c3ccc(-c4c5nc(c(-c6ccc(S(=O)(=O)[O-])cc6)c6ccc([nH]6)c(-c6ccc(S(=O)(=O)[O-])cc6)c6nc(c(-c7ccc(S(=O)(=O)[O-])cc7)c7ccc4[nH]7)C=C6)C=C5)cc3)[C@@H]2C)cc1
REMARK SMILES IDX 21 1 20 2 19 3 18 4 17 5 16 6 14 7 15 8 13 9 10 10 11 11
REMARK SMILES IDX 91 12 12 14 92 15 9 16 8 17 5 18 6 19 94 20 7 21 93 22 4 23
REMARK SMILES IDX 3 24 2 25 1 26 22 27 23 28 24 29 25 30 26 31 27 32 28 33
REMARK SMILES IDX 29 34 30 35 31 36 32 37 90 38 33 39 89 40 34 41 35 42 36 43
REMARK SMILES IDX 83 44 37 45 88 46 82 47 84 48 38 49 87 50 81 51 80 52 39 54
REMARK SMILES IDX 69 55 50 56 68 57 51 58 54 59 67 60 85 61 52 62 53 63 66 65
REMARK SMILES IDX 86 66 55 67 40 68 41 69 49 70 42 71 48 72 43 73 44 74 45 75
REMARK SMILES IDX 46 76 47 77 70 78 71 79 79 80 72 81 78 82 73 83 74 84 75 85
REMARK SMILES IDX 76 86 77 87 56 88 57 89 65 90 58 91 64 92 59 93 60 94 61 95
REMARK SMILES IDX 62 96 63 97
REMARK H PARENT 10 13 84 53 54 64
REMARK Flexibility Score: inf
ROOT
ATOM      1  C   UNL     1      -2.780   6.832   1.421  1.00  0.00     0.188 C 
ENDROOT
BRANCH   1   2
ATOM      2  C   UNL     1      -2.842   8.359   1.206  1.00  0.00     0.188 C 
BRANCH   2   3
ATOM      3  O   UNL     1      -4.026   8.881   0.640  1.00  0.00    -0.376 OA
BRANCH   3   4
ATOM      4  C   UNL     1      -4.211   9.100  -0.750  1.00  0.00     0.202 C 
BRANCH   4   5
ATOM      5  C   UNL     1      -3.280   8.644  -1.885  1.00  0.00     0.261 C 
BRANCH   5   6
ATOM      6  O   UNL     1      -2.282   7.708  -1.520  1.00  0.00    -0.463 OA
BRANCH   6   7
ATOM      7  C   UNL     1      -1.004   8.161  -1.389  1.00  0.00     0.315 C 
ATOM      8  O   UNL     1      -0.664   9.320  -1.579  1.00  0.00    -0.252 OA
BRANCH   7   9
ATOM      9  C   UNL     1      -0.160   7.083  -0.720  1.00  0.00     0.162 C 
ATOM     10  N   UNL     1       1.646   5.902  -1.798  1.00  0.00    -0.328 N 
ATOM     11  C   UNL     1       0.353   5.426  -2.296  1.00  0.00     0.263 C 
ATOM     12  C   UNL     1       1.359   7.063  -0.931  1.00  0.00     0.195 C 
ATOM     13  H   UNL     1       2.233   6.182  -2.584  1.00  0.00     0.348 HD
ATOM     14  C   UNL     1      -0.601   5.687  -1.152  1.00  0.00     0.083 C 
ATOM     15  C   UNL     1       1.974   8.331  -1.503  1.00  0.00     0.076 C 
BRANCH  10  16
ATOM     16  C   UNL     1       2.498   4.871  -1.174  1.00  0.00     0.299 C 
BRANCH  16  17
ATOM     17  C   UNL     1       1.897   3.940  -0.133  1.00  0.00     0.006 A 
ATOM     18  C   UNL     1       0.851   2.090   1.701  1.00  0.00     0.119 A 
ATOM     19  C   UNL     1       1.669   3.122   2.153  1.00  0.00     0.047 A 
ATOM     20  C   UNL     1       0.453   2.049   0.377  1.00  0.00     0.047 A 
ATOM     21  C   UNL     1       2.174   4.061   1.238  1.00  0.00     0.013 A 
ATOM     22  C   UNL     1       1.047   2.901  -0.543  1.00  0.00     0.013 A 
BRANCH  18  23
ATOM     23  O   UNL     1       0.430   1.103   2.548  1.00  0.00    -0.494 OA
BRANCH  23  24
ATOM     24  C   UNL     1       1.208  -0.100   2.370  1.00  0.00     0.229 C 
BRANCH  24  25
ATOM     25  C   UNL     1       0.698  -1.022   1.249  1.00  0.00     0.038 C 
ATOM     26  C   UNL     1       1.564  -1.000  -0.011  1.00  0.00     0.007 C 
ENDBRANCH  24  25
ENDBRANCH  23  24
ENDBRANCH  18  23
ENDBRANCH  16  17
ENDBRANCH  10  16
ENDBRANCH   7   9
ENDBRANCH   6   7
ENDBRANCH   5   6
ENDBRANCH   4   5
ENDBRANCH   3   4
ENDBRANCH   2   3
ENDBRANCH   1   2
BRANCH   1  27
ATOM     27  O   UNL     1      -3.492   6.009   0.524  1.00  0.00    -0.377 OA
BRANCH  27  28
ATOM     28  C   UNL     1      -4.913   6.067   0.513  1.00  0.00     0.188 C 
BRANCH  28  29
ATOM     29  C   UNL     1      -5.724   6.785   1.620  1.00  0.00     0.188 C 
BRANCH  29  30
ATOM     30  O   UNL     1      -5.022   7.094   2.813  1.00  0.00    -0.376 OA
BRANCH  30  31
ATOM     31  C   UNL     1      -5.225   6.261   3.944  1.00  0.00     0.202 C 
BRANCH  31  32
ATOM     32  C   UNL     1      -4.795   4.789   3.829  1.00  0.00     0.261 C 
BRANCH  32  33
ATOM     33  O   UNL     1      -5.379   4.050   2.747  1.00  0.00    -0.460 OA
BRANCH  33  34
ATOM     34  C   UNL     1      -6.717   3.880   2.775  1.00  0.00     0.338 C 
ATOM     35  O   UNL     1      -7.489   4.273   3.636  1.00  0.00    -0.246 OA
BRANCH  34  36
ATOM     36  C   UNL     1      -7.128   3.309   1.478  1.00  0.00     0.060 A 
ATOM     37  C   UNL     1      -7.979   4.055   0.652  1.00  0.00     0.016 A 
ATOM     38  C   UNL     1      -6.668   2.054   1.074  1.00  0.00     0.016 A 
ATOM     39  C   UNL     1      -8.397   3.533  -0.571  1.00  0.00     0.010 A 
ATOM     40  C   UNL     1      -7.111   1.520  -0.140  1.00  0.00     0.010 A 
ATOM     41  C   UNL     1      -8.003   2.244  -0.951  1.00  0.00    -0.014 A 
BRANCH  41  42
ATOM     42  C   UNL     1      -8.678   1.591  -2.099  1.00  0.00     0.031 A 
ATOM     43  C   UNL     1      -9.821   0.653  -1.819  1.00  0.00     0.074 A 
ATOM     44  C   UNL     1      -8.316   1.859  -3.367  1.00  0.00     0.049 A 
ATOM     45  N   UNL     1     -10.564  -0.021  -2.657  1.00  0.00    -0.248 NA
ATOM     46  C   UNL     1     -10.172   0.451  -0.404  1.00  0.00     0.031 C 
ATOM     47  C   UNL     1      -7.255   2.781  -3.769  1.00  0.00     0.029 A 
ATOM     48  N   UNL     1      -8.809   1.373  -4.553  1.00  0.00    -0.354 N 
ATOM     49  C   UNL     1     -11.465  -0.733  -1.873  1.00  0.00     0.074 A 
ATOM     50  C   UNL     1     -11.155  -0.432  -0.492  1.00  0.00     0.031 C 
ATOM     51  C   UNL     1      -7.174   2.791  -5.111  1.00  0.00     0.029 A 
ATOM     52  C   UNL     1      -8.152   1.853  -5.660  1.00  0.00     0.049 A 
ATOM     53  H   UNL     1      -9.562   0.742  -4.604  1.00  0.00     0.167 HD
ATOM     54  C   UNL     1     -12.462  -1.560  -2.265  1.00  0.00     0.031 A 
ATOM     55  C   UNL     1      -8.308   1.554  -6.966  1.00  0.00     0.031 A 
ATOM     56  C   UNL     1     -12.755  -1.873  -3.640  1.00  0.00     0.049 A 
ATOM     57  C   UNL     1      -9.377   0.572  -7.375  1.00  0.00     0.074 A 
ATOM     58  C   UNL     1     -13.758  -2.684  -4.141  1.00  0.00     0.029 A 
ATOM     59  N   UNL     1     -12.038  -1.403  -4.730  1.00  0.00    -0.354 N 
ATOM     60  N   UNL     1     -10.246  -0.065  -6.625  1.00  0.00    -0.248 NA
ATOM     61  C   UNL     1      -9.494   0.279  -8.810  1.00  0.00     0.031 C 
ATOM     62  C   UNL     1     -13.602  -2.763  -5.529  1.00  0.00     0.029 A 
ATOM     63  C   UNL     1     -12.552  -1.938  -5.901  1.00  0.00     0.049 A 
ATOM     64  H   UNL     1     -11.277  -0.782  -4.680  1.00  0.00     0.167 HD
ATOM     65  C   UNL     1     -11.027  -0.815  -7.500  1.00  0.00     0.074 A 
ATOM     66  C   UNL     1     -10.543  -0.532  -8.836  1.00  0.00     0.031 C 
ATOM     67  C   UNL     1     -12.051  -1.662  -7.224  1.00  0.00     0.031 A 
BRANCH  54  68
ATOM     68  C   UNL     1     -13.282  -2.223  -1.188  1.00  0.00    -0.014 A 
ATOM     69  C   UNL     1     -14.170  -1.489  -0.382  1.00  0.00     0.010 A 
ATOM     70  C   UNL     1     -13.184  -3.615  -1.004  1.00  0.00     0.010 A 
ATOM     71  C   UNL     1     -14.917  -2.128   0.612  1.00  0.00     0.020 A 
ATOM     72  C   UNL     1     -13.953  -4.262  -0.033  1.00  0.00     0.020 A 
ATOM     73  C   UNL     1     -14.803  -3.511   0.780  1.00  0.00     0.054 A 
BRANCH  73  74
ATOM     74  S   UNL     1     -15.804  -4.317   2.060  1.00  0.00     0.124 S 
ATOM     75  O   UNL     1     -15.168  -3.839   3.285  1.00  0.00    -0.237 OA
ATOM     76  O   UNL     1     -17.140  -3.789   1.799  1.00  0.00    -0.237 OA
ATOM     77  O   UNL     1     -15.635  -5.743   1.788  1.00  0.00    -0.744 OA
ENDBRANCH  73  74
ENDBRANCH  54  68
BRANCH  55  78
ATOM     78  C   UNL     1      -7.413   2.172  -7.984  1.00  0.00    -0.014 A 
ATOM     79  C   UNL     1      -7.915   3.083  -8.931  1.00  0.00     0.010 A 
ATOM     80  C   UNL     1      -6.045   1.845  -8.012  1.00  0.00     0.010 A 
ATOM     81  C   UNL     1      -7.068   3.642  -9.894  1.00  0.00     0.020 A 
ATOM     82  C   UNL     1      -5.189   2.426  -8.951  1.00  0.00     0.020 A 
ATOM     83  C   UNL     1      -5.709   3.314  -9.893  1.00  0.00     0.054 A 
BRANCH  83  84
ATOM     84  S   UNL     1      -4.620   4.100 -11.113  1.00  0.00     0.124 S 
ATOM     85  O   UNL     1      -5.035   3.454 -12.354  1.00  0.00    -0.237 OA
ATOM     86  O   UNL     1      -4.972   5.511 -10.984  1.00  0.00    -0.237 OA
ATOM     87  O   UNL     1      -3.279   3.755 -10.646  1.00  0.00    -0.744 OA
ENDBRANCH  83  84
ENDBRANCH  55  78
BRANCH  67  88
ATOM     88  C   UNL     1     -12.737  -2.325  -8.394  1.00  0.00    -0.014 A 
ATOM     89  C   UNL     1     -12.084  -3.297  -9.173  1.00  0.00     0.010 A 
ATOM     90  C   UNL     1     -14.070  -1.990  -8.699  1.00  0.00     0.010 A 
ATOM     91  C   UNL     1     -12.731  -3.882 -10.265  1.00  0.00     0.020 A 
ATOM     92  C   UNL     1     -14.733  -2.599  -9.768  1.00  0.00     0.020 A 
ATOM     93  C   UNL     1     -14.051  -3.526 -10.558  1.00  0.00     0.054 A 
BRANCH  93  94
ATOM     94  S   UNL     1     -14.873  -4.310 -11.972  1.00  0.00     0.124 S 
ATOM     95  O   UNL     1     -14.195  -3.681 -13.103  1.00  0.00    -0.237 OA
ATOM     96  O   UNL     1     -14.578  -5.726 -11.770  1.00  0.00    -0.237 OA
ATOM     97  O   UNL     1     -16.277  -3.942 -11.806  1.00  0.00    -0.744 OA
ENDBRANCH  93  94
ENDBRANCH  67  88
ENDBRANCH  41  42
ENDBRANCH  34  36
ENDBRANCH  33  34
ENDBRANCH  32  33
ENDBRANCH  31  32
ENDBRANCH  30  31
ENDBRANCH  29  30
ENDBRANCH  28  29
ENDBRANCH  27  28
ENDBRANCH   1  27
TORSDOF 28
