REMARK SMILES O=C(OCCOCCOCCOCCOC(=O)[C@H]1CC2(CC[NH+](S(=O)(=O)N3CCOCC3)CC2)C[NH2+]1)c1ccc(-c2c3nc(c(-c4ccc(S(=O)(=O)[O-])cc4)c4ccc([nH]4)c(-c4ccc(S(=O)(=O)[O-])cc4)c4nc(c(-c5ccc(S(=O)(=O)[O-])cc5)c5ccc2[nH]5)C=C4)C=C3)cc1
REMARK SMILES IDX 8 1 7 2 6 3 5 4 4 5 3 6 2 7 1 8 37 9 38 10 96 11 39 12 95 13
REMARK SMILES IDX 40 14 41 15 42 16 89 17 43 18 94 19 88 20 90 21 44 22 93 23
REMARK SMILES IDX 87 24 86 25 45 27 75 28 56 29 74 30 57 31 60 32 73 33 91 34
REMARK SMILES IDX 58 35 59 36 72 38 92 39 61 40 46 41 47 42 55 43 48 44 54 45
REMARK SMILES IDX 49 46 50 47 51 48 52 49 53 50 76 51 77 52 85 53 78 54 84 55
REMARK SMILES IDX 79 56 80 57 81 58 82 59 83 60 62 61 63 62 71 63 64 64 70 65
REMARK SMILES IDX 65 66 66 67 67 68 68 69 69 70 9 71 10 72 11 73 12 74 13 75
REMARK SMILES IDX 14 76 15 77 16 78 17 79 18 80 19 81 36 82 20 83 35 84 21 87
REMARK SMILES IDX 34 88 22 89 33 90 23 91 24 93 25 94 26 95 27 96 28 97 32 98
REMARK SMILES IDX 29 99 31 100 30 101
REMARK H PARENT 90 26 60 37 36 85 36 86 23 92
REMARK Flexibility Score: inf
ROOT
ATOM      1  C   UNL     1       7.855  -3.785   6.096  1.00  0.00     0.188 C 
ENDROOT
BRANCH   1   2
ATOM      2  C   UNL     1       7.827  -5.114   6.853  1.00  0.00     0.188 C 
BRANCH   2   3
ATOM      3  O   UNL     1       7.996  -6.217   5.962  1.00  0.00    -0.376 OA
BRANCH   3   4
ATOM      4  C   UNL     1       7.224  -7.395   6.191  1.00  0.00     0.202 C 
BRANCH   4   5
ATOM      5  C   UNL     1       7.629  -8.222   7.407  1.00  0.00     0.261 C 
BRANCH   5   6
ATOM      6  O   UNL     1       8.307  -7.468   8.418  1.00  0.00    -0.460 OA
BRANCH   6   7
ATOM      7  C   UNL     1       9.615  -7.114   8.478  1.00  0.00     0.338 C 
ATOM      8  O   UNL     1       9.984  -6.449   9.445  1.00  0.00    -0.246 OA
BRANCH   7   9
ATOM      9  C   UNL     1      10.637  -7.451   7.439  1.00  0.00     0.060 A 
ATOM     10  C   UNL     1      10.376  -7.726   6.097  1.00  0.00     0.016 A 
ATOM     11  C   UNL     1      11.981  -7.411   7.839  1.00  0.00     0.016 A 
ATOM     12  C   UNL     1      11.373  -7.998   5.187  1.00  0.00     0.010 A 
ATOM     13  C   UNL     1      13.008  -7.683   6.931  1.00  0.00     0.010 A 
ATOM     14  C   UNL     1      12.689  -8.006   5.609  1.00  0.00    -0.014 A 
BRANCH  14  15
ATOM     15  C   UNL     1      13.646  -8.617   4.686  1.00  0.00     0.031 A 
ATOM     16  C   UNL     1      14.052 -10.026   4.979  1.00  0.00     0.074 A 
ATOM     17  C   UNL     1      13.950  -7.997   3.533  1.00  0.00     0.049 A 
ATOM     18  N   UNL     1      14.940 -10.768   4.386  1.00  0.00    -0.248 NA
ATOM     19  C   UNL     1      13.345 -10.698   6.089  1.00  0.00     0.031 C 
ATOM     20  C   UNL     1      13.397  -6.711   3.091  1.00  0.00     0.029 A 
ATOM     21  N   UNL     1      14.765  -8.380   2.508  1.00  0.00    -0.354 N 
ATOM     22  C   UNL     1      14.946 -11.966   5.090  1.00  0.00     0.074 A 
ATOM     23  C   UNL     1      13.966 -11.863   6.143  1.00  0.00     0.031 C 
ATOM     24  C   UNL     1      13.895  -6.414   1.880  1.00  0.00     0.029 A 
ATOM     25  C   UNL     1      14.864  -7.438   1.513  1.00  0.00     0.049 A 
ATOM     26  H   UNL     1      15.235  -9.244   2.484  1.00  0.00     0.167 HD
ATOM     27  C   UNL     1      15.732 -13.041   4.873  1.00  0.00     0.031 A 
ATOM     28  C   UNL     1      15.703  -7.394   0.463  1.00  0.00     0.031 A 
ATOM     29  C   UNL     1      16.697 -13.075   3.811  1.00  0.00     0.049 A 
ATOM     30  C   UNL     1      16.667  -8.541   0.319  1.00  0.00     0.074 A 
ATOM     31  C   UNL     1      17.622 -14.052   3.510  1.00  0.00     0.029 A 
ATOM     32  N   UNL     1      16.850 -12.062   2.870  1.00  0.00    -0.354 N 
ATOM     33  N   UNL     1      16.760  -9.632   1.048  1.00  0.00    -0.248 NA
ATOM     34  C   UNL     1      17.646  -8.452  -0.767  1.00  0.00     0.031 C 
ATOM     35  C   UNL     1      18.379 -13.598   2.425  1.00  0.00     0.029 A 
ATOM     36  C   UNL     1      17.873 -12.375   2.001  1.00  0.00     0.049 A 
ATOM     37  H   UNL     1      16.307 -11.241   2.831  1.00  0.00     0.167 HD
ATOM     38  C   UNL     1      17.794 -10.373   0.495  1.00  0.00     0.074 A 
ATOM     39  C   UNL     1      18.280  -9.610  -0.641  1.00  0.00     0.031 C 
ATOM     40  C   UNL     1      18.304 -11.569   0.883  1.00  0.00     0.031 A 
BRANCH  27  41
ATOM     41  C   UNL     1      15.648 -14.164   5.869  1.00  0.00    -0.014 A 
ATOM     42  C   UNL     1      14.515 -14.992   5.968  1.00  0.00     0.010 A 
ATOM     43  C   UNL     1      16.713 -14.352   6.769  1.00  0.00     0.010 A 
ATOM     44  C   UNL     1      14.433 -15.959   6.975  1.00  0.00     0.020 A 
ATOM     45  C   UNL     1      16.648 -15.338   7.757  1.00  0.00     0.020 A 
ATOM     46  C   UNL     1      15.500 -16.124   7.864  1.00  0.00     0.054 A 
BRANCH  46  47
ATOM     47  S   UNL     1      15.374 -17.396   9.151  1.00  0.00     0.124 S 
ATOM     48  O   UNL     1      14.373 -16.822  10.046  1.00  0.00    -0.237 OA
ATOM     49  O   UNL     1      14.942 -18.569   8.396  1.00  0.00    -0.237 OA
ATOM     50  O   UNL     1      16.727 -17.473   9.697  1.00  0.00    -0.744 OA
ENDBRANCH  46  47
ENDBRANCH  27  41
BRANCH  28  51
ATOM     51  C   UNL     1      15.727  -6.210  -0.439  1.00  0.00    -0.014 A 
ATOM     52  C   UNL     1      15.402  -6.323  -1.801  1.00  0.00     0.010 A 
ATOM     53  C   UNL     1      16.077  -4.942   0.069  1.00  0.00     0.010 A 
ATOM     54  C   UNL     1      15.445  -5.201  -2.637  1.00  0.00     0.020 A 
ATOM     55  C   UNL     1      16.090  -3.813  -0.754  1.00  0.00     0.020 A 
ATOM     56  C   UNL     1      15.788  -3.953  -2.108  1.00  0.00     0.054 A 
BRANCH  56  57
ATOM     57  S   UNL     1      15.809  -2.510  -3.208  1.00  0.00     0.124 S 
ATOM     58  O   UNL     1      16.973  -2.783  -4.045  1.00  0.00    -0.237 OA
ATOM     59  O   UNL     1      14.513  -2.603  -3.874  1.00  0.00    -0.237 OA
ATOM     60  O   UNL     1      15.950  -1.381  -2.290  1.00  0.00    -0.744 OA
ENDBRANCH  56  57
ENDBRANCH  28  51
BRANCH  40  61
ATOM     61  C   UNL     1      19.407 -12.137   0.037  1.00  0.00    -0.014 A 
ATOM     62  C   UNL     1      20.700 -11.590   0.062  1.00  0.00     0.010 A 
ATOM     63  C   UNL     1      19.150 -13.287  -0.731  1.00  0.00     0.010 A 
ATOM     64  C   UNL     1      21.717 -12.173  -0.694  1.00  0.00     0.020 A 
ATOM     65  C   UNL     1      20.172 -13.893  -1.457  1.00  0.00     0.020 A 
ATOM     66  C   UNL     1      21.447 -13.323  -1.444  1.00  0.00     0.054 A 
BRANCH  66  67
ATOM     67  S   UNL     1      22.800 -14.095  -2.367  1.00  0.00     0.124 S 
ATOM     68  O   UNL     1      23.001 -13.146  -3.458  1.00  0.00    -0.237 OA
ATOM     69  O   UNL     1      23.870 -14.151  -1.375  1.00  0.00    -0.237 OA
ATOM     70  O   UNL     1      22.255 -15.392  -2.761  1.00  0.00    -0.744 OA
ENDBRANCH  66  67
ENDBRANCH  40  61
ENDBRANCH  14  15
ENDBRANCH   7   9
ENDBRANCH   6   7
ENDBRANCH   5   6
ENDBRANCH   4   5
ENDBRANCH   3   4
ENDBRANCH   2   3
ENDBRANCH   1   2
BRANCH   1  71
ATOM     71  O   UNL     1       6.752  -3.580   5.221  1.00  0.00    -0.377 OA
BRANCH  71  72
ATOM     72  C   UNL     1       6.427  -4.692   4.398  1.00  0.00     0.188 C 
BRANCH  72  73
ATOM     73  C   UNL     1       7.483  -5.184   3.380  1.00  0.00     0.188 C 
BRANCH  73  74
ATOM     74  O   UNL     1       8.632  -4.375   3.351  1.00  0.00    -0.376 OA
BRANCH  74  75
ATOM     75  C   UNL     1       8.601  -3.260   2.475  1.00  0.00     0.202 C 
BRANCH  75  76
ATOM     76  C   UNL     1       7.300  -2.496   2.095  1.00  0.00     0.261 C 
BRANCH  76  77
ATOM     77  O   UNL     1       6.018  -3.162   2.200  1.00  0.00    -0.459 OA
BRANCH  77  78
ATOM     78  C   UNL     1       5.490  -3.847   1.155  1.00  0.00     0.364 C 
ATOM     79  O   UNL     1       6.000  -3.876   0.040  1.00  0.00    -0.245 OA
BRANCH  78  80
ATOM     80  C   UNL     1       4.224  -4.690   1.506  1.00  0.00     0.294 C 
ATOM     81  C   UNL     1       4.514  -6.182   1.723  1.00  0.00     0.090 C 
ATOM     82  N   UNL     1       3.525  -4.347   2.762  1.00  0.00    -0.334 N 
ATOM     83  C   UNL     1       3.363  -6.731   2.608  1.00  0.00     0.036 C 
ATOM     84  C   UNL     1       2.603  -5.454   3.026  1.00  0.00     0.268 C 
ATOM     85  H   UNL     1       3.009  -3.474   2.653  1.00  0.00     0.347 HD
ATOM     86  H   UNL     1       4.182  -4.216   3.531  1.00  0.00     0.347 HD
ATOM     87  C   UNL     1       3.876  -7.470   3.872  1.00  0.00     0.076 C 
ATOM     88  C   UNL     1       2.476  -7.692   1.786  1.00  0.00     0.076 C 
ATOM     89  C   UNL     1       4.444  -8.851   3.583  1.00  0.00     0.280 C 
ATOM     90  C   UNL     1       3.128  -9.065   1.567  1.00  0.00     0.280 C 
ATOM     91  N   UNL     1       3.477  -9.705   2.868  1.00  0.00    -0.215 N 
ATOM     92  H   UNL     1       3.990 -10.577   2.733  1.00  0.00     0.367 HD
BRANCH  91  93
ATOM     93  S   UNL     1       2.159 -10.397   3.685  1.00  0.00     0.371 S 
ATOM     94  O   UNL     1       1.431  -9.340   4.358  1.00  0.00    -0.157 OA
ATOM     95  O   UNL     1       1.492 -11.260   2.744  1.00  0.00    -0.157 OA
BRANCH  93  96
ATOM     96  N   UNL     1       2.865 -11.354   4.830  1.00  0.00    -0.151 NA
ATOM     97  C   UNL     1       3.534 -12.615   4.481  1.00  0.00     0.136 C 
ATOM     98  C   UNL     1       3.052 -10.960   6.236  1.00  0.00     0.136 C 
ATOM     99  C   UNL     1       5.019 -12.464   4.798  1.00  0.00     0.177 C 
ATOM    100  C   UNL     1       4.535 -11.011   6.633  1.00  0.00     0.177 C 
ATOM    101  O   UNL     1       5.210 -12.200   6.200  1.00  0.00    -0.379 OA
ENDBRANCH  93  96
ENDBRANCH  91  93
ENDBRANCH  78  80
ENDBRANCH  77  78
ENDBRANCH  76  77
ENDBRANCH  75  76
ENDBRANCH  74  75
ENDBRANCH  73  74
ENDBRANCH  72  73
ENDBRANCH  71  72
ENDBRANCH   1  71
TORSDOF 25
