REMARK SMILES Cc1c(C(=O)Nc2ccc(C(=O)Nc3ccccc3C(=O)OCCOCCOCCOCCOC(=O)c3ccc(-c4c5nc(c(-c6ccc(S(=O)(=O)[O-])cc6)c6ccc([nH]6)c(-c6ccc(S(=O)(=O)[O-])cc6)c6nc(c(-c7ccc(S(=O)(=O)[O-])cc7)c7ccc4[nH]7)C=C6)C=C5)cc3)cc2)cccc1[N+](=O)[O-]
REMARK SMILES IDX 27 1 26 2 25 3 24 4 23 5 22 6 20 7 21 8 19 9 14 10 15 11
REMARK SMILES IDX 16 12 18 13 17 14 13 15 11 16 12 17 10 19 7 20 8 21 98 22
REMARK SMILES IDX 9 23 97 24 6 25 4 26 5 27 3 29 1 30 2 31 102 32 99 33 101 34
REMARK SMILES IDX 100 35 103 36 104 37 105 38 28 39 29 40 30 41 31 42 32 43
REMARK SMILES IDX 33 44 34 45 35 46 36 47 37 48 38 49 96 50 39 51 95 52 40 53
REMARK SMILES IDX 41 54 42 55 89 56 43 57 94 58 88 59 90 60 44 61 93 62 87 63
REMARK SMILES IDX 86 64 45 66 75 67 56 68 74 69 57 70 60 71 73 72 91 73 58 74
REMARK SMILES IDX 59 75 72 77 92 78 61 79 46 80 47 81 55 82 48 83 54 84 49 85
REMARK SMILES IDX 50 86 51 87 52 88 53 89 76 90 77 91 85 92 78 93 84 94 79 95
REMARK SMILES IDX 80 96 81 97 82 98 83 99 62 100 63 101 71 102 64 103 70 104
REMARK SMILES IDX 65 105 66 106 67 107 68 108 69 109
REMARK H PARENT 13 18 6 28 90 65 60 76
REMARK Flexibility Score: inf
ROOT
ATOM      1  C   UNL     1       5.197   0.231  -0.359  1.00  0.00     0.188 C 
ENDROOT
BRANCH   1   2
ATOM      2  C   UNL     1       5.645   1.619   0.118  1.00  0.00     0.188 C 
BRANCH   2   3
ATOM      3  O   UNL     1       6.912   1.938   0.598  1.00  0.00    -0.376 OA
BRANCH   3   4
ATOM      4  C   UNL     1       7.157   1.592   1.933  1.00  0.00     0.202 C 
BRANCH   4   5
ATOM      5  C   UNL     1       6.369   2.068   3.168  1.00  0.00     0.261 C 
BRANCH   5   6
ATOM      6  O   UNL     1       5.034   2.506   3.022  1.00  0.00    -0.460 OA
BRANCH   6   7
ATOM      7  C   UNL     1       5.011   3.841   2.884  1.00  0.00     0.340 C 
ATOM      8  O   UNL     1       5.946   4.616   2.654  1.00  0.00    -0.246 OA
BRANCH   7   9
ATOM      9  C   UNL     1       3.648   4.303   2.919  1.00  0.00     0.083 A 
ATOM     10  C   UNL     1       3.151   4.898   1.758  1.00  0.00     0.056 A 
ATOM     11  C   UNL     1       1.864   5.419   1.747  1.00  0.00     0.027 A 
ATOM     12  C   UNL     1       1.035   5.214   2.850  1.00  0.00     0.002 A 
ATOM     13  C   UNL     1       2.807   4.031   4.003  1.00  0.00     0.018 A 
ATOM     14  C   UNL     1       1.486   4.474   3.951  1.00  0.00     0.001 A 
BRANCH  10  15
ATOM     15  N   UNL     1       3.827   4.739   0.545  1.00  0.00    -0.321 N 
ATOM     16  C   UNL     1       3.463   3.873  -0.476  1.00  0.00     0.255 C 
ATOM     17  O   UNL     1       4.026   3.999  -1.567  1.00  0.00    -0.269 OA
ATOM     18  H   UNL     1       4.631   5.288   0.403  1.00  0.00     0.170 HD
BRANCH  16  19
ATOM     19  C   UNL     1       2.585   2.643  -0.261  1.00  0.00     0.040 A 
ATOM     20  C   UNL     1       1.360   0.075   0.061  1.00  0.00     0.041 A 
ATOM     21  C   UNL     1       1.335   0.980   1.097  1.00  0.00     0.027 A 
ATOM     22  C   UNL     1       2.016   0.429  -1.116  1.00  0.00     0.027 A 
ATOM     23  C   UNL     1       1.932   2.241   0.918  1.00  0.00     0.016 A 
ATOM     24  C   UNL     1       2.603   1.699  -1.290  1.00  0.00     0.016 A 
BRANCH  20  25
ATOM     25  N   UNL     1       0.681  -1.153   0.142  1.00  0.00    -0.322 N 
ATOM     26  C   UNL     1      -0.512  -1.415  -0.512  1.00  0.00     0.256 C 
ATOM     27  O   UNL     1      -0.880  -2.542  -0.820  1.00  0.00    -0.269 OA
ATOM     28  H   UNL     1       1.075  -1.866   0.694  1.00  0.00     0.170 HD
BRANCH  26  29
ATOM     29  C   UNL     1      -1.487  -0.291  -0.609  1.00  0.00     0.049 A 
ATOM     30  C   UNL     1      -0.408   1.045  -2.459  1.00  0.00     0.053 C 
ATOM     31  C   UNL     1      -1.191   0.959  -1.179  1.00  0.00     0.039 A 
ATOM     32  C   UNL     1      -1.813   2.070  -0.593  1.00  0.00     0.273 A 
ATOM     33  C   UNL     1      -2.634  -0.466   0.177  1.00  0.00     0.014 A 
ATOM     34  C   UNL     1      -2.948   1.907   0.218  1.00  0.00     0.086 A 
ATOM     35  C   UNL     1      -3.412   0.630   0.522  1.00  0.00     0.008 A 
BRANCH  32  36
ATOM     36  N   UNL     1      -1.198   3.408  -0.624  1.00  0.00     0.063 N 
ATOM     37  O   UNL     1      -1.357   4.120   0.382  1.00  0.00    -0.258 OA
ATOM     38  O   UNL     1      -0.565   3.756  -1.626  1.00  0.00    -0.258 OA
ENDBRANCH  32  36
ENDBRANCH  26  29
ENDBRANCH  20  25
ENDBRANCH  16  19
ENDBRANCH  10  15
ENDBRANCH   7   9
ENDBRANCH   6   7
ENDBRANCH   5   6
ENDBRANCH   4   5
ENDBRANCH   3   4
ENDBRANCH   2   3
ENDBRANCH   1   2
BRANCH   1  39
ATOM     39  O   UNL     1       5.327  -0.969   0.363  1.00  0.00    -0.377 OA
BRANCH  39  40
ATOM     40  C   UNL     1       4.164  -1.847   0.353  1.00  0.00     0.188 C 
BRANCH  40  41
ATOM     41  C   UNL     1       3.688  -2.373  -1.010  1.00  0.00     0.188 C 
BRANCH  41  42
ATOM     42  O   UNL     1       4.374  -1.700  -2.051  1.00  0.00    -0.376 OA
BRANCH  42  43
ATOM     43  C   UNL     1       3.979  -1.933  -3.386  1.00  0.00     0.202 C 
BRANCH  43  44
ATOM     44  C   UNL     1       3.942  -3.408  -3.768  1.00  0.00     0.261 C 
BRANCH  44  45
ATOM     45  O   UNL     1       5.275  -3.938  -3.611  1.00  0.00    -0.460 OA
BRANCH  45  46
ATOM     46  C   UNL     1       5.398  -4.936  -2.689  1.00  0.00     0.338 C 
ATOM     47  O   UNL     1       4.869  -6.029  -2.805  1.00  0.00    -0.246 OA
BRANCH  46  48
ATOM     48  C   UNL     1       6.195  -4.477  -1.501  1.00  0.00     0.060 A 
ATOM     49  C   UNL     1       6.067  -5.123  -0.259  1.00  0.00     0.016 A 
ATOM     50  C   UNL     1       6.880  -3.270  -1.545  1.00  0.00     0.016 A 
ATOM     51  C   UNL     1       6.531  -4.521   0.943  1.00  0.00     0.010 A 
ATOM     52  C   UNL     1       7.293  -2.670  -0.353  1.00  0.00     0.010 A 
ATOM     53  C   UNL     1       7.115  -3.250   0.927  1.00  0.00    -0.014 A 
BRANCH  53  54
ATOM     54  C   UNL     1       7.352  -2.355   2.136  1.00  0.00     0.031 A 
ATOM     55  C   UNL     1       8.600  -1.421   2.134  1.00  0.00     0.074 A 
ATOM     56  C   UNL     1       6.278  -2.056   2.933  1.00  0.00     0.049 A 
ATOM     57  N   UNL     1       8.964  -0.524   3.018  1.00  0.00    -0.248 NA
ATOM     58  C   UNL     1       9.609  -1.510   1.063  1.00  0.00     0.031 C 
ATOM     59  C   UNL     1       5.585  -0.766   2.989  1.00  0.00     0.029 A 
ATOM     60  N   UNL     1       5.321  -2.846   3.561  1.00  0.00    -0.354 N 
ATOM     61  C   UNL     1       9.981   0.281   2.440  1.00  0.00     0.074 A 
ATOM     62  C   UNL     1      10.390  -0.447   1.269  1.00  0.00     0.031 C 
ATOM     63  C   UNL     1       4.537  -0.739   3.807  1.00  0.00     0.029 A 
ATOM     64  C   UNL     1       4.456  -2.042   4.345  1.00  0.00     0.049 A 
ATOM     65  H   UNL     1       5.254  -3.825   3.473  1.00  0.00     0.167 HD
ATOM     66  C   UNL     1      10.275   1.566   2.862  1.00  0.00     0.031 A 
ATOM     67  C   UNL     1       4.230  -2.228   5.661  1.00  0.00     0.031 A 
ATOM     68  C   UNL     1       9.556   1.963   4.103  1.00  0.00     0.049 A 
ATOM     69  C   UNL     1       5.122  -1.346   6.544  1.00  0.00     0.074 A 
ATOM     70  C   UNL     1       8.972   3.144   4.546  1.00  0.00     0.029 A 
ATOM     71  N   UNL     1       9.187   1.004   5.045  1.00  0.00    -0.354 N 
ATOM     72  N   UNL     1       6.000  -0.452   6.114  1.00  0.00    -0.248 NA
ATOM     73  C   UNL     1       5.095  -1.409   8.005  1.00  0.00     0.031 C 
ATOM     74  C   UNL     1       8.149   2.853   5.671  1.00  0.00     0.029 A 
ATOM     75  C   UNL     1       8.264   1.500   5.942  1.00  0.00     0.049 A 
ATOM     76  H   UNL     1       9.542   0.086   5.068  1.00  0.00     0.167 HD
ATOM     77  C   UNL     1       6.761  -0.004   7.181  1.00  0.00     0.074 A 
ATOM     78  C   UNL     1       6.093  -0.575   8.339  1.00  0.00     0.031 C 
ATOM     79  C   UNL     1       7.917   0.738   7.123  1.00  0.00     0.031 A 
BRANCH  66  80
ATOM     80  C   UNL     1      11.007   2.673   2.000  1.00  0.00    -0.014 A 
ATOM     81  C   UNL     1      11.244   3.953   2.566  1.00  0.00     0.010 A 
ATOM     82  C   UNL     1      11.363   2.592   0.632  1.00  0.00     0.010 A 
ATOM     83  C   UNL     1      11.735   5.065   1.846  1.00  0.00     0.020 A 
ATOM     84  C   UNL     1      11.940   3.680  -0.089  1.00  0.00     0.020 A 
ATOM     85  C   UNL     1      12.109   4.919   0.521  1.00  0.00     0.054 A 
BRANCH  85  86
ATOM     86  S   UNL     1      12.904   6.323  -0.325  1.00  0.00     0.124 S 
ATOM     87  O   UNL     1      11.798   7.257  -0.519  1.00  0.00    -0.237 OA
ATOM     88  O   UNL     1      13.915   6.748   0.642  1.00  0.00    -0.237 OA
ATOM     89  O   UNL     1      13.442   5.734  -1.550  1.00  0.00    -0.744 OA
ENDBRANCH  85  86
ENDBRANCH  66  80
BRANCH  67  90
ATOM     90  C   UNL     1       3.403  -3.489   5.786  1.00  0.00    -0.014 A 
ATOM     91  C   UNL     1       2.065  -3.301   5.321  1.00  0.00     0.010 A 
ATOM     92  C   UNL     1       4.045  -4.685   5.388  1.00  0.00     0.010 A 
ATOM     93  C   UNL     1       1.590  -4.009   4.200  1.00  0.00     0.020 A 
ATOM     94  C   UNL     1       3.577  -5.389   4.254  1.00  0.00     0.020 A 
ATOM     95  C   UNL     1       2.403  -4.976   3.612  1.00  0.00     0.054 A 
BRANCH  95  96
ATOM     96  S   UNL     1       2.114  -5.378   1.847  1.00  0.00     0.124 S 
ATOM     97  O   UNL     1       0.966  -6.273   1.918  1.00  0.00    -0.237 OA
ATOM     98  O   UNL     1       1.869  -4.056   1.259  1.00  0.00    -0.237 OA
ATOM     99  O   UNL     1       3.376  -5.989   1.439  1.00  0.00    -0.744 OA
ENDBRANCH  95  96
ENDBRANCH  67  90
BRANCH  79 100
ATOM    100  C   UNL     1       8.951   0.854   8.238  1.00  0.00    -0.014 A 
ATOM    101  C   UNL     1       9.132  -0.128   9.216  1.00  0.00     0.010 A 
ATOM    102  C   UNL     1       9.946   1.871   8.167  1.00  0.00     0.010 A 
ATOM    103  C   UNL     1      10.203  -0.058  10.118  1.00  0.00     0.020 A 
ATOM    104  C   UNL     1      11.043   1.922   9.023  1.00  0.00     0.020 A 
ATOM    105  C   UNL     1      11.146   0.968  10.019  1.00  0.00     0.054 A 
BRANCH 105 106
ATOM    106  S   UNL     1      12.533   1.016  11.172  1.00  0.00     0.124 S 
ATOM    107  O   UNL     1      11.905   1.581  12.364  1.00  0.00    -0.237 OA
ATOM    108  O   UNL     1      12.919  -0.389  11.271  1.00  0.00    -0.237 OA
ATOM    109  O   UNL     1      13.510   1.879  10.512  1.00  0.00    -0.744 OA
ENDBRANCH 105 106
ENDBRANCH  79 100
ENDBRANCH  53  54
ENDBRANCH  46  48
ENDBRANCH  45  46
ENDBRANCH  44  45
ENDBRANCH  43  44
ENDBRANCH  42  43
ENDBRANCH  41  42
ENDBRANCH  40  41
ENDBRANCH  39  40
ENDBRANCH   1  39
TORSDOF 28
