REMARK SMILES Cc1c(CC(=O)OCCOCCOCCOCCOC(=O)c2ccc(-c3c4nc(c(-c5ccc(S(=O)(=O)[O-])cc5)c5ccc([nH]5)c(-c5ccc(S(=O)(=O)[O-])cc5)c5nc(c(-c6ccc(S(=O)(=O)[O-])cc6)c6ccc3[nH]6)C=C5)C=C4)cc2)cc(-c2ccccc2)cc1-c1ccccc1
REMARK SMILES IDX 14 1 13 2 12 3 11 4 10 5 9 6 8 7 7 8 5 9 6 10 4 11 3 12 1 13
REMARK SMILES IDX 2 14 91 15 82 16 90 17 83 18 92 19 93 20 97 21 94 22 96 23
REMARK SMILES IDX 95 24 84 25 85 26 89 27 86 28 88 29 87 30 15 31 16 32 17 33
REMARK SMILES IDX 18 34 19 35 20 36 21 37 22 38 23 39 81 40 24 41 80 42 25 43
REMARK SMILES IDX 26 44 27 45 74 46 28 47 79 48 73 49 75 50 29 51 78 52 72 53
REMARK SMILES IDX 71 54 30 56 60 57 41 58 59 59 42 60 45 61 58 62 76 63 43 64
REMARK SMILES IDX 44 65 57 67 77 68 46 69 31 70 32 71 40 72 33 73 39 74 34 75
REMARK SMILES IDX 35 76 36 77 37 78 38 79 61 80 62 81 70 82 63 83 69 84 64 85
REMARK SMILES IDX 65 86 66 87 67 88 68 89 47 90 48 91 56 92 49 93 55 94 50 95
REMARK SMILES IDX 51 96 52 97 53 98 54 99
REMARK H PARENT 75 55 45 66
REMARK Flexibility Score: inf
ROOT
ATOM      1  C   UNL     1      -3.245  -3.931   2.067  1.00  0.00     0.188 C 
ENDROOT
BRANCH   1   2
ATOM      2  O   UNL     1      -2.999  -2.827   1.236  1.00  0.00    -0.377 OA
BRANCH   2   3
ATOM      3  C   UNL     1      -1.909  -2.927   0.353  1.00  0.00     0.188 C 
BRANCH   3   4
ATOM      4  C   UNL     1      -1.944  -4.107  -0.621  1.00  0.00     0.188 C 
BRANCH   4   5
ATOM      5  O   UNL     1      -1.472  -5.366  -0.142  1.00  0.00    -0.376 OA
BRANCH   5   6
ATOM      6  C   UNL     1      -0.259  -5.350   0.607  1.00  0.00     0.202 C 
BRANCH   6   7
ATOM      7  C   UNL     1       1.015  -4.927  -0.127  1.00  0.00     0.261 C 
BRANCH   7   8
ATOM      8  O   UNL     1       1.034  -3.530  -0.497  1.00  0.00    -0.463 OA
BRANCH   8   9
ATOM      9  C   UNL     1       1.125  -3.276  -1.825  1.00  0.00     0.310 C 
ATOM     10  O   UNL     1       1.089  -4.134  -2.703  1.00  0.00    -0.252 OA
BRANCH   9  11
ATOM     11  C   UNL     1       1.400  -1.835  -2.163  1.00  0.00     0.158 C 
BRANCH  11  12
ATOM     12  C   UNL     1       0.664  -0.721  -1.438  1.00  0.00    -0.033 A 
ATOM     13  C   UNL     1       2.823   0.115  -0.391  1.00  0.00     0.045 C 
ATOM     14  C   UNL     1       1.360   0.282  -0.722  1.00  0.00    -0.039 A 
ATOM     15  C   UNL     1       0.681   1.472  -0.362  1.00  0.00    -0.015 A 
ATOM     16  C   UNL     1      -0.726  -0.575  -1.627  1.00  0.00     0.013 A 
ATOM     17  C   UNL     1      -0.720   1.509  -0.453  1.00  0.00     0.017 A 
ATOM     18  C   UNL     1      -1.453   0.480  -1.047  1.00  0.00    -0.017 A 
BRANCH  15  19
ATOM     19  C   UNL     1       1.375   2.750  -0.115  1.00  0.00    -0.018 A 
ATOM     20  C   UNL     1       1.093   3.563   0.991  1.00  0.00     0.009 A 
ATOM     21  C   UNL     1       2.224   3.262  -1.116  1.00  0.00     0.009 A 
ATOM     22  C   UNL     1       1.634   4.849   1.084  1.00  0.00     0.001 A 
ATOM     23  C   UNL     1       2.766   4.542  -1.023  1.00  0.00     0.001 A 
ATOM     24  C   UNL     1       2.465   5.339   0.076  1.00  0.00     0.000 A 
ENDBRANCH  15  19
BRANCH  18  25
ATOM     25  C   UNL     1      -2.927   0.562  -1.067  1.00  0.00    -0.018 A 
ATOM     26  C   UNL     1      -3.642   0.807   0.124  1.00  0.00     0.009 A 
ATOM     27  C   UNL     1      -3.663   0.434  -2.253  1.00  0.00     0.009 A 
ATOM     28  C   UNL     1      -5.032   0.946   0.126  1.00  0.00     0.001 A 
ATOM     29  C   UNL     1      -5.058   0.564  -2.252  1.00  0.00     0.001 A 
ATOM     30  C   UNL     1      -5.741   0.824  -1.065  1.00  0.00     0.000 A 
ENDBRANCH  18  25
ENDBRANCH  11  12
ENDBRANCH   9  11
ENDBRANCH   8   9
ENDBRANCH   7   8
ENDBRANCH   6   7
ENDBRANCH   5   6
ENDBRANCH   4   5
ENDBRANCH   3   4
ENDBRANCH   2   3
ENDBRANCH   1   2
BRANCH   1  31
ATOM     31  C   UNL     1      -4.560  -4.614   1.704  1.00  0.00     0.188 C 
BRANCH  31  32
ATOM     32  O   UNL     1      -5.583  -3.857   1.072  1.00  0.00    -0.376 OA
BRANCH  32  33
ATOM     33  C   UNL     1      -5.768  -2.479   1.403  1.00  0.00     0.202 C 
BRANCH  33  34
ATOM     34  C   UNL     1      -5.597  -1.994   2.857  1.00  0.00     0.261 C 
BRANCH  34  35
ATOM     35  O   UNL     1      -6.050  -2.978   3.805  1.00  0.00    -0.460 OA
BRANCH  35  36
ATOM     36  C   UNL     1      -5.788  -2.647   5.104  1.00  0.00     0.338 C 
ATOM     37  O   UNL     1      -6.437  -1.866   5.775  1.00  0.00    -0.246 OA
BRANCH  36  38
ATOM     38  C   UNL     1      -4.611  -3.421   5.584  1.00  0.00     0.060 A 
ATOM     39  C   UNL     1      -3.560  -2.767   6.223  1.00  0.00     0.016 A 
ATOM     40  C   UNL     1      -4.447  -4.740   5.172  1.00  0.00     0.016 A 
ATOM     41  C   UNL     1      -2.285  -3.352   6.211  1.00  0.00     0.010 A 
ATOM     42  C   UNL     1      -3.158  -5.265   5.060  1.00  0.00     0.010 A 
ATOM     43  C   UNL     1      -2.044  -4.509   5.447  1.00  0.00    -0.014 A 
BRANCH  43  44
ATOM     44  C   UNL     1      -0.740  -4.710   4.736  1.00  0.00     0.031 A 
ATOM     45  C   UNL     1      -0.133  -6.057   4.434  1.00  0.00     0.074 A 
ATOM     46  C   UNL     1      -0.157  -3.625   4.140  1.00  0.00     0.049 A 
ATOM     47  N   UNL     1       1.064  -6.199   3.958  1.00  0.00    -0.248 NA
ATOM     48  C   UNL     1      -0.766  -7.363   4.631  1.00  0.00     0.031 C 
ATOM     49  C   UNL     1       0.917  -3.610   3.145  1.00  0.00     0.029 A 
ATOM     50  N   UNL     1      -0.399  -2.261   4.322  1.00  0.00    -0.354 N 
ATOM     51  C   UNL     1       1.240  -7.486   3.514  1.00  0.00     0.074 A 
ATOM     52  C   UNL     1       0.094  -8.195   4.022  1.00  0.00     0.031 C 
ATOM     53  C   UNL     1       1.282  -2.355   2.856  1.00  0.00     0.029 A 
ATOM     54  C   UNL     1       0.680  -1.499   3.845  1.00  0.00     0.049 A 
ATOM     55  H   UNL     1      -1.214  -1.887   4.728  1.00  0.00     0.167 HD
ATOM     56  C   UNL     1       2.298  -7.785   2.700  1.00  0.00     0.031 A 
ATOM     57  C   UNL     1       1.450  -0.792   4.728  1.00  0.00     0.031 A 
ATOM     58  C   UNL     1       3.317  -6.718   2.688  1.00  0.00     0.049 A 
ATOM     59  C   UNL     1       2.784  -1.446   5.066  1.00  0.00     0.074 A 
ATOM     60  C   UNL     1       4.032  -6.026   1.726  1.00  0.00     0.029 A 
ATOM     61  N   UNL     1       3.671  -6.124   3.904  1.00  0.00    -0.354 N 
ATOM     62  N   UNL     1       3.207  -2.562   4.520  1.00  0.00    -0.248 NA
ATOM     63  C   UNL     1       3.752  -0.938   6.036  1.00  0.00     0.031 C 
ATOM     64  C   UNL     1       4.657  -4.905   2.358  1.00  0.00     0.029 A 
ATOM     65  C   UNL     1       4.410  -4.974   3.719  1.00  0.00     0.049 A 
ATOM     66  H   UNL     1       3.423  -6.483   4.787  1.00  0.00     0.167 HD
ATOM     67  C   UNL     1       4.349  -2.997   5.127  1.00  0.00     0.074 A 
ATOM     68  C   UNL     1       4.686  -1.909   6.030  1.00  0.00     0.031 C 
ATOM     69  C   UNL     1       4.893  -4.229   4.883  1.00  0.00     0.031 A 
BRANCH  56  70
ATOM     70  C   UNL     1       2.359  -9.028   1.815  1.00  0.00    -0.014 A 
ATOM     71  C   UNL     1       3.540  -9.366   1.117  1.00  0.00     0.010 A 
ATOM     72  C   UNL     1       1.242  -9.853   1.549  1.00  0.00     0.010 A 
ATOM     73  C   UNL     1       3.607 -10.465   0.233  1.00  0.00     0.020 A 
ATOM     74  C   UNL     1       1.305 -10.976   0.704  1.00  0.00     0.020 A 
ATOM     75  C   UNL     1       2.488 -11.274   0.040  1.00  0.00     0.054 A 
BRANCH  75  76
ATOM     76  S   UNL     1       2.587 -12.706  -1.075  1.00  0.00     0.124 S 
ATOM     77  O   UNL     1       2.721 -12.075  -2.385  1.00  0.00    -0.237 OA
ATOM     78  O   UNL     1       3.771 -13.410  -0.590  1.00  0.00    -0.237 OA
ATOM     79  O   UNL     1       1.322 -13.406  -0.852  1.00  0.00    -0.744 OA
ENDBRANCH  75  76
ENDBRANCH  56  70
BRANCH  57  80
ATOM     80  C   UNL     1       0.639   0.244   5.437  1.00  0.00    -0.014 A 
ATOM     81  C   UNL     1       0.289   1.349   4.626  1.00  0.00     0.010 A 
ATOM     82  C   UNL     1      -0.226  -0.105   6.492  1.00  0.00     0.010 A 
ATOM     83  C   UNL     1      -0.995   1.901   4.684  1.00  0.00     0.020 A 
ATOM     84  C   UNL     1      -1.513   0.459   6.562  1.00  0.00     0.020 A 
ATOM     85  C   UNL     1      -1.914   1.386   5.595  1.00  0.00     0.054 A 
BRANCH  85  86
ATOM     86  S   UNL     1      -3.676   1.774   5.346  1.00  0.00     0.124 S 
ATOM     87  O   UNL     1      -3.664   3.226   5.191  1.00  0.00    -0.237 OA
ATOM     88  O   UNL     1      -3.976   1.013   4.134  1.00  0.00    -0.237 OA
ATOM     89  O   UNL     1      -4.300   1.278   6.568  1.00  0.00    -0.744 OA
ENDBRANCH  85  86
ENDBRANCH  57  80
BRANCH  69  90
ATOM     90  C   UNL     1       5.961  -4.885   5.732  1.00  0.00    -0.014 A 
ATOM     91  C   UNL     1       6.174  -4.586   7.087  1.00  0.00     0.010 A 
ATOM     92  C   UNL     1       6.686  -5.979   5.196  1.00  0.00     0.010 A 
ATOM     93  C   UNL     1       7.109  -5.298   7.852  1.00  0.00     0.020 A 
ATOM     94  C   UNL     1       7.587  -6.724   5.962  1.00  0.00     0.020 A 
ATOM     95  C   UNL     1       7.813  -6.360   7.283  1.00  0.00     0.054 A 
BRANCH  95  96
ATOM     96  S   UNL     1       8.973  -7.310   8.299  1.00  0.00     0.124 S 
ATOM     97  O   UNL     1      10.191  -6.513   8.185  1.00  0.00    -0.237 OA
ATOM     98  O   UNL     1       8.338  -7.300   9.615  1.00  0.00    -0.237 OA
ATOM     99  O   UNL     1       9.013  -8.615   7.645  1.00  0.00    -0.744 OA
ENDBRANCH  95  96
ENDBRANCH  69  90
ENDBRANCH  43  44
ENDBRANCH  36  38
ENDBRANCH  35  36
ENDBRANCH  34  35
ENDBRANCH  33  34
ENDBRANCH  32  33
ENDBRANCH  31  32
ENDBRANCH   1  31
TORSDOF 26
