REMARK SMILES CC1(C)O[C@@H]2C[C@@H]3[C@H]4CCC5=CC(=O)C=C[C@@]5(C)[C@]4(F)[C@H](O)C[C@]3(C)[C@]2(C(=O)OCCOCCOCCOCCOC(=O)c2ccc(-c3c4nc(c(-c5ccc(S(=O)(=O)[O-])cc5)c5ccc([nH]5)c(-c5ccc(S(=O)(=O)[O-])cc5)c5nc(c(-c6ccc(S(=O)(=O)[O-])cc6)c6ccc3[nH]6)C=C5)C=C4)cc2)O1
REMARK SMILES IDX 36 1 35 2 34 3 33 4 32 5 31 6 30 7 29 8 27 9 28 10 26 11
REMARK SMILES IDX 1 12 2 13 4 14 104 15 3 16 5 17 6 18 24 19 7 20 23 21 25 22
REMARK SMILES IDX 8 23 21 24 9 25 19 26 10 27 17 28 20 29 11 30 16 31 18 32
REMARK SMILES IDX 12 33 15 34 13 35 14 36 22 37 37 39 38 40 39 41 40 42 41 43
REMARK SMILES IDX 42 44 43 45 44 46 45 47 103 48 46 49 102 50 47 51 48 52
REMARK SMILES IDX 49 53 96 54 50 55 101 56 95 57 97 58 51 59 100 60 94 61
REMARK SMILES IDX 93 62 52 64 82 65 63 66 81 67 64 68 67 69 80 70 98 71 65 72
REMARK SMILES IDX 66 73 79 75 99 76 68 77 53 78 54 79 62 80 55 81 61 82 56 83
REMARK SMILES IDX 57 84 58 85 59 86 60 87 83 88 84 89 92 90 85 91 91 92 86 93
REMARK SMILES IDX 87 94 88 95 89 96 90 97 69 98 70 99 78 100 71 101 77 102
REMARK SMILES IDX 72 103 73 104 74 105 75 106 76 107
REMARK H PARENT 22 38 97 63 67 74
REMARK Flexibility Score: inf
ROOT
ATOM      1  C   UNL     1      -3.742  -2.951  -2.357  1.00  0.00     0.188 C 
ENDROOT
BRANCH   1   2
ATOM      2  O   UNL     1      -3.019  -1.737  -2.315  1.00  0.00    -0.377 OA
BRANCH   2   3
ATOM      3  C   UNL     1      -2.138  -1.526  -1.232  1.00  0.00     0.188 C 
BRANCH   3   4
ATOM      4  C   UNL     1      -2.442  -2.070   0.178  1.00  0.00     0.188 C 
BRANCH   4   5
ATOM      5  O   UNL     1      -3.738  -2.617   0.325  1.00  0.00    -0.376 OA
BRANCH   5   6
ATOM      6  C   UNL     1      -4.766  -1.781   0.826  1.00  0.00     0.202 C 
BRANCH   6   7
ATOM      7  C   UNL     1      -5.153  -0.518   0.021  1.00  0.00     0.261 C 
BRANCH   7   8
ATOM      8  O   UNL     1      -4.109   0.397  -0.379  1.00  0.00    -0.461 OA
BRANCH   8   9
ATOM      9  C   UNL     1      -3.290   0.793   0.607  1.00  0.00     0.341 C 
ATOM     10  O   UNL     1      -3.386   0.396   1.770  1.00  0.00    -0.249 OA
BRANCH   9  11
ATOM     11  C   UNL     1      -2.259   1.851   0.259  1.00  0.00     0.200 C 
ATOM     12  C   UNL     1       0.483  -0.085  -0.510  1.00  0.00     0.075 C 
ATOM     13  C   UNL     1       0.043   1.324  -0.095  1.00  0.00     0.165 C 
ATOM     14  O   UNL     1      -0.393   1.972  -1.287  1.00  0.00    -0.344 OA
ATOM     15  O   UNL     1      -1.015   1.372   0.893  1.00  0.00    -0.329 OA
ATOM     16  C   UNL     1       1.342   1.939   0.460  1.00  0.00     0.075 C 
ATOM     17  C   UNL     1      -1.764   2.386  -1.114  1.00  0.00     0.166 C 
ATOM     18  C   UNL     1      -1.684   3.985  -0.956  1.00  0.00     0.040 C 
ATOM     19  C   UNL     1      -2.914   3.157   0.881  1.00  0.00     0.016 C 
ATOM     20  C   UNL     1      -1.750   4.135   0.599  1.00  0.00     0.008 C 
ATOM     21  C   UNL     1      -3.446   3.242   2.327  1.00  0.00     0.046 C 
ATOM     22  C   UNL     1      -4.228   3.487   0.055  1.00  0.00     0.015 C 
ATOM     23  C   UNL     1      -0.835   4.418   1.852  1.00  0.00     0.035 C 
ATOM     24  C   UNL     1      -2.431   3.221   3.437  1.00  0.00     0.154 C 
ATOM     25  C   UNL     1       0.124   5.586   1.636  1.00  0.00     0.012 C 
ATOM     26  C   UNL     1      -1.427   4.391   3.269  1.00  0.00     0.152 C 
ATOM     27  C   UNL     1       1.304   5.477   2.603  1.00  0.00     0.032 C 
ATOM     28  C   UNL     1      -0.264   4.352   4.353  1.00  0.00     0.044 C 
ATOM     29  F   UNL     1      -2.130   5.562   3.416  1.00  0.00    -0.239 F 
ATOM     30  C   UNL     1       0.896   5.303   4.041  1.00  0.00    -0.053 C 
ATOM     31  C   UNL     1      -0.823   4.693   5.729  1.00  0.00    -0.009 C 
ATOM     32  C   UNL     1       0.407   2.938   4.500  1.00  0.00     0.024 C 
ATOM     33  C   UNL     1       1.630   5.831   5.040  1.00  0.00     0.052 C 
ATOM     34  C   UNL     1      -0.005   4.939   6.761  1.00  0.00     0.048 C 
ATOM     35  C   UNL     1       1.339   5.483   6.460  1.00  0.00     0.178 C 
ATOM     36  O   UNL     1       2.136   5.737   7.353  1.00  0.00    -0.290 OA
BRANCH  24  37
ATOM     37  O   UNL     1      -1.851   1.931   3.550  1.00  0.00    -0.390 OA
ATOM     38  H   UNL     1      -1.403   1.705   2.720  1.00  0.00     0.211 HD
ENDBRANCH  24  37
ENDBRANCH   9  11
ENDBRANCH   8   9
ENDBRANCH   7   8
ENDBRANCH   6   7
ENDBRANCH   5   6
ENDBRANCH   4   5
ENDBRANCH   3   4
ENDBRANCH   2   3
ENDBRANCH   1   2
BRANCH   1  39
ATOM     39  C   UNL     1      -3.032  -4.269  -1.975  1.00  0.00     0.188 C 
BRANCH  39  40
ATOM     40  O   UNL     1      -1.697  -4.136  -1.507  1.00  0.00    -0.376 OA
BRANCH  40  41
ATOM     41  C   UNL     1      -0.638  -4.500  -2.377  1.00  0.00     0.202 C 
BRANCH  41  42
ATOM     42  C   UNL     1      -0.409  -3.615  -3.611  1.00  0.00     0.261 C 
BRANCH  42  43
ATOM     43  O   UNL     1      -1.537  -3.446  -4.476  1.00  0.00    -0.460 OA
BRANCH  43  44
ATOM     44  C   UNL     1      -2.069  -4.556  -5.029  1.00  0.00     0.338 C 
ATOM     45  O   UNL     1      -1.682  -5.706  -4.897  1.00  0.00    -0.246 OA
BRANCH  44  46
ATOM     46  C   UNL     1      -3.342  -4.155  -5.653  1.00  0.00     0.060 A 
ATOM     47  C   UNL     1      -4.533  -4.755  -5.220  1.00  0.00     0.016 A 
ATOM     48  C   UNL     1      -3.362  -3.134  -6.606  1.00  0.00     0.016 A 
ATOM     49  C   UNL     1      -5.753  -4.329  -5.738  1.00  0.00     0.010 A 
ATOM     50  C   UNL     1      -4.579  -2.743  -7.161  1.00  0.00     0.010 A 
ATOM     51  C   UNL     1      -5.773  -3.357  -6.746  1.00  0.00    -0.014 A 
BRANCH  51  52
ATOM     52  C   UNL     1      -7.000  -3.183  -7.551  1.00  0.00     0.031 A 
ATOM     53  C   UNL     1      -7.141  -4.038  -8.780  1.00  0.00     0.074 A 
ATOM     54  C   UNL     1      -7.964  -2.314  -7.202  1.00  0.00     0.049 A 
ATOM     55  N   UNL     1      -8.099  -4.063  -9.666  1.00  0.00    -0.248 NA
ATOM     56  C   UNL     1      -6.050  -4.994  -9.040  1.00  0.00     0.031 C 
ATOM     57  C   UNL     1      -7.957  -1.469  -6.008  1.00  0.00     0.029 A 
ATOM     58  N   UNL     1      -9.140  -1.999  -7.833  1.00  0.00    -0.354 N 
ATOM     59  C   UNL     1      -7.725  -5.033 -10.589  1.00  0.00     0.074 A 
ATOM     60  C   UNL     1      -6.443  -5.553 -10.173  1.00  0.00     0.031 C 
ATOM     61  C   UNL     1      -9.075  -0.721  -6.001  1.00  0.00     0.029 A 
ATOM     62  C   UNL     1      -9.858  -1.012  -7.202  1.00  0.00     0.049 A 
ATOM     63  H   UNL     1      -9.442  -2.439  -8.660  1.00  0.00     0.167 HD
ATOM     64  C   UNL     1      -8.393  -5.455 -11.686  1.00  0.00     0.031 A 
ATOM     65  C   UNL     1     -11.003  -0.402  -7.569  1.00  0.00     0.031 A 
ATOM     66  C   UNL     1      -9.652  -4.912 -12.113  1.00  0.00     0.049 A 
ATOM     67  C   UNL     1     -11.687  -0.828  -8.844  1.00  0.00     0.074 A 
ATOM     68  C   UNL     1     -10.415  -5.271 -13.209  1.00  0.00     0.029 A 
ATOM     69  N   UNL     1     -10.327  -3.885 -11.470  1.00  0.00    -0.354 N 
ATOM     70  N   UNL     1     -11.339  -1.767  -9.694  1.00  0.00    -0.248 NA
ATOM     71  C   UNL     1     -12.921  -0.117  -9.207  1.00  0.00     0.031 C 
ATOM     72  C   UNL     1     -11.521  -4.417 -13.264  1.00  0.00     0.029 A 
ATOM     73  C   UNL     1     -11.483  -3.575 -12.164  1.00  0.00     0.049 A 
ATOM     74  H   UNL     1     -10.027  -3.442 -10.644  1.00  0.00     0.167 HD
ATOM     75  C   UNL     1     -12.327  -1.778 -10.674  1.00  0.00     0.074 A 
ATOM     76  C   UNL     1     -13.292  -0.763 -10.305  1.00  0.00     0.031 C 
ATOM     77  C   UNL     1     -12.431  -2.560 -11.779  1.00  0.00     0.031 A 
BRANCH  64  78
ATOM     78  C   UNL     1      -7.742  -6.524 -12.520  1.00  0.00    -0.014 A 
ATOM     79  C   UNL     1      -7.634  -7.848 -12.055  1.00  0.00     0.010 A 
ATOM     80  C   UNL     1      -7.246  -6.202 -13.796  1.00  0.00     0.010 A 
ATOM     81  C   UNL     1      -7.010  -8.822 -12.838  1.00  0.00     0.020 A 
ATOM     82  C   UNL     1      -6.647  -7.180 -14.594  1.00  0.00     0.020 A 
ATOM     83  C   UNL     1      -6.520  -8.481 -14.102  1.00  0.00     0.054 A 
BRANCH  83  84
ATOM     84  S   UNL     1      -5.738  -9.771 -15.108  1.00  0.00     0.124 S 
ATOM     85  O   UNL     1      -4.476  -9.979 -14.403  1.00  0.00    -0.237 OA
ATOM     86  O   UNL     1      -6.696 -10.870 -15.018  1.00  0.00    -0.237 OA
ATOM     87  O   UNL     1      -5.619  -9.159 -16.429  1.00  0.00    -0.744 OA
ENDBRANCH  83  84
ENDBRANCH  64  78
BRANCH  65  88
ATOM     88  C   UNL     1     -11.567   0.695  -6.733  1.00  0.00    -0.014 A 
ATOM     89  C   UNL     1     -12.777   0.522  -6.037  1.00  0.00     0.010 A 
ATOM     90  C   UNL     1     -10.896   1.928  -6.637  1.00  0.00     0.010 A 
ATOM     91  C   UNL     1     -13.312   1.566  -5.274  1.00  0.00     0.020 A 
ATOM     92  C   UNL     1     -11.412   2.963  -5.853  1.00  0.00     0.020 A 
ATOM     93  C   UNL     1     -12.623   2.779  -5.183  1.00  0.00     0.054 A 
BRANCH  93  94
ATOM     94  S   UNL     1     -13.306   4.098  -4.141  1.00  0.00     0.124 S 
ATOM     95  O   UNL     1     -14.448   4.548  -4.929  1.00  0.00    -0.237 OA
ATOM     96  O   UNL     1     -13.627   3.388  -2.906  1.00  0.00    -0.237 OA
ATOM     97  O   UNL     1     -12.203   5.052  -4.033  1.00  0.00    -0.744 OA
ENDBRANCH  93  94
ENDBRANCH  65  88
BRANCH  77  98
ATOM     98  C   UNL     1     -13.646  -2.380 -12.651  1.00  0.00    -0.014 A 
ATOM     99  C   UNL     1     -13.805  -1.240 -13.459  1.00  0.00     0.010 A 
ATOM    100  C   UNL     1     -14.609  -3.404 -12.713  1.00  0.00     0.010 A 
ATOM    101  C   UNL     1     -14.923  -1.115 -14.289  1.00  0.00     0.020 A 
ATOM    102  C   UNL     1     -15.711  -3.296 -13.565  1.00  0.00     0.020 A 
ATOM    103  C   UNL     1     -15.868  -2.145 -14.337  1.00  0.00     0.054 A 
BRANCH 103 104
ATOM    104  S   UNL     1     -17.285  -1.977 -15.456  1.00  0.00     0.124 S 
ATOM    105  O   UNL     1     -18.093  -0.969 -14.775  1.00  0.00    -0.237 OA
ATOM    106  O   UNL     1     -16.659  -1.545 -16.703  1.00  0.00    -0.237 OA
ATOM    107  O   UNL     1     -17.863  -3.319 -15.489  1.00  0.00    -0.744 OA
ENDBRANCH 103 104
ENDBRANCH  77  98
ENDBRANCH  51  52
ENDBRANCH  44  46
ENDBRANCH  43  44
ENDBRANCH  42  43
ENDBRANCH  41  42
ENDBRANCH  40  41
ENDBRANCH  39  40
ENDBRANCH   1  39
TORSDOF 24
