REMARK SMILES COC(=O)C1=C(C)N(c2ccc(Br)cc2)C(=O)/C1=C\c1ccc(C(=O)OCCOCCOCCOCCOC(=O)c2ccc(-c3c4nc(c(-c5ccc(S(=O)(=O)[O-])cc5)c5ccc([nH]5)c(-c5ccc(S(=O)(=O)[O-])cc5)c5nc(c(-c6ccc(S(=O)(=O)[O-])cc6)c6ccc3[nH]6)C=C5)C=C4)cc2)cc1
REMARK SMILES IDX 32 1 31 2 30 3 29 4 28 5 27 6 26 7 24 8 25 9 23 10 20 11
REMARK SMILES IDX 21 12 102 13 22 14 101 15 19 16 5 17 6 18 18 19 7 20 8 21
REMARK SMILES IDX 16 22 17 23 3 24 4 25 2 26 1 27 9 28 10 29 15 30 11 31 14 32
REMARK SMILES IDX 12 33 13 34 33 35 34 36 35 37 36 38 37 39 38 40 39 41 40 42
REMARK SMILES IDX 41 43 42 44 100 45 43 46 99 47 44 48 45 49 46 50 93 51 47 52
REMARK SMILES IDX 98 53 92 54 94 55 48 56 97 57 91 58 90 59 49 61 79 62 60 63
REMARK SMILES IDX 78 64 61 65 64 66 77 67 95 68 62 69 63 70 76 72 96 73 65 74
REMARK SMILES IDX 50 75 51 76 59 77 52 78 58 79 53 80 54 81 55 82 56 83 57 84
REMARK SMILES IDX 80 85 81 86 89 87 82 88 88 89 83 90 84 91 85 92 86 93 87 94
REMARK SMILES IDX 66 95 67 96 75 97 68 98 74 99 69 100 70 101 71 102 72 103
REMARK SMILES IDX 73 104
REMARK H PARENT 94 60 64 71
REMARK Flexibility Score: inf
ROOT
ATOM      1  O   UNL     1       6.671   4.682   9.729  1.00  0.00    -0.377 OA
ENDROOT
BRANCH   1   2
ATOM      2  C   UNL     1       6.735   5.225   8.418  1.00  0.00     0.188 C 
BRANCH   2   3
ATOM      3  C   UNL     1       6.770   6.755   8.202  1.00  0.00     0.188 C 
BRANCH   3   4
ATOM      4  O   UNL     1       6.861   7.521   9.391  1.00  0.00    -0.376 OA
BRANCH   4   5
ATOM      5  C   UNL     1       5.748   8.306   9.778  1.00  0.00     0.202 C 
BRANCH   5   6
ATOM      6  C   UNL     1       4.462   7.567  10.174  1.00  0.00     0.261 C 
BRANCH   6   7
ATOM      7  O   UNL     1       4.045   6.537   9.272  1.00  0.00    -0.460 OA
BRANCH   7   8
ATOM      8  C   UNL     1       3.569   6.936   8.073  1.00  0.00     0.338 C 
ATOM      9  O   UNL     1       3.458   8.085   7.681  1.00  0.00    -0.246 OA
BRANCH   8  10
ATOM     10  C   UNL     1       3.407   5.737   7.216  1.00  0.00     0.060 A 
ATOM     11  C   UNL     1       2.988   3.572   5.508  1.00  0.00    -0.025 A 
ATOM     12  C   UNL     1       3.529   4.762   5.004  1.00  0.00     0.009 A 
ATOM     13  C   UNL     1       2.766   3.430   6.884  1.00  0.00     0.009 A 
ATOM     14  C   UNL     1       3.729   5.847   5.857  1.00  0.00     0.016 A 
ATOM     15  C   UNL     1       2.972   4.514   7.739  1.00  0.00     0.016 A 
BRANCH  11  16
ATOM     16  C   UNL     1       2.421   2.593   4.576  1.00  0.00     0.023 C 
ATOM     17  C   UNL     1       0.399   1.811   3.280  1.00  0.00     0.092 C 
ATOM     18  C   UNL     1      -0.885   2.235   3.221  1.00  0.00     0.039 C 
ATOM     19  C   UNL     1       1.127   2.653   4.212  1.00  0.00     0.057 C 
ATOM     20  C   UNL     1      -1.942   1.681   2.322  1.00  0.00     0.066 C 
ATOM     21  N   UNL     1      -1.060   3.361   4.029  1.00  0.00    -0.280 N 
ATOM     22  C   UNL     1       0.140   3.687   4.690  1.00  0.00     0.263 C 
ATOM     23  O   UNL     1       0.347   4.595   5.474  1.00  0.00    -0.268 OA
BRANCH  17  24
ATOM     24  C   UNL     1       1.014   0.760   2.450  1.00  0.00     0.340 C 
ATOM     25  O   UNL     1       1.830  -0.053   2.853  1.00  0.00    -0.246 OA
BRANCH  24  26
ATOM     26  O   UNL     1       0.594   0.891   1.165  1.00  0.00    -0.465 OA
ATOM     27  C   UNL     1       1.147  -0.056   0.253  1.00  0.00     0.282 C 
ENDBRANCH  24  26
ENDBRANCH  17  24
BRANCH  21  28
ATOM     28  C   UNL     1      -2.194   4.205   4.166  1.00  0.00     0.049 A 
ATOM     29  C   UNL     1      -2.021   5.599   4.131  1.00  0.00     0.028 A 
ATOM     30  C   UNL     1      -3.486   3.697   4.333  1.00  0.00     0.028 A 
ATOM     31  C   UNL     1      -3.114   6.465   4.194  1.00  0.00     0.018 A 
ATOM     32  C   UNL     1      -4.585   4.562   4.406  1.00  0.00     0.018 A 
ATOM     33  C   UNL     1      -4.394   5.940   4.319  1.00  0.00     0.018 A 
ATOM     34  Br  UNL     1      -5.881   7.105   4.363  1.00  0.00    -0.051 Br
ENDBRANCH  21  28
ENDBRANCH  11  16
ENDBRANCH   8  10
ENDBRANCH   7   8
ENDBRANCH   6   7
ENDBRANCH   5   6
ENDBRANCH   4   5
ENDBRANCH   3   4
ENDBRANCH   2   3
ENDBRANCH   1   2
BRANCH   1  35
ATOM     35  C   UNL     1       7.403   5.288  10.789  1.00  0.00     0.188 C 
BRANCH  35  36
ATOM     36  C   UNL     1       8.791   5.914  10.522  1.00  0.00     0.188 C 
BRANCH  36  37
ATOM     37  O   UNL     1       9.268   5.740   9.196  1.00  0.00    -0.376 OA
BRANCH  37  38
ATOM     38  C   UNL     1      10.314   4.804   9.007  1.00  0.00     0.202 C 
BRANCH  38  39
ATOM     39  C   UNL     1       9.999   3.337   9.328  1.00  0.00     0.261 C 
BRANCH  39  40
ATOM     40  O   UNL     1       9.508   3.064  10.649  1.00  0.00    -0.460 OA
BRANCH  40  41
ATOM     41  C   UNL     1      10.331   3.310  11.692  1.00  0.00     0.338 C 
ATOM     42  O   UNL     1      11.468   3.746  11.648  1.00  0.00    -0.246 OA
BRANCH  41  43
ATOM     43  C   UNL     1       9.534   3.130  12.924  1.00  0.00     0.060 A 
ATOM     44  C   UNL     1       9.323   4.221  13.779  1.00  0.00     0.016 A 
ATOM     45  C   UNL     1       8.961   1.888  13.206  1.00  0.00     0.016 A 
ATOM     46  C   UNL     1       8.548   4.064  14.931  1.00  0.00     0.010 A 
ATOM     47  C   UNL     1       8.207   1.728  14.369  1.00  0.00     0.010 A 
ATOM     48  C   UNL     1       8.015   2.808  15.249  1.00  0.00    -0.014 A 
BRANCH  48  49
ATOM     49  C   UNL     1       7.410   2.562  16.581  1.00  0.00     0.031 A 
ATOM     50  C   UNL     1       8.266   1.924  17.641  1.00  0.00     0.074 A 
ATOM     51  C   UNL     1       6.128   2.874  16.840  1.00  0.00     0.049 A 
ATOM     52  N   UNL     1       7.938   1.522  18.840  1.00  0.00    -0.248 NA
ATOM     53  C   UNL     1       9.681   1.706  17.296  1.00  0.00     0.031 C 
ATOM     54  C   UNL     1       5.211   3.535  15.913  1.00  0.00     0.029 A 
ATOM     55  N   UNL     1       5.371   2.656  17.965  1.00  0.00    -0.354 N 
ATOM     56  C   UNL     1       9.099   0.991  19.389  1.00  0.00     0.074 A 
ATOM     57  C   UNL     1      10.133   1.100  18.384  1.00  0.00     0.031 C 
ATOM     58  C   UNL     1       4.008   3.656  16.503  1.00  0.00     0.029 A 
ATOM     59  C   UNL     1       4.058   3.043  17.830  1.00  0.00     0.049 A 
ATOM     60  H   UNL     1       5.734   2.260  18.791  1.00  0.00     0.167 HD
ATOM     61  C   UNL     1       9.288   0.460  20.620  1.00  0.00     0.031 A 
ATOM     62  C   UNL     1       3.012   2.889  18.668  1.00  0.00     0.031 A 
ATOM     63  C   UNL     1       8.251   0.335  21.608  1.00  0.00     0.049 A 
ATOM     64  C   UNL     1       3.225   2.213  20.000  1.00  0.00     0.074 A 
ATOM     65  C   UNL     1       8.345  -0.173  22.891  1.00  0.00     0.029 A 
ATOM     66  N   UNL     1       6.929   0.709  21.421  1.00  0.00    -0.354 N 
ATOM     67  N   UNL     1       4.335   1.743  20.519  1.00  0.00    -0.248 NA
ATOM     68  C   UNL     1       2.043   2.046  20.859  1.00  0.00     0.031 C 
ATOM     69  C   UNL     1       7.066  -0.170  23.455  1.00  0.00     0.029 A 
ATOM     70  C   UNL     1       6.189   0.409  22.551  1.00  0.00     0.049 A 
ATOM     71  H   UNL     1       6.570   1.125  20.604  1.00  0.00     0.167 HD
ATOM     72  C   UNL     1       3.990   1.253  21.776  1.00  0.00     0.074 A 
ATOM     73  C   UNL     1       2.572   1.494  21.944  1.00  0.00     0.031 C 
ATOM     74  C   UNL     1       4.777   0.658  22.707  1.00  0.00     0.031 A 
BRANCH  61  75
ATOM     75  C   UNL     1      10.660  -0.067  20.948  1.00  0.00    -0.014 A 
ATOM     76  C   UNL     1      11.751   0.801  21.136  1.00  0.00     0.010 A 
ATOM     77  C   UNL     1      10.851  -1.451  21.108  1.00  0.00     0.010 A 
ATOM     78  C   UNL     1      13.016   0.290  21.441  1.00  0.00     0.020 A 
ATOM     79  C   UNL     1      12.107  -1.964  21.443  1.00  0.00     0.020 A 
ATOM     80  C   UNL     1      13.185  -1.090  21.593  1.00  0.00     0.054 A 
BRANCH  80  81
ATOM     81  S   UNL     1      14.832  -1.722  22.015  1.00  0.00     0.124 S 
ATOM     82  O   UNL     1      15.568  -1.500  20.773  1.00  0.00    -0.237 OA
ATOM     83  O   UNL     1      15.221  -0.871  23.137  1.00  0.00    -0.237 OA
ATOM     84  O   UNL     1      14.591  -3.123  22.354  1.00  0.00    -0.744 OA
ENDBRANCH  80  81
ENDBRANCH  61  75
BRANCH  62  85
ATOM     85  C   UNL     1       1.656   3.357  18.263  1.00  0.00    -0.014 A 
ATOM     86  C   UNL     1       1.038   4.432  18.925  1.00  0.00     0.010 A 
ATOM     87  C   UNL     1       0.969   2.719  17.213  1.00  0.00     0.010 A 
ATOM     88  C   UNL     1      -0.245   4.851  18.555  1.00  0.00     0.020 A 
ATOM     89  C   UNL     1      -0.300   3.153  16.820  1.00  0.00     0.020 A 
ATOM     90  C   UNL     1      -0.904   4.211  17.502  1.00  0.00     0.054 A 
BRANCH  90  91
ATOM     91  S   UNL     1      -2.546   4.805  17.009  1.00  0.00     0.124 S 
ATOM     92  O   UNL     1      -3.377   4.368  18.126  1.00  0.00    -0.237 OA
ATOM     93  O   UNL     1      -2.337   6.247  16.900  1.00  0.00    -0.237 OA
ATOM     94  O   UNL     1      -2.791   4.121  15.741  1.00  0.00    -0.744 OA
ENDBRANCH  90  91
ENDBRANCH  62  85
BRANCH  74  95
ATOM     95  C   UNL     1       4.141   0.254  24.012  1.00  0.00    -0.014 A 
ATOM     96  C   UNL     1       3.261  -0.839  24.091  1.00  0.00     0.010 A 
ATOM     97  C   UNL     1       4.499   0.930  25.195  1.00  0.00     0.010 A 
ATOM     98  C   UNL     1       2.736  -1.237  25.324  1.00  0.00     0.020 A 
ATOM     99  C   UNL     1       4.000   0.517  26.433  1.00  0.00     0.020 A 
ATOM    100  C   UNL     1       3.114  -0.559  26.488  1.00  0.00     0.054 A 
BRANCH 100 101
ATOM    101  S   UNL     1       2.470  -1.138  28.082  1.00  0.00     0.124 S 
ATOM    102  O   UNL     1       1.067  -0.738  28.008  1.00  0.00    -0.237 OA
ATOM    103  O   UNL     1       2.717  -2.577  28.023  1.00  0.00    -0.237 OA
ATOM    104  O   UNL     1       3.272  -0.414  29.066  1.00  0.00    -0.744 OA
ENDBRANCH 100 101
ENDBRANCH  74  95
ENDBRANCH  48  49
ENDBRANCH  41  43
ENDBRANCH  40  41
ENDBRANCH  39  40
ENDBRANCH  38  39
ENDBRANCH  37  38
ENDBRANCH  36  37
ENDBRANCH  35  36
ENDBRANCH   1  35
TORSDOF 27
