REMARK SMILES COc1cccc(/C=C2/C(=O)N(c3cccc(C(=O)OCCOCCOCCOCCOC(=O)c4ccc(-c5c6nc(c(-c7ccc(S(=O)(=O)[O-])cc7)c7ccc([nH]7)c(-c7ccc(S(=O)(=O)[O-])cc7)c7nc(c(-c8ccc(S(=O)(=O)[O-])cc8)c8ccc5[nH]8)C=C7)C=C6)cc4)c3)N=C2C)c1
REMARK SMILES IDX 26 1 25 2 24 3 23 4 22 5 21 6 20 7 18 8 19 9 17 10 13 11
REMARK SMILES IDX 14 12 95 13 15 14 16 15 12 16 8 17 9 18 10 19 97 20 11 21
REMARK SMILES IDX 96 22 98 23 7 24 3 25 4 26 99 27 5 28 6 29 2 30 1 31 27 32
REMARK SMILES IDX 28 33 29 34 30 35 31 36 32 37 33 38 34 39 35 40 36 41 94 42
REMARK SMILES IDX 37 43 93 44 38 45 39 46 40 47 87 48 41 49 92 50 86 51 88 52
REMARK SMILES IDX 42 53 91 54 85 55 84 56 43 58 73 59 54 60 72 61 55 62 58 63
REMARK SMILES IDX 71 64 89 65 56 66 57 67 70 69 90 70 59 71 44 72 45 73 53 74
REMARK SMILES IDX 46 75 52 76 47 77 48 78 49 79 50 80 51 81 74 82 75 83 83 84
REMARK SMILES IDX 76 85 82 86 77 87 78 88 79 89 80 90 81 91 60 92 61 93 69 94
REMARK SMILES IDX 62 95 68 96 63 97 64 98 65 99 66 100 67 101
REMARK H PARENT 88 57 58 68
REMARK Flexibility Score: inf
ROOT
ATOM      1  O   UNL     1      10.641  -0.728  -0.479  1.00  0.00    -0.377 OA
ENDROOT
BRANCH   1   2
ATOM      2  C   UNL     1      11.350  -0.343  -1.647  1.00  0.00     0.188 C 
BRANCH   2   3
ATOM      3  C   UNL     1      12.774   0.244  -1.531  1.00  0.00     0.188 C 
BRANCH   3   4
ATOM      4  O   UNL     1      13.326   0.183  -0.230  1.00  0.00    -0.376 OA
BRANCH   4   5
ATOM      5  C   UNL     1      13.457   1.368   0.530  1.00  0.00     0.202 C 
BRANCH   5   6
ATOM      6  C   UNL     1      12.226   2.248   0.790  1.00  0.00     0.261 C 
BRANCH   6   7
ATOM      7  O   UNL     1      11.342   2.448  -0.319  1.00  0.00    -0.460 OA
BRANCH   7   8
ATOM      8  C   UNL     1      11.724   3.308  -1.291  1.00  0.00     0.338 C 
ATOM      9  O   UNL     1      12.763   3.939  -1.348  1.00  0.00    -0.246 OA
BRANCH   8  10
ATOM     10  C   UNL     1      10.767   3.133  -2.411  1.00  0.00     0.062 A 
ATOM     11  C   UNL     1       8.504   2.737  -3.194  1.00  0.00     0.070 A 
ATOM     12  C   UNL     1       9.020   2.378  -4.447  1.00  0.00     0.028 A 
ATOM     13  C   UNL     1       9.390   3.096  -2.171  1.00  0.00     0.044 A 
ATOM     14  C   UNL     1      10.392   2.461  -4.702  1.00  0.00     0.003 A 
ATOM     15  C   UNL     1      11.266   2.855  -3.688  1.00  0.00     0.016 A 
BRANCH  11  16
ATOM     16  N   UNL     1       7.113   2.750  -2.971  1.00  0.00    -0.196 N 
ATOM     17  C   UNL     1       4.054   3.787  -1.562  1.00  0.00     0.024 C 
ATOM     18  C   UNL     1       5.028   3.172  -2.246  1.00  0.00     0.065 C 
ATOM     19  C   UNL     1       6.442   3.540  -2.035  1.00  0.00     0.280 C 
ATOM     20  C   UNL     1       5.072   2.138  -3.298  1.00  0.00     0.071 C 
ATOM     21  O   UNL     1       6.853   4.390  -1.256  1.00  0.00    -0.267 OA
ATOM     22  N   UNL     1       6.288   1.933  -3.737  1.00  0.00    -0.169 NA
ATOM     23  C   UNL     1       3.893   1.383  -3.815  1.00  0.00     0.069 C 
BRANCH  17  24
ATOM     24  C   UNL     1       2.631   3.495  -1.680  1.00  0.00    -0.021 A 
ATOM     25  C   UNL     1       0.788   1.961  -1.339  1.00  0.00     0.119 A 
ATOM     26  C   UNL     1      -0.056   2.851  -2.007  1.00  0.00     0.046 A 
ATOM     27  C   UNL     1       2.128   2.296  -1.161  1.00  0.00     0.054 A 
ATOM     28  C   UNL     1       0.428   4.075  -2.476  1.00  0.00     0.004 A 
ATOM     29  C   UNL     1       1.774   4.397  -2.316  1.00  0.00     0.008 A 
BRANCH  25  30
ATOM     30  O   UNL     1       0.210   0.783  -0.954  1.00  0.00    -0.497 OA
ATOM     31  C   UNL     1       0.894   0.045   0.055  1.00  0.00     0.278 C 
ENDBRANCH  25  30
ENDBRANCH  17  24
ENDBRANCH  11  16
ENDBRANCH   8  10
ENDBRANCH   7   8
ENDBRANCH   6   7
ENDBRANCH   5   6
ENDBRANCH   4   5
ENDBRANCH   3   4
ENDBRANCH   2   3
ENDBRANCH   1   2
BRANCH   1  32
ATOM     32  C   UNL     1      11.303  -1.428   0.569  1.00  0.00     0.188 C 
BRANCH  32  33
ATOM     33  C   UNL     1      12.493  -2.372   0.277  1.00  0.00     0.188 C 
BRANCH  33  34
ATOM     34  O   UNL     1      12.787  -2.542  -1.100  1.00  0.00    -0.376 OA
BRANCH  34  35
ATOM     35  C   UNL     1      12.450  -3.778  -1.700  1.00  0.00     0.202 C 
BRANCH  35  36
ATOM     36  C   UNL     1      10.968  -4.179  -1.718  1.00  0.00     0.261 C 
BRANCH  36  37
ATOM     37  O   UNL     1      10.277  -4.136  -0.461  1.00  0.00    -0.460 OA
BRANCH  37  38
ATOM     38  C   UNL     1      10.655  -5.024   0.485  1.00  0.00     0.338 C 
ATOM     39  O   UNL     1      11.531  -5.864   0.396  1.00  0.00    -0.246 OA
BRANCH  38  40
ATOM     40  C   UNL     1       9.938  -4.672   1.730  1.00  0.00     0.060 A 
ATOM     41  C   UNL     1      10.671  -4.282   2.858  1.00  0.00     0.016 A 
ATOM     42  C   UNL     1       8.543  -4.710   1.769  1.00  0.00     0.016 A 
ATOM     43  C   UNL     1      10.007  -3.954   4.042  1.00  0.00     0.010 A 
ATOM     44  C   UNL     1       7.882  -4.403   2.961  1.00  0.00     0.010 A 
ATOM     45  C   UNL     1       8.612  -4.054   4.111  1.00  0.00    -0.014 A 
BRANCH  45  46
ATOM     46  C   UNL     1       7.927  -3.979   5.425  1.00  0.00     0.031 A 
ATOM     47  C   UNL     1       7.544  -5.267   6.103  1.00  0.00     0.074 A 
ATOM     48  C   UNL     1       7.655  -2.797   6.008  1.00  0.00     0.049 A 
ATOM     49  N   UNL     1       6.888  -5.453   7.218  1.00  0.00    -0.248 NA
ATOM     50  C   UNL     1       7.952  -6.511   5.429  1.00  0.00     0.031 C 
ATOM     51  C   UNL     1       8.014  -1.485   5.474  1.00  0.00     0.029 A 
ATOM     52  N   UNL     1       7.001  -2.515   7.183  1.00  0.00    -0.354 N 
ATOM     53  C   UNL     1       6.791  -6.832   7.372  1.00  0.00     0.074 A 
ATOM     54  C   UNL     1       7.433  -7.434   6.224  1.00  0.00     0.031 C 
ATOM     55  C   UNL     1       7.563  -0.535   6.313  1.00  0.00     0.029 A 
ATOM     56  C   UNL     1       6.851  -1.169   7.421  1.00  0.00     0.049 A 
ATOM     57  H   UNL     1       6.670  -3.211   7.796  1.00  0.00     0.167 HD
ATOM     58  C   UNL     1       6.221  -7.533   8.379  1.00  0.00     0.031 A 
ATOM     59  C   UNL     1       6.190  -0.525   8.405  1.00  0.00     0.031 A 
ATOM     60  C   UNL     1       5.574  -6.928   9.513  1.00  0.00     0.049 A 
ATOM     61  C   UNL     1       5.498  -1.329   9.478  1.00  0.00     0.074 A 
ATOM     62  C   UNL     1       4.987  -7.553  10.599  1.00  0.00     0.029 A 
ATOM     63  N   UNL     1       5.420  -5.564   9.704  1.00  0.00    -0.354 N 
ATOM     64  N   UNL     1       5.443  -2.632   9.628  1.00  0.00    -0.248 NA
ATOM     65  C   UNL     1       4.786  -0.575  10.520  1.00  0.00     0.031 C 
ATOM     66  C   UNL     1       4.414  -6.569  11.410  1.00  0.00     0.029 A 
ATOM     67  C   UNL     1       4.715  -5.328  10.872  1.00  0.00     0.049 A 
ATOM     68  H   UNL     1       5.761  -4.866   9.099  1.00  0.00     0.167 HD
ATOM     69  C   UNL     1       4.721  -2.850  10.798  1.00  0.00     0.074 A 
ATOM     70  C   UNL     1       4.373  -1.546  11.323  1.00  0.00     0.031 C 
ATOM     71  C   UNL     1       4.378  -4.024  11.386  1.00  0.00     0.031 A 
BRANCH  58  72
ATOM     72  C   UNL     1       6.231  -9.036   8.282  1.00  0.00    -0.014 A 
ATOM     73  C   UNL     1       7.419  -9.774   8.430  1.00  0.00     0.010 A 
ATOM     74  C   UNL     1       5.017  -9.724   8.097  1.00  0.00     0.010 A 
ATOM     75  C   UNL     1       7.396 -11.170   8.368  1.00  0.00     0.020 A 
ATOM     76  C   UNL     1       4.985 -11.120   8.065  1.00  0.00     0.020 A 
ATOM     77  C   UNL     1       6.178 -11.834   8.189  1.00  0.00     0.054 A 
BRANCH  77  78
ATOM     78  S   UNL     1       6.173 -13.648   8.159  1.00  0.00     0.124 S 
ATOM     79  O   UNL     1       6.835 -13.930   6.887  1.00  0.00    -0.237 OA
ATOM     80  O   UNL     1       6.940 -13.988   9.355  1.00  0.00    -0.237 OA
ATOM     81  O   UNL     1       4.755 -13.993   8.211  1.00  0.00    -0.744 OA
ENDBRANCH  77  78
ENDBRANCH  58  72
BRANCH  59  82
ATOM     82  C   UNL     1       6.117   0.964   8.408  1.00  0.00    -0.014 A 
ATOM     83  C   UNL     1       6.739   1.717   9.419  1.00  0.00     0.010 A 
ATOM     84  C   UNL     1       5.401   1.638   7.401  1.00  0.00     0.010 A 
ATOM     85  C   UNL     1       6.625   3.112   9.438  1.00  0.00     0.020 A 
ATOM     86  C   UNL     1       5.314   3.033   7.396  1.00  0.00     0.020 A 
ATOM     87  C   UNL     1       5.915   3.760   8.424  1.00  0.00     0.054 A 
BRANCH  87  88
ATOM     88  S   UNL     1       5.813   5.572   8.448  1.00  0.00     0.124 S 
ATOM     89  O   UNL     1       4.925   5.811   9.580  1.00  0.00    -0.237 OA
ATOM     90  O   UNL     1       7.207   5.961   8.642  1.00  0.00    -0.237 OA
ATOM     91  O   UNL     1       5.259   5.901   7.136  1.00  0.00    -0.744 OA
ENDBRANCH  87  88
ENDBRANCH  59  82
BRANCH  71  92
ATOM     92  C   UNL     1       3.625  -3.961  12.691  1.00  0.00    -0.014 A 
ATOM     93  C   UNL     1       2.288  -3.530  12.751  1.00  0.00     0.010 A 
ATOM     94  C   UNL     1       4.253  -4.403  13.871  1.00  0.00     0.010 A 
ATOM     95  C   UNL     1       1.605  -3.510  13.971  1.00  0.00     0.020 A 
ATOM     96  C   UNL     1       3.564  -4.416  15.086  1.00  0.00     0.020 A 
ATOM     97  C   UNL     1       2.248  -3.955  15.131  1.00  0.00     0.054 A 
BRANCH  97  98
ATOM     98  S   UNL     1       1.325  -3.958  16.692  1.00  0.00     0.124 S 
ATOM     99  O   UNL     1       1.224  -2.532  16.989  1.00  0.00    -0.237 OA
ATOM    100  O   UNL     1       0.073  -4.613  16.322  1.00  0.00    -0.237 OA
ATOM    101  O   UNL     1       2.178  -4.724  17.599  1.00  0.00    -0.744 OA
ENDBRANCH  97  98
ENDBRANCH  71  92
ENDBRANCH  45  46
ENDBRANCH  38  40
ENDBRANCH  37  38
ENDBRANCH  36  37
ENDBRANCH  35  36
ENDBRANCH  34  35
ENDBRANCH  33  34
ENDBRANCH  32  33
ENDBRANCH   1  32
TORSDOF 26
