REMARK SMILES CC[C@](C)(NC(=O)N1CC[C@@H]([NH+]2CCCCC2)C1)C(=O)OCCOCCOCCOCCOC(=O)c1ccc(-c2c3nc(c(-c4ccc(S(=O)(=O)[O-])cc4)c4ccc([nH]4)c(-c4ccc(S(=O)(=O)[O-])cc4)c4nc(c(-c5ccc(S(=O)(=O)[O-])cc5)c5ccc2[nH]5)C=C4)C=C3)cc1
REMARK SMILES IDX 27 1 26 2 25 3 24 4 23 5 22 6 21 7 19 8 20 9 3 10 4 11 2 12
REMARK SMILES IDX 1 13 5 14 6 15 7 17 8 18 9 19 18 20 10 21 11 22 12 23 13 24
REMARK SMILES IDX 17 25 14 27 16 28 15 29 28 30 29 31 30 32 31 33 32 34 33 35
REMARK SMILES IDX 34 36 35 37 36 38 37 39 95 40 38 41 94 42 39 43 40 44 41 45
REMARK SMILES IDX 88 46 42 47 93 48 87 49 89 50 43 51 92 52 86 53 85 54 44 56
REMARK SMILES IDX 74 57 55 58 73 59 56 60 59 61 72 62 90 63 57 64 58 65 71 67
REMARK SMILES IDX 91 68 60 69 45 70 46 71 54 72 47 73 53 74 48 75 49 76 50 77
REMARK SMILES IDX 51 78 52 79 75 80 76 81 84 82 77 83 83 84 78 85 79 86 80 87
REMARK SMILES IDX 81 88 82 89 61 90 62 91 70 92 63 93 69 94 64 95 65 96 66 97
REMARK SMILES IDX 67 98 68 99
REMARK H PARENT 5 16 12 26 89 55 59 66
REMARK Flexibility Score: inf
ROOT
ATOM      1  O   UNL     1       2.723  -3.437  -2.975  1.00  0.00    -0.377 OA
ENDROOT
BRANCH   1   2
ATOM      2  C   UNL     1       2.887  -2.196  -3.650  1.00  0.00     0.188 C 
BRANCH   2   3
ATOM      3  C   UNL     1       3.327  -1.098  -2.666  1.00  0.00     0.188 C 
BRANCH   3   4
ATOM      4  O   UNL     1       4.615  -1.353  -2.084  1.00  0.00    -0.376 OA
BRANCH   4   5
ATOM      5  C   UNL     1       4.992  -0.395  -1.088  1.00  0.00     0.202 C 
BRANCH   5   6
ATOM      6  C   UNL     1       4.530  -0.668   0.359  1.00  0.00     0.261 C 
BRANCH   6   7
ATOM      7  O   UNL     1       3.388  -1.530   0.450  1.00  0.00    -0.462 OA
BRANCH   7   8
ATOM      8  C   UNL     1       2.172  -0.958   0.499  1.00  0.00     0.331 C 
ATOM      9  O   UNL     1       2.025   0.259   0.612  1.00  0.00    -0.249 OA
BRANCH   8  10
ATOM     10  C   UNL     1       0.972  -1.971   0.459  1.00  0.00     0.136 C 
ATOM     11  C   UNL     1      -0.152  -1.162  -0.247  1.00  0.00     0.047 C 
BRANCH  10  12
ATOM     12  C   UNL     1       0.489  -2.334   1.895  1.00  0.00     0.037 C 
ATOM     13  C   UNL     1       0.847  -1.361   3.007  1.00  0.00     0.007 C 
ENDBRANCH  10  12
BRANCH  10  14
ATOM     14  N   UNL     1       1.060  -3.247  -0.321  1.00  0.00    -0.322 N 
ATOM     15  C   UNL     1       1.738  -4.395  -0.037  1.00  0.00     0.318 C 
ATOM     16  H   UNL     1       0.552  -3.258  -1.164  1.00  0.00     0.166 HD
ATOM     17  O   UNL     1       1.215  -5.481  -0.268  1.00  0.00    -0.249 OA
BRANCH  15  18
ATOM     18  N   UNL     1       2.986  -4.245   0.461  1.00  0.00    -0.319 N 
ATOM     19  C   UNL     1       3.497  -4.897   1.635  1.00  0.00     0.128 C 
ATOM     20  C   UNL     1       4.075  -4.125  -0.482  1.00  0.00     0.186 C 
ATOM     21  C   UNL     1       4.835  -4.187   1.768  1.00  0.00     0.088 C 
ATOM     22  C   UNL     1       5.379  -4.106   0.322  1.00  0.00     0.205 C 
BRANCH  22  23
ATOM     23  N   UNL     1       6.296  -5.100  -0.267  1.00  0.00    -0.331 N 
ATOM     24  C   UNL     1       6.314  -6.424   0.332  1.00  0.00     0.262 C 
ATOM     25  C   UNL     1       7.671  -4.624  -0.402  1.00  0.00     0.262 C 
ATOM     26  H   UNL     1       5.872  -5.214  -1.187  1.00  0.00     0.348 HD
ATOM     27  C   UNL     1       6.980  -6.493   1.703  1.00  0.00     0.062 C 
ATOM     28  C   UNL     1       8.284  -4.347   0.960  1.00  0.00     0.062 C 
ATOM     29  C   UNL     1       8.127  -5.504   1.949  1.00  0.00     0.012 C 
ENDBRANCH  22  23
ENDBRANCH  15  18
ENDBRANCH  10  14
ENDBRANCH   8  10
ENDBRANCH   7   8
ENDBRANCH   6   7
ENDBRANCH   5   6
ENDBRANCH   4   5
ENDBRANCH   3   4
ENDBRANCH   2   3
ENDBRANCH   1   2
BRANCH   1  30
ATOM     30  C   UNL     1       3.188  -4.610  -3.644  1.00  0.00     0.188 C 
BRANCH  30  31
ATOM     31  C   UNL     1       4.623  -4.497  -4.184  1.00  0.00     0.188 C 
BRANCH  31  32
ATOM     32  O   UNL     1       4.762  -4.124  -5.564  1.00  0.00    -0.376 OA
BRANCH  32  33
ATOM     33  C   UNL     1       3.704  -4.471  -6.450  1.00  0.00     0.202 C 
BRANCH  33  34
ATOM     34  C   UNL     1       3.480  -5.963  -6.754  1.00  0.00     0.261 C 
BRANCH  34  35
ATOM     35  O   UNL     1       3.812  -6.864  -5.684  1.00  0.00    -0.460 OA
BRANCH  35  36
ATOM     36  C   UNL     1       5.076  -7.346  -5.743  1.00  0.00     0.338 C 
ATOM     37  O   UNL     1       5.909  -7.092  -6.613  1.00  0.00    -0.246 OA
BRANCH  36  38
ATOM     38  C   UNL     1       5.402  -8.163  -4.555  1.00  0.00     0.060 A 
ATOM     39  C   UNL     1       6.654  -7.968  -3.956  1.00  0.00     0.016 A 
ATOM     40  C   UNL     1       4.562  -9.183  -4.098  1.00  0.00     0.016 A 
ATOM     41  C   UNL     1       7.103  -8.838  -2.962  1.00  0.00     0.010 A 
ATOM     42  C   UNL     1       5.018 -10.064  -3.104  1.00  0.00     0.010 A 
ATOM     43  C   UNL     1       6.314  -9.930  -2.572  1.00  0.00    -0.014 A 
BRANCH  43  44
ATOM     44  C   UNL     1       6.959 -11.045  -1.824  1.00  0.00     0.031 A 
ATOM     45  C   UNL     1       7.541 -12.185  -2.616  1.00  0.00     0.074 A 
ATOM     46  C   UNL     1       7.105 -11.028  -0.486  1.00  0.00     0.049 A 
ATOM     47  N   UNL     1       8.190 -13.239  -2.194  1.00  0.00    -0.248 NA
ATOM     48  C   UNL     1       7.361 -12.133  -4.077  1.00  0.00     0.031 C 
ATOM     49  C   UNL     1       6.588  -9.993   0.398  1.00  0.00     0.029 A 
ATOM     50  N   UNL     1       7.742 -11.902   0.363  1.00  0.00    -0.354 N 
ATOM     51  C   UNL     1       8.493 -13.975  -3.333  1.00  0.00     0.074 A 
ATOM     52  C   UNL     1       7.932 -13.264  -4.460  1.00  0.00     0.031 C 
ATOM     53  C   UNL     1       6.958 -10.265   1.661  1.00  0.00     0.029 A 
ATOM     54  C   UNL     1       7.698 -11.523   1.686  1.00  0.00     0.049 A 
ATOM     55  H   UNL     1       8.188 -12.723   0.054  1.00  0.00     0.167 HD
ATOM     56  C   UNL     1       9.182 -15.135  -3.435  1.00  0.00     0.031 A 
ATOM     57  C   UNL     1       8.175 -12.128   2.794  1.00  0.00     0.031 A 
ATOM     58  C   UNL     1       9.720 -15.861  -2.317  1.00  0.00     0.049 A 
ATOM     59  C   UNL     1       8.889 -13.450   2.656  1.00  0.00     0.074 A 
ATOM     60  C   UNL     1      10.418 -17.057  -2.324  1.00  0.00     0.029 A 
ATOM     61  N   UNL     1       9.620 -15.465  -0.992  1.00  0.00    -0.354 N 
ATOM     62  N   UNL     1       9.176 -14.123   1.568  1.00  0.00    -0.248 NA
ATOM     63  C   UNL     1       9.334 -14.097   3.899  1.00  0.00     0.031 C 
ATOM     64  C   UNL     1      10.693 -17.411  -1.000  1.00  0.00     0.029 A 
ATOM     65  C   UNL     1      10.226 -16.403  -0.172  1.00  0.00     0.049 A 
ATOM     66  H   UNL     1       9.183 -14.640  -0.680  1.00  0.00     0.167 HD
ATOM     67  C   UNL     1       9.847 -15.265   1.995  1.00  0.00     0.074 A 
ATOM     68  C   UNL     1       9.954 -15.173   3.436  1.00  0.00     0.031 C 
ATOM     69  C   UNL     1      10.322 -16.303   1.262  1.00  0.00     0.031 A 
BRANCH  56  70
ATOM     70  C   UNL     1       9.369 -15.707  -4.814  1.00  0.00    -0.014 A 
ATOM     71  C   UNL     1      10.250 -15.108  -5.733  1.00  0.00     0.010 A 
ATOM     72  C   UNL     1       8.688 -16.882  -5.180  1.00  0.00     0.010 A 
ATOM     73  C   UNL     1      10.432 -15.664  -7.001  1.00  0.00     0.020 A 
ATOM     74  C   UNL     1       8.889 -17.456  -6.438  1.00  0.00     0.020 A 
ATOM     75  C   UNL     1       9.753 -16.838  -7.344  1.00  0.00     0.054 A 
BRANCH  75  76
ATOM     76  S   UNL     1      10.050 -17.565  -8.978  1.00  0.00     0.124 S 
ATOM     77  O   UNL     1       9.381 -16.611  -9.860  1.00  0.00    -0.237 OA
ATOM     78  O   UNL     1      11.508 -17.580  -9.060  1.00  0.00    -0.237 OA
ATOM     79  O   UNL     1       9.419 -18.880  -8.893  1.00  0.00    -0.744 OA
ENDBRANCH  75  76
ENDBRANCH  56  70
BRANCH  57  80
ATOM     80  C   UNL     1       7.953 -11.531   4.146  1.00  0.00    -0.014 A 
ATOM     81  C   UNL     1       9.033 -11.105   4.942  1.00  0.00     0.010 A 
ATOM     82  C   UNL     1       6.649 -11.435   4.667  1.00  0.00     0.010 A 
ATOM     83  C   UNL     1       8.816 -10.628   6.240  1.00  0.00     0.020 A 
ATOM     84  C   UNL     1       6.425 -10.925   5.949  1.00  0.00     0.020 A 
ATOM     85  C   UNL     1       7.512 -10.542   6.736  1.00  0.00     0.054 A 
BRANCH  85  86
ATOM     86  S   UNL     1       7.246  -9.898   8.411  1.00  0.00     0.124 S 
ATOM     87  O   UNL     1       7.695 -11.011   9.241  1.00  0.00    -0.237 OA
ATOM     88  O   UNL     1       8.095  -8.709   8.431  1.00  0.00    -0.237 OA
ATOM     89  O   UNL     1       5.810  -9.627   8.449  1.00  0.00    -0.744 OA
ENDBRANCH  85  86
ENDBRANCH  57  80
BRANCH  69  90
ATOM     90  C   UNL     1      11.031 -17.406   2.005  1.00  0.00    -0.014 A 
ATOM     91  C   UNL     1      10.331 -18.287   2.849  1.00  0.00     0.010 A 
ATOM     92  C   UNL     1      12.417 -17.578   1.835  1.00  0.00     0.010 A 
ATOM     93  C   UNL     1      11.013 -19.284   3.552  1.00  0.00     0.020 A 
ATOM     94  C   UNL     1      13.097 -18.595   2.511  1.00  0.00     0.020 A 
ATOM     95  C   UNL     1      12.394 -19.427   3.383  1.00  0.00     0.054 A 
BRANCH  95  96
ATOM     96  S   UNL     1      13.256 -20.733   4.301  1.00  0.00     0.124 S 
ATOM     97  O   UNL     1      13.273 -20.190   5.656  1.00  0.00    -0.237 OA
ATOM     98  O   UNL     1      12.392 -21.893   4.099  1.00  0.00    -0.237 OA
ATOM     99  O   UNL     1      14.560 -20.813   3.646  1.00  0.00    -0.744 OA
ENDBRANCH  95  96
ENDBRANCH  69  90
ENDBRANCH  43  44
ENDBRANCH  36  38
ENDBRANCH  35  36
ENDBRANCH  34  35
ENDBRANCH  33  34
ENDBRANCH  32  33
ENDBRANCH  31  32
ENDBRANCH  30  31
ENDBRANCH   1  30
TORSDOF 27
