REMARK SMILES Cc1noc(-c2ccc(CCl)cc2)c1C(=O)OCCOCCOCCOCCOC(=O)c1ccc(-c2c3nc(c(-c4ccc(S(=O)(=O)[O-])cc4)c4ccc([nH]4)c(-c4ccc(S(=O)(=O)[O-])cc4)c4nc(c(-c5ccc(S(=O)(=O)[O-])cc5)c5ccc2[nH]5)C=C4)C=C3)cc1
REMARK SMILES IDX 24 1 23 2 22 3 21 4 20 5 19 6 18 7 17 8 15 9 16 10 14 11
REMARK SMILES IDX 1 12 2 13 3 14 4 15 5 16 6 17 7 18 13 19 8 20 12 21 9 22
REMARK SMILES IDX 10 23 11 24 25 25 26 26 27 27 28 28 29 29 30 30 31 31 32 32
REMARK SMILES IDX 33 33 91 34 34 35 90 36 35 37 36 38 37 39 84 40 38 41 89 42
REMARK SMILES IDX 83 43 85 44 39 45 88 46 82 47 81 48 40 50 70 51 51 52 69 53
REMARK SMILES IDX 52 54 55 55 68 56 86 57 53 58 54 59 67 61 87 62 56 63 41 64
REMARK SMILES IDX 42 65 50 66 43 67 49 68 44 69 45 70 46 71 47 72 48 73 71 74
REMARK SMILES IDX 72 75 80 76 73 77 79 78 74 79 75 80 76 81 77 82 78 83 57 84
REMARK SMILES IDX 58 85 66 86 59 87 65 88 60 89 61 90 62 91 63 92 64 93
REMARK H PARENT 85 49 55 60
REMARK Flexibility Score: inf
ROOT
ATOM      1  C   UNL     1       2.199  -4.267   3.060  1.00  0.00     0.188 C 
ENDROOT
BRANCH   1   2
ATOM      2  O   UNL     1       1.708  -3.144   2.341  1.00  0.00    -0.377 OA
BRANCH   2   3
ATOM      3  C   UNL     1       0.352  -3.110   1.941  1.00  0.00     0.188 C 
BRANCH   3   4
ATOM      4  C   UNL     1      -0.186  -4.302   1.138  1.00  0.00     0.188 C 
BRANCH   4   5
ATOM      5  O   UNL     1       0.837  -5.142   0.607  1.00  0.00    -0.376 OA
BRANCH   5   6
ATOM      6  C   UNL     1       0.964  -5.116  -0.811  1.00  0.00     0.202 C 
BRANCH   6   7
ATOM      7  C   UNL     1       1.911  -4.016  -1.301  1.00  0.00     0.261 C 
BRANCH   7   8
ATOM      8  O   UNL     1       1.490  -2.681  -0.979  1.00  0.00    -0.459 OA
BRANCH   8   9
ATOM      9  C   UNL     1       0.333  -2.228  -1.524  1.00  0.00     0.344 C 
ATOM     10  O   UNL     1      -0.352  -2.858  -2.320  1.00  0.00    -0.246 OA
BRANCH   9  11
ATOM     11  C   UNL     1      -0.055  -0.955  -0.967  1.00  0.00     0.130 A 
ATOM     12  C   UNL     1       2.211   0.304  -0.515  1.00  0.00     0.071 C 
ATOM     13  C   UNL     1       0.735   0.141  -0.517  1.00  0.00     0.096 A 
ATOM     14  N   UNL     1      -0.031   1.121  -0.018  1.00  0.00    -0.084 NA
ATOM     15  O   UNL     1      -1.325   0.638  -0.041  1.00  0.00    -0.355 OA
ATOM     16  C   UNL     1      -1.335  -0.609  -0.581  1.00  0.00     0.181 A 
BRANCH  16  17
ATOM     17  C   UNL     1      -2.591  -1.323  -0.460  1.00  0.00     0.021 A 
ATOM     18  C   UNL     1      -3.403  -1.569  -1.567  1.00  0.00     0.012 A 
ATOM     19  C   UNL     1      -2.977  -1.818   0.794  1.00  0.00     0.012 A 
ATOM     20  C   UNL     1      -4.577  -2.319  -1.425  1.00  0.00     0.006 A 
ATOM     21  C   UNL     1      -4.137  -2.583   0.934  1.00  0.00     0.006 A 
ATOM     22  C   UNL     1      -4.943  -2.852  -0.179  1.00  0.00    -0.033 A 
BRANCH  22  23
ATOM     23  C   UNL     1      -6.186  -3.684  -0.033  1.00  0.00     0.145 C 
ATOM     24  Cl  UNL     1      -7.602  -2.655   0.252  1.00  0.00    -0.122 Cl
ENDBRANCH  22  23
ENDBRANCH  16  17
ENDBRANCH   9  11
ENDBRANCH   8   9
ENDBRANCH   7   8
ENDBRANCH   6   7
ENDBRANCH   5   6
ENDBRANCH   4   5
ENDBRANCH   3   4
ENDBRANCH   2   3
ENDBRANCH   1   2
BRANCH   1  25
ATOM     25  C   UNL     1       1.236  -5.236   3.767  1.00  0.00     0.188 C 
BRANCH  25  26
ATOM     26  O   UNL     1       0.048  -4.629   4.273  1.00  0.00    -0.376 OA
BRANCH  26  27
ATOM     27  C   UNL     1      -0.020  -4.484   5.688  1.00  0.00     0.202 C 
BRANCH  27  28
ATOM     28  C   UNL     1       0.694  -3.227   6.194  1.00  0.00     0.261 C 
BRANCH  28  29
ATOM     29  O   UNL     1       2.119  -3.259   6.044  1.00  0.00    -0.460 OA
BRANCH  29  30
ATOM     30  C   UNL     1       2.773  -4.237   6.709  1.00  0.00     0.338 C 
ATOM     31  O   UNL     1       2.294  -5.067   7.460  1.00  0.00    -0.246 OA
BRANCH  30  32
ATOM     32  C   UNL     1       4.168  -4.250   6.234  1.00  0.00     0.060 A 
ATOM     33  C   UNL     1       4.699  -5.450   5.749  1.00  0.00     0.016 A 
ATOM     34  C   UNL     1       4.940  -3.086   6.270  1.00  0.00     0.016 A 
ATOM     35  C   UNL     1       6.028  -5.498   5.334  1.00  0.00     0.010 A 
ATOM     36  C   UNL     1       6.275  -3.139   5.872  1.00  0.00     0.010 A 
ATOM     37  C   UNL     1       6.831  -4.353   5.436  1.00  0.00    -0.014 A 
BRANCH  37  38
ATOM     38  C   UNL     1       8.299  -4.468   5.293  1.00  0.00     0.031 A 
ATOM     39  C   UNL     1       9.107  -4.766   6.525  1.00  0.00     0.074 A 
ATOM     40  C   UNL     1       8.900  -4.298   4.104  1.00  0.00     0.049 A 
ATOM     41  N   UNL     1      10.401  -4.894   6.655  1.00  0.00    -0.248 NA
ATOM     42  C   UNL     1       8.353  -4.942   7.779  1.00  0.00     0.031 C 
ATOM     43  C   UNL     1       8.221  -4.025   2.839  1.00  0.00     0.029 A 
ATOM     44  N   UNL     1      10.232  -4.320   3.776  1.00  0.00    -0.354 N 
ATOM     45  C   UNL     1      10.616  -5.170   7.999  1.00  0.00     0.074 A 
ATOM     46  C   UNL     1       9.324  -5.167   8.650  1.00  0.00     0.031 C 
ATOM     47  C   UNL     1       9.145  -3.894   1.869  1.00  0.00     0.029 A 
ATOM     48  C   UNL     1      10.477  -4.053   2.451  1.00  0.00     0.049 A 
ATOM     49  H   UNL     1      10.944  -4.511   4.428  1.00  0.00     0.167 HD
ATOM     50  C   UNL     1      11.785  -5.408   8.638  1.00  0.00     0.031 A 
ATOM     51  C   UNL     1      11.645  -3.936   1.791  1.00  0.00     0.031 A 
ATOM     52  C   UNL     1      13.071  -5.375   8.002  1.00  0.00     0.049 A 
ATOM     53  C   UNL     1      12.939  -4.134   2.537  1.00  0.00     0.074 A 
ATOM     54  C   UNL     1      14.315  -5.606   8.560  1.00  0.00     0.029 A 
ATOM     55  N   UNL     1      13.279  -5.075   6.665  1.00  0.00    -0.354 N 
ATOM     56  N   UNL     1      13.124  -4.436   3.800  1.00  0.00    -0.248 NA
ATOM     57  C   UNL     1      14.181  -3.979   1.766  1.00  0.00     0.031 C 
ATOM     58  C   UNL     1      15.281  -5.406   7.567  1.00  0.00     0.029 A 
ATOM     59  C   UNL     1      14.633  -5.092   6.383  1.00  0.00     0.049 A 
ATOM     60  H   UNL     1      12.568  -4.878   6.013  1.00  0.00     0.167 HD
ATOM     61  C   UNL     1      14.502  -4.530   3.969  1.00  0.00     0.074 A 
ATOM     62  C   UNL     1      15.101  -4.260   2.678  1.00  0.00     0.031 C 
ATOM     63  C   UNL     1      15.207  -4.820   5.090  1.00  0.00     0.031 A 
BRANCH  50  64
ATOM     64  C   UNL     1      11.710  -5.693  10.111  1.00  0.00    -0.014 A 
ATOM     65  C   UNL     1      11.252  -6.937  10.581  1.00  0.00     0.010 A 
ATOM     66  C   UNL     1      12.095  -4.706  11.034  1.00  0.00     0.010 A 
ATOM     67  C   UNL     1      11.143  -7.175  11.953  1.00  0.00     0.020 A 
ATOM     68  C   UNL     1      12.006  -4.947  12.407  1.00  0.00     0.020 A 
ATOM     69  C   UNL     1      11.512  -6.174  12.858  1.00  0.00     0.054 A 
BRANCH  69  70
ATOM     70  S   UNL     1      11.363  -6.505  14.635  1.00  0.00     0.124 S 
ATOM     71  O   UNL     1       9.927  -6.351  14.849  1.00  0.00    -0.237 OA
ATOM     72  O   UNL     1      11.872  -7.869  14.754  1.00  0.00    -0.237 OA
ATOM     73  O   UNL     1      12.199  -5.476  15.248  1.00  0.00    -0.744 OA
ENDBRANCH  69  70
ENDBRANCH  50  64
BRANCH  51  74
ATOM     74  C   UNL     1      11.650  -3.606   0.342  1.00  0.00    -0.014 A 
ATOM     75  C   UNL     1      11.977  -4.585  -0.612  1.00  0.00     0.010 A 
ATOM     76  C   UNL     1      11.326  -2.308  -0.091  1.00  0.00     0.010 A 
ATOM     77  C   UNL     1      11.992  -4.269  -1.974  1.00  0.00     0.020 A 
ATOM     78  C   UNL     1      11.321  -1.993  -1.453  1.00  0.00     0.020 A 
ATOM     79  C   UNL     1      11.663  -2.975  -2.386  1.00  0.00     0.054 A 
BRANCH  79  80
ATOM     80  S   UNL     1      11.630  -2.598  -4.161  1.00  0.00     0.124 S 
ATOM     81  O   UNL     1      13.048  -2.435  -4.463  1.00  0.00    -0.237 OA
ATOM     82  O   UNL     1      10.993  -3.785  -4.727  1.00  0.00    -0.237 OA
ATOM     83  O   UNL     1      10.827  -1.379  -4.233  1.00  0.00    -0.744 OA
ENDBRANCH  79  80
ENDBRANCH  51  74
BRANCH  63  84
ATOM     84  C   UNL     1      16.704  -4.888   4.968  1.00  0.00    -0.014 A 
ATOM     85  C   UNL     1      17.479  -3.718   4.891  1.00  0.00     0.010 A 
ATOM     86  C   UNL     1      17.346  -6.139   5.000  1.00  0.00     0.010 A 
ATOM     87  C   UNL     1      18.873  -3.800   4.824  1.00  0.00     0.020 A 
ATOM     88  C   UNL     1      18.739  -6.224   4.955  1.00  0.00     0.020 A 
ATOM     89  C   UNL     1      19.494  -5.053   4.855  1.00  0.00     0.054 A 
BRANCH  89  90
ATOM     90  S   UNL     1      21.306  -5.137   4.822  1.00  0.00     0.124 S 
ATOM     91  O   UNL     1      21.593  -4.934   3.405  1.00  0.00    -0.237 OA
ATOM     92  O   UNL     1      21.698  -4.042   5.706  1.00  0.00    -0.237 OA
ATOM     93  O   UNL     1      21.598  -6.474   5.333  1.00  0.00    -0.744 OA
ENDBRANCH  89  90
ENDBRANCH  63  84
ENDBRANCH  37  38
ENDBRANCH  30  32
ENDBRANCH  29  30
ENDBRANCH  28  29
ENDBRANCH  27  28
ENDBRANCH  26  27
ENDBRANCH  25  26
ENDBRANCH   1  25
TORSDOF 25
