REMARK SMILES CC(C)[NH+](CCNC(=O)N[C@@H]1C=C[C@H](C(=O)OCCOCCOCCOCCOC(=O)c2ccc(-c3c4nc(c(-c5ccc(S(=O)(=O)[O-])cc5)c5ccc([nH]5)c(-c5ccc(S(=O)(=O)[O-])cc5)c5nc(c(-c6ccc(S(=O)(=O)[O-])cc6)c6ccc3[nH]6)C=C5)C=C4)cc2)C1)C(C)C
REMARK SMILES IDX 22 1 21 2 20 3 19 4 18 5 17 6 15 7 16 8 14 9 11 10 12 11
REMARK SMILES IDX 92 12 13 13 10 14 7 15 8 16 9 18 6 20 5 21 4 22 2 24 1 25
REMARK SMILES IDX 3 26 93 27 94 28 95 29 23 30 24 31 25 32 26 33 27 34 28 35
REMARK SMILES IDX 29 36 30 37 31 38 32 39 33 40 91 41 34 42 90 43 35 44 36 45
REMARK SMILES IDX 37 46 84 47 38 48 89 49 83 50 85 51 39 52 88 53 82 54 81 55
REMARK SMILES IDX 40 57 70 58 51 59 69 60 52 61 55 62 68 63 86 64 53 65 54 66
REMARK SMILES IDX 67 68 87 69 56 70 41 71 42 72 50 73 43 74 49 75 44 76 45 77
REMARK SMILES IDX 46 78 47 79 48 80 71 81 72 82 80 83 73 84 79 85 74 86 75 87
REMARK SMILES IDX 76 88 77 89 78 90 57 91 58 92 66 93 59 94 65 95 60 96 61 97
REMARK SMILES IDX 62 98 63 99 64 100
REMARK H PARENT 7 17 10 19 4 23 85 56 55 67
REMARK Flexibility Score: inf
ROOT
ATOM      1  C   UNL     1      -4.198   8.495   3.051  1.00  0.00     0.188 C 
ENDROOT
BRANCH   1   2
ATOM      2  C   UNL     1      -4.465   7.246   4.398  1.00  0.00     0.188 C 
BRANCH   2   3
ATOM      3  O   UNL     1      -3.621   6.047   5.180  1.00  0.00    -0.376 OA
BRANCH   3   4
ATOM      4  C   UNL     1      -2.002   5.560   5.176  1.00  0.00     0.202 C 
BRANCH   4   5
ATOM      5  C   UNL     1      -0.914   5.050   3.734  1.00  0.00     0.261 C 
BRANCH   5   6
ATOM      6  O   UNL     1      -0.610   5.906   2.140  1.00  0.00    -0.463 OA
BRANCH   6   7
ATOM      7  C   UNL     1      -1.271   6.823   1.225  1.00  0.00     0.312 C 
ATOM      8  O   UNL     1      -2.319   7.447   1.466  1.00  0.00    -0.252 OA
BRANCH   7   9
ATOM      9  C   UNL     1      -1.168   7.129  -0.257  1.00  0.00     0.124 C 
ATOM     10  C   UNL     1      -1.575   5.519  -1.947  1.00  0.00     0.107 C 
ATOM     11  C   UNL     1      -0.436   6.441  -2.305  1.00  0.00    -0.006 C 
ATOM     12  C   UNL     1      -2.332   6.408  -1.016  1.00  0.00     0.048 C 
ATOM     13  C   UNL     1      -0.135   7.265  -1.292  1.00  0.00    -0.014 C 
BRANCH  10  14
ATOM     14  N   UNL     1      -0.991   4.351  -1.330  1.00  0.00    -0.332 N 
ATOM     15  N   UNL     1      -1.442   4.118   1.021  1.00  0.00    -0.332 N 
ATOM     16  C   UNL     1      -0.742   3.939  -0.095  1.00  0.00     0.315 C 
ATOM     17  H   UNL     1      -0.937   3.654   1.727  1.00  0.00     0.165 HD
ATOM     18  O   UNL     1       0.303   3.289   0.043  1.00  0.00    -0.249 OA
ATOM     19  H   UNL     1      -0.704   3.689  -2.000  1.00  0.00     0.165 HD
BRANCH  15  20
ATOM     20  C   UNL     1      -2.672   4.712   1.719  1.00  0.00     0.179 C 
BRANCH  20  21
ATOM     21  C   UNL     1      -2.743   6.109   3.001  1.00  0.00     0.284 C 
BRANCH  21  22
ATOM     22  N   UNL     1      -1.770   7.514   3.895  1.00  0.00    -0.330 N 
ATOM     23  H   UNL     1      -2.188   7.918   3.056  1.00  0.00     0.348 HD
BRANCH  22  24
ATOM     24  C   UNL     1      -2.357   8.431   5.312  1.00  0.00     0.177 C 
ATOM     25  C   UNL     1      -1.448   8.840   6.523  1.00  0.00     0.075 C 
ATOM     26  C   UNL     1      -3.411   9.661   5.445  1.00  0.00     0.075 C 
ENDBRANCH  22  24
BRANCH  22  27
ATOM     27  C   UNL     1      -0.107   7.606   3.900  1.00  0.00     0.177 C 
ATOM     28  C   UNL     1       0.726   8.267   2.750  1.00  0.00     0.075 C 
ATOM     29  C   UNL     1       0.771   7.825   5.163  1.00  0.00     0.075 C 
ENDBRANCH  22  27
ENDBRANCH  21  22
ENDBRANCH  20  21
ENDBRANCH  15  20
ENDBRANCH  10  14
ENDBRANCH   7   9
ENDBRANCH   6   7
ENDBRANCH   5   6
ENDBRANCH   4   5
ENDBRANCH   3   4
ENDBRANCH   2   3
ENDBRANCH   1   2
BRANCH   1  30
ATOM     30  O   UNL     1      -3.492   9.804   3.090  1.00  0.00    -0.377 OA
BRANCH  30  31
ATOM     31  C   UNL     1      -2.207  10.133   2.524  1.00  0.00     0.188 C 
BRANCH  31  32
ATOM     32  C   UNL     1      -1.074  10.713   3.449  1.00  0.00     0.188 C 
BRANCH  32  33
ATOM     33  O   UNL     1      -1.259  11.680   4.465  1.00  0.00    -0.376 OA
BRANCH  33  34
ATOM     34  C   UNL     1      -1.788  12.958   4.198  1.00  0.00     0.202 C 
BRANCH  34  35
ATOM     35  C   UNL     1      -1.226  13.706   2.991  1.00  0.00     0.261 C 
BRANCH  35  36
ATOM     36  O   UNL     1       0.137  13.397   2.687  1.00  0.00    -0.460 OA
BRANCH  36  37
ATOM     37  C   UNL     1       1.034  13.568   3.683  1.00  0.00     0.338 C 
ATOM     38  O   UNL     1       0.876  14.181   4.729  1.00  0.00    -0.246 OA
BRANCH  37  39
ATOM     39  C   UNL     1       2.211  12.744   3.354  1.00  0.00     0.060 A 
ATOM     40  C   UNL     1       2.767  11.936   4.353  1.00  0.00     0.016 A 
ATOM     41  C   UNL     1       2.768  12.780   2.071  1.00  0.00     0.016 A 
ATOM     42  C   UNL     1       3.938  11.224   4.094  1.00  0.00     0.010 A 
ATOM     43  C   UNL     1       3.939  12.071   1.812  1.00  0.00     0.010 A 
ATOM     44  C   UNL     1       4.560  11.344   2.843  1.00  0.00    -0.014 A 
BRANCH  44  45
ATOM     45  C   UNL     1       5.993  11.003   2.696  1.00  0.00     0.031 A 
ATOM     46  C   UNL     1       6.986  12.118   2.901  1.00  0.00     0.074 A 
ATOM     47  C   UNL     1       6.405   9.766   2.377  1.00  0.00     0.049 A 
ATOM     48  N   UNL     1       8.281  12.121   2.729  1.00  0.00    -0.248 NA
ATOM     49  C   UNL     1       6.436  13.410   3.353  1.00  0.00     0.031 C 
ATOM     50  C   UNL     1       5.544   8.598   2.207  1.00  0.00     0.029 A 
ATOM     51  N   UNL     1       7.669   9.295   2.125  1.00  0.00    -0.354 N 
ATOM     52  C   UNL     1       8.695  13.412   3.037  1.00  0.00     0.074 A 
ATOM     53  C   UNL     1       7.516  14.173   3.380  1.00  0.00     0.031 C 
ATOM     54  C   UNL     1       6.306   7.543   1.865  1.00  0.00     0.029 A 
ATOM     55  C   UNL     1       7.700   7.973   1.752  1.00  0.00     0.049 A 
ATOM     56  H   UNL     1       8.477   9.852   2.204  1.00  0.00     0.167 HD
ATOM     57  C   UNL     1       9.948  13.922   3.035  1.00  0.00     0.031 A 
ATOM     58  C   UNL     1       8.735   7.213   1.339  1.00  0.00     0.031 A 
ATOM     59  C   UNL     1      11.115  13.167   2.672  1.00  0.00     0.049 A 
ATOM     60  C   UNL     1      10.113   7.825   1.262  1.00  0.00     0.074 A 
ATOM     61  C   UNL     1      12.433  13.584   2.638  1.00  0.00     0.029 A 
ATOM     62  N   UNL     1      11.100  11.840   2.271  1.00  0.00    -0.354 N 
ATOM     63  N   UNL     1      10.495   9.043   1.569  1.00  0.00    -0.248 NA
ATOM     64  C   UNL     1      11.199   6.957   0.784  1.00  0.00     0.031 C 
ATOM     65  C   UNL     1      13.209  12.524   2.158  1.00  0.00     0.029 A 
ATOM     66  C   UNL     1      12.383  11.428   1.960  1.00  0.00     0.049 A 
ATOM     67  H   UNL     1      10.295  11.275   2.216  1.00  0.00     0.167 HD
ATOM     68  C   UNL     1      11.870   9.076   1.352  1.00  0.00     0.074 A 
ATOM     69  C   UNL     1      12.253   7.755   0.898  1.00  0.00     0.031 C 
ATOM     70  C   UNL     1      12.741  10.105   1.515  1.00  0.00     0.031 A 
BRANCH  57  71
ATOM     71  C   UNL     1      10.106  15.376   3.394  1.00  0.00    -0.014 A 
ATOM     72  C   UNL     1       9.903  15.831   4.710  1.00  0.00     0.010 A 
ATOM     73  C   UNL     1      10.479  16.298   2.400  1.00  0.00     0.010 A 
ATOM     74  C   UNL     1      10.036  17.188   5.016  1.00  0.00     0.020 A 
ATOM     75  C   UNL     1      10.642  17.651   2.708  1.00  0.00     0.020 A 
ATOM     76  C   UNL     1      10.403  18.090   4.012  1.00  0.00     0.054 A 
BRANCH  76  77
ATOM     77  S   UNL     1      10.594  19.841   4.443  1.00  0.00     0.124 S 
ATOM     78  O   UNL     1       9.207  20.254   4.646  1.00  0.00    -0.237 OA
ATOM     79  O   UNL     1      11.415  19.786   5.650  1.00  0.00    -0.237 OA
ATOM     80  O   UNL     1      11.250  20.418   3.272  1.00  0.00    -0.744 OA
ENDBRANCH  76  77
ENDBRANCH  57  71
BRANCH  58  81
ATOM     81  C   UNL     1       8.509   5.794   0.943  1.00  0.00    -0.014 A 
ATOM     82  C   UNL     1       9.039   4.742   1.711  1.00  0.00     0.010 A 
ATOM     83  C   UNL     1       7.771   5.487  -0.215  1.00  0.00     0.010 A 
ATOM     84  C   UNL     1       8.851   3.413   1.319  1.00  0.00     0.020 A 
ATOM     85  C   UNL     1       7.555   4.158  -0.594  1.00  0.00     0.020 A 
ATOM     86  C   UNL     1       8.108   3.129   0.170  1.00  0.00     0.054 A 
BRANCH  86  87
ATOM     87  S   UNL     1       7.847   1.395  -0.295  1.00  0.00     0.124 S 
ATOM     88  O   UNL     1       9.178   0.995  -0.740  1.00  0.00    -0.237 OA
ATOM     89  O   UNL     1       7.394   0.798   0.959  1.00  0.00    -0.237 OA
ATOM     90  O   UNL     1       6.834   1.469  -1.345  1.00  0.00    -0.744 OA
ENDBRANCH  86  87
ENDBRANCH  58  81
BRANCH  70  91
ATOM     91  C   UNL     1      14.199   9.837   1.249  1.00  0.00    -0.014 A 
ATOM     92  C   UNL     1      14.686   9.662  -0.058  1.00  0.00     0.010 A 
ATOM     93  C   UNL     1      15.108   9.835   2.324  1.00  0.00     0.010 A 
ATOM     94  C   UNL     1      16.051   9.460  -0.282  1.00  0.00     0.020 A 
ATOM     95  C   UNL     1      16.476   9.664   2.102  1.00  0.00     0.020 A 
ATOM     96  C   UNL     1      16.938   9.464   0.801  1.00  0.00     0.054 A 
BRANCH  96  97
ATOM     97  S   UNL     1      18.709   9.247   0.479  1.00  0.00     0.124 S 
ATOM     98  O   UNL     1      18.786   7.830   0.139  1.00  0.00    -0.237 OA
ATOM     99  O   UNL     1      18.950  10.173  -0.625  1.00  0.00    -0.237 OA
ATOM    100  O   UNL     1      19.340   9.619   1.744  1.00  0.00    -0.744 OA
ENDBRANCH  96  97
ENDBRANCH  70  91
ENDBRANCH  44  45
ENDBRANCH  37  39
ENDBRANCH  36  37
ENDBRANCH  35  36
ENDBRANCH  34  35
ENDBRANCH  33  34
ENDBRANCH  32  33
ENDBRANCH  31  32
ENDBRANCH  30  31
ENDBRANCH   1  30
TORSDOF 29
