REMARK SMILES [NH3+][C@H](C(=O)OCCOCCOCCOCCOC(=O)c1ccc(-c2c3nc(c(-c4ccc(S(=O)(=O)[O-])cc4)c4ccc([nH]4)c(-c4ccc(S(=O)(=O)[O-])cc4)c4nc(c(-c5ccc(S(=O)(=O)[O-])cc5)c5ccc2[nH]5)C=C4)C=C3)cc1)c1ccc(Cl)c(OC(F)(F)F)c1
REMARK SMILES IDX 11 1 10 2 9 3 8 4 7 5 6 6 5 7 3 8 4 9 2 10 1 11 80 15 81 16
REMARK SMILES IDX 91 17 82 18 85 19 83 20 84 21 86 22 87 23 88 24 89 25 90 26
REMARK SMILES IDX 12 27 13 28 14 29 15 30 16 31 17 32 18 33 19 34 20 35 21 36
REMARK SMILES IDX 79 37 22 38 78 39 23 40 24 41 25 42 72 43 26 44 77 45 71 46
REMARK SMILES IDX 73 47 27 48 76 49 70 50 69 51 28 53 58 54 39 55 57 56 40 57
REMARK SMILES IDX 43 58 56 59 74 60 41 61 42 62 55 64 75 65 44 66 29 67 30 68
REMARK SMILES IDX 38 69 31 70 37 71 32 72 33 73 34 74 35 75 36 76 59 77 60 78
REMARK SMILES IDX 68 79 61 80 67 81 62 82 63 83 64 84 65 85 66 86 45 87 46 88
REMARK SMILES IDX 54 89 47 90 53 91 48 92 49 93 50 94 51 95 52 96
REMARK H PARENT 1 12 1 13 1 14 73 52 43 63
REMARK Flexibility Score: inf
ROOT
ATOM      1  O   UNL     1       3.140   0.424  -1.295  1.00  0.00    -0.377 OA
ENDROOT
BRANCH   1   2
ATOM      2  C   UNL     1       3.419   1.039  -0.041  1.00  0.00     0.188 C 
BRANCH   2   3
ATOM      3  C   UNL     1       3.364   0.179   1.227  1.00  0.00     0.188 C 
BRANCH   3   4
ATOM      4  O   UNL     1       3.838  -1.127   1.007  1.00  0.00    -0.376 OA
BRANCH   4   5
ATOM      5  C   UNL     1       2.944  -2.226   1.043  1.00  0.00     0.202 C 
BRANCH   5   6
ATOM      6  C   UNL     1       1.470  -2.137   0.604  1.00  0.00     0.261 C 
BRANCH   6   7
ATOM      7  O   UNL     1       1.117  -1.083  -0.299  1.00  0.00    -0.459 OA
BRANCH   7   8
ATOM      8  C   UNL     1       0.367  -0.075   0.236  1.00  0.00     0.369 C 
ATOM      9  O   UNL     1       0.068   0.003   1.426  1.00  0.00    -0.245 OA
BRANCH   8  10
ATOM     10  C   UNL     1      -0.112   0.967  -0.810  1.00  0.00     0.323 C 
BRANCH  10  11
ATOM     11  N   UNL     1       0.379   0.719  -2.178  1.00  0.00    -0.342 N 
ATOM     12  H   UNL     1       0.023   1.442  -2.803  1.00  0.00     0.345 HD
ATOM     13  H   UNL     1       0.054  -0.194  -2.496  1.00  0.00     0.345 HD
ATOM     14  H   UNL     1       1.399   0.738  -2.183  1.00  0.00     0.345 HD
ENDBRANCH  10  11
BRANCH  10  15
ATOM     15  C   UNL     1      -1.626   1.033  -0.769  1.00  0.00     0.025 A 
ATOM     16  C   UNL     1      -2.300   2.238  -0.548  1.00  0.00     0.012 A 
ATOM     17  C   UNL     1      -2.360  -0.165  -0.836  1.00  0.00     0.059 A 
ATOM     18  C   UNL     1      -3.679   2.231  -0.343  1.00  0.00     0.025 A 
ATOM     19  C   UNL     1      -3.726  -0.195  -0.560  1.00  0.00     0.148 A 
ATOM     20  C   UNL     1      -4.384   1.022  -0.333  1.00  0.00     0.083 A 
ATOM     21  Cl  UNL     1      -6.079   1.074   0.006  1.00  0.00    -0.080 Cl
BRANCH  19  22
ATOM     22  O   UNL     1      -4.459  -1.348  -0.475  1.00  0.00    -0.404 OA
BRANCH  22  23
ATOM     23  C   UNL     1      -3.737  -2.563  -0.317  1.00  0.00     0.573 C 
ATOM     24  F   UNL     1      -3.101  -2.891  -1.461  1.00  0.00    -0.132 F 
ATOM     25  F   UNL     1      -2.829  -2.468   0.682  1.00  0.00    -0.132 F 
ATOM     26  F   UNL     1      -4.599  -3.551  -0.003  1.00  0.00    -0.132 F 
ENDBRANCH  22  23
ENDBRANCH  19  22
ENDBRANCH  10  15
ENDBRANCH   8  10
ENDBRANCH   7   8
ENDBRANCH   6   7
ENDBRANCH   5   6
ENDBRANCH   4   5
ENDBRANCH   3   4
ENDBRANCH   2   3
ENDBRANCH   1   2
BRANCH   1  27
ATOM     27  C   UNL     1       4.016  -0.595  -1.791  1.00  0.00     0.188 C 
BRANCH  27  28
ATOM     28  C   UNL     1       5.494  -0.632  -1.365  1.00  0.00     0.188 C 
BRANCH  28  29
ATOM     29  O   UNL     1       6.236   0.582  -1.296  1.00  0.00    -0.376 OA
BRANCH  29  30
ATOM     30  C   UNL     1       5.921   1.631  -2.198  1.00  0.00     0.202 C 
BRANCH  30  31
ATOM     31  C   UNL     1       6.476   1.510  -3.611  1.00  0.00     0.261 C 
BRANCH  31  32
ATOM     32  O   UNL     1       5.997   0.342  -4.285  1.00  0.00    -0.460 OA
BRANCH  32  33
ATOM     33  C   UNL     1       6.872  -0.687  -4.304  1.00  0.00     0.338 C 
ATOM     34  O   UNL     1       8.000  -0.714  -3.825  1.00  0.00    -0.246 OA
BRANCH  33  35
ATOM     35  C   UNL     1       6.221  -1.873  -4.876  1.00  0.00     0.060 A 
ATOM     36  C   UNL     1       6.367  -3.093  -4.204  1.00  0.00     0.016 A 
ATOM     37  C   UNL     1       5.554  -1.804  -6.102  1.00  0.00     0.016 A 
ATOM     38  C   UNL     1       5.907  -4.264  -4.790  1.00  0.00     0.010 A 
ATOM     39  C   UNL     1       5.104  -2.982  -6.696  1.00  0.00     0.010 A 
ATOM     40  C   UNL     1       5.327  -4.217  -6.063  1.00  0.00    -0.014 A 
BRANCH  40  41
ATOM     41  C   UNL     1       5.155  -5.474  -6.820  1.00  0.00     0.031 A 
ATOM     42  C   UNL     1       6.202  -5.841  -7.835  1.00  0.00     0.074 A 
ATOM     43  C   UNL     1       4.111  -6.283  -6.578  1.00  0.00     0.049 A 
ATOM     44  N   UNL     1       6.244  -6.862  -8.648  1.00  0.00    -0.248 NA
ATOM     45  C   UNL     1       7.357  -4.932  -7.949  1.00  0.00     0.031 C 
ATOM     46  C   UNL     1       3.075  -6.047  -5.573  1.00  0.00     0.029 A 
ATOM     47  N   UNL     1       3.752  -7.466  -7.167  1.00  0.00    -0.354 N 
ATOM     48  C   UNL     1       7.418  -6.715  -9.377  1.00  0.00     0.074 A 
ATOM     49  C   UNL     1       8.046  -5.490  -8.933  1.00  0.00     0.031 C 
ATOM     50  C   UNL     1       2.186  -7.054  -5.624  1.00  0.00     0.029 A 
ATOM     51  C   UNL     1       2.570  -7.977  -6.690  1.00  0.00     0.049 A 
ATOM     52  H   UNL     1       4.289  -7.907  -7.864  1.00  0.00     0.167 HD
ATOM     53  C   UNL     1       7.929  -7.531 -10.328  1.00  0.00     0.031 A 
ATOM     54  C   UNL     1       1.866  -9.053  -7.093  1.00  0.00     0.031 A 
ATOM     55  C   UNL     1       7.283  -8.738 -10.770  1.00  0.00     0.049 A 
ATOM     56  C   UNL     1       2.411  -9.901  -8.213  1.00  0.00     0.074 A 
ATOM     57  C   UNL     1       7.711  -9.642 -11.725  1.00  0.00     0.029 A 
ATOM     58  N   UNL     1       6.067  -9.204 -10.292  1.00  0.00    -0.354 N 
ATOM     59  N   UNL     1       3.528  -9.759  -8.887  1.00  0.00    -0.248 NA
ATOM     60  C   UNL     1       1.605 -11.059  -8.619  1.00  0.00     0.031 C 
ATOM     61  C   UNL     1       6.721 -10.620 -11.870  1.00  0.00     0.029 A 
ATOM     62  C   UNL     1       5.714 -10.367 -10.952  1.00  0.00     0.049 A 
ATOM     63  H   UNL     1       5.534  -8.770  -9.587  1.00  0.00     0.167 HD
ATOM     64  C   UNL     1       3.574 -10.827  -9.777  1.00  0.00     0.074 A 
ATOM     65  C   UNL     1       2.379 -11.613  -9.542  1.00  0.00     0.031 C 
ATOM     66  C   UNL     1       4.518 -11.133 -10.702  1.00  0.00     0.031 A 
BRANCH  53  67
ATOM     67  C   UNL     1       9.225  -7.121 -10.978  1.00  0.00    -0.014 A 
ATOM     68  C   UNL     1      10.440  -7.138 -10.269  1.00  0.00     0.010 A 
ATOM     69  C   UNL     1       9.230  -6.741 -12.333  1.00  0.00     0.010 A 
ATOM     70  C   UNL     1      11.629  -6.746 -10.892  1.00  0.00     0.020 A 
ATOM     71  C   UNL     1      10.422  -6.380 -12.968  1.00  0.00     0.020 A 
ATOM     72  C   UNL     1      11.611  -6.370 -12.238  1.00  0.00     0.054 A 
BRANCH  72  73
ATOM     73  S   UNL     1      13.174  -5.894 -13.028  1.00  0.00     0.124 S 
ATOM     74  O   UNL     1      13.455  -4.610 -12.390  1.00  0.00    -0.237 OA
ATOM     75  O   UNL     1      14.065  -6.989 -12.655  1.00  0.00    -0.237 OA
ATOM     76  O   UNL     1      12.838  -5.822 -14.448  1.00  0.00    -0.744 OA
ENDBRANCH  72  73
ENDBRANCH  53  67
BRANCH  54  77
ATOM     77  C   UNL     1       0.561  -9.368  -6.451  1.00  0.00    -0.014 A 
ATOM     78  C   UNL     1       0.404 -10.520  -5.663  1.00  0.00     0.010 A 
ATOM     79  C   UNL     1      -0.537  -8.503  -6.623  1.00  0.00     0.010 A 
ATOM     80  C   UNL     1      -0.830 -10.811  -5.073  1.00  0.00     0.020 A 
ATOM     81  C   UNL     1      -1.762  -8.773  -6.009  1.00  0.00     0.020 A 
ATOM     82  C   UNL     1      -1.904  -9.933  -5.246  1.00  0.00     0.054 A 
BRANCH  82  83
ATOM     83  S   UNL     1      -3.479 -10.306  -4.427  1.00  0.00     0.124 S 
ATOM     84  O   UNL     1      -3.957 -11.450  -5.195  1.00  0.00    -0.237 OA
ATOM     85  O   UNL     1      -3.058 -10.591  -3.058  1.00  0.00    -0.237 OA
ATOM     86  O   UNL     1      -4.249  -9.075  -4.591  1.00  0.00    -0.744 OA
ENDBRANCH  82  83
ENDBRANCH  54  77
BRANCH  66  87
ATOM     87  C   UNL     1       4.321 -12.394 -11.503  1.00  0.00    -0.014 A 
ATOM     88  C   UNL     1       3.318 -12.493 -12.483  1.00  0.00     0.010 A 
ATOM     89  C   UNL     1       5.198 -13.478 -11.308  1.00  0.00     0.010 A 
ATOM     90  C   UNL     1       3.174 -13.665 -13.230  1.00  0.00     0.020 A 
ATOM     91  C   UNL     1       5.079 -14.638 -12.076  1.00  0.00     0.020 A 
ATOM     92  C   UNL     1       4.058 -14.730 -13.023  1.00  0.00     0.054 A 
BRANCH  92  93
ATOM     93  S   UNL     1       3.877 -16.222 -14.037  1.00  0.00     0.124 S 
ATOM     94  O   UNL     1       2.653 -16.809 -13.498  1.00  0.00    -0.237 OA
ATOM     95  O   UNL     1       3.772 -15.679 -15.389  1.00  0.00    -0.237 OA
ATOM     96  O   UNL     1       5.099 -16.976 -13.767  1.00  0.00    -0.744 OA
ENDBRANCH  92  93
ENDBRANCH  66  87
ENDBRANCH  40  41
ENDBRANCH  33  35
ENDBRANCH  32  33
ENDBRANCH  31  32
ENDBRANCH  30  31
ENDBRANCH  29  30
ENDBRANCH  28  29
ENDBRANCH  27  28
ENDBRANCH   1  27
TORSDOF 27
