REMARK SMILES Cc1nccn1CCC[NH+]1CCC2(CC1)[C@@H](C(=O)OCCOCCOCCOCCOC(=O)c1ccc(-c3c4nc(c(-c5ccc(S(=O)(=O)[O-])cc5)c5ccc([nH]5)c(-c5ccc(S(=O)(=O)[O-])cc5)c5nc(c(-c6ccc(S(=O)(=O)[O-])cc6)c6ccc3[nH]6)C=C5)C=C4)cc1)CC(=O)N2C
REMARK SMILES IDX 24 1 23 2 22 3 21 4 20 5 19 6 17 7 18 8 16 9 10 10 11 11
REMARK SMILES IDX 15 12 12 14 14 15 13 16 97 17 94 18 95 19 98 20 96 21 9 22
REMARK SMILES IDX 8 23 7 24 6 25 1 26 2 27 3 28 4 29 5 30 25 31 26 32 27 33
REMARK SMILES IDX 28 34 29 35 30 36 31 37 32 38 33 39 34 40 35 41 93 42 36 43
REMARK SMILES IDX 92 44 37 45 38 46 39 47 86 48 40 49 91 50 85 51 87 52 41 53
REMARK SMILES IDX 90 54 84 55 83 56 42 58 72 59 53 60 71 61 54 62 57 63 70 64
REMARK SMILES IDX 88 65 55 66 56 67 69 69 89 70 58 71 43 72 44 73 52 74 45 75
REMARK SMILES IDX 51 76 46 77 47 78 48 79 49 80 50 81 73 82 74 83 82 84 75 85
REMARK SMILES IDX 81 86 76 87 77 88 78 89 79 90 80 91 59 92 60 93 68 94 61 95
REMARK SMILES IDX 67 96 62 97 63 98 64 99 65 100 66 101
REMARK H PARENT 10 13 87 57 57 68
REMARK Flexibility Score: inf
ROOT
ATOM      1  C   UNL     1      -4.221   2.584  -0.309  1.00  0.00     0.188 C 
ENDROOT
BRANCH   1   2
ATOM      2  C   UNL     1      -3.305   3.792  -0.103  1.00  0.00     0.188 C 
BRANCH   2   3
ATOM      3  O   UNL     1      -2.574   4.295  -1.211  1.00  0.00    -0.376 OA
BRANCH   3   4
ATOM      4  C   UNL     1      -1.627   3.527  -1.938  1.00  0.00     0.202 C 
BRANCH   4   5
ATOM      5  C   UNL     1      -0.804   2.441  -1.247  1.00  0.00     0.261 C 
BRANCH   5   6
ATOM      6  O   UNL     1      -1.578   1.255  -0.959  1.00  0.00    -0.463 OA
BRANCH   6   7
ATOM      7  C   UNL     1      -1.588   0.831   0.323  1.00  0.00     0.311 C 
ATOM      8  O   UNL     1      -0.929   1.384   1.201  1.00  0.00    -0.252 OA
BRANCH   7   9
ATOM      9  C   UNL     1      -2.446  -0.395   0.651  1.00  0.00     0.134 C 
ATOM     10  N   UNL     1      -3.261  -2.813  -2.744  1.00  0.00    -0.335 N 
ATOM     11  C   UNL     1      -3.354  -3.527  -1.492  1.00  0.00     0.264 C 
ATOM     12  C   UNL     1      -4.074  -1.627  -2.806  1.00  0.00     0.264 C 
ATOM     13  H   UNL     1      -3.746  -3.418  -3.407  1.00  0.00     0.348 HD
ATOM     14  C   UNL     1      -2.927  -2.671  -0.313  1.00  0.00     0.091 C 
ATOM     15  C   UNL     1      -3.731  -0.626  -1.702  1.00  0.00     0.091 C 
ATOM     16  C   UNL     1      -3.458  -1.200  -0.279  1.00  0.00     0.067 C 
ATOM     17  N   UNL     1      -4.708  -1.161   0.522  1.00  0.00    -0.339 N 
ATOM     18  C   UNL     1      -3.213  -0.049   1.937  1.00  0.00     0.118 C 
ATOM     19  C   UNL     1      -4.602  -0.546   1.751  1.00  0.00     0.223 C 
ATOM     20  C   UNL     1      -5.968  -1.780   0.154  1.00  0.00     0.147 C 
ATOM     21  O   UNL     1      -5.488  -0.418   2.581  1.00  0.00    -0.275 OA
BRANCH  10  22
ATOM     22  C   UNL     1      -2.088  -2.967  -3.581  1.00  0.00     0.264 C 
BRANCH  22  23
ATOM     23  C   UNL     1      -0.991  -1.890  -3.641  1.00  0.00     0.083 C 
BRANCH  23  24
ATOM     24  C   UNL     1      -0.296  -1.408  -2.367  1.00  0.00     0.129 C 
BRANCH  24  25
ATOM     25  N   UNL     1       0.531  -2.273  -1.554  1.00  0.00    -0.335 N 
ATOM     26  C   UNL     1       1.600  -0.432  -0.127  1.00  0.00     0.087 C 
ATOM     27  C   UNL     1       1.316  -1.846  -0.491  1.00  0.00     0.105 A 
ATOM     28  N   UNL     1       1.768  -2.877   0.194  1.00  0.00    -0.242 NA
ATOM     29  C   UNL     1       1.300  -3.987  -0.445  1.00  0.00     0.131 A 
ATOM     30  C   UNL     1       0.561  -3.637  -1.548  1.00  0.00     0.107 A 
ENDBRANCH  24  25
ENDBRANCH  23  24
ENDBRANCH  22  23
ENDBRANCH  10  22
ENDBRANCH   7   9
ENDBRANCH   6   7
ENDBRANCH   5   6
ENDBRANCH   4   5
ENDBRANCH   3   4
ENDBRANCH   2   3
ENDBRANCH   1   2
BRANCH   1  31
ATOM     31  O   UNL     1      -5.311   2.638  -1.201  1.00  0.00    -0.377 OA
BRANCH  31  32
ATOM     32  C   UNL     1      -5.082   3.185  -2.478  1.00  0.00     0.188 C 
BRANCH  32  33
ATOM     33  C   UNL     1      -5.350   4.695  -2.563  1.00  0.00     0.188 C 
BRANCH  33  34
ATOM     34  O   UNL     1      -6.337   5.354  -1.765  1.00  0.00    -0.376 OA
BRANCH  34  35
ATOM     35  C   UNL     1      -7.029   4.695  -0.717  1.00  0.00     0.202 C 
BRANCH  35  36
ATOM     36  C   UNL     1      -8.237   3.853  -1.125  1.00  0.00     0.261 C 
BRANCH  36  37
ATOM     37  O   UNL     1      -7.997   2.969  -2.209  1.00  0.00    -0.460 OA
BRANCH  37  38
ATOM     38  C   UNL     1      -8.116   3.543  -3.428  1.00  0.00     0.338 C 
ATOM     39  O   UNL     1      -8.235   4.726  -3.687  1.00  0.00    -0.246 OA
BRANCH  38  40
ATOM     40  C   UNL     1      -8.265   2.478  -4.429  1.00  0.00     0.060 A 
ATOM     41  C   UNL     1      -8.774   2.905  -5.653  1.00  0.00     0.016 A 
ATOM     42  C   UNL     1      -8.245   1.122  -4.058  1.00  0.00     0.016 A 
ATOM     43  C   UNL     1      -9.544   2.020  -6.362  1.00  0.00     0.010 A 
ATOM     44  C   UNL     1      -9.009   0.230  -4.781  1.00  0.00     0.010 A 
ATOM     45  C   UNL     1      -9.743   0.730  -5.851  1.00  0.00    -0.014 A 
BRANCH  45  46
ATOM     46  C   UNL     1     -10.822  -0.013  -6.463  1.00  0.00     0.031 A 
ATOM     47  C   UNL     1     -10.585  -0.394  -7.863  1.00  0.00     0.074 A 
ATOM     48  C   UNL     1     -11.985  -0.272  -5.841  1.00  0.00     0.049 A 
ATOM     49  N   UNL     1     -11.145   0.090  -8.919  1.00  0.00    -0.248 NA
ATOM     50  C   UNL     1      -9.484  -1.331  -8.111  1.00  0.00     0.031 C 
ATOM     51  C   UNL     1     -12.288  -0.203  -4.410  1.00  0.00     0.029 A 
ATOM     52  N   UNL     1     -13.133  -0.757  -6.388  1.00  0.00    -0.354 N 
ATOM     53  C   UNL     1     -10.598  -0.619  -9.976  1.00  0.00     0.074 A 
ATOM     54  C   UNL     1      -9.483  -1.367  -9.442  1.00  0.00     0.031 C 
ATOM     55  C   UNL     1     -13.452  -0.851  -4.182  1.00  0.00     0.029 A 
ATOM     56  C   UNL     1     -14.027  -1.254  -5.457  1.00  0.00     0.049 A 
ATOM     57  H   UNL     1     -13.310  -0.753  -7.356  1.00  0.00     0.167 HD
ATOM     58  C   UNL     1     -11.225  -0.729 -11.175  1.00  0.00     0.031 A 
ATOM     59  C   UNL     1     -15.100  -2.034  -5.725  1.00  0.00     0.031 A 
ATOM     60  C   UNL     1     -12.259   0.252 -11.361  1.00  0.00     0.049 A 
ATOM     61  C   UNL     1     -15.464  -1.842  -7.152  1.00  0.00     0.074 A 
ATOM     62  C   UNL     1     -12.293   1.632 -11.402  1.00  0.00     0.029 A 
ATOM     63  N   UNL     1     -13.562  -0.158 -11.209  1.00  0.00    -0.354 N 
ATOM     64  N   UNL     1     -15.961  -0.738  -7.635  1.00  0.00    -0.248 NA
ATOM     65  C   UNL     1     -14.930  -2.763  -8.146  1.00  0.00     0.031 C 
ATOM     66  C   UNL     1     -13.556   1.997 -10.853  1.00  0.00     0.029 A 
ATOM     67  C   UNL     1     -14.228   0.821 -10.513  1.00  0.00     0.049 A 
ATOM     68  H   UNL     1     -13.949  -1.001 -11.539  1.00  0.00     0.167 HD
ATOM     69  C   UNL     1     -15.455  -0.643  -8.924  1.00  0.00     0.074 A 
ATOM     70  C   UNL     1     -14.934  -1.971  -9.221  1.00  0.00     0.031 C 
ATOM     71  C   UNL     1     -15.261   0.569  -9.526  1.00  0.00     0.031 A 
BRANCH  58  72
ATOM     72  C   UNL     1     -11.124  -1.976 -12.005  1.00  0.00    -0.014 A 
ATOM     73  C   UNL     1     -11.603  -1.975 -13.326  1.00  0.00     0.010 A 
ATOM     74  C   UNL     1     -10.805  -3.227 -11.430  1.00  0.00     0.010 A 
ATOM     75  C   UNL     1     -11.793  -3.176 -14.021  1.00  0.00     0.020 A 
ATOM     76  C   UNL     1     -10.942  -4.422 -12.129  1.00  0.00     0.020 A 
ATOM     77  C   UNL     1     -11.474  -4.391 -13.409  1.00  0.00     0.054 A 
BRANCH  77  78
ATOM     78  S   UNL     1     -11.833  -5.945 -14.261  1.00  0.00     0.124 S 
ATOM     79  O   UNL     1     -13.290  -5.996 -14.178  1.00  0.00    -0.237 OA
ATOM     80  O   UNL     1     -11.279  -5.708 -15.591  1.00  0.00    -0.237 OA
ATOM     81  O   UNL     1     -11.122  -6.942 -13.465  1.00  0.00    -0.744 OA
ENDBRANCH  77  78
ENDBRANCH  58  72
BRANCH  59  82
ATOM     82  C   UNL     1     -15.582  -3.172  -4.907  1.00  0.00    -0.014 A 
ATOM     83  C   UNL     1     -16.813  -3.792  -5.183  1.00  0.00     0.010 A 
ATOM     84  C   UNL     1     -14.709  -3.820  -4.007  1.00  0.00     0.010 A 
ATOM     85  C   UNL     1     -17.132  -5.039  -4.621  1.00  0.00     0.020 A 
ATOM     86  C   UNL     1     -15.026  -5.052  -3.430  1.00  0.00     0.020 A 
ATOM     87  C   UNL     1     -16.228  -5.668  -3.760  1.00  0.00     0.054 A 
BRANCH  87  88
ATOM     88  S   UNL     1     -16.569  -7.351  -3.173  1.00  0.00     0.124 S 
ATOM     89  O   UNL     1     -17.657  -7.134  -2.225  1.00  0.00    -0.237 OA
ATOM     90  O   UNL     1     -16.930  -8.049  -4.404  1.00  0.00    -0.237 OA
ATOM     91  O   UNL     1     -15.301  -7.771  -2.577  1.00  0.00    -0.744 OA
ENDBRANCH  87  88
ENDBRANCH  59  82
BRANCH  71  92
ATOM     92  C   UNL     1     -15.937   1.785  -8.931  1.00  0.00    -0.014 A 
ATOM     93  C   UNL     1     -15.705   2.229  -7.615  1.00  0.00     0.010 A 
ATOM     94  C   UNL     1     -16.723   2.588  -9.778  1.00  0.00     0.010 A 
ATOM     95  C   UNL     1     -16.264   3.428  -7.152  1.00  0.00     0.020 A 
ATOM     96  C   UNL     1     -17.269   3.795  -9.328  1.00  0.00     0.020 A 
ATOM     97  C   UNL     1     -17.044   4.205  -8.013  1.00  0.00     0.054 A 
BRANCH  97  98
ATOM     98  S   UNL     1     -17.707   5.789  -7.424  1.00  0.00     0.124 S 
ATOM     99  O   UNL     1     -18.758   5.368  -6.501  1.00  0.00    -0.237 OA
ATOM    100  O   UNL     1     -16.544   6.421  -6.807  1.00  0.00    -0.237 OA
ATOM    101  O   UNL     1     -18.181   6.442  -8.644  1.00  0.00    -0.744 OA
ENDBRANCH  97  98
ENDBRANCH  71  92
ENDBRANCH  45  46
ENDBRANCH  38  40
ENDBRANCH  37  38
ENDBRANCH  36  37
ENDBRANCH  35  36
ENDBRANCH  34  35
ENDBRANCH  33  34
ENDBRANCH  32  33
ENDBRANCH  31  32
ENDBRANCH   1  31
TORSDOF 27
