REMARK SMILES Cc1cccc(N2C(=O)/C(=C/c3ccc(C(=O)OCCOCCOCCOCCOC(=O)c4ccc(-c5c6nc(c(-c7ccc(S(=O)(=O)[O-])cc7)c7ccc([nH]7)c(-c7ccc(S(=O)(=O)[O-])cc7)c7nc(c(-c8ccc(S(=O)(=O)[O-])cc8)c8ccc5[nH]8)C=C7)C=C6)cc4)cc3)c3ccccc3C2=O)c1
REMARK SMILES IDX 25 1 24 2 23 3 22 4 21 5 20 6 19 7 18 8 16 9 17 10 15 11
REMARK SMILES IDX 12 12 13 13 94 14 14 15 93 16 11 17 7 18 8 19 101 20 9 21
REMARK SMILES IDX 10 22 100 23 102 24 95 25 99 26 96 27 98 28 97 29 6 30 1 31
REMARK SMILES IDX 2 32 3 33 103 34 4 35 5 36 26 37 27 38 28 39 29 40 30 41
REMARK SMILES IDX 31 42 32 43 33 44 34 45 92 46 35 47 91 48 36 49 37 50 38 51
REMARK SMILES IDX 85 52 39 53 90 54 84 55 86 56 40 57 89 58 83 59 82 60 41 62
REMARK SMILES IDX 71 63 52 64 70 65 53 66 56 67 69 68 87 69 54 70 55 71 68 73
REMARK SMILES IDX 88 74 57 75 42 76 43 77 51 78 44 79 50 80 45 81 46 82 47 83
REMARK SMILES IDX 48 84 49 85 72 86 73 87 81 88 74 89 80 90 75 91 76 92 77 93
REMARK SMILES IDX 78 94 79 95 58 96 59 97 67 98 60 99 66 100 61 101 62 102
REMARK SMILES IDX 63 103 64 104 65 105
REMARK H PARENT 86 61 56 72
REMARK Flexibility Score: inf
ROOT
ATOM      1  C   UNL     1      -3.395  11.815   2.438  1.00  0.00     0.188 C 
ENDROOT
BRANCH   1   2
ATOM      2  O   UNL     1      -2.911  10.656   1.748  1.00  0.00    -0.377 OA
BRANCH   2   3
ATOM      3  C   UNL     1      -1.565  10.652   1.292  1.00  0.00     0.188 C 
BRANCH   3   4
ATOM      4  C   UNL     1      -1.342  10.934  -0.194  1.00  0.00     0.188 C 
BRANCH   4   5
ATOM      5  O   UNL     1      -1.285  12.287  -0.630  1.00  0.00    -0.376 OA
BRANCH   5   6
ATOM      6  C   UNL     1      -2.519  12.785  -1.135  1.00  0.00     0.202 C 
BRANCH   6   7
ATOM      7  C   UNL     1      -2.935  12.329  -2.531  1.00  0.00     0.261 C 
BRANCH   7   8
ATOM      8  O   UNL     1      -3.240  10.943  -2.556  1.00  0.00    -0.460 OA
BRANCH   8   9
ATOM      9  C   UNL     1      -2.577  10.243  -3.496  1.00  0.00     0.338 C 
ATOM     10  O   UNL     1      -1.993  10.645  -4.480  1.00  0.00    -0.246 OA
BRANCH   9  11
ATOM     11  C   UNL     1      -2.352   8.930  -2.886  1.00  0.00     0.060 A 
ATOM     12  C   UNL     1      -1.665   6.721  -1.356  1.00  0.00    -0.025 A 
ATOM     13  C   UNL     1      -0.675   7.462  -2.021  1.00  0.00     0.009 A 
ATOM     14  C   UNL     1      -3.010   7.093  -1.476  1.00  0.00     0.009 A 
ATOM     15  C   UNL     1      -1.015   8.552  -2.798  1.00  0.00     0.016 A 
ATOM     16  C   UNL     1      -3.357   8.220  -2.222  1.00  0.00     0.016 A 
BRANCH  12  17
ATOM     17  C   UNL     1      -1.181   5.526  -0.668  1.00  0.00     0.022 C 
ATOM     18  N   UNL     1      -1.653   2.434   0.660  1.00  0.00    -0.242 N 
ATOM     19  C   UNL     1      -0.864   3.593   0.631  1.00  0.00     0.265 C 
ATOM     20  C   UNL     1      -3.026   2.536   1.006  1.00  0.00     0.265 C 
ATOM     21  O   UNL     1       0.350   3.708   0.784  1.00  0.00    -0.268 OA
ATOM     22  C   UNL     1      -1.648   4.833   0.383  1.00  0.00     0.049 C 
ATOM     23  C   UNL     1      -3.520   3.853   1.516  1.00  0.00     0.048 A 
ATOM     24  O   UNL     1      -3.869   1.641   0.972  1.00  0.00    -0.268 OA
ATOM     25  C   UNL     1      -2.822   5.020   1.210  1.00  0.00    -0.000 A 
ATOM     26  C   UNL     1      -4.674   3.919   2.308  1.00  0.00     0.014 A 
ATOM     27  C   UNL     1      -3.226   6.243   1.756  1.00  0.00     0.010 A 
ATOM     28  C   UNL     1      -5.095   5.145   2.828  1.00  0.00     0.001 A 
ATOM     29  C   UNL     1      -4.365   6.303   2.561  1.00  0.00     0.001 A 
BRANCH  18  30
ATOM     30  C   UNL     1      -1.029   1.135   0.387  1.00  0.00     0.053 A 
ATOM     31  C   UNL     1       2.499  -0.322  -0.067  1.00  0.00     0.044 C 
ATOM     32  C   UNL     1       1.002  -0.247   0.017  1.00  0.00    -0.049 A 
ATOM     33  C   UNL     1       0.227  -1.394  -0.089  1.00  0.00     0.003 A 
ATOM     34  C   UNL     1       0.368   0.989   0.242  1.00  0.00     0.030 A 
ATOM     35  C   UNL     1      -1.155  -1.292   0.006  1.00  0.00     0.002 A 
ATOM     36  C   UNL     1      -1.768  -0.050   0.235  1.00  0.00     0.027 A 
ENDBRANCH  18  30
ENDBRANCH  12  17
ENDBRANCH   9  11
ENDBRANCH   8   9
ENDBRANCH   7   8
ENDBRANCH   6   7
ENDBRANCH   5   6
ENDBRANCH   4   5
ENDBRANCH   3   4
ENDBRANCH   2   3
ENDBRANCH   1   2
BRANCH   1  37
ATOM     37  C   UNL     1      -2.402  12.651   3.233  1.00  0.00     0.188 C 
BRANCH  37  38
ATOM     38  O   UNL     1      -1.671  13.447   2.292  1.00  0.00    -0.376 OA
BRANCH  38  39
ATOM     39  C   UNL     1      -0.409  13.920   2.733  1.00  0.00     0.202 C 
BRANCH  39  40
ATOM     40  C   UNL     1      -0.467  14.783   3.998  1.00  0.00     0.261 C 
BRANCH  40  41
ATOM     41  O   UNL     1      -0.894  16.136   3.718  1.00  0.00    -0.460 OA
BRANCH  41  42
ATOM     42  C   UNL     1      -2.157  16.477   4.116  1.00  0.00     0.338 C 
ATOM     43  O   UNL     1      -2.400  17.040   5.169  1.00  0.00    -0.246 OA
BRANCH  42  44
ATOM     44  C   UNL     1      -3.148  16.243   3.032  1.00  0.00     0.060 A 
ATOM     45  C   UNL     1      -4.520  16.087   3.279  1.00  0.00     0.016 A 
ATOM     46  C   UNL     1      -2.680  16.084   1.742  1.00  0.00     0.016 A 
ATOM     47  C   UNL     1      -5.383  15.585   2.279  1.00  0.00     0.010 A 
ATOM     48  C   UNL     1      -3.517  15.541   0.792  1.00  0.00     0.010 A 
ATOM     49  C   UNL     1      -4.866  15.237   1.035  1.00  0.00    -0.014 A 
BRANCH  49  50
ATOM     50  C   UNL     1      -5.530  14.474  -0.054  1.00  0.00     0.031 A 
ATOM     51  C   UNL     1      -5.388  14.983  -1.471  1.00  0.00     0.074 A 
ATOM     52  C   UNL     1      -5.827  13.166   0.178  1.00  0.00     0.049 A 
ATOM     53  N   UNL     1      -5.741  14.354  -2.541  1.00  0.00    -0.248 NA
ATOM     54  C   UNL     1      -4.784  16.281  -1.802  1.00  0.00     0.031 C 
ATOM     55  C   UNL     1      -5.769  12.052  -0.781  1.00  0.00     0.029 A 
ATOM     56  N   UNL     1      -6.184  12.504   1.347  1.00  0.00    -0.354 N 
ATOM     57  C   UNL     1      -5.086  14.928  -3.624  1.00  0.00     0.074 A 
ATOM     58  C   UNL     1      -4.587  16.181  -3.123  1.00  0.00     0.031 C 
ATOM     59  C   UNL     1      -6.166  10.907  -0.202  1.00  0.00     0.029 A 
ATOM     60  C   UNL     1      -6.817  11.299   1.022  1.00  0.00     0.049 A 
ATOM     61  H   UNL     1      -6.017  12.831   2.260  1.00  0.00     0.167 HD
ATOM     62  C   UNL     1      -4.898  14.198  -4.769  1.00  0.00     0.031 A 
ATOM     63  C   UNL     1      -8.156  11.102   1.224  1.00  0.00     0.031 A 
ATOM     64  C   UNL     1      -5.651  12.929  -4.728  1.00  0.00     0.049 A 
ATOM     65  C   UNL     1      -8.901  11.051  -0.119  1.00  0.00     0.074 A 
ATOM     66  C   UNL     1      -5.330  11.600  -4.944  1.00  0.00     0.029 A 
ATOM     67  N   UNL     1      -6.955  12.921  -4.231  1.00  0.00    -0.354 N 
ATOM     68  N   UNL     1      -8.434  11.602  -1.219  1.00  0.00    -0.248 NA
ATOM     69  C   UNL     1     -10.108  10.272  -0.394  1.00  0.00     0.031 C 
ATOM     70  C   UNL     1      -6.369  10.800  -4.384  1.00  0.00     0.029 A 
ATOM     71  C   UNL     1      -7.381  11.643  -3.946  1.00  0.00     0.049 A 
ATOM     72  H   UNL     1      -7.502  13.729  -4.101  1.00  0.00     0.167 HD
ATOM     73  C   UNL     1      -9.138  11.173  -2.310  1.00  0.00     0.074 A 
ATOM     74  C   UNL     1     -10.220  10.392  -1.734  1.00  0.00     0.031 C 
ATOM     75  C   UNL     1      -8.780  11.406  -3.611  1.00  0.00     0.031 A 
BRANCH  62  76
ATOM     76  C   UNL     1      -3.852  14.494  -5.858  1.00  0.00    -0.014 A 
ATOM     77  C   UNL     1      -3.792  13.671  -7.008  1.00  0.00     0.010 A 
ATOM     78  C   UNL     1      -2.839  15.476  -5.780  1.00  0.00     0.010 A 
ATOM     79  C   UNL     1      -2.793  13.797  -7.995  1.00  0.00     0.020 A 
ATOM     80  C   UNL     1      -1.855  15.644  -6.783  1.00  0.00     0.020 A 
ATOM     81  C   UNL     1      -1.829  14.792  -7.882  1.00  0.00     0.054 A 
BRANCH  81  82
ATOM     82  S   UNL     1      -0.581  14.976  -9.193  1.00  0.00     0.124 S 
ATOM     83  O   UNL     1       0.236  13.776  -9.031  1.00  0.00    -0.237 OA
ATOM     84  O   UNL     1      -1.393  15.023 -10.406  1.00  0.00    -0.237 OA
ATOM     85  O   UNL     1       0.092  16.230  -8.858  1.00  0.00    -0.744 OA
ENDBRANCH  81  82
ENDBRANCH  62  76
BRANCH  63  86
ATOM     86  C   UNL     1      -8.568  11.514   2.611  1.00  0.00    -0.014 A 
ATOM     87  C   UNL     1      -8.052  10.660   3.621  1.00  0.00     0.010 A 
ATOM     88  C   UNL     1      -8.702  12.884   2.918  1.00  0.00     0.010 A 
ATOM     89  C   UNL     1      -7.381  11.190   4.732  1.00  0.00     0.020 A 
ATOM     90  C   UNL     1      -8.047  13.417   4.051  1.00  0.00     0.020 A 
ATOM     91  C   UNL     1      -7.315  12.571   4.894  1.00  0.00     0.054 A 
BRANCH  91  92
ATOM     92  S   UNL     1      -6.029  13.236   6.010  1.00  0.00     0.124 S 
ATOM     93  O   UNL     1      -6.567  12.931   7.329  1.00  0.00    -0.237 OA
ATOM     94  O   UNL     1      -4.845  12.473   5.615  1.00  0.00    -0.237 OA
ATOM     95  O   UNL     1      -5.987  14.651   5.658  1.00  0.00    -0.744 OA
ENDBRANCH  91  92
ENDBRANCH  63  86
BRANCH  75  96
ATOM     96  C   UNL     1      -9.736  11.429  -4.785  1.00  0.00    -0.014 A 
ATOM     97  C   UNL     1     -11.120  11.572  -4.635  1.00  0.00     0.010 A 
ATOM     98  C   UNL     1      -9.214  11.566  -6.100  1.00  0.00     0.010 A 
ATOM     99  C   UNL     1     -11.942  11.811  -5.742  1.00  0.00     0.020 A 
ATOM    100  C   UNL     1     -10.017  11.853  -7.202  1.00  0.00     0.020 A 
ATOM    101  C   UNL     1     -11.386  11.958  -7.015  1.00  0.00     0.054 A 
BRANCH 101 102
ATOM    102  S   UNL     1     -12.465  12.362  -8.405  1.00  0.00     0.124 S 
ATOM    103  O   UNL     1     -13.073  11.066  -8.694  1.00  0.00    -0.237 OA
ATOM    104  O   UNL     1     -13.362  13.363  -7.832  1.00  0.00    -0.237 OA
ATOM    105  O   UNL     1     -11.549  12.867  -9.425  1.00  0.00    -0.744 OA
ENDBRANCH 101 102
ENDBRANCH  75  96
ENDBRANCH  49  50
ENDBRANCH  42  44
ENDBRANCH  41  42
ENDBRANCH  40  41
ENDBRANCH  39  40
ENDBRANCH  38  39
ENDBRANCH  37  38
ENDBRANCH   1  37
TORSDOF 25
