REMARK SMILES CCC(CC)NC(=O)NC[C@H]1CC[C@H](C(=O)OCCOCCOCCOCCOC(=O)c2ccc(-c3c4nc(c(-c5ccc(S(=O)(=O)[O-])cc5)c5ccc([nH]5)c(-c5ccc(S(=O)(=O)[O-])cc5)c5nc(c(-c6ccc(S(=O)(=O)[O-])cc6)c6ccc3[nH]6)C=C5)C=C4)cc2)O1
REMARK SMILES IDX 22 1 21 2 20 3 19 4 18 5 17 6 15 7 16 8 14 9 11 10 12 11
REMARK SMILES IDX 92 12 13 13 10 14 9 15 6 16 7 17 8 19 3 21 2 22 1 23 4 24
REMARK SMILES IDX 5 25 23 26 24 27 25 28 26 29 27 30 28 31 29 32 30 33 31 34
REMARK SMILES IDX 32 35 33 36 91 37 34 38 90 39 35 40 36 41 37 42 84 43 38 44
REMARK SMILES IDX 89 45 83 46 85 47 39 48 88 49 82 50 81 51 40 53 70 54 51 55
REMARK SMILES IDX 69 56 52 57 55 58 68 59 86 60 53 61 54 62 67 64 87 65 56 66
REMARK SMILES IDX 41 67 42 68 50 69 43 70 49 71 44 72 45 73 46 74 47 75 48 76
REMARK SMILES IDX 71 77 72 78 80 79 73 80 79 81 74 82 75 83 76 84 77 85 78 86
REMARK SMILES IDX 57 87 58 88 66 89 59 90 65 91 60 92 61 93 62 94 63 95 64 96
REMARK H PARENT 6 18 9 20 85 52 55 63
REMARK Flexibility Score: inf
ROOT
ATOM      1  C   UNL     1       2.148   6.369  -3.209  1.00  0.00     0.188 C 
ENDROOT
BRANCH   1   2
ATOM      2  C   UNL     1       1.549   5.342  -4.177  1.00  0.00     0.188 C 
BRANCH   2   3
ATOM      3  O   UNL     1       0.166   5.043  -4.144  1.00  0.00    -0.376 OA
BRANCH   3   4
ATOM      4  C   UNL     1      -0.470   4.578  -2.959  1.00  0.00     0.202 C 
BRANCH   4   5
ATOM      5  C   UNL     1       0.198   3.627  -1.950  1.00  0.00     0.261 C 
BRANCH   5   6
ATOM      6  O   UNL     1       1.474   4.038  -1.433  1.00  0.00    -0.461 OA
BRANCH   6   7
ATOM      7  C   UNL     1       2.534   3.299  -1.836  1.00  0.00     0.335 C 
ATOM      8  O   UNL     1       2.454   2.341  -2.603  1.00  0.00    -0.249 OA
BRANCH   7   9
ATOM      9  C   UNL     1       3.881   3.759  -1.273  1.00  0.00     0.228 C 
ATOM     10  C   UNL     1       4.388   3.423   0.993  1.00  0.00     0.138 C 
ATOM     11  C   UNL     1       3.849   4.833   0.838  1.00  0.00     0.037 C 
ATOM     12  O   UNL     1       4.287   2.792  -0.295  1.00  0.00    -0.361 OA
ATOM     13  C   UNL     1       4.086   5.112  -0.617  1.00  0.00     0.047 C 
BRANCH  10  14
ATOM     14  C   UNL     1       5.854   3.411   1.456  1.00  0.00     0.149 C 
BRANCH  14  15
ATOM     15  N   UNL     1       6.314   2.065   1.749  1.00  0.00    -0.336 N 
ATOM     16  N   UNL     1       7.339   1.182  -0.200  1.00  0.00    -0.335 N 
ATOM     17  C   UNL     1       6.929   1.099   1.067  1.00  0.00     0.315 C 
ATOM     18  H   UNL     1       7.812   0.368  -0.488  1.00  0.00     0.165 HD
ATOM     19  O   UNL     1       7.158   0.042   1.663  1.00  0.00    -0.249 OA
ATOM     20  H   UNL     1       6.127   1.802   2.679  1.00  0.00     0.165 HD
BRANCH  16  21
ATOM     21  C   UNL     1       7.264   2.175  -1.268  1.00  0.00     0.083 C 
BRANCH  21  22
ATOM     22  C   UNL     1       8.649   2.805  -1.484  1.00  0.00     0.021 C 
ATOM     23  C   UNL     1       8.623   4.001  -2.425  1.00  0.00     0.006 C 
ENDBRANCH  21  22
BRANCH  21  24
ATOM     24  C   UNL     1       6.631   1.556  -2.532  1.00  0.00     0.021 C 
ATOM     25  C   UNL     1       7.461   0.482  -3.224  1.00  0.00     0.006 C 
ENDBRANCH  21  24
ENDBRANCH  16  21
ENDBRANCH  14  15
ENDBRANCH  10  14
ENDBRANCH   7   9
ENDBRANCH   6   7
ENDBRANCH   5   6
ENDBRANCH   4   5
ENDBRANCH   3   4
ENDBRANCH   2   3
ENDBRANCH   1   2
BRANCH   1  26
ATOM     26  O   UNL     1       1.429   6.549  -2.006  1.00  0.00    -0.377 OA
BRANCH  26  27
ATOM     27  C   UNL     1       0.447   7.576  -1.929  1.00  0.00     0.188 C 
BRANCH  27  28
ATOM     28  C   UNL     1      -0.173   8.126  -3.226  1.00  0.00     0.188 C 
BRANCH  28  29
ATOM     29  O   UNL     1       0.775   8.445  -4.233  1.00  0.00    -0.376 OA
BRANCH  29  30
ATOM     30  C   UNL     1       1.279   9.771  -4.303  1.00  0.00     0.202 C 
BRANCH  30  31
ATOM     31  C   UNL     1       2.028  10.334  -3.083  1.00  0.00     0.261 C 
BRANCH  31  32
ATOM     32  O   UNL     1       1.286  10.453  -1.857  1.00  0.00    -0.460 OA
BRANCH  32  33
ATOM     33  C   UNL     1       0.114  11.126  -1.880  1.00  0.00     0.338 C 
ATOM     34  O   UNL     1      -0.365  11.728  -2.817  1.00  0.00    -0.246 OA
BRANCH  33  35
ATOM     35  C   UNL     1      -0.595  10.836  -0.613  1.00  0.00     0.060 A 
ATOM     36  C   UNL     1      -1.859  10.236  -0.668  1.00  0.00     0.016 A 
ATOM     37  C   UNL     1      -0.026  11.174   0.617  1.00  0.00     0.016 A 
ATOM     38  C   UNL     1      -2.580  10.016   0.506  1.00  0.00     0.010 A 
ATOM     39  C   UNL     1      -0.758  10.970   1.790  1.00  0.00     0.010 A 
ATOM     40  C   UNL     1      -2.054  10.427   1.737  1.00  0.00    -0.014 A 
BRANCH  40  41
ATOM     41  C   UNL     1      -2.933  10.480   2.932  1.00  0.00     0.031 A 
ATOM     42  C   UNL     1      -3.532  11.807   3.321  1.00  0.00     0.074 A 
ATOM     43  C   UNL     1      -3.221   9.376   3.645  1.00  0.00     0.049 A 
ATOM     44  N   UNL     1      -4.286  12.110   4.345  1.00  0.00    -0.248 NA
ATOM     45  C   UNL     1      -3.236  12.945   2.433  1.00  0.00     0.031 C 
ATOM     46  C   UNL     1      -2.750   8.025   3.343  1.00  0.00     0.029 A 
ATOM     47  N   UNL     1      -3.981   9.223   4.779  1.00  0.00    -0.354 N 
ATOM     48  C   UNL     1      -4.550  13.470   4.230  1.00  0.00     0.074 A 
ATOM     49  C   UNL     1      -3.845  13.942   3.058  1.00  0.00     0.031 C 
ATOM     50  C   UNL     1      -3.223   7.181   4.278  1.00  0.00     0.029 A 
ATOM     51  C   UNL     1      -3.997   7.936   5.262  1.00  0.00     0.049 A 
ATOM     52  H   UNL     1      -4.468   9.965   5.205  1.00  0.00     0.167 HD
ATOM     53  C   UNL     1      -5.318  14.257   5.021  1.00  0.00     0.031 A 
ATOM     54  C   UNL     1      -4.551   7.431   6.384  1.00  0.00     0.031 A 
ATOM     55  C   UNL     1      -6.002  13.791   6.198  1.00  0.00     0.049 A 
ATOM     56  C   UNL     1      -5.324   8.345   7.302  1.00  0.00     0.074 A 
ATOM     57  C   UNL     1      -6.805  14.509   7.067  1.00  0.00     0.029 A 
ATOM     58  N   UNL     1      -5.961  12.489   6.675  1.00  0.00    -0.354 N 
ATOM     59  N   UNL     1      -5.579   9.626   7.171  1.00  0.00    -0.248 NA
ATOM     60  C   UNL     1      -5.894   7.741   8.516  1.00  0.00     0.031 C 
ATOM     61  C   UNL     1      -7.195  13.657   8.105  1.00  0.00     0.029 A 
ATOM     62  C   UNL     1      -6.700  12.390   7.841  1.00  0.00     0.049 A 
ATOM     63  H   UNL     1      -5.477  11.746   6.247  1.00  0.00     0.167 HD
ATOM     64  C   UNL     1      -6.366   9.971   8.267  1.00  0.00     0.074 A 
ATOM     65  C   UNL     1      -6.558   8.762   9.040  1.00  0.00     0.031 C 
ATOM     66  C   UNL     1      -6.886  11.179   8.601  1.00  0.00     0.031 A 
BRANCH  53  67
ATOM     67  C   UNL     1      -5.428  15.715   4.656  1.00  0.00    -0.014 A 
ATOM     68  C   UNL     1      -6.128  16.129   3.509  1.00  0.00     0.010 A 
ATOM     69  C   UNL     1      -4.853  16.688   5.494  1.00  0.00     0.010 A 
ATOM     70  C   UNL     1      -6.218  17.486   3.185  1.00  0.00     0.020 A 
ATOM     71  C   UNL     1      -4.968  18.048   5.191  1.00  0.00     0.020 A 
ATOM     72  C   UNL     1      -5.636  18.437   4.029  1.00  0.00     0.054 A 
BRANCH  72  73
ATOM     73  S   UNL     1      -5.789  20.191   3.596  1.00  0.00     0.124 S 
ATOM     74  O   UNL     1      -4.919  20.289   2.426  1.00  0.00    -0.237 OA
ATOM     75  O   UNL     1      -7.218  20.330   3.328  1.00  0.00    -0.237 OA
ATOM     76  O   UNL     1      -5.310  20.887   4.787  1.00  0.00    -0.744 OA
ENDBRANCH  72  73
ENDBRANCH  53  67
BRANCH  54  77
ATOM     77  C   UNL     1      -4.371   5.991   6.724  1.00  0.00    -0.014 A 
ATOM     78  C   UNL     1      -5.466   5.109   6.735  1.00  0.00     0.010 A 
ATOM     79  C   UNL     1      -3.096   5.499   7.060  1.00  0.00     0.010 A 
ATOM     80  C   UNL     1      -5.293   3.769   7.099  1.00  0.00     0.020 A 
ATOM     81  C   UNL     1      -2.914   4.154   7.391  1.00  0.00     0.020 A 
ATOM     82  C   UNL     1      -4.017   3.300   7.422  1.00  0.00     0.054 A 
BRANCH  82  83
ATOM     83  S   UNL     1      -3.810   1.549   7.850  1.00  0.00     0.124 S 
ATOM     84  O   UNL     1      -4.444   1.480   9.162  1.00  0.00    -0.237 OA
ATOM     85  O   UNL     1      -4.522   0.876   6.766  1.00  0.00    -0.237 OA
ATOM     86  O   UNL     1      -2.361   1.365   7.842  1.00  0.00    -0.744 OA
ENDBRANCH  82  83
ENDBRANCH  54  77
BRANCH  66  87
ATOM     87  C   UNL     1      -7.754  11.251   9.833  1.00  0.00    -0.014 A 
ATOM     88  C   UNL     1      -7.215  11.112  11.124  1.00  0.00     0.010 A 
ATOM     89  C   UNL     1      -9.129  11.520   9.693  1.00  0.00     0.010 A 
ATOM     90  C   UNL     1      -8.040  11.204  12.249  1.00  0.00     0.020 A 
ATOM     91  C   UNL     1      -9.951  11.646  10.816  1.00  0.00     0.020 A 
ATOM     92  C   UNL     1      -9.403  11.472  12.087  1.00  0.00     0.054 A 
BRANCH  92  93
ATOM     93  S   UNL     1     -10.443  11.627  13.565  1.00  0.00     0.124 S 
ATOM     94  O   UNL     1     -10.513  10.246  14.034  1.00  0.00    -0.237 OA
ATOM     95  O   UNL     1      -9.670  12.538  14.406  1.00  0.00    -0.237 OA
ATOM     96  O   UNL     1     -11.697  12.174  13.052  1.00  0.00    -0.744 OA
ENDBRANCH  92  93
ENDBRANCH  66  87
ENDBRANCH  40  41
ENDBRANCH  33  35
ENDBRANCH  32  33
ENDBRANCH  31  32
ENDBRANCH  30  31
ENDBRANCH  29  30
ENDBRANCH  28  29
ENDBRANCH  27  28
ENDBRANCH  26  27
ENDBRANCH   1  26
TORSDOF 28
