REMARK SMILES O=C(OCCOCCOCCOCCOC(=O)[C@H]1C=C[C@@H](NS(=O)(=O)c2ccccc2)C1)c1ccc(-c2c3nc(c(-c4ccc(S(=O)(=O)[O-])cc4)c4ccc([nH]4)c(-c4ccc(S(=O)(=O)[O-])cc4)c4nc(c(-c5ccc(S(=O)(=O)[O-])cc5)c5ccc2[nH]5)C=C4)C=C3)cc1
REMARK SMILES IDX 9 1 8 2 7 3 6 4 5 5 4 6 3 7 2 8 1 9 33 10 34 11 92 12 35 13
REMARK SMILES IDX 91 14 36 15 37 16 38 17 85 18 39 19 90 20 84 21 86 22 40 23
REMARK SMILES IDX 89 24 83 25 82 26 41 28 71 29 52 30 70 31 53 32 56 33 69 34
REMARK SMILES IDX 87 35 54 36 55 37 68 39 88 40 57 41 42 42 43 43 51 44 44 45
REMARK SMILES IDX 50 46 45 47 46 48 47 49 48 50 49 51 72 52 73 53 81 54 74 55
REMARK SMILES IDX 80 56 75 57 76 58 77 59 78 60 79 61 58 62 59 63 67 64 60 65
REMARK SMILES IDX 66 66 61 67 62 68 63 69 64 70 65 71 10 72 11 73 12 74 13 75
REMARK SMILES IDX 14 76 15 77 16 78 17 79 18 80 19 81 32 82 20 83 21 84 22 85
REMARK SMILES IDX 23 87 24 88 25 89 26 90 27 91 31 92 28 93 30 94 29 95
REMARK H PARENT 86 27 56 38 22 86
REMARK Flexibility Score: inf
ROOT
ATOM      1  O   UNL     1       3.188   1.628   3.309  1.00  0.00    -0.377 OA
ENDROOT
BRANCH   1   2
ATOM      2  C   UNL     1       2.215   0.877   2.604  1.00  0.00     0.188 C 
BRANCH   2   3
ATOM      3  C   UNL     1       2.508   0.778   1.124  1.00  0.00     0.188 C 
BRANCH   3   4
ATOM      4  O   UNL     1       3.829   0.309   0.923  1.00  0.00    -0.376 OA
BRANCH   4   5
ATOM      5  C   UNL     1       4.658   0.983  -0.015  1.00  0.00     0.202 C 
BRANCH   5   6
ATOM      6  C   UNL     1       4.164   1.002  -1.454  1.00  0.00     0.261 C 
BRANCH   6   7
ATOM      7  O   UNL     1       2.799   0.596  -1.652  1.00  0.00    -0.460 OA
BRANCH   7   8
ATOM      8  C   UNL     1       2.218  -0.625  -1.664  1.00  0.00     0.338 C 
ATOM      9  O   UNL     1       1.009  -0.685  -1.893  1.00  0.00    -0.246 OA
BRANCH   8  10
ATOM     10  C   UNL     1       2.927  -1.910  -1.402  1.00  0.00     0.060 A 
ATOM     11  C   UNL     1       4.018  -2.071  -0.556  1.00  0.00     0.016 A 
ATOM     12  C   UNL     1       2.376  -3.071  -1.965  1.00  0.00     0.016 A 
ATOM     13  C   UNL     1       4.598  -3.292  -0.305  1.00  0.00     0.010 A 
ATOM     14  C   UNL     1       2.938  -4.325  -1.712  1.00  0.00     0.010 A 
ATOM     15  C   UNL     1       4.071  -4.421  -0.898  1.00  0.00    -0.014 A 
BRANCH  15  16
ATOM     16  C   UNL     1       4.910  -5.617  -0.817  1.00  0.00     0.031 A 
ATOM     17  C   UNL     1       5.719  -5.947  -2.029  1.00  0.00     0.074 A 
ATOM     18  C   UNL     1       5.098  -6.218   0.371  1.00  0.00     0.049 A 
ATOM     19  N   UNL     1       6.484  -6.974  -2.252  1.00  0.00    -0.248 NA
ATOM     20  C   UNL     1       5.675  -4.973  -3.140  1.00  0.00     0.031 C 
ATOM     21  C   UNL     1       4.509  -5.785   1.646  1.00  0.00     0.029 A 
ATOM     22  N   UNL     1       5.871  -7.290   0.712  1.00  0.00    -0.354 N 
ATOM     23  C   UNL     1       6.961  -6.803  -3.544  1.00  0.00     0.074 A 
ATOM     24  C   UNL     1       6.417  -5.571  -4.057  1.00  0.00     0.031 C 
ATOM     25  C   UNL     1       4.948  -6.589   2.628  1.00  0.00     0.029 A 
ATOM     26  C   UNL     1       5.769  -7.637   2.037  1.00  0.00     0.049 A 
ATOM     27  H   UNL     1       6.445  -7.768   0.070  1.00  0.00     0.167 HD
ATOM     28  C   UNL     1       7.767  -7.634  -4.237  1.00  0.00     0.031 A 
ATOM     29  C   UNL     1       6.244  -8.724   2.671  1.00  0.00     0.031 A 
ATOM     30  C   UNL     1       8.273  -8.851  -3.672  1.00  0.00     0.049 A 
ATOM     31  C   UNL     1       7.022  -9.708   1.839  1.00  0.00     0.074 A 
ATOM     32  C   UNL     1       9.028  -9.837  -4.272  1.00  0.00     0.029 A 
ATOM     33  N   UNL     1       8.066  -9.239  -2.353  1.00  0.00    -0.354 N 
ATOM     34  N   UNL     1       7.381  -9.613   0.577  1.00  0.00    -0.248 NA
ATOM     35  C   UNL     1       7.444 -10.946   2.498  1.00  0.00     0.031 C 
ATOM     36  C   UNL     1       9.224 -10.853  -3.332  1.00  0.00     0.029 A 
ATOM     37  C   UNL     1       8.658 -10.463  -2.124  1.00  0.00     0.049 A 
ATOM     38  H   UNL     1       7.570  -8.717  -1.682  1.00  0.00     0.167 HD
ATOM     39  C   UNL     1       8.095 -10.768   0.297  1.00  0.00     0.074 A 
ATOM     40  C   UNL     1       8.131 -11.536   1.529  1.00  0.00     0.031 C 
ATOM     41  C   UNL     1       8.668 -11.170  -0.866  1.00  0.00     0.031 A 
BRANCH  28  42
ATOM     42  C   UNL     1       8.031  -7.298  -5.676  1.00  0.00    -0.014 A 
ATOM     43  C   UNL     1       8.850  -6.218  -6.052  1.00  0.00     0.010 A 
ATOM     44  C   UNL     1       7.415  -8.071  -6.676  1.00  0.00     0.010 A 
ATOM     45  C   UNL     1       9.027  -5.905  -7.403  1.00  0.00     0.020 A 
ATOM     46  C   UNL     1       7.612  -7.779  -8.027  1.00  0.00     0.020 A 
ATOM     47  C   UNL     1       8.409  -6.690  -8.382  1.00  0.00     0.054 A 
BRANCH  47  48
ATOM     48  S   UNL     1       8.692  -6.287 -10.127  1.00  0.00     0.124 S 
ATOM     49  O   UNL     1       7.946  -5.040 -10.274  1.00  0.00    -0.237 OA
ATOM     50  O   UNL     1      10.145  -6.161 -10.192  1.00  0.00    -0.237 OA
ATOM     51  O   UNL     1       8.136  -7.433 -10.843  1.00  0.00    -0.744 OA
ENDBRANCH  47  48
ENDBRANCH  28  42
BRANCH  29  52
ATOM     52  C   UNL     1       5.916  -8.979   4.102  1.00  0.00    -0.014 A 
ATOM     53  C   UNL     1       6.925  -9.066   5.077  1.00  0.00     0.010 A 
ATOM     54  C   UNL     1       4.576  -9.160   4.498  1.00  0.00     0.010 A 
ATOM     55  C   UNL     1       6.603  -9.362   6.407  1.00  0.00     0.020 A 
ATOM     56  C   UNL     1       4.247  -9.421   5.831  1.00  0.00     0.020 A 
ATOM     57  C   UNL     1       5.266  -9.540   6.774  1.00  0.00     0.054 A 
BRANCH  57  58
ATOM     58  S   UNL     1       4.874  -9.916   8.506  1.00  0.00     0.124 S 
ATOM     59  O   UNL     1       5.370 -11.282   8.639  1.00  0.00    -0.237 OA
ATOM     60  O   UNL     1       5.628  -8.893   9.227  1.00  0.00    -0.237 OA
ATOM     61  O   UNL     1       3.421  -9.768   8.568  1.00  0.00    -0.744 OA
ENDBRANCH  57  58
ENDBRANCH  29  52
BRANCH  41  62
ATOM     62  C   UNL     1       9.426 -12.464  -0.833  1.00  0.00    -0.014 A 
ATOM     63  C   UNL     1       8.760 -13.698  -0.753  1.00  0.00     0.010 A 
ATOM     64  C   UNL     1      10.826 -12.434  -0.965  1.00  0.00     0.010 A 
ATOM     65  C   UNL     1       9.489 -14.886  -0.778  1.00  0.00     0.020 A 
ATOM     66  C   UNL     1      11.553 -13.621  -1.029  1.00  0.00     0.020 A 
ATOM     67  C   UNL     1      10.880 -14.839  -0.921  1.00  0.00     0.054 A 
BRANCH  67  68
ATOM     68  S   UNL     1      11.796 -16.398  -1.013  1.00  0.00     0.124 S 
ATOM     69  O   UNL     1      11.724 -16.872   0.366  1.00  0.00    -0.237 OA
ATOM     70  O   UNL     1      11.022 -17.166  -1.985  1.00  0.00    -0.237 OA
ATOM     71  O   UNL     1      13.126 -15.992  -1.464  1.00  0.00    -0.744 OA
ENDBRANCH  67  68
ENDBRANCH  41  62
ENDBRANCH  15  16
ENDBRANCH   8  10
ENDBRANCH   7   8
ENDBRANCH   6   7
ENDBRANCH   5   6
ENDBRANCH   4   5
ENDBRANCH   3   4
ENDBRANCH   2   3
ENDBRANCH   1   2
BRANCH   1  72
ATOM     72  C   UNL     1       4.549   1.209   3.301  1.00  0.00     0.188 C 
BRANCH  72  73
ATOM     73  C   UNL     1       4.921  -0.186   3.818  1.00  0.00     0.188 C 
BRANCH  73  74
ATOM     74  O   UNL     1       3.852  -1.115   3.775  1.00  0.00    -0.376 OA
BRANCH  74  75
ATOM     75  C   UNL     1       3.440  -1.605   5.048  1.00  0.00     0.202 C 
BRANCH  75  76
ATOM     76  C   UNL     1       2.741  -0.615   6.009  1.00  0.00     0.261 C 
BRANCH  76  77
ATOM     77  O   UNL     1       3.122   0.766   5.858  1.00  0.00    -0.463 OA
BRANCH  77  78
ATOM     78  C   UNL     1       3.940   1.354   6.766  1.00  0.00     0.312 C 
ATOM     79  O   UNL     1       4.372   0.806   7.772  1.00  0.00    -0.252 OA
BRANCH  78  80
ATOM     80  C   UNL     1       4.435   2.721   6.278  1.00  0.00     0.123 C 
ATOM     81  C   UNL     1       3.558   3.561   5.389  1.00  0.00    -0.015 C 
ATOM     82  C   UNL     1       4.746   3.749   7.358  1.00  0.00     0.043 C 
ATOM     83  C   UNL     1       3.862   4.854   5.485  1.00  0.00    -0.011 C 
ATOM     84  C   UNL     1       4.832   5.083   6.582  1.00  0.00     0.093 C 
BRANCH  84  85
ATOM     85  N   UNL     1       4.362   6.164   7.425  1.00  0.00    -0.204 NA
ATOM     86  H   UNL     1       4.848   6.073   8.317  1.00  0.00     0.142 HD
BRANCH  85  87
ATOM     87  S   UNL     1       4.542   7.758   6.941  1.00  0.00     0.241 S 
ATOM     88  O   UNL     1       4.365   7.843   5.500  1.00  0.00    -0.207 OA
ATOM     89  O   UNL     1       3.726   8.526   7.842  1.00  0.00    -0.207 OA
BRANCH  87  90
ATOM     90  C   UNL     1       6.227   8.178   7.275  1.00  0.00     0.082 A 
ATOM     91  C   UNL     1       7.170   7.236   7.690  1.00  0.00     0.022 A 
ATOM     92  C   UNL     1       6.601   9.506   7.050  1.00  0.00     0.022 A 
ATOM     93  C   UNL     1       8.504   7.615   7.832  1.00  0.00     0.001 A 
ATOM     94  C   UNL     1       7.930   9.886   7.220  1.00  0.00     0.001 A 
ATOM     95  C   UNL     1       8.882   8.938   7.597  1.00  0.00     0.000 A 
ENDBRANCH  87  90
ENDBRANCH  85  87
ENDBRANCH  84  85
ENDBRANCH  78  80
ENDBRANCH  77  78
ENDBRANCH  76  77
ENDBRANCH  75  76
ENDBRANCH  74  75
ENDBRANCH  73  74
ENDBRANCH  72  73
ENDBRANCH   1  72
TORSDOF 26
