REMARK SMILES CC[C@H]1SC[C@H](C(=O)OCCOCCOCCOCCOC(=O)c2ccc(-c3c4nc(c(-c5ccc(S(=O)(=O)[O-])cc5)c5ccc([nH]5)c(-c5ccc(S(=O)(=O)[O-])cc5)c5nc(c(-c6ccc(S(=O)(=O)[O-])cc6)c6ccc3[nH]6)C=C5)C=C4)cc2)N1C(=O)Cc1ccc(F)c(F)c1
REMARK SMILES IDX 15 1 14 2 13 3 12 4 11 5 10 6 9 7 7 8 8 9 6 10 3 11 4 12
REMARK SMILES IDX 84 13 5 14 2 15 1 16 85 17 86 18 87 19 88 20 89 21 95 22
REMARK SMILES IDX 90 23 93 24 91 25 94 26 92 27 16 28 17 29 18 30 19 31 20 32
REMARK SMILES IDX 21 33 22 34 23 35 24 36 25 37 83 38 26 39 82 40 27 41 28 42
REMARK SMILES IDX 29 43 76 44 30 45 81 46 75 47 77 48 31 49 80 50 74 51 73 52
REMARK SMILES IDX 32 54 62 55 43 56 61 57 44 58 47 59 60 60 78 61 45 62 46 63
REMARK SMILES IDX 59 65 79 66 48 67 33 68 34 69 42 70 35 71 41 72 36 73 37 74
REMARK SMILES IDX 38 75 39 76 40 77 63 78 64 79 72 80 65 81 71 82 66 83 67 84
REMARK SMILES IDX 68 85 69 86 70 87 49 88 50 89 58 90 51 91 57 92 52 93 53 94
REMARK SMILES IDX 54 95 55 96 56 97
REMARK H PARENT 77 53 47 64
REMARK Flexibility Score: inf
ROOT
ATOM      1  O   UNL     1       3.646   5.031  -4.357  1.00  0.00    -0.377 OA
ENDROOT
BRANCH   1   2
ATOM      2  C   UNL     1       2.588   5.546  -3.571  1.00  0.00     0.188 C 
BRANCH   2   3
ATOM      3  C   UNL     1       2.977   6.709  -2.627  1.00  0.00     0.188 C 
BRANCH   3   4
ATOM      4  O   UNL     1       4.312   7.195  -2.562  1.00  0.00    -0.376 OA
BRANCH   4   5
ATOM      5  C   UNL     1       5.403   6.300  -2.719  1.00  0.00     0.202 C 
BRANCH   5   6
ATOM      6  C   UNL     1       5.476   5.008  -1.892  1.00  0.00     0.261 C 
BRANCH   6   7
ATOM      7  O   UNL     1       4.250   4.290  -1.707  1.00  0.00    -0.462 OA
BRANCH   7   8
ATOM      8  C   UNL     1       3.641   4.411  -0.501  1.00  0.00     0.329 C 
ATOM      9  O   UNL     1       3.925   5.260   0.340  1.00  0.00    -0.250 OA
BRANCH   8  10
ATOM     10  C   UNL     1       2.447   3.447  -0.310  1.00  0.00     0.206 C 
ATOM     11  C   UNL     1       0.936   1.894  -1.506  1.00  0.00     0.144 C 
ATOM     12  S   UNL     1       0.184   3.533  -1.776  1.00  0.00    -0.134 SA
ATOM     13  N   UNL     1       2.318   2.233  -1.149  1.00  0.00    -0.316 N 
ATOM     14  C   UNL     1       1.148   4.268  -0.421  1.00  0.00     0.109 C 
BRANCH  11  15
ATOM     15  C   UNL     1       0.064   1.306  -0.366  1.00  0.00     0.033 C 
ATOM     16  C   UNL     1       0.178  -0.179  -0.099  1.00  0.00     0.007 C 
ENDBRANCH  11  15
BRANCH  13  17
ATOM     17  C   UNL     1       3.463   1.478  -1.337  1.00  0.00     0.228 C 
ATOM     18  O   UNL     1       4.541   1.834  -0.845  1.00  0.00    -0.274 OA
BRANCH  17  19
ATOM     19  C   UNL     1       3.405   0.131  -2.031  1.00  0.00     0.135 C 
BRANCH  19  20
ATOM     20  C   UNL     1       3.327  -1.008  -1.032  1.00  0.00    -0.036 A 
ATOM     21  C   UNL     1       3.462  -0.791   0.355  1.00  0.00     0.007 A 
ATOM     22  C   UNL     1       3.071  -2.308  -1.484  1.00  0.00     0.046 A 
ATOM     23  C   UNL     1       3.219  -1.809   1.272  1.00  0.00     0.043 A 
ATOM     24  C   UNL     1       2.848  -3.328  -0.560  1.00  0.00     0.159 A 
ATOM     25  C   UNL     1       2.890  -3.071   0.806  1.00  0.00     0.158 A 
ATOM     26  F   UNL     1       2.548  -4.557  -1.001  1.00  0.00    -0.204 F 
ATOM     27  F   UNL     1       2.591  -4.033   1.689  1.00  0.00    -0.204 F 
ENDBRANCH  19  20
ENDBRANCH  17  19
ENDBRANCH  13  17
ENDBRANCH   8  10
ENDBRANCH   7   8
ENDBRANCH   6   7
ENDBRANCH   5   6
ENDBRANCH   4   5
ENDBRANCH   3   4
ENDBRANCH   2   3
ENDBRANCH   1   2
BRANCH   1  28
ATOM     28  C   UNL     1       3.737   5.542  -5.678  1.00  0.00     0.188 C 
BRANCH  28  29
ATOM     29  C   UNL     1       3.605   7.068  -5.839  1.00  0.00     0.188 C 
BRANCH  29  30
ATOM     30  O   UNL     1       2.442   7.601  -5.217  1.00  0.00    -0.376 OA
BRANCH  30  31
ATOM     31  C   UNL     1       1.320   7.947  -6.007  1.00  0.00     0.202 C 
BRANCH  31  32
ATOM     32  C   UNL     1       0.510   6.802  -6.636  1.00  0.00     0.261 C 
BRANCH  32  33
ATOM     33  O   UNL     1       1.248   5.850  -7.410  1.00  0.00    -0.460 OA
BRANCH  33  34
ATOM     34  C   UNL     1       1.896   6.318  -8.501  1.00  0.00     0.338 C 
ATOM     35  O   UNL     1       1.892   7.454  -8.920  1.00  0.00    -0.246 OA
BRANCH  34  36
ATOM     36  C   UNL     1       2.785   5.239  -8.986  1.00  0.00     0.060 A 
ATOM     37  C   UNL     1       4.159   5.494  -9.085  1.00  0.00     0.016 A 
ATOM     38  C   UNL     1       2.267   3.991  -9.339  1.00  0.00     0.016 A 
ATOM     39  C   UNL     1       5.013   4.519  -9.595  1.00  0.00     0.010 A 
ATOM     40  C   UNL     1       3.119   3.023  -9.875  1.00  0.00     0.010 A 
ATOM     41  C   UNL     1       4.485   3.306 -10.053  1.00  0.00    -0.014 A 
BRANCH  41  42
ATOM     42  C   UNL     1       5.301   2.468 -10.963  1.00  0.00     0.031 A 
ATOM     43  C   UNL     1       5.094   2.643 -12.444  1.00  0.00     0.074 A 
ATOM     44  C   UNL     1       6.231   1.615 -10.499  1.00  0.00     0.049 A 
ATOM     45  N   UNL     1       5.665   2.024 -13.443  1.00  0.00    -0.248 NA
ATOM     46  C   UNL     1       4.103   3.656 -12.853  1.00  0.00     0.031 C 
ATOM     47  C   UNL     1       6.562   1.403  -9.091  1.00  0.00     0.029 A 
ATOM     48  N   UNL     1       7.069   0.766 -11.176  1.00  0.00    -0.354 N 
ATOM     49  C   UNL     1       5.096   2.561 -14.592  1.00  0.00     0.074 A 
ATOM     50  C   UNL     1       4.112   3.530 -14.170  1.00  0.00     0.031 C 
ATOM     51  C   UNL     1       7.533   0.475  -9.009  1.00  0.00     0.029 A 
ATOM     52  C   UNL     1       7.865   0.006 -10.354  1.00  0.00     0.049 A 
ATOM     53  H   UNL     1       7.097   0.708 -12.158  1.00  0.00     0.167 HD
ATOM     54  C   UNL     1       5.373   2.278 -15.886  1.00  0.00     0.031 A 
ATOM     55  C   UNL     1       8.747  -0.968 -10.656  1.00  0.00     0.031 A 
ATOM     56  C   UNL     1       6.344   1.302 -16.301  1.00  0.00     0.049 A 
ATOM     57  C   UNL     1       8.987  -1.319 -12.103  1.00  0.00     0.074 A 
ATOM     58  C   UNL     1       6.706   0.940 -17.586  1.00  0.00     0.029 A 
ATOM     59  N   UNL     1       7.104   0.527 -15.437  1.00  0.00    -0.354 N 
ATOM     60  N   UNL     1       8.450  -0.797 -13.182  1.00  0.00    -0.248 NA
ATOM     61  C   UNL     1       9.968  -2.379 -12.374  1.00  0.00     0.031 C 
ATOM     62  C   UNL     1       7.637  -0.099 -17.499  1.00  0.00     0.029 A 
ATOM     63  C   UNL     1       7.917  -0.327 -16.161  1.00  0.00     0.049 A 
ATOM     64  H   UNL     1       7.070   0.578 -14.454  1.00  0.00     0.167 HD
ATOM     65  C   UNL     1       9.061  -1.435 -14.258  1.00  0.00     0.074 A 
ATOM     66  C   UNL     1      10.012  -2.374 -13.699  1.00  0.00     0.031 C 
ATOM     67  C   UNL     1       8.863  -1.253 -15.588  1.00  0.00     0.031 A 
BRANCH  54  68
ATOM     68  C   UNL     1       4.581   3.004 -16.942  1.00  0.00    -0.014 A 
ATOM     69  C   UNL     1       4.748   4.382 -17.170  1.00  0.00     0.010 A 
ATOM     70  C   UNL     1       3.669   2.286 -17.737  1.00  0.00     0.010 A 
ATOM     71  C   UNL     1       3.990   5.035 -18.146  1.00  0.00     0.020 A 
ATOM     72  C   UNL     1       2.934   2.928 -18.736  1.00  0.00     0.020 A 
ATOM     73  C   UNL     1       3.088   4.303 -18.923  1.00  0.00     0.054 A 
BRANCH  73  74
ATOM     74  S   UNL     1       2.138   5.171 -20.201  1.00  0.00     0.124 S 
ATOM     75  O   UNL     1       1.214   5.970 -19.400  1.00  0.00    -0.237 OA
ATOM     76  O   UNL     1       3.170   5.924 -20.909  1.00  0.00    -0.237 OA
ATOM     77  O   UNL     1       1.521   4.092 -20.969  1.00  0.00    -0.744 OA
ENDBRANCH  73  74
ENDBRANCH  54  68
BRANCH  55  78
ATOM     78  C   UNL     1       9.462  -1.692  -9.567  1.00  0.00    -0.014 A 
ATOM     79  C   UNL     1      10.851  -1.552  -9.398  1.00  0.00     0.010 A 
ATOM     80  C   UNL     1       8.751  -2.537  -8.696  1.00  0.00     0.010 A 
ATOM     81  C   UNL     1      11.518  -2.261  -8.393  1.00  0.00     0.020 A 
ATOM     82  C   UNL     1       9.409  -3.222  -7.670  1.00  0.00     0.020 A 
ATOM     83  C   UNL     1      10.791  -3.088  -7.533  1.00  0.00     0.054 A 
BRANCH  83  84
ATOM     84  S   UNL     1      11.671  -3.960  -6.207  1.00  0.00     0.124 S 
ATOM     85  O   UNL     1      12.425  -4.964  -6.951  1.00  0.00    -0.237 OA
ATOM     86  O   UNL     1      12.462  -2.892  -5.601  1.00  0.00    -0.237 OA
ATOM     87  O   UNL     1      10.594  -4.481  -5.368  1.00  0.00    -0.744 OA
ENDBRANCH  83  84
ENDBRANCH  55  78
BRANCH  67  88
ATOM     88  C   UNL     1       9.737  -2.033 -16.538  1.00  0.00    -0.014 A 
ATOM     89  C   UNL     1       9.617  -3.425 -16.688  1.00  0.00     0.010 A 
ATOM     90  C   UNL     1      10.673  -1.339 -17.329  1.00  0.00     0.010 A 
ATOM     91  C   UNL     1      10.452  -4.115 -17.573  1.00  0.00     0.020 A 
ATOM     92  C   UNL     1      11.483  -2.019 -18.241  1.00  0.00     0.020 A 
ATOM     93  C   UNL     1      11.382  -3.407 -18.341  1.00  0.00     0.054 A 
BRANCH  93  94
ATOM     94  S   UNL     1      12.441  -4.323 -19.494  1.00  0.00     0.124 S 
ATOM     95  O   UNL     1      13.355  -5.009 -18.586  1.00  0.00    -0.237 OA
ATOM     96  O   UNL     1      11.487  -5.180 -20.193  1.00  0.00    -0.237 OA
ATOM     97  O   UNL     1      13.046  -3.276 -20.315  1.00  0.00    -0.744 OA
ENDBRANCH  93  94
ENDBRANCH  67  88
ENDBRANCH  41  42
ENDBRANCH  34  36
ENDBRANCH  33  34
ENDBRANCH  32  33
ENDBRANCH  31  32
ENDBRANCH  30  31
ENDBRANCH  29  30
ENDBRANCH  28  29
ENDBRANCH   1  28
TORSDOF 27
