REMARK SMILES CCc1cc(OC(F)(F)F)cc2c1O[C@H](C(F)(F)F)C(C(=O)OCCOCCOCCOCCOC(=O)c1ccc(-c3c4nc(c(-c5ccc(S(=O)(=O)[O-])cc5)c5ccc([nH]5)c(-c5ccc(S(=O)(=O)[O-])cc5)c5nc(c(-c6ccc(S(=O)(=O)[O-])cc6)c6ccc3[nH]6)C=C5)C=C4)cc1)=C2
REMARK SMILES IDX 30 1 29 2 28 3 27 4 26 5 25 6 24 7 23 8 21 9 22 10 20 11
REMARK SMILES IDX 3 12 4 13 13 14 5 15 12 16 14 17 11 18 98 19 15 20 2 21 1 22
REMARK SMILES IDX 6 23 7 24 8 25 9 26 10 27 16 28 17 29 18 30 19 31 31 32
REMARK SMILES IDX 32 33 33 34 34 35 35 36 36 37 37 38 38 39 39 40 97 41 40 42
REMARK SMILES IDX 96 43 41 44 42 45 43 46 90 47 44 48 95 49 89 50 91 51 45 52
REMARK SMILES IDX 94 53 88 54 87 55 46 57 76 58 57 59 75 60 58 61 61 62 74 63
REMARK SMILES IDX 92 64 59 65 60 66 73 68 93 69 62 70 47 71 48 72 56 73 49 74
REMARK SMILES IDX 55 75 50 76 51 77 52 78 53 79 54 80 77 81 78 82 86 83 79 84
REMARK SMILES IDX 85 85 80 86 81 87 82 88 83 89 84 90 63 91 64 92 72 93 65 94
REMARK SMILES IDX 71 95 66 96 67 97 68 98 69 99 70 100
REMARK H PARENT 91 56 61 67
REMARK Flexibility Score: inf
ROOT
ATOM      1  C   UNL     1      -2.349  10.494  -1.571  1.00  0.00     0.188 C 
ENDROOT
BRANCH   1   2
ATOM      2  O   UNL     1      -1.869   9.181  -1.797  1.00  0.00    -0.377 OA
BRANCH   2   3
ATOM      3  C   UNL     1      -2.052   8.191  -0.799  1.00  0.00     0.188 C 
BRANCH   3   4
ATOM      4  C   UNL     1      -2.126   8.561   0.704  1.00  0.00     0.188 C 
BRANCH   4   5
ATOM      5  O   UNL     1      -1.811   9.911   0.999  1.00  0.00    -0.376 OA
BRANCH   5   6
ATOM      6  C   UNL     1      -0.548  10.189   1.574  1.00  0.00     0.202 C 
BRANCH   6   7
ATOM      7  C   UNL     1       0.698   9.817   0.758  1.00  0.00     0.261 C 
BRANCH   7   8
ATOM      8  O   UNL     1       0.756   8.469   0.264  1.00  0.00    -0.460 OA
BRANCH   8   9
ATOM      9  C   UNL     1       0.802   7.465   1.165  1.00  0.00     0.338 C 
ATOM     10  O   UNL     1       0.793   7.585   2.379  1.00  0.00    -0.246 OA
BRANCH   9  11
ATOM     11  C   UNL     1       0.722   6.154   0.482  1.00  0.00     0.087 C 
ATOM     12  C   UNL     1       1.193   2.194  -0.665  1.00  0.00    -0.002 A 
ATOM     13  C   UNL     1       1.595   1.911  -1.979  1.00  0.00     0.054 A 
ATOM     14  C   UNL     1       1.121   3.538  -0.279  1.00  0.00     0.131 A 
ATOM     15  C   UNL     1       1.925   2.939  -2.873  1.00  0.00     0.130 A 
ATOM     16  C   UNL     1       1.398   4.580  -1.175  1.00  0.00     0.021 A 
ATOM     17  O   UNL     1       0.802   3.789   1.039  1.00  0.00    -0.475 OA
ATOM     18  C   UNL     1       1.798   4.274  -2.474  1.00  0.00     0.058 A 
ATOM     19  C   UNL     1       1.339   5.957  -0.694  1.00  0.00     0.027 C 
ATOM     20  C   UNL     1       0.060   5.017   1.227  1.00  0.00     0.316 C 
BRANCH  12  21
ATOM     21  C   UNL     1       0.750   1.137   0.323  1.00  0.00     0.036 C 
ATOM     22  C   UNL     1       1.113  -0.303   0.006  1.00  0.00     0.009 C 
ENDBRANCH  12  21
BRANCH  15  23
ATOM     23  O   UNL     1       2.367   2.771  -4.156  1.00  0.00    -0.406 OA
BRANCH  23  24
ATOM     24  C   UNL     1       2.842   1.484  -4.516  1.00  0.00     0.573 C 
ATOM     25  F   UNL     1       3.766   1.032  -3.639  1.00  0.00    -0.132 F 
ATOM     26  F   UNL     1       1.823   0.598  -4.585  1.00  0.00    -0.132 F 
ATOM     27  F   UNL     1       3.419   1.551  -5.735  1.00  0.00    -0.132 F 
ENDBRANCH  23  24
ENDBRANCH  15  23
BRANCH  20  28
ATOM     28  C   UNL     1      -1.443   4.756   0.940  1.00  0.00     0.430 C 
ATOM     29  F   UNL     1      -1.660   3.650   0.187  1.00  0.00    -0.167 F 
ATOM     30  F   UNL     1      -2.127   4.571   2.098  1.00  0.00    -0.167 F 
ATOM     31  F   UNL     1      -2.051   5.772   0.299  1.00  0.00    -0.167 F 
ENDBRANCH  20  28
ENDBRANCH   9  11
ENDBRANCH   8   9
ENDBRANCH   7   8
ENDBRANCH   6   7
ENDBRANCH   5   6
ENDBRANCH   4   5
ENDBRANCH   3   4
ENDBRANCH   2   3
ENDBRANCH   1   2
BRANCH   1  32
ATOM     32  C   UNL     1      -3.753  10.697  -0.961  1.00  0.00     0.188 C 
BRANCH  32  33
ATOM     33  O   UNL     1      -4.391   9.502  -0.535  1.00  0.00    -0.376 OA
BRANCH  33  34
ATOM     34  C   UNL     1      -5.550   9.088  -1.233  1.00  0.00     0.202 C 
BRANCH  34  35
ATOM     35  C   UNL     1      -5.332   8.557  -2.655  1.00  0.00     0.261 C 
BRANCH  35  36
ATOM     36  O   UNL     1      -4.583   9.407  -3.531  1.00  0.00    -0.460 OA
BRANCH  36  37
ATOM     37  C   UNL     1      -5.136  10.591  -3.871  1.00  0.00     0.338 C 
ATOM     38  O   UNL     1      -6.204  11.043  -3.498  1.00  0.00    -0.246 OA
BRANCH  37  39
ATOM     39  C   UNL     1      -4.119  11.325  -4.646  1.00  0.00     0.060 A 
ATOM     40  C   UNL     1      -3.639  12.555  -4.175  1.00  0.00     0.016 A 
ATOM     41  C   UNL     1      -3.613  10.762  -5.819  1.00  0.00     0.016 A 
ATOM     42  C   UNL     1      -2.644  13.229  -4.884  1.00  0.00     0.010 A 
ATOM     43  C   UNL     1      -2.647  11.453  -6.545  1.00  0.00     0.010 A 
ATOM     44  C   UNL     1      -2.178  12.699  -6.093  1.00  0.00    -0.014 A 
BRANCH  44  45
ATOM     45  C   UNL     1      -1.396  13.536  -7.030  1.00  0.00     0.031 A 
ATOM     46  C   UNL     1      -2.161  14.276  -8.091  1.00  0.00     0.074 A 
ATOM     47  C   UNL     1      -0.054  13.592  -6.981  1.00  0.00     0.049 A 
ATOM     48  N   UNL     1      -1.717  14.936  -9.126  1.00  0.00    -0.248 NA
ATOM     49  C   UNL     1      -3.631  14.254  -7.971  1.00  0.00     0.031 C 
ATOM     50  C   UNL     1       0.788  12.961  -5.967  1.00  0.00     0.029 A 
ATOM     51  N   UNL     1       0.836  14.199  -7.832  1.00  0.00    -0.354 N 
ATOM     52  C   UNL     1      -2.849  15.390  -9.791  1.00  0.00     0.074 A 
ATOM     53  C   UNL     1      -4.000  14.917  -9.055  1.00  0.00     0.031 C 
ATOM     54  C   UNL     1       2.079  13.195  -6.268  1.00  0.00     0.029 A 
ATOM     55  C   UNL     1       2.152  13.950  -7.519  1.00  0.00     0.049 A 
ATOM     56  H   UNL     1       0.559  14.759  -8.592  1.00  0.00     0.167 HD
ATOM     57  C   UNL     1      -2.923  16.132 -10.919  1.00  0.00     0.031 A 
ATOM     58  C   UNL     1       3.279  14.264  -8.190  1.00  0.00     0.031 A 
ATOM     59  C   UNL     1      -1.774  16.574 -11.657  1.00  0.00     0.049 A 
ATOM     60  C   UNL     1       3.171  15.017  -9.495  1.00  0.00     0.074 A 
ATOM     61  C   UNL     1      -1.734  17.333 -12.812  1.00  0.00     0.029 A 
ATOM     62  N   UNL     1      -0.460  16.289 -11.315  1.00  0.00    -0.354 N 
ATOM     63  N   UNL     1       2.096  15.454 -10.109  1.00  0.00    -0.248 NA
ATOM     64  C   UNL     1       4.427  15.318 -10.198  1.00  0.00     0.031 C 
ATOM     65  C   UNL     1      -0.398  17.457 -13.202  1.00  0.00     0.029 A 
ATOM     66  C   UNL     1       0.398  16.838 -12.250  1.00  0.00     0.049 A 
ATOM     67  H   UNL     1      -0.180  15.773 -10.525  1.00  0.00     0.167 HD
ATOM     68  C   UNL     1       2.550  16.116 -11.246  1.00  0.00     0.074 A 
ATOM     69  C   UNL     1       3.995  16.022 -11.236  1.00  0.00     0.031 C 
ATOM     70  C   UNL     1       1.836  16.751 -12.208  1.00  0.00     0.031 A 
BRANCH  57  71
ATOM     71  C   UNL     1      -4.293  16.468 -11.440  1.00  0.00    -0.014 A 
ATOM     72  C   UNL     1      -5.128  17.377 -10.764  1.00  0.00     0.010 A 
ATOM     73  C   UNL     1      -4.742  15.885 -12.639  1.00  0.00     0.010 A 
ATOM     74  C   UNL     1      -6.400  17.669 -11.260  1.00  0.00     0.020 A 
ATOM     75  C   UNL     1      -6.002  16.198 -13.153  1.00  0.00     0.020 A 
ATOM     76  C   UNL     1      -6.830  17.077 -12.452  1.00  0.00     0.054 A 
BRANCH  76  77
ATOM     77  S   UNL     1      -8.476  17.497 -13.086  1.00  0.00     0.124 S 
ATOM     78  O   UNL     1      -9.348  16.810 -12.137  1.00  0.00    -0.237 OA
ATOM     79  O   UNL     1      -8.486  18.955 -13.006  1.00  0.00    -0.237 OA
ATOM     80  O   UNL     1      -8.476  16.949 -14.441  1.00  0.00    -0.744 OA
ENDBRANCH  76  77
ENDBRANCH  57  71
BRANCH  58  81
ATOM     81  C   UNL     1       4.607  13.847  -7.662  1.00  0.00    -0.014 A 
ATOM     82  C   UNL     1       5.526  14.804  -7.197  1.00  0.00     0.010 A 
ATOM     83  C   UNL     1       4.967  12.486  -7.628  1.00  0.00     0.010 A 
ATOM     84  C   UNL     1       6.784  14.412  -6.726  1.00  0.00     0.020 A 
ATOM     85  C   UNL     1       6.211  12.088  -7.131  1.00  0.00     0.020 A 
ATOM     86  C   UNL     1       7.117  13.055  -6.694  1.00  0.00     0.054 A 
BRANCH  86  87
ATOM     87  S   UNL     1       8.736  12.568  -6.033  1.00  0.00     0.124 S 
ATOM     88  O   UNL     1       9.640  13.007  -7.090  1.00  0.00    -0.237 OA
ATOM     89  O   UNL     1       8.806  13.323  -4.785  1.00  0.00    -0.237 OA
ATOM     90  O   UNL     1       8.617  11.120  -5.871  1.00  0.00    -0.744 OA
ENDBRANCH  86  87
ENDBRANCH  58  81
BRANCH  70  91
ATOM     91  C   UNL     1       2.592  17.458 -13.303  1.00  0.00    -0.014 A 
ATOM     92  C   UNL     1       3.219  16.747 -14.340  1.00  0.00     0.010 A 
ATOM     93  C   UNL     1       2.567  18.865 -13.351  1.00  0.00     0.010 A 
ATOM     94  C   UNL     1       3.814  17.433 -15.403  1.00  0.00     0.020 A 
ATOM     95  C   UNL     1       3.136  19.552 -14.425  1.00  0.00     0.020 A 
ATOM     96  C   UNL     1       3.761  18.830 -15.443  1.00  0.00     0.054 A 
BRANCH  96  97
ATOM     97  S   UNL     1       4.460  19.690 -16.879  1.00  0.00     0.124 S 
ATOM     98  O   UNL     1       5.895  19.521 -16.667  1.00  0.00    -0.237 OA
ATOM     99  O   UNL     1       3.899  18.944 -18.003  1.00  0.00    -0.237 OA
ATOM    100  O   UNL     1       3.967  21.059 -16.739  1.00  0.00    -0.744 OA
ENDBRANCH  96  97
ENDBRANCH  70  91
ENDBRANCH  44  45
ENDBRANCH  37  39
ENDBRANCH  36  37
ENDBRANCH  35  36
ENDBRANCH  34  35
ENDBRANCH  33  34
ENDBRANCH  32  33
ENDBRANCH   1  32
TORSDOF 27
