REMARK SMILES Cc1ccc(-c2coc3cc4oc(=O)c(CC(=O)N[C@H](Cc5ccccc5)C(=O)OCCOCCOCCOCCOC(=O)c5ccc(-c6c7nc(c(-c8ccc(S(=O)(=O)[O-])cc8)c8ccc([nH]8)c(-c8ccc(S(=O)(=O)[O-])cc8)c8nc(c(-c9ccc(S(=O)(=O)[O-])cc9)c9ccc6[nH]9)C=C8)C=C7)cc5)c(C)c4cc23)cc1
REMARK SMILES IDX 35 1 34 2 33 3 32 4 31 5 30 6 28 7 29 8 20 9 19 10 17 11
REMARK SMILES IDX 18 12 16 14 15 15 6 16 7 17 109 18 8 19 9 20 108 21 10 22
REMARK SMILES IDX 107 23 11 24 105 25 12 26 106 27 13 28 14 29 5 30 1 31 2 32
REMARK SMILES IDX 3 33 111 34 4 35 110 36 21 37 22 38 23 39 27 40 24 41 26 42
REMARK SMILES IDX 25 43 36 44 37 45 38 46 39 47 40 48 41 49 42 50 43 51 44 52
REMARK SMILES IDX 45 53 46 54 104 55 47 56 103 57 48 58 49 59 50 60 97 61
REMARK SMILES IDX 51 62 102 63 96 64 98 65 52 66 101 67 95 68 94 69 53 71
REMARK SMILES IDX 83 72 64 73 82 74 65 75 68 76 81 77 99 78 66 79 67 80 80 82
REMARK SMILES IDX 100 83 69 84 54 85 55 86 63 87 56 88 62 89 57 90 58 91 59 92
REMARK SMILES IDX 60 93 61 94 84 95 85 96 93 97 86 98 92 99 87 100 88 101
REMARK SMILES IDX 89 102 90 103 91 104 70 105 71 106 79 107 72 108 78 109
REMARK SMILES IDX 73 110 74 111 75 112 76 113 77 114
REMARK H PARENT 19 13 98 70 68 81
REMARK Flexibility Score: inf
ROOT
ATOM      1  C   UNL     1      -7.291   7.794  -5.700  1.00  0.00     0.188 C 
ENDROOT
BRANCH   1   2
ATOM      2  C   UNL     1      -8.412   6.753  -5.840  1.00  0.00     0.188 C 
BRANCH   2   3
ATOM      3  O   UNL     1      -9.783   7.035  -5.706  1.00  0.00    -0.376 OA
BRANCH   3   4
ATOM      4  C   UNL     1     -10.172   7.206  -4.357  1.00  0.00     0.202 C 
BRANCH   4   5
ATOM      5  C   UNL     1     -10.021   6.060  -3.351  1.00  0.00     0.261 C 
BRANCH   5   6
ATOM      6  O   UNL     1      -8.657   5.809  -2.957  1.00  0.00    -0.462 OA
BRANCH   6   7
ATOM      7  C   UNL     1      -8.216   4.547  -3.102  1.00  0.00     0.329 C 
ATOM      8  O   UNL     1      -8.917   3.586  -3.444  1.00  0.00    -0.250 OA
BRANCH   7   9
ATOM      9  C   UNL     1      -6.695   4.430  -2.953  1.00  0.00     0.196 C 
BRANCH   9  10
ATOM     10  N   UNL     1      -6.177   4.681  -1.601  1.00  0.00    -0.342 N 
ATOM     11  C   UNL     1      -4.910   4.466  -1.125  1.00  0.00     0.225 C 
ATOM     12  O   UNL     1      -4.655   4.839   0.024  1.00  0.00    -0.275 OA
ATOM     13  H   UNL     1      -6.821   5.050  -0.955  1.00  0.00     0.164 HD
BRANCH  11  14
ATOM     14  C   UNL     1      -3.778   3.839  -1.989  1.00  0.00     0.143 C 
BRANCH  14  15
ATOM     15  C   UNL     1      -4.152   2.736  -2.959  1.00  0.00     0.051 A 
ATOM     16  C   UNL     1      -8.486  -1.379  -4.691  1.00  0.00     0.028 A 
ATOM     17  C   UNL     1      -8.886  -1.350  -6.010  1.00  0.00     0.205 A 
ATOM     18  C   UNL     1      -7.449  -0.417  -4.566  1.00  0.00     0.029 A 
ATOM     19  O   UNL     1      -8.130  -0.460  -6.716  1.00  0.00    -0.464 OA
ATOM     20  C   UNL     1      -7.234   0.081  -5.842  1.00  0.00     0.138 A 
ATOM     21  C   UNL     1      -6.649   0.046  -3.504  1.00  0.00     0.025 A 
ATOM     22  C   UNL     1      -6.213   0.971  -6.150  1.00  0.00     0.095 A 
ATOM     23  C   UNL     1      -5.635   0.980  -3.746  1.00  0.00     0.022 A 
ATOM     24  C   UNL     1      -5.418   1.382  -5.065  1.00  0.00     0.142 A 
ATOM     25  C   UNL     1      -4.944   1.688  -2.646  1.00  0.00    -0.029 A 
ATOM     26  O   UNL     1      -4.364   2.269  -5.361  1.00  0.00    -0.422 OA
ATOM     27  C   UNL     1      -5.374   1.384  -1.234  1.00  0.00     0.046 C 
ATOM     28  C   UNL     1      -3.677   2.936  -4.357  1.00  0.00     0.340 A 
ATOM     29  O   UNL     1      -2.734   3.678  -4.613  1.00  0.00    -0.246 OA
BRANCH  16  30
ATOM     30  C   UNL     1      -8.938  -2.318  -3.691  1.00  0.00    -0.015 A 
ATOM     31  C   UNL     1      -9.703  -5.089  -0.486  1.00  0.00     0.044 C 
ATOM     32  C   UNL     1      -9.457  -4.120  -1.603  1.00  0.00    -0.051 A 
ATOM     33  C   UNL     1      -8.919  -4.576  -2.813  1.00  0.00     0.004 A 
ATOM     34  C   UNL     1      -9.747  -2.759  -1.452  1.00  0.00     0.004 A 
ATOM     35  C   UNL     1      -8.661  -3.680  -3.852  1.00  0.00     0.009 A 
ATOM     36  C   UNL     1      -9.488  -1.861  -2.490  1.00  0.00     0.009 A 
ENDBRANCH  16  30
ENDBRANCH  14  15
ENDBRANCH  11  14
ENDBRANCH   9  10
BRANCH   9  37
ATOM     37  C   UNL     1      -5.942   5.322  -3.936  1.00  0.00     0.072 C 
BRANCH  37  38
ATOM     38  C   UNL     1      -5.869   4.973  -5.417  1.00  0.00    -0.045 A 
ATOM     39  C   UNL     1      -4.877   5.610  -6.189  1.00  0.00     0.004 A 
ATOM     40  C   UNL     1      -6.826   4.205  -6.094  1.00  0.00     0.004 A 
ATOM     41  C   UNL     1      -4.899   5.556  -7.584  1.00  0.00     0.000 A 
ATOM     42  C   UNL     1      -6.863   4.174  -7.493  1.00  0.00     0.000 A 
ATOM     43  C   UNL     1      -5.910   4.861  -8.237  1.00  0.00     0.000 A 
ENDBRANCH  37  38
ENDBRANCH   9  37
ENDBRANCH   7   9
ENDBRANCH   6   7
ENDBRANCH   5   6
ENDBRANCH   4   5
ENDBRANCH   3   4
ENDBRANCH   2   3
ENDBRANCH   1   2
BRANCH   1  44
ATOM     44  O   UNL     1      -7.542   9.013  -5.044  1.00  0.00    -0.377 OA
BRANCH  44  45
ATOM     45  C   UNL     1      -6.572  10.019  -5.421  1.00  0.00     0.188 C 
BRANCH  45  46
ATOM     46  C   UNL     1      -6.530  10.220  -6.927  1.00  0.00     0.188 C 
BRANCH  46  47
ATOM     47  O   UNL     1      -7.806   9.783  -7.386  1.00  0.00    -0.376 OA
BRANCH  47  48
ATOM     48  C   UNL     1      -7.918   9.330  -8.706  1.00  0.00     0.202 C 
BRANCH  48  49
ATOM     49  C   UNL     1      -7.755  10.531  -9.604  1.00  0.00     0.261 C 
BRANCH  49  50
ATOM     50  O   UNL     1      -8.903  11.418  -9.441  1.00  0.00    -0.460 OA
BRANCH  50  51
ATOM     51  C   UNL     1      -8.854  12.452  -8.539  1.00  0.00     0.338 C 
ATOM     52  O   UNL     1      -8.619  13.601  -8.889  1.00  0.00    -0.246 OA
BRANCH  51  53
ATOM     53  C   UNL     1      -9.354  12.134  -7.154  1.00  0.00     0.060 A 
ATOM     54  C   UNL     1      -8.965  12.895  -6.035  1.00  0.00     0.016 A 
ATOM     55  C   UNL     1     -10.130  11.008  -6.932  1.00  0.00     0.016 A 
ATOM     56  C   UNL     1      -9.209  12.449  -4.706  1.00  0.00     0.010 A 
ATOM     57  C   UNL     1     -10.288  10.535  -5.630  1.00  0.00     0.010 A 
ATOM     58  C   UNL     1      -9.825  11.219  -4.482  1.00  0.00    -0.014 A 
BRANCH  58  59
ATOM     59  C   UNL     1      -9.950  10.474  -3.181  1.00  0.00     0.031 A 
ATOM     60  C   UNL     1     -11.280   9.794  -2.877  1.00  0.00     0.074 A 
ATOM     61  C   UNL     1      -8.827  10.049  -2.530  1.00  0.00     0.049 A 
ATOM     62  N   UNL     1     -11.501   8.895  -1.970  1.00  0.00    -0.248 NA
ATOM     63  C   UNL     1     -12.498  10.061  -3.652  1.00  0.00     0.031 C 
ATOM     64  C   UNL     1      -8.637   8.730  -1.905  1.00  0.00     0.029 A 
ATOM     65  N   UNL     1      -7.558  10.586  -2.401  1.00  0.00    -0.354 N 
ATOM     66  C   UNL     1     -12.713   8.266  -2.239  1.00  0.00     0.074 A 
ATOM     67  C   UNL     1     -13.318   9.073  -3.268  1.00  0.00     0.031 C 
ATOM     68  C   UNL     1      -7.373   8.555  -1.493  1.00  0.00     0.029 A 
ATOM     69  C   UNL     1      -6.784   9.863  -1.480  1.00  0.00     0.049 A 
ATOM     70  H   UNL     1      -7.239  11.376  -2.894  1.00  0.00     0.167 HD
ATOM     71  C   UNL     1     -13.008   7.056  -1.661  1.00  0.00     0.031 A 
ATOM     72  C   UNL     1      -6.394  10.453  -0.308  1.00  0.00     0.031 A 
ATOM     73  C   UNL     1     -12.049   6.713  -0.591  1.00  0.00     0.049 A 
ATOM     74  C   UNL     1      -7.238   9.962   0.879  1.00  0.00     0.074 A 
ATOM     75  C   UNL     1     -11.278   5.599  -0.291  1.00  0.00     0.029 A 
ATOM     76  N   UNL     1     -11.635   7.706   0.295  1.00  0.00    -0.354 N 
ATOM     77  N   UNL     1      -8.385   9.333   0.728  1.00  0.00    -0.248 NA
ATOM     78  C   UNL     1      -6.851  10.000   2.290  1.00  0.00     0.031 C 
ATOM     79  C   UNL     1     -10.265   6.006   0.625  1.00  0.00     0.029 A 
ATOM     80  C   UNL     1     -10.503   7.325   0.982  1.00  0.00     0.049 A 
ATOM     81  H   UNL     1     -12.093   8.569   0.416  1.00  0.00     0.167 HD
ATOM     82  C   UNL     1      -8.859   8.878   1.920  1.00  0.00     0.074 A 
ATOM     83  C   UNL     1      -7.870   9.340   2.878  1.00  0.00     0.031 C 
ATOM     84  C   UNL     1     -10.008   8.154   2.071  1.00  0.00     0.031 A 
BRANCH  71  85
ATOM     85  C   UNL     1     -14.057   6.040  -2.155  1.00  0.00    -0.014 A 
ATOM     86  C   UNL     1     -14.271   4.857  -1.405  1.00  0.00     0.010 A 
ATOM     87  C   UNL     1     -14.777   6.108  -3.369  1.00  0.00     0.010 A 
ATOM     88  C   UNL     1     -15.113   3.812  -1.831  1.00  0.00     0.020 A 
ATOM     89  C   UNL     1     -15.663   5.082  -3.791  1.00  0.00     0.020 A 
ATOM     90  C   UNL     1     -15.817   3.932  -3.021  1.00  0.00     0.054 A 
BRANCH  90  91
ATOM     91  S   UNL     1     -16.945   2.590  -3.509  1.00  0.00     0.124 S 
ATOM     92  O   UNL     1     -16.027   1.488  -3.787  1.00  0.00    -0.237 OA
ATOM     93  O   UNL     1     -17.777   2.424  -2.319  1.00  0.00    -0.237 OA
ATOM     94  O   UNL     1     -17.642   3.125  -4.676  1.00  0.00    -0.744 OA
ENDBRANCH  90  91
ENDBRANCH  71  85
BRANCH  72  95
ATOM     95  C   UNL     1      -5.646  11.727  -0.623  1.00  0.00    -0.014 A 
ATOM     96  C   UNL     1      -4.388  11.483  -1.240  1.00  0.00     0.010 A 
ATOM     97  C   UNL     1      -6.381  12.846  -1.078  1.00  0.00     0.010 A 
ATOM     98  C   UNL     1      -4.053  12.092  -2.461  1.00  0.00     0.020 A 
ATOM     99  C   UNL     1      -6.041  13.462  -2.305  1.00  0.00     0.020 A 
ATOM    100  C   UNL     1      -4.919  13.029  -3.022  1.00  0.00     0.054 A 
BRANCH 100 101
ATOM    101  S   UNL     1      -4.730  13.434  -4.796  1.00  0.00     0.124 S 
ATOM    102  O   UNL     1      -3.722  14.486  -4.775  1.00  0.00    -0.237 OA
ATOM    103  O   UNL     1      -4.306  12.161  -5.380  1.00  0.00    -0.237 OA
ATOM    104  O   UNL     1      -6.072  13.850  -5.187  1.00  0.00    -0.744 OA
ENDBRANCH 100 101
ENDBRANCH  72  95
BRANCH  84 105
ATOM    105  C   UNL     1     -10.825   8.150   3.338  1.00  0.00    -0.014 A 
ATOM    106  C   UNL     1     -10.737   9.184   4.279  1.00  0.00     0.010 A 
ATOM    107  C   UNL     1     -11.880   7.216   3.494  1.00  0.00     0.010 A 
ATOM    108  C   UNL     1     -11.600   9.235   5.373  1.00  0.00     0.020 A 
ATOM    109  C   UNL     1     -12.782   7.288   4.556  1.00  0.00     0.020 A 
ATOM    110  C   UNL     1     -12.610   8.282   5.510  1.00  0.00     0.054 A 
BRANCH 110 111
ATOM    111  S   UNL     1     -13.714   8.388   6.933  1.00  0.00     0.124 S 
ATOM    112  O   UNL     1     -12.871   7.851   7.998  1.00  0.00    -0.237 OA
ATOM    113  O   UNL     1     -13.993   9.820   7.017  1.00  0.00    -0.237 OA
ATOM    114  O   UNL     1     -14.853   7.557   6.555  1.00  0.00    -0.744 OA
ENDBRANCH 110 111
ENDBRANCH  84 105
ENDBRANCH  58  59
ENDBRANCH  51  53
ENDBRANCH  50  51
ENDBRANCH  49  50
ENDBRANCH  48  49
ENDBRANCH  47  48
ENDBRANCH  46  47
ENDBRANCH  45  46
ENDBRANCH  44  45
ENDBRANCH   1  44
TORSDOF 29
