REMARK SMILES COCc1cc(SCC(=O)OCCOCCOCCOCCOC(=O)c2ccc(-c3c4nc(c(-c5ccc(S(=O)(=O)[O-])cc5)c5ccc([nH]5)c(-c5ccc(S(=O)(=O)[O-])cc5)c5nc(c(-c6ccc(S(=O)(=O)[O-])cc6)c6ccc3[nH]6)C=C5)C=C4)cc2)nc(-c2cccnc2)n1
REMARK SMILES IDX 16 1 15 2 14 3 13 4 12 5 11 6 9 7 10 8 8 9 7 10 6 11 4 12
REMARK SMILES IDX 5 13 94 14 87 15 86 16 3 17 2 18 1 19 88 20 89 21 93 22
REMARK SMILES IDX 90 23 92 24 91 25 17 26 18 27 19 28 20 29 21 30 22 31 23 32
REMARK SMILES IDX 24 33 25 34 26 35 27 36 85 37 28 38 84 39 29 40 30 41 31 42
REMARK SMILES IDX 78 43 32 44 83 45 77 46 79 47 33 48 82 49 76 50 75 51 34 53
REMARK SMILES IDX 64 54 45 55 63 56 46 57 49 58 62 59 80 60 47 61 48 62 61 64
REMARK SMILES IDX 81 65 50 66 35 67 36 68 44 69 37 70 43 71 38 72 39 73 40 74
REMARK SMILES IDX 41 75 42 76 65 77 66 78 74 79 67 80 73 81 68 82 69 83 70 84
REMARK SMILES IDX 71 85 72 86 51 87 52 88 60 89 53 90 59 91 54 92 55 93 56 94
REMARK SMILES IDX 57 95 58 96
REMARK H PARENT 79 52 49 63
REMARK Flexibility Score: inf
ROOT
ATOM      1  C   UNL     1      -2.253   1.990   0.755  1.00  0.00     0.188 C 
ENDROOT
BRANCH   1   2
ATOM      2  C   UNL     1      -1.992   0.688  -0.023  1.00  0.00     0.188 C 
BRANCH   2   3
ATOM      3  O   UNL     1      -3.062  -0.106  -0.491  1.00  0.00    -0.376 OA
BRANCH   3   4
ATOM      4  C   UNL     1      -4.161  -0.446   0.325  1.00  0.00     0.202 C 
BRANCH   4   5
ATOM      5  C   UNL     1      -4.051  -0.729   1.838  1.00  0.00     0.261 C 
BRANCH   5   6
ATOM      6  O   UNL     1      -3.057  -0.009   2.604  1.00  0.00    -0.463 OA
BRANCH   6   7
ATOM      7  C   UNL     1      -1.928  -0.678   2.934  1.00  0.00     0.316 C 
ATOM      8  O   UNL     1      -1.742  -1.857   2.635  1.00  0.00    -0.251 OA
BRANCH   7   9
ATOM      9  C   UNL     1      -0.867   0.073   3.735  1.00  0.00     0.199 C 
BRANCH   9  10
ATOM     10  S   UNL     1      -0.908   1.895   3.920  1.00  0.00    -0.094 SA
BRANCH  10  11
ATOM     11  C   UNL     1       0.332   2.613   2.804  1.00  0.00     0.101 A 
ATOM     12  C   UNL     1       1.595   2.580   0.808  1.00  0.00     0.071 A 
ATOM     13  C   UNL     1       0.990   1.877   1.839  1.00  0.00     0.062 A 
ATOM     14  N   UNL     1       1.663   3.928   0.804  1.00  0.00    -0.230 NA
ATOM     15  C   UNL     1       1.075   4.577   1.825  1.00  0.00     0.162 A 
ATOM     16  N   UNL     1       0.412   3.970   2.832  1.00  0.00    -0.222 NA
BRANCH  12  17
ATOM     17  C   UNL     1       2.126   1.866  -0.420  1.00  0.00     0.215 C 
BRANCH  17  18
ATOM     18  O   UNL     1       1.311   0.748  -0.784  1.00  0.00    -0.378 OA
ATOM     19  C   UNL     1       1.914  -0.511  -0.527  1.00  0.00     0.195 C 
ENDBRANCH  17  18
ENDBRANCH  12  17
BRANCH  15  20
ATOM     20  C   UNL     1       1.168   6.043   1.792  1.00  0.00     0.038 A 
ATOM     21  C   UNL     1       1.972   6.772   2.675  1.00  0.00     0.015 A 
ATOM     22  C   UNL     1       0.521   6.801   0.816  1.00  0.00     0.123 A 
ATOM     23  C   UNL     1       2.094   8.162   2.546  1.00  0.00     0.021 A 
ATOM     24  N   UNL     1       0.614   8.149   0.660  1.00  0.00    -0.264 NA
ATOM     25  C   UNL     1       1.401   8.801   1.532  1.00  0.00     0.111 A 
ENDBRANCH  15  20
ENDBRANCH  10  11
ENDBRANCH   9  10
ENDBRANCH   7   9
ENDBRANCH   6   7
ENDBRANCH   5   6
ENDBRANCH   4   5
ENDBRANCH   3   4
ENDBRANCH   2   3
ENDBRANCH   1   2
BRANCH   1  26
ATOM     26  O   UNL     1      -2.808   3.143   0.183  1.00  0.00    -0.377 OA
BRANCH  26  27
ATOM     27  C   UNL     1      -4.032   2.968  -0.476  1.00  0.00     0.188 C 
BRANCH  27  28
ATOM     28  C   UNL     1      -3.807   2.902  -1.983  1.00  0.00     0.188 C 
BRANCH  28  29
ATOM     29  O   UNL     1      -2.518   2.471  -2.373  1.00  0.00    -0.376 OA
BRANCH  29  30
ATOM     30  C   UNL     1      -1.394   3.344  -2.314  1.00  0.00     0.202 C 
BRANCH  30  31
ATOM     31  C   UNL     1      -1.269   4.692  -1.571  1.00  0.00     0.261 C 
BRANCH  31  32
ATOM     32  O   UNL     1      -2.424   5.352  -1.059  1.00  0.00    -0.460 OA
BRANCH  32  33
ATOM     33  C   UNL     1      -3.111   6.159  -1.880  1.00  0.00     0.338 C 
ATOM     34  O   UNL     1      -2.854   6.421  -3.045  1.00  0.00    -0.246 OA
BRANCH  33  35
ATOM     35  C   UNL     1      -4.382   6.458  -1.193  1.00  0.00     0.060 A 
ATOM     36  C   UNL     1      -5.553   5.950  -1.769  1.00  0.00     0.016 A 
ATOM     37  C   UNL     1      -4.427   7.147   0.025  1.00  0.00     0.016 A 
ATOM     38  C   UNL     1      -6.774   6.129  -1.135  1.00  0.00     0.010 A 
ATOM     39  C   UNL     1      -5.665   7.376   0.635  1.00  0.00     0.010 A 
ATOM     40  C   UNL     1      -6.841   6.889   0.037  1.00  0.00    -0.014 A 
BRANCH  40  41
ATOM     41  C   UNL     1      -8.174   7.375   0.450  1.00  0.00     0.031 A 
ATOM     42  C   UNL     1      -8.621   8.702  -0.101  1.00  0.00     0.074 A 
ATOM     43  C   UNL     1      -8.999   6.608   1.184  1.00  0.00     0.049 A 
ATOM     44  N   UNL     1      -9.766   9.313   0.040  1.00  0.00    -0.248 NA
ATOM     45  C   UNL     1      -7.649   9.432  -0.937  1.00  0.00     0.031 C 
ATOM     46  C   UNL     1      -8.684   5.275   1.699  1.00  0.00     0.029 A 
ATOM     47  N   UNL     1     -10.282   6.838   1.610  1.00  0.00    -0.354 N 
ATOM     48  C   UNL     1      -9.646  10.500  -0.674  1.00  0.00     0.074 A 
ATOM     49  C   UNL     1      -8.318  10.533  -1.240  1.00  0.00     0.031 C 
ATOM     50  C   UNL     1      -9.748   4.806   2.376  1.00  0.00     0.029 A 
ATOM     51  C   UNL     1     -10.803   5.817   2.370  1.00  0.00     0.049 A 
ATOM     52  H   UNL     1     -10.783   7.657   1.393  1.00  0.00     0.167 HD
ATOM     53  C   UNL     1     -10.565  11.477  -0.836  1.00  0.00     0.031 A 
ATOM     54  C   UNL     1     -11.991   5.728   3.002  1.00  0.00     0.031 A 
ATOM     55  C   UNL     1     -11.880  11.430  -0.260  1.00  0.00     0.049 A 
ATOM     56  C   UNL     1     -12.965   6.873   2.867  1.00  0.00     0.074 A 
ATOM     57  C   UNL     1     -12.900  12.356  -0.375  1.00  0.00     0.029 A 
ATOM     58  N   UNL     1     -12.350  10.409   0.552  1.00  0.00    -0.354 N 
ATOM     59  N   UNL     1     -12.855   7.972   2.157  1.00  0.00    -0.248 NA
ATOM     60  C   UNL     1     -14.227   6.764   3.611  1.00  0.00     0.031 C 
ATOM     61  C   UNL     1     -13.959  11.933   0.431  1.00  0.00     0.029 A 
ATOM     62  C   UNL     1     -13.631  10.703   0.981  1.00  0.00     0.049 A 
ATOM     63  H   UNL     1     -11.847   9.597   0.788  1.00  0.00     0.167 HD
ATOM     64  C   UNL     1     -14.046   8.666   2.343  1.00  0.00     0.074 A 
ATOM     65  C   UNL     1     -14.869   7.853   3.214  1.00  0.00     0.031 C 
ATOM     66  C   UNL     1     -14.430   9.867   1.841  1.00  0.00     0.031 A 
BRANCH  53  67
ATOM     67  C   UNL     1     -10.167  12.704  -1.610  1.00  0.00    -0.014 A 
ATOM     68  C   UNL     1     -10.006  12.679  -3.006  1.00  0.00     0.010 A 
ATOM     69  C   UNL     1     -10.024  13.925  -0.925  1.00  0.00     0.010 A 
ATOM     70  C   UNL     1      -9.704  13.854  -3.702  1.00  0.00     0.020 A 
ATOM     71  C   UNL     1      -9.750  15.105  -1.619  1.00  0.00     0.020 A 
ATOM     72  C   UNL     1      -9.588  15.061  -3.004  1.00  0.00     0.054 A 
BRANCH  72  73
ATOM     73  S   UNL     1      -9.280  16.584  -3.941  1.00  0.00     0.124 S 
ATOM     74  O   UNL     1      -7.905  16.390  -4.392  1.00  0.00    -0.237 OA
ATOM     75  O   UNL     1     -10.298  16.524  -4.987  1.00  0.00    -0.237 OA
ATOM     76  O   UNL     1      -9.467  17.644  -2.954  1.00  0.00    -0.744 OA
ENDBRANCH  72  73
ENDBRANCH  53  67
BRANCH  54  77
ATOM     77  C   UNL     1     -12.314   4.549   3.857  1.00  0.00    -0.014 A 
ATOM     78  C   UNL     1     -13.390   3.697   3.549  1.00  0.00     0.010 A 
ATOM     79  C   UNL     1     -11.570   4.305   5.027  1.00  0.00     0.010 A 
ATOM     80  C   UNL     1     -13.742   2.656   4.415  1.00  0.00     0.020 A 
ATOM     81  C   UNL     1     -11.896   3.244   5.876  1.00  0.00     0.020 A 
ATOM     82  C   UNL     1     -12.995   2.439   5.576  1.00  0.00     0.054 A 
BRANCH  82  83
ATOM     83  S   UNL     1     -13.468   1.083   6.685  1.00  0.00     0.124 S 
ATOM     84  O   UNL     1     -14.702   1.590   7.276  1.00  0.00    -0.237 OA
ATOM     85  O   UNL     1     -13.620  -0.039   5.762  1.00  0.00    -0.237 OA
ATOM     86  O   UNL     1     -12.333   0.977   7.599  1.00  0.00    -0.744 OA
ENDBRANCH  82  83
ENDBRANCH  54  77
BRANCH  66  87
ATOM     87  C   UNL     1     -15.815  10.351   2.179  1.00  0.00    -0.014 A 
ATOM     88  C   UNL     1     -16.149  10.771   3.478  1.00  0.00     0.010 A 
ATOM     89  C   UNL     1     -16.779  10.443   1.158  1.00  0.00     0.010 A 
ATOM     90  C   UNL     1     -17.436  11.238   3.758  1.00  0.00     0.020 A 
ATOM     91  C   UNL     1     -18.054  10.944   1.425  1.00  0.00     0.020 A 
ATOM     92  C   UNL     1     -18.379  11.323   2.728  1.00  0.00     0.054 A 
BRANCH  92  93
ATOM     93  S   UNL     1     -20.029  11.971   3.110  1.00  0.00     0.124 S 
ATOM     94  O   UNL     1     -20.610  10.880   3.888  1.00  0.00    -0.237 OA
ATOM     95  O   UNL     1     -19.728  13.188   3.860  1.00  0.00    -0.237 OA
ATOM     96  O   UNL     1     -20.630  12.187   1.796  1.00  0.00    -0.744 OA
ENDBRANCH  92  93
ENDBRANCH  66  87
ENDBRANCH  40  41
ENDBRANCH  33  35
ENDBRANCH  32  33
ENDBRANCH  31  32
ENDBRANCH  30  31
ENDBRANCH  29  30
ENDBRANCH  28  29
ENDBRANCH  27  28
ENDBRANCH  26  27
ENDBRANCH   1  26
TORSDOF 28
