REMARK SMILES O=C(OCCOCCOCCOCCOC(=O)[C@@H]1[C@H](C(=O)Nc2ccccc2Cc2ccccc2)[C@H]2C=C[C@@H]1O2)c1ccc(-c2c3nc(c(-c4ccc(S(=O)(=O)[O-])cc4)c4ccc([nH]4)c(-c4ccc(S(=O)(=O)[O-])cc4)c4nc(c(-c5ccc(S(=O)(=O)[O-])cc5)c5ccc2[nH]5)C=C4)C=C3)cc1
REMARK SMILES IDX 10 1 9 2 8 3 7 4 6 5 5 6 4 7 3 8 2 9 1 10 41 11 42 12 100 13
REMARK SMILES IDX 43 14 99 15 44 16 45 17 46 18 93 19 47 20 98 21 92 22 94 23
REMARK SMILES IDX 48 24 97 25 91 26 90 27 49 29 79 30 60 31 78 32 61 33 64 34
REMARK SMILES IDX 77 35 95 36 62 37 63 38 76 40 96 41 65 42 50 43 51 44 59 45
REMARK SMILES IDX 52 46 58 47 53 48 54 49 55 50 56 51 57 52 80 53 81 54 89 55
REMARK SMILES IDX 82 56 88 57 83 58 84 59 85 60 86 61 87 62 66 63 67 64 75 65
REMARK SMILES IDX 68 66 74 67 69 68 70 69 71 70 72 71 73 72 11 73 12 74 13 75
REMARK SMILES IDX 14 76 15 77 16 78 17 79 18 80 19 81 39 82 36 83 38 84 40 85
REMARK SMILES IDX 37 86 20 87 21 88 22 89 23 91 24 92 28 93 25 94 27 95 26 96
REMARK SMILES IDX 29 97 30 98 31 99 35 100 32 101 34 102 33 103
REMARK H PARENT 94 28 64 39 22 90
REMARK Flexibility Score: inf
ROOT
ATOM      1  C   UNL     1       4.756   2.236   2.081  1.00  0.00     0.188 C 
ENDROOT
BRANCH   1   2
ATOM      2  O   UNL     1       3.811   2.003   1.051  1.00  0.00    -0.377 OA
BRANCH   2   3
ATOM      3  C   UNL     1       2.822   1.040   1.346  1.00  0.00     0.188 C 
BRANCH   3   4
ATOM      4  C   UNL     1       3.282  -0.391   1.111  1.00  0.00     0.188 C 
BRANCH   4   5
ATOM      5  O   UNL     1       4.566  -0.578   0.534  1.00  0.00    -0.376 OA
BRANCH   5   6
ATOM      6  C   UNL     1       5.003   0.186  -0.578  1.00  0.00     0.202 C 
BRANCH   6   7
ATOM      7  C   UNL     1       4.122   0.240  -1.829  1.00  0.00     0.261 C 
BRANCH   7   8
ATOM      8  O   UNL     1       2.804  -0.318  -1.716  1.00  0.00    -0.460 OA
BRANCH   8   9
ATOM      9  C   UNL     1       2.494  -1.598  -2.090  1.00  0.00     0.338 C 
ATOM     10  O   UNL     1       1.504  -1.842  -2.741  1.00  0.00    -0.246 OA
BRANCH   9  11
ATOM     11  C   UNL     1       3.186  -2.679  -1.326  1.00  0.00     0.060 A 
ATOM     12  C   UNL     1       4.566  -2.715  -1.179  1.00  0.00     0.016 A 
ATOM     13  C   UNL     1       2.401  -3.636  -0.660  1.00  0.00     0.016 A 
ATOM     14  C   UNL     1       5.142  -3.508  -0.198  1.00  0.00     0.010 A 
ATOM     15  C   UNL     1       3.000  -4.559   0.209  1.00  0.00     0.010 A 
ATOM     16  C   UNL     1       4.373  -4.472   0.462  1.00  0.00    -0.014 A 
BRANCH  16  17
ATOM     17  C   UNL     1       5.146  -5.545   1.118  1.00  0.00     0.031 A 
ATOM     18  C   UNL     1       5.904  -6.454   0.184  1.00  0.00     0.074 A 
ATOM     19  C   UNL     1       5.337  -5.579   2.449  1.00  0.00     0.049 A 
ATOM     20  N   UNL     1       6.843  -7.318   0.448  1.00  0.00    -0.248 NA
ATOM     21  C   UNL     1       5.625  -6.291  -1.259  1.00  0.00     0.031 C 
ATOM     22  C   UNL     1       4.777  -4.634   3.416  1.00  0.00     0.029 A 
ATOM     23  N   UNL     1       6.097  -6.426   3.214  1.00  0.00    -0.354 N 
ATOM     24  C   UNL     1       7.306  -7.744  -0.791  1.00  0.00     0.074 A 
ATOM     25  C   UNL     1       6.564  -7.040  -1.808  1.00  0.00     0.031 C 
ATOM     26  C   UNL     1       5.206  -4.963   4.650  1.00  0.00     0.029 A 
ATOM     27  C   UNL     1       6.049  -6.153   4.562  1.00  0.00     0.049 A 
ATOM     28  H   UNL     1       6.629  -7.162   2.834  1.00  0.00     0.167 HD
ATOM     29  C   UNL     1       8.248  -8.672  -1.061  1.00  0.00     0.031 A 
ATOM     30  C   UNL     1       6.614  -6.815   5.594  1.00  0.00     0.031 A 
ATOM     31  C   UNL     1       8.842  -9.483  -0.042  1.00  0.00     0.049 A 
ATOM     32  C   UNL     1       7.476  -8.014   5.266  1.00  0.00     0.074 A 
ATOM     33  C   UNL     1       9.650 -10.594  -0.182  1.00  0.00     0.029 A 
ATOM     34  N   UNL     1       8.641  -9.290   1.317  1.00  0.00    -0.354 N 
ATOM     35  N   UNL     1       7.871  -8.450   4.090  1.00  0.00    -0.248 NA
ATOM     36  C   UNL     1       7.958  -8.819   6.396  1.00  0.00     0.031 C 
ATOM     37  C   UNL     1       9.882 -11.113   1.096  1.00  0.00     0.029 A 
ATOM     38  C   UNL     1       9.279 -10.282   2.032  1.00  0.00     0.049 A 
ATOM     39  H   UNL     1       8.120  -8.554   1.713  1.00  0.00     0.167 HD
ATOM     40  C   UNL     1       8.661  -9.566   4.341  1.00  0.00     0.074 A 
ATOM     41  C   UNL     1       8.707  -9.725   5.781  1.00  0.00     0.031 C 
ATOM     42  C   UNL     1       9.290 -10.395   3.469  1.00  0.00     0.031 A 
BRANCH  29  43
ATOM     43  C   UNL     1       8.545  -8.928  -2.510  1.00  0.00    -0.014 A 
ATOM     44  C   UNL     1       9.326  -8.032  -3.261  1.00  0.00     0.010 A 
ATOM     45  C   UNL     1       7.972 -10.043  -3.146  1.00  0.00     0.010 A 
ATOM     46  C   UNL     1       9.507  -8.234  -4.633  1.00  0.00     0.020 A 
ATOM     47  C   UNL     1       8.164 -10.258  -4.512  1.00  0.00     0.020 A 
ATOM     48  C   UNL     1       8.919  -9.344  -5.250  1.00  0.00     0.054 A 
BRANCH  48  49
ATOM     49  S   UNL     1       9.166  -9.583  -7.032  1.00  0.00     0.124 S 
ATOM     50  O   UNL     1       8.348  -8.512  -7.596  1.00  0.00    -0.237 OA
ATOM     51  O   UNL     1      10.609  -9.415  -7.180  1.00  0.00    -0.237 OA
ATOM     52  O   UNL     1       8.671 -10.936  -7.272  1.00  0.00    -0.744 OA
ENDBRANCH  48  49
ENDBRANCH  29  43
BRANCH  30  53
ATOM     53  C   UNL     1       6.320  -6.444   7.013  1.00  0.00    -0.014 A 
ATOM     54  C   UNL     1       7.338  -6.071   7.910  1.00  0.00     0.010 A 
ATOM     55  C   UNL     1       5.002  -6.545   7.501  1.00  0.00     0.010 A 
ATOM     56  C   UNL     1       7.052  -5.845   9.264  1.00  0.00     0.020 A 
ATOM     57  C   UNL     1       4.706  -6.291   8.845  1.00  0.00     0.020 A 
ATOM     58  C   UNL     1       5.737  -5.964   9.725  1.00  0.00     0.054 A 
BRANCH  58  59
ATOM     59  S   UNL     1       5.382  -5.679  11.483  1.00  0.00     0.124 S 
ATOM     60  O   UNL     1       5.941  -6.874  12.105  1.00  0.00    -0.237 OA
ATOM     61  O   UNL     1       6.093  -4.431  11.753  1.00  0.00    -0.237 OA
ATOM     62  O   UNL     1       3.924  -5.576  11.525  1.00  0.00    -0.744 OA
ENDBRANCH  58  59
ENDBRANCH  30  53
BRANCH  42  63
ATOM     63  C   UNL     1      10.093 -11.523   4.049  1.00  0.00    -0.014 A 
ATOM     64  C   UNL     1       9.465 -12.644   4.619  1.00  0.00     0.010 A 
ATOM     65  C   UNL     1      11.495 -11.495   3.940  1.00  0.00     0.010 A 
ATOM     66  C   UNL     1      10.232 -13.707   5.098  1.00  0.00     0.020 A 
ATOM     67  C   UNL     1      12.262 -12.569   4.389  1.00  0.00     0.020 A 
ATOM     68  C   UNL     1      11.625 -13.664   4.978  1.00  0.00     0.054 A 
BRANCH  68  69
ATOM     69  S   UNL     1      12.594 -15.082   5.555  1.00  0.00     0.124 S 
ATOM     70  O   UNL     1      12.542 -14.914   7.004  1.00  0.00    -0.237 OA
ATOM     71  O   UNL     1      11.846 -16.219   5.025  1.00  0.00    -0.237 OA
ATOM     72  O   UNL     1      13.908 -14.872   4.949  1.00  0.00    -0.744 OA
ENDBRANCH  68  69
ENDBRANCH  42  63
ENDBRANCH  16  17
ENDBRANCH   9  11
ENDBRANCH   8   9
ENDBRANCH   7   8
ENDBRANCH   6   7
ENDBRANCH   5   6
ENDBRANCH   4   5
ENDBRANCH   3   4
ENDBRANCH   2   3
ENDBRANCH   1   2
BRANCH   1  73
ATOM     73  C   UNL     1       5.648   1.105   2.652  1.00  0.00     0.188 C 
BRANCH  73  74
ATOM     74  O   UNL     1       5.170   0.087   3.521  1.00  0.00    -0.376 OA
BRANCH  74  75
ATOM     75  C   UNL     1       4.096   0.210   4.432  1.00  0.00     0.202 C 
BRANCH  75  76
ATOM     76  C   UNL     1       4.046   1.326   5.468  1.00  0.00     0.261 C 
BRANCH  76  77
ATOM     77  O   UNL     1       4.301   2.629   4.927  1.00  0.00    -0.463 OA
BRANCH  77  78
ATOM     78  C   UNL     1       5.584   3.011   4.991  1.00  0.00     0.312 C 
ATOM     79  O   UNL     1       6.474   2.242   5.355  1.00  0.00    -0.252 OA
BRANCH  78  80
ATOM     80  C   UNL     1       5.945   4.399   4.452  1.00  0.00     0.147 C 
ATOM     81  C   UNL     1       7.075   4.826   5.386  1.00  0.00     0.129 C 
ATOM     82  C   UNL     1       5.237   5.783   4.332  1.00  0.00     0.157 C 
ATOM     83  C   UNL     1       7.054   6.337   5.371  1.00  0.00     0.155 C 
ATOM     84  C   UNL     1       6.030   6.627   3.367  1.00  0.00     0.004 C 
ATOM     85  O   UNL     1       5.622   6.494   5.542  1.00  0.00    -0.365 OA
ATOM     86  C   UNL     1       7.186   6.903   3.985  1.00  0.00     0.004 C 
BRANCH  81  87
ATOM     87  C   UNL     1       6.902   4.380   6.823  1.00  0.00     0.231 C 
ATOM     88  O   UNL     1       7.969   4.234   7.455  1.00  0.00    -0.274 OA
ATOM     89  N   UNL     1       5.810   4.124   7.577  1.00  0.00    -0.325 N 
ATOM     90  H   UNL     1       6.213   3.759   8.398  1.00  0.00     0.169 HD
BRANCH  89  91
ATOM     91  C   UNL     1       4.401   4.068   7.893  1.00  0.00     0.044 A 
ATOM     92  C   UNL     1       4.321   3.605   9.246  1.00  0.00     0.026 A 
ATOM     93  C   UNL     1       3.132   4.396   7.301  1.00  0.00    -0.020 A 
ATOM     94  C   UNL     1       3.172   3.614  10.032  1.00  0.00     0.002 A 
ATOM     95  C   UNL     1       2.009   4.508   8.174  1.00  0.00     0.006 A 
ATOM     96  C   UNL     1       2.014   4.117   9.504  1.00  0.00     0.000 A 
BRANCH  93  97
ATOM     97  C   UNL     1       2.709   4.756   5.878  1.00  0.00     0.073 C 
BRANCH  97  98
ATOM     98  C   UNL     1       1.588   4.038   5.062  1.00  0.00    -0.044 A 
ATOM     99  C   UNL     1       1.709   4.014   3.650  1.00  0.00     0.004 A 
ATOM    100  C   UNL     1       0.396   3.503   5.573  1.00  0.00     0.004 A 
ATOM    101  C   UNL     1       0.725   3.465   2.810  1.00  0.00     0.000 A 
ATOM    102  C   UNL     1      -0.604   2.970   4.732  1.00  0.00     0.000 A 
ATOM    103  C   UNL     1      -0.437   2.941   3.352  1.00  0.00     0.000 A 
ENDBRANCH  97  98
ENDBRANCH  93  97
ENDBRANCH  89  91
ENDBRANCH  81  87
ENDBRANCH  78  80
ENDBRANCH  77  78
ENDBRANCH  76  77
ENDBRANCH  75  76
ENDBRANCH  74  75
ENDBRANCH  73  74
ENDBRANCH   1  73
TORSDOF 27
