REMARK SMILES O=C(CC1(NC(=O)c2ccccc2[N+](=O)[O-])CCC1)OCCOCCOCCOCCOC(=O)c1ccc(-c2c3nc(c(-c4ccc(S(=O)(=O)[O-])cc4)c4ccc([nH]4)c(-c4ccc(S(=O)(=O)[O-])cc4)c4nc(c(-c5ccc(S(=O)(=O)[O-])cc5)c5ccc2[nH]5)C=C4)C=C3)cc1
REMARK SMILES IDX 25 1 24 2 23 3 22 4 21 5 20 6 2 7 1 8 3 9 4 10 17 11 19 12
REMARK SMILES IDX 18 13 5 14 6 15 7 17 8 18 9 19 13 20 10 21 12 22 11 23 14 24
REMARK SMILES IDX 15 25 16 26 26 27 27 28 28 29 29 30 30 31 31 32 32 33 33 34
REMARK SMILES IDX 34 35 35 36 36 37 94 38 37 39 93 40 38 41 39 42 40 43 87 44
REMARK SMILES IDX 41 45 92 46 86 47 88 48 42 49 91 50 85 51 84 52 43 54 73 55
REMARK SMILES IDX 54 56 72 57 55 58 58 59 71 60 89 61 56 62 57 63 70 65 90 66
REMARK SMILES IDX 59 67 44 68 45 69 53 70 46 71 52 72 47 73 48 74 49 75 50 76
REMARK SMILES IDX 51 77 74 78 75 79 83 80 76 81 82 82 77 83 78 84 79 85 80 86
REMARK SMILES IDX 81 87 60 88 61 89 69 90 62 91 68 92 63 93 64 94 65 95 66 96
REMARK SMILES IDX 67 97
REMARK H PARENT 5 16 88 53 58 64
REMARK Flexibility Score: inf
ROOT
ATOM      1  C   UNL     1       2.205   0.002  -3.267  1.00  0.00     0.188 C 
ENDROOT
BRANCH   1   2
ATOM      2  C   UNL     1       2.237  -0.422  -1.797  1.00  0.00     0.188 C 
BRANCH   2   3
ATOM      3  O   UNL     1       3.426  -0.081  -1.091  1.00  0.00    -0.376 OA
BRANCH   3   4
ATOM      4  C   UNL     1       4.324  -1.113  -0.713  1.00  0.00     0.202 C 
BRANCH   4   5
ATOM      5  C   UNL     1       3.715  -2.323  -0.009  1.00  0.00     0.261 C 
BRANCH   5   6
ATOM      6  O   UNL     1       3.006  -2.035   1.204  1.00  0.00    -0.463 OA
BRANCH   6   7
ATOM      7  C   UNL     1       2.025  -1.113   1.219  1.00  0.00     0.308 C 
ATOM      8  O   UNL     1       0.886  -1.345   0.827  1.00  0.00    -0.252 OA
BRANCH   7   9
ATOM      9  C   UNL     1       2.433   0.231   1.773  1.00  0.00     0.151 C 
BRANCH   9  10
ATOM     10  C   UNL     1       3.709   0.374   2.616  1.00  0.00     0.051 C 
ATOM     11  C   UNL     1       3.465   0.857   4.085  1.00  0.00     0.029 C 
ATOM     12  C   UNL     1       4.294  -0.944   3.255  1.00  0.00     0.029 C 
ATOM     13  C   UNL     1       4.311  -0.296   4.628  1.00  0.00     0.005 C 
BRANCH  10  14
ATOM     14  N   UNL     1       4.800   1.202   1.996  1.00  0.00    -0.346 N 
ATOM     15  C   UNL     1       4.857   2.363   1.250  1.00  0.00     0.258 C 
ATOM     16  H   UNL     1       5.694   0.823   2.161  1.00  0.00     0.164 HD
ATOM     17  O   UNL     1       5.961   2.840   0.987  1.00  0.00    -0.269 OA
BRANCH  15  18
ATOM     18  C   UNL     1       3.673   2.989   0.638  1.00  0.00     0.117 A 
ATOM     19  C   UNL     1       3.611   2.927  -0.754  1.00  0.00     0.021 A 
ATOM     20  C   UNL     1       2.623   3.610   1.305  1.00  0.00     0.282 A 
ATOM     21  C   UNL     1       2.483   3.376  -1.448  1.00  0.00     0.001 A 
ATOM     22  C   UNL     1       1.476   4.053   0.616  1.00  0.00     0.086 A 
ATOM     23  C   UNL     1       1.403   3.914  -0.766  1.00  0.00     0.007 A 
BRANCH  20  24
ATOM     24  N   UNL     1       2.693   3.854   2.726  1.00  0.00     0.063 N 
ATOM     25  O   UNL     1       1.660   3.657   3.381  1.00  0.00    -0.258 OA
ATOM     26  O   UNL     1       3.758   4.278   3.189  1.00  0.00    -0.258 OA
ENDBRANCH  20  24
ENDBRANCH  15  18
ENDBRANCH  10  14
ENDBRANCH   9  10
ENDBRANCH   7   9
ENDBRANCH   6   7
ENDBRANCH   5   6
ENDBRANCH   4   5
ENDBRANCH   3   4
ENDBRANCH   2   3
ENDBRANCH   1   2
BRANCH   1  27
ATOM     27  O   UNL     1       3.012   1.135  -3.553  1.00  0.00    -0.377 OA
BRANCH  27  28
ATOM     28  C   UNL     1       4.365   0.796  -3.840  1.00  0.00     0.188 C 
BRANCH  28  29
ATOM     29  C   UNL     1       5.283   2.029  -3.892  1.00  0.00     0.188 C 
BRANCH  29  30
ATOM     30  O   UNL     1       4.615   3.266  -3.685  1.00  0.00    -0.376 OA
BRANCH  30  31
ATOM     31  C   UNL     1       4.301   4.024  -4.848  1.00  0.00     0.202 C 
BRANCH  31  32
ATOM     32  C   UNL     1       3.221   3.427  -5.762  1.00  0.00     0.261 C 
BRANCH  32  33
ATOM     33  O   UNL     1       3.578   2.188  -6.397  1.00  0.00    -0.460 OA
BRANCH  33  34
ATOM     34  C   UNL     1       4.689   2.173  -7.167  1.00  0.00     0.338 C 
ATOM     35  O   UNL     1       5.386   3.119  -7.487  1.00  0.00    -0.246 OA
BRANCH  34  36
ATOM     36  C   UNL     1       5.052   0.754  -7.339  1.00  0.00     0.060 A 
ATOM     37  C   UNL     1       6.285   0.312  -6.838  1.00  0.00     0.016 A 
ATOM     38  C   UNL     1       4.140  -0.147  -7.891  1.00  0.00     0.016 A 
ATOM     39  C   UNL     1       6.604  -1.043  -6.874  1.00  0.00     0.010 A 
ATOM     40  C   UNL     1       4.483  -1.495  -7.978  1.00  0.00     0.010 A 
ATOM     41  C   UNL     1       5.722  -1.942  -7.486  1.00  0.00    -0.014 A 
BRANCH  41  42
ATOM     42  C   UNL     1       6.203  -3.288  -7.858  1.00  0.00     0.031 A 
ATOM     43  C   UNL     1       6.889  -3.424  -9.188  1.00  0.00     0.074 A 
ATOM     44  C   UNL     1       6.019  -4.353  -7.058  1.00  0.00     0.049 A 
ATOM     45  N   UNL     1       7.305  -4.500  -9.797  1.00  0.00    -0.248 NA
ATOM     46  C   UNL     1       7.137  -2.174  -9.932  1.00  0.00     0.031 C 
ATOM     47  C   UNL     1       5.420  -4.323  -5.724  1.00  0.00     0.029 A 
ATOM     48  N   UNL     1       6.307  -5.677  -7.269  1.00  0.00    -0.354 N 
ATOM     49  C   UNL     1       7.848  -4.061 -10.998  1.00  0.00     0.074 A 
ATOM     50  C   UNL     1       7.709  -2.624 -11.037  1.00  0.00     0.031 C 
ATOM     51  C   UNL     1       5.357  -5.581  -5.248  1.00  0.00     0.029 A 
ATOM     52  C   UNL     1       5.872  -6.503  -6.260  1.00  0.00     0.049 A 
ATOM     53  H   UNL     1       6.781  -6.005  -8.067  1.00  0.00     0.167 HD
ATOM     54  C   UNL     1       8.404  -4.795 -11.986  1.00  0.00     0.031 A 
ATOM     55  C   UNL     1       5.853  -7.850  -6.189  1.00  0.00     0.031 A 
ATOM     56  C   UNL     1       8.514  -6.225 -11.949  1.00  0.00     0.049 A 
ATOM     57  C   UNL     1       6.393  -8.650  -7.351  1.00  0.00     0.074 A 
ATOM     58  C   UNL     1       9.078  -7.065 -12.892  1.00  0.00     0.029 A 
ATOM     59  N   UNL     1       8.035  -7.027 -10.927  1.00  0.00    -0.354 N 
ATOM     60  N   UNL     1       6.947  -8.222  -8.461  1.00  0.00    -0.248 NA
ATOM     61  C   UNL     1       6.300 -10.114  -7.252  1.00  0.00     0.031 C 
ATOM     62  C   UNL     1       8.875  -8.382 -12.472  1.00  0.00     0.029 A 
ATOM     63  C   UNL     1       8.248  -8.358 -11.235  1.00  0.00     0.049 A 
ATOM     64  H   UNL     1       7.606  -6.699 -10.103  1.00  0.00     0.167 HD
ATOM     65  C   UNL     1       7.285  -9.364  -9.182  1.00  0.00     0.074 A 
ATOM     66  C   UNL     1       6.898 -10.499  -8.371  1.00  0.00     0.031 C 
ATOM     67  C   UNL     1       7.857  -9.469 -10.407  1.00  0.00     0.031 A 
BRANCH  54  68
ATOM     68  C   UNL     1       8.887  -4.073 -13.211  1.00  0.00    -0.014 A 
ATOM     69  C   UNL     1      10.060  -3.299 -13.189  1.00  0.00     0.010 A 
ATOM     70  C   UNL     1       8.189  -4.231 -14.422  1.00  0.00     0.010 A 
ATOM     71  C   UNL     1      10.526  -2.694 -14.358  1.00  0.00     0.020 A 
ATOM     72  C   UNL     1       8.665  -3.649 -15.598  1.00  0.00     0.020 A 
ATOM     73  C   UNL     1       9.831  -2.881 -15.558  1.00  0.00     0.054 A 
BRANCH  73  74
ATOM     74  S   UNL     1      10.505  -2.151 -17.075  1.00  0.00     0.124 S 
ATOM     75  O   UNL     1      10.278  -0.726 -16.850  1.00  0.00    -0.237 OA
ATOM     76  O   UNL     1      11.901  -2.579 -17.039  1.00  0.00    -0.237 OA
ATOM     77  O   UNL     1       9.699  -2.750 -18.136  1.00  0.00    -0.744 OA
ENDBRANCH  73  74
ENDBRANCH  54  68
BRANCH  55  78
ATOM     78  C   UNL     1       5.244  -8.541  -5.016  1.00  0.00    -0.014 A 
ATOM     79  C   UNL     1       6.022  -9.343  -4.163  1.00  0.00     0.010 A 
ATOM     80  C   UNL     1       3.859  -8.443  -4.780  1.00  0.00     0.010 A 
ATOM     81  C   UNL     1       5.425 -10.059  -3.121  1.00  0.00     0.020 A 
ATOM     82  C   UNL     1       3.263  -9.130  -3.719  1.00  0.00     0.020 A 
ATOM     83  C   UNL     1       4.048  -9.949  -2.907  1.00  0.00     0.054 A 
BRANCH  83  84
ATOM     84  S   UNL     1       3.296 -10.873  -1.538  1.00  0.00     0.124 S 
ATOM     85  O   UNL     1       3.339 -12.243  -2.038  1.00  0.00    -0.237 OA
ATOM     86  O   UNL     1       4.197 -10.574  -0.427  1.00  0.00    -0.237 OA
ATOM     87  O   UNL     1       1.963 -10.287  -1.424  1.00  0.00    -0.744 OA
ENDBRANCH  83  84
ENDBRANCH  55  78
BRANCH  67  88
ATOM     88  C   UNL     1       8.121 -10.853 -10.939  1.00  0.00    -0.014 A 
ATOM     89  C   UNL     1       7.068 -11.677 -11.373  1.00  0.00     0.010 A 
ATOM     90  C   UNL     1       9.447 -11.301 -11.081  1.00  0.00     0.010 A 
ATOM     91  C   UNL     1       7.336 -12.936 -11.915  1.00  0.00     0.020 A 
ATOM     92  C   UNL     1       9.720 -12.546 -11.652  1.00  0.00     0.020 A 
ATOM     93  C   UNL     1       8.661 -13.361 -12.055  1.00  0.00     0.054 A 
BRANCH  93  94
ATOM     94  S   UNL     1       8.981 -14.976 -12.814  1.00  0.00     0.124 S 
ATOM     95  O   UNL     1       8.541 -15.895 -11.768  1.00  0.00    -0.237 OA
ATOM     96  O   UNL     1       8.144 -14.938 -14.011  1.00  0.00    -0.237 OA
ATOM     97  O   UNL     1      10.420 -14.962 -13.066  1.00  0.00    -0.744 OA
ENDBRANCH  93  94
ENDBRANCH  67  88
ENDBRANCH  41  42
ENDBRANCH  34  36
ENDBRANCH  33  34
ENDBRANCH  32  33
ENDBRANCH  31  32
ENDBRANCH  30  31
ENDBRANCH  29  30
ENDBRANCH  28  29
ENDBRANCH  27  28
ENDBRANCH   1  27
TORSDOF 27
