REMARK SMILES C[C@@H]1Cc2ccccc2N1S(=O)(=O)c1c[nH]c(C(=O)OCCOCCOCCOCCOC(=O)c2ccc(-c3c4nc(c(-c5ccc(S(=O)(=O)[O-])cc5)c5ccc([nH]5)c(-c5ccc(S(=O)(=O)[O-])cc5)c5nc(c(-c6ccc(S(=O)(=O)[O-])cc6)c6ccc3[nH]6)C=C5)C=C4)cc2)c1
REMARK SMILES IDX 27 1 26 2 25 3 24 4 23 5 22 6 21 7 20 8 18 9 19 10 17 11
REMARK SMILES IDX 14 12 15 13 95 14 16 15 11 17 12 18 13 19 10 20 1 21 2 22
REMARK SMILES IDX 3 23 4 24 9 25 5 26 8 27 6 28 7 29 28 30 29 31 30 32 31 33
REMARK SMILES IDX 32 34 33 35 34 36 35 37 36 38 94 39 37 40 93 41 38 42 39 43
REMARK SMILES IDX 40 44 87 45 41 46 92 47 86 48 88 49 42 50 91 51 85 52 84 53
REMARK SMILES IDX 43 55 73 56 54 57 72 58 55 59 58 60 71 61 89 62 56 63 57 64
REMARK SMILES IDX 70 66 90 67 59 68 44 69 45 70 53 71 46 72 52 73 47 74 48 75
REMARK SMILES IDX 49 76 50 77 51 78 74 79 75 80 83 81 76 82 82 83 77 84 78 85
REMARK SMILES IDX 79 86 80 87 81 88 60 89 61 90 69 91 62 92 68 93 63 94 64 95
REMARK SMILES IDX 65 96 66 97 67 98
REMARK H PARENT 16 16 88 54 58 65
REMARK Flexibility Score: inf
ROOT
ATOM      1  C   UNL     1      -3.453   8.845   1.553  1.00  0.00     0.188 C 
ENDROOT
BRANCH   1   2
ATOM      2  O   UNL     1      -2.205   8.181   1.595  1.00  0.00    -0.377 OA
BRANCH   2   3
ATOM      3  C   UNL     1      -1.593   7.908   0.355  1.00  0.00     0.188 C 
BRANCH   3   4
ATOM      4  C   UNL     1      -1.521   9.039  -0.678  1.00  0.00     0.188 C 
BRANCH   4   5
ATOM      5  O   UNL     1      -2.699   9.808  -0.796  1.00  0.00    -0.376 OA
BRANCH   5   6
ATOM      6  C   UNL     1      -3.648   9.498  -1.794  1.00  0.00     0.202 C 
BRANCH   6   7
ATOM      7  C   UNL     1      -4.288   8.105  -1.821  1.00  0.00     0.261 C 
BRANCH   7   8
ATOM      8  O   UNL     1      -3.471   6.973  -1.667  1.00  0.00    -0.459 OA
BRANCH   8   9
ATOM      9  C   UNL     1      -2.717   6.670  -2.747  1.00  0.00     0.354 C 
ATOM     10  O   UNL     1      -2.589   7.337  -3.747  1.00  0.00    -0.244 OA
BRANCH   9  11
ATOM     11  C   UNL     1      -1.929   5.538  -2.369  1.00  0.00     0.126 A 
ATOM     12  C   UNL     1      -1.071   3.681  -1.444  1.00  0.00     0.106 A 
ATOM     13  C   UNL     1      -0.062   4.346  -2.118  1.00  0.00     0.105 A 
ATOM     14  C   UNL     1      -2.250   4.445  -1.585  1.00  0.00     0.057 A 
ATOM     15  N   UNL     1      -0.612   5.434  -2.729  1.00  0.00    -0.354 N 
ATOM     16  H   UNL     1      -0.137   6.048  -3.334  1.00  0.00     0.166 HD
BRANCH  12  17
ATOM     17  S   UNL     1      -0.922   2.157  -0.659  1.00  0.00     0.266 S 
ATOM     18  O   UNL     1       0.006   1.457  -1.528  1.00  0.00    -0.201 OA
ATOM     19  O   UNL     1      -2.282   1.688  -0.491  1.00  0.00    -0.201 OA
BRANCH  17  20
ATOM     20  N   UNL     1      -0.227   2.236   0.897  1.00  0.00    -0.263 N 
ATOM     21  C   UNL     1      -0.520  -0.014   1.935  1.00  0.00     0.032 C 
ATOM     22  C   UNL     1       0.460   0.941   1.274  1.00  0.00     0.101 C 
ATOM     23  C   UNL     1       1.648   1.324   2.179  1.00  0.00     0.063 C 
ATOM     24  C   UNL     1       1.716   2.809   2.030  1.00  0.00    -0.021 A 
ATOM     25  C   UNL     1       0.641   3.299   1.291  1.00  0.00     0.055 A 
ATOM     26  C   UNL     1       2.649   3.659   2.610  1.00  0.00     0.006 A 
ATOM     27  C   UNL     1       0.417   4.663   1.221  1.00  0.00     0.027 A 
ATOM     28  C   UNL     1       2.471   5.034   2.472  1.00  0.00     0.000 A 
ATOM     29  C   UNL     1       1.353   5.534   1.793  1.00  0.00     0.002 A 
ENDBRANCH  17  20
ENDBRANCH  12  17
ENDBRANCH   9  11
ENDBRANCH   8   9
ENDBRANCH   7   8
ENDBRANCH   6   7
ENDBRANCH   5   6
ENDBRANCH   4   5
ENDBRANCH   3   4
ENDBRANCH   2   3
ENDBRANCH   1   2
BRANCH   1  30
ATOM     30  C   UNL     1      -3.357  10.357   1.857  1.00  0.00     0.188 C 
BRANCH  30  31
ATOM     31  O   UNL     1      -2.181  10.858   2.480  1.00  0.00    -0.376 OA
BRANCH  31  32
ATOM     32  C   UNL     1      -1.609  10.066   3.510  1.00  0.00     0.202 C 
BRANCH  32  33
ATOM     33  C   UNL     1      -2.484   9.568   4.690  1.00  0.00     0.261 C 
BRANCH  33  34
ATOM     34  O   UNL     1      -3.772   9.014   4.343  1.00  0.00    -0.460 OA
BRANCH  34  35
ATOM     35  C   UNL     1      -4.907   9.653   4.749  1.00  0.00     0.338 C 
ATOM     36  O   UNL     1      -4.985  10.502   5.619  1.00  0.00    -0.246 OA
BRANCH  35  37
ATOM     37  C   UNL     1      -5.969   9.384   3.719  1.00  0.00     0.060 A 
ATOM     38  C   UNL     1      -6.275   8.091   3.290  1.00  0.00     0.016 A 
ATOM     39  C   UNL     1      -6.420  10.479   2.958  1.00  0.00     0.016 A 
ATOM     40  C   UNL     1      -6.926   7.911   2.054  1.00  0.00     0.010 A 
ATOM     41  C   UNL     1      -7.008  10.295   1.690  1.00  0.00     0.010 A 
ATOM     42  C   UNL     1      -7.275   9.007   1.219  1.00  0.00    -0.014 A 
BRANCH  42  43
ATOM     43  C   UNL     1      -8.305   8.729   0.153  1.00  0.00     0.031 A 
ATOM     44  C   UNL     1      -9.661   8.585   0.825  1.00  0.00     0.074 A 
ATOM     45  C   UNL     1      -8.000   8.463  -1.161  1.00  0.00     0.049 A 
ATOM     46  N   UNL     1     -10.611   7.755   0.572  1.00  0.00    -0.248 NA
ATOM     47  C   UNL     1     -10.006   9.475   1.970  1.00  0.00     0.031 C 
ATOM     48  C   UNL     1      -7.027   9.230  -1.950  1.00  0.00     0.029 A 
ATOM     49  N   UNL     1      -8.487   7.601  -2.147  1.00  0.00    -0.354 N 
ATOM     50  C   UNL     1     -11.719   8.161   1.336  1.00  0.00     0.074 A 
ATOM     51  C   UNL     1     -11.246   9.109   2.292  1.00  0.00     0.031 C 
ATOM     52  C   UNL     1      -6.845   8.684  -3.182  1.00  0.00     0.029 A 
ATOM     53  C   UNL     1      -7.673   7.508  -3.329  1.00  0.00     0.049 A 
ATOM     54  H   UNL     1      -9.325   7.096  -2.040  1.00  0.00     0.167 HD
ATOM     55  C   UNL     1     -12.993   7.836   0.988  1.00  0.00     0.031 A 
ATOM     56  C   UNL     1      -7.725   6.609  -4.376  1.00  0.00     0.031 A 
ATOM     57  C   UNL     1     -12.970   7.029  -0.185  1.00  0.00     0.049 A 
ATOM     58  C   UNL     1      -9.177   6.476  -4.546  1.00  0.00     0.074 A 
ATOM     59  C   UNL     1     -12.502   5.758  -0.403  1.00  0.00     0.029 A 
ATOM     60  N   UNL     1     -13.040   7.711  -1.379  1.00  0.00    -0.354 N 
ATOM     61  N   UNL     1      -9.952   7.463  -4.897  1.00  0.00    -0.248 NA
ATOM     62  C   UNL     1      -9.836   5.195  -4.287  1.00  0.00     0.031 C 
ATOM     63  C   UNL     1     -11.838   5.877  -1.636  1.00  0.00     0.029 A 
ATOM     64  C   UNL     1     -12.174   7.094  -2.240  1.00  0.00     0.049 A 
ATOM     65  H   UNL     1     -13.605   8.492  -1.575  1.00  0.00     0.167 HD
ATOM     66  C   UNL     1     -11.143   7.053  -4.367  1.00  0.00     0.074 A 
ATOM     67  C   UNL     1     -11.102   5.600  -4.370  1.00  0.00     0.031 C 
ATOM     68  C   UNL     1     -11.709   7.821  -3.396  1.00  0.00     0.031 A 
BRANCH  55  69
ATOM     69  C   UNL     1     -14.311   8.373   1.440  1.00  0.00    -0.014 A 
ATOM     70  C   UNL     1     -14.519   9.659   1.953  1.00  0.00     0.010 A 
ATOM     71  C   UNL     1     -15.451   7.615   1.076  1.00  0.00     0.010 A 
ATOM     72  C   UNL     1     -15.819  10.176   2.073  1.00  0.00     0.020 A 
ATOM     73  C   UNL     1     -16.739   8.134   1.156  1.00  0.00     0.020 A 
ATOM     74  C   UNL     1     -16.918   9.415   1.660  1.00  0.00     0.054 A 
BRANCH  74  75
ATOM     75  S   UNL     1     -18.581  10.126   1.732  1.00  0.00     0.124 S 
ATOM     76  O   UNL     1     -18.820  10.183   3.172  1.00  0.00    -0.237 OA
ATOM     77  O   UNL     1     -18.412  11.414   1.068  1.00  0.00    -0.237 OA
ATOM     78  O   UNL     1     -19.404   9.158   1.008  1.00  0.00    -0.744 OA
ENDBRANCH  74  75
ENDBRANCH  55  69
BRANCH  56  79
ATOM     79  C   UNL     1      -6.918   5.909  -5.488  1.00  0.00    -0.014 A 
ATOM     80  C   UNL     1      -7.631   5.033  -6.369  1.00  0.00     0.010 A 
ATOM     81  C   UNL     1      -5.523   5.751  -5.527  1.00  0.00     0.010 A 
ATOM     82  C   UNL     1      -7.059   3.920  -7.005  1.00  0.00     0.020 A 
ATOM     83  C   UNL     1      -4.915   4.668  -6.239  1.00  0.00     0.020 A 
ATOM     84  C   UNL     1      -5.700   3.706  -6.887  1.00  0.00     0.054 A 
BRANCH  84  85
ATOM     85  S   UNL     1      -5.022   2.136  -7.524  1.00  0.00     0.124 S 
ATOM     86  O   UNL     1      -5.382   1.199  -6.461  1.00  0.00    -0.237 OA
ATOM     87  O   UNL     1      -5.741   1.946  -8.783  1.00  0.00    -0.237 OA
ATOM     88  O   UNL     1      -3.595   2.407  -7.663  1.00  0.00    -0.744 OA
ENDBRANCH  84  85
ENDBRANCH  56  79
BRANCH  68  89
ATOM     89  C   UNL     1     -11.492   9.331  -3.465  1.00  0.00    -0.014 A 
ATOM     90  C   UNL     1     -11.028  10.108  -2.382  1.00  0.00     0.010 A 
ATOM     91  C   UNL     1     -11.789  10.019  -4.657  1.00  0.00     0.010 A 
ATOM     92  C   UNL     1     -10.921  11.512  -2.468  1.00  0.00     0.020 A 
ATOM     93  C   UNL     1     -11.694  11.417  -4.753  1.00  0.00     0.020 A 
ATOM     94  C   UNL     1     -11.282  12.161  -3.649  1.00  0.00     0.054 A 
BRANCH  94  95
ATOM     95  S   UNL     1     -11.306  13.980  -3.701  1.00  0.00     0.124 S 
ATOM     96  O   UNL     1     -12.108  14.319  -2.528  1.00  0.00    -0.237 OA
ATOM     97  O   UNL     1      -9.889  14.323  -3.606  1.00  0.00    -0.237 OA
ATOM     98  O   UNL     1     -11.933  14.286  -4.986  1.00  0.00    -0.744 OA
ENDBRANCH  94  95
ENDBRANCH  68  89
ENDBRANCH  42  43
ENDBRANCH  35  37
ENDBRANCH  34  35
ENDBRANCH  33  34
ENDBRANCH  32  33
ENDBRANCH  31  32
ENDBRANCH  30  31
ENDBRANCH   1  30
TORSDOF 25
