REMARK SMILES COc1ccc(N2C(=O)N=C(OCCOCCOCCOCCOC(=O)c3ccc(-c4c5nc(c(-c6ccc(S(=O)(=O)[O-])cc6)c6ccc([nH]6)c(-c6ccc(S(=O)(=O)[O-])cc6)c6nc(c(-c7ccc(S(=O)(=O)[O-])cc7)c7ccc4[nH]7)C=C6)C=C5)cc3)/C(=C\c3cc(Cl)c(OCC(=O)[O-])c(Cl)c3)C2=O)cc1
REMARK SMILES IDX 18 1 17 2 16 3 15 4 14 5 13 6 12 7 11 8 7 9 8 10 102 11 9 12
REMARK SMILES IDX 10 13 87 14 103 15 88 16 6 17 3 18 4 19 105 20 5 21 104 22
REMARK SMILES IDX 2 23 1 24 89 25 90 26 101 27 91 28 99 29 92 30 93 31 100 32
REMARK SMILES IDX 94 33 95 34 96 35 97 36 98 37 19 38 20 39 21 40 22 41 23 42
REMARK SMILES IDX 24 43 25 44 26 45 27 46 28 47 86 48 29 49 85 50 30 51 31 52
REMARK SMILES IDX 32 53 79 54 33 55 84 56 78 57 80 58 34 59 83 60 77 61 76 62
REMARK SMILES IDX 35 64 65 65 46 66 64 67 47 68 50 69 63 70 81 71 48 72 49 73
REMARK SMILES IDX 62 75 82 76 51 77 36 78 37 79 45 80 38 81 44 82 39 83 40 84
REMARK SMILES IDX 41 85 42 86 43 87 66 88 67 89 75 90 68 91 74 92 69 93 70 94
REMARK SMILES IDX 71 95 72 96 73 97 52 98 53 99 61 100 54 101 60 102 55 103
REMARK SMILES IDX 56 104 57 105 58 106 59 107
REMARK H PARENT 80 63 50 74
REMARK Flexibility Score: inf
ROOT
ATOM      1  O   UNL     1       3.905  -8.502   6.361  1.00  0.00    -0.377 OA
ENDROOT
BRANCH   1   2
ATOM      2  C   UNL     1       3.466  -8.171   5.051  1.00  0.00     0.188 C 
BRANCH   2   3
ATOM      3  C   UNL     1       2.842  -6.765   4.957  1.00  0.00     0.188 C 
BRANCH   3   4
ATOM      4  O   UNL     1       3.458  -5.680   5.648  1.00  0.00    -0.376 OA
BRANCH   4   5
ATOM      5  C   UNL     1       3.989  -5.973   6.932  1.00  0.00     0.201 C 
BRANCH   5   6
ATOM      6  C   UNL     1       3.042  -6.563   8.024  1.00  0.00     0.260 C 
BRANCH   6   7
ATOM      7  O   UNL     1       2.440  -5.559   8.866  1.00  0.00    -0.475 OA
BRANCH   7   8
ATOM      8  C   UNL     1       2.021  -4.540   8.102  1.00  0.00     0.231 C 
ATOM      9  N   UNL     1       1.709  -2.884   6.008  1.00  0.00    -0.226 N 
ATOM     10  C   UNL     1       0.838  -3.969   6.246  1.00  0.00     0.358 C 
ATOM     11  C   UNL     1       2.776  -2.533   6.861  1.00  0.00     0.272 C 
ATOM     12  O   UNL     1      -0.032  -4.312   5.444  1.00  0.00    -0.245 OA
ATOM     13  N   UNL     1       1.017  -4.751   7.343  1.00  0.00    -0.156 NA
ATOM     14  C   UNL     1       2.958  -3.411   8.082  1.00  0.00     0.103 C 
ATOM     15  O   UNL     1       3.542  -1.586   6.676  1.00  0.00    -0.268 OA
ATOM     16  C   UNL     1       4.033  -3.266   8.917  1.00  0.00     0.027 C 
BRANCH   9  17
ATOM     17  C   UNL     1       1.484  -2.158   4.772  1.00  0.00     0.054 A 
ATOM     18  C   UNL     1       0.914  -0.901   2.280  1.00  0.00     0.119 A 
ATOM     19  C   UNL     1      -0.099  -1.153   3.201  1.00  0.00     0.048 A 
ATOM     20  C   UNL     1       2.217  -1.286   2.598  1.00  0.00     0.048 A 
ATOM     21  C   UNL     1       0.179  -1.780   4.419  1.00  0.00     0.031 A 
ATOM     22  C   UNL     1       2.505  -1.893   3.846  1.00  0.00     0.031 A 
BRANCH  18  23
ATOM     23  O   UNL     1       0.485  -0.243   1.163  1.00  0.00    -0.497 OA
ATOM     24  C   UNL     1       1.303  -0.255   0.004  1.00  0.00     0.278 C 
ENDBRANCH  18  23
ENDBRANCH   9  17
BRANCH  16  25
ATOM     25  C   UNL     1       4.585  -4.210   9.957  1.00  0.00    -0.021 A 
ATOM     26  C   UNL     1       4.158  -4.219  11.286  1.00  0.00     0.032 A 
ATOM     27  C   UNL     1       5.598  -5.134   9.624  1.00  0.00     0.032 A 
ATOM     28  C   UNL     1       4.648  -5.184  12.201  1.00  0.00     0.085 A 
ATOM     29  C   UNL     1       6.051  -6.130  10.521  1.00  0.00     0.085 A 
ATOM     30  Cl  UNL     1       4.169  -5.031  13.859  1.00  0.00    -0.080 Cl
ATOM     31  C   UNL     1       5.530  -6.208  11.810  1.00  0.00     0.157 A 
ATOM     32  Cl  UNL     1       7.337  -7.155   9.983  1.00  0.00    -0.080 Cl
BRANCH  31  33
ATOM     33  O   UNL     1       5.924  -7.116  12.760  1.00  0.00    -0.485 OA
BRANCH  33  34
ATOM     34  C   UNL     1       5.799  -8.505  12.466  1.00  0.00     0.282 C 
BRANCH  34  35
ATOM     35  C   UNL     1       4.622  -9.052  11.658  1.00  0.00     0.079 C 
ATOM     36  O   UNL     1       4.573  -9.162  10.441  1.00  0.00    -0.546 OA
ATOM     37  O   UNL     1       3.585  -9.428  12.430  1.00  0.00    -0.546 OA
ENDBRANCH  34  35
ENDBRANCH  33  34
ENDBRANCH  31  33
ENDBRANCH  16  25
ENDBRANCH   7   8
ENDBRANCH   6   7
ENDBRANCH   5   6
ENDBRANCH   4   5
ENDBRANCH   3   4
ENDBRANCH   2   3
ENDBRANCH   1   2
BRANCH   1  38
ATOM     38  C   UNL     1       5.198  -9.098   6.455  1.00  0.00     0.188 C 
BRANCH  38  39
ATOM     39  C   UNL     1       6.447  -8.165   6.435  1.00  0.00     0.188 C 
BRANCH  39  40
ATOM     40  O   UNL     1       6.686  -7.257   5.374  1.00  0.00    -0.376 OA
BRANCH  40  41
ATOM     41  C   UNL     1       6.720  -7.643   4.015  1.00  0.00     0.202 C 
BRANCH  41  42
ATOM     42  C   UNL     1       7.170  -9.033   3.521  1.00  0.00     0.261 C 
BRANCH  42  43
ATOM     43  O   UNL     1       6.977 -10.133   4.417  1.00  0.00    -0.460 OA
BRANCH  43  44
ATOM     44  C   UNL     1       8.065 -10.505   5.142  1.00  0.00     0.338 C 
ATOM     45  O   UNL     1       9.193 -10.059   5.021  1.00  0.00    -0.246 OA
BRANCH  44  46
ATOM     46  C   UNL     1       7.632 -11.342   6.298  1.00  0.00     0.060 A 
ATOM     47  C   UNL     1       8.141 -11.018   7.566  1.00  0.00     0.016 A 
ATOM     48  C   UNL     1       6.710 -12.385   6.169  1.00  0.00     0.016 A 
ATOM     49  C   UNL     1       7.775 -11.758   8.692  1.00  0.00     0.010 A 
ATOM     50  C   UNL     1       6.369 -13.151   7.293  1.00  0.00     0.010 A 
ATOM     51  C   UNL     1       6.934 -12.868   8.551  1.00  0.00    -0.014 A 
BRANCH  51  52
ATOM     52  C   UNL     1       6.885 -13.880   9.639  1.00  0.00     0.031 A 
ATOM     53  C   UNL     1       7.900 -14.994   9.595  1.00  0.00     0.074 A 
ATOM     54  C   UNL     1       6.007 -13.815  10.657  1.00  0.00     0.049 A 
ATOM     55  N   UNL     1       8.055 -16.012  10.400  1.00  0.00    -0.248 NA
ATOM     56  C   UNL     1       8.871 -14.950   8.487  1.00  0.00     0.031 C 
ATOM     57  C   UNL     1       5.009 -12.766  10.853  1.00  0.00     0.029 A 
ATOM     58  N   UNL     1       5.821 -14.660  11.726  1.00  0.00    -0.354 N 
ATOM     59  C   UNL     1       9.131 -16.732   9.893  1.00  0.00     0.074 A 
ATOM     60  C   UNL     1       9.578 -16.048   8.701  1.00  0.00     0.031 C 
ATOM     61  C   UNL     1       4.317 -13.029  11.978  1.00  0.00     0.029 A 
ATOM     62  C   UNL     1       4.795 -14.284  12.562  1.00  0.00     0.049 A 
ATOM     63  H   UNL     1       6.372 -15.461  11.880  1.00  0.00     0.167 HD
ATOM     64  C   UNL     1       9.698 -17.864  10.370  1.00  0.00     0.031 A 
ATOM     65  C   UNL     1       4.287 -14.892  13.655  1.00  0.00     0.031 A 
ATOM     66  C   UNL     1       9.236 -18.570  11.534  1.00  0.00     0.049 A 
ATOM     67  C   UNL     1       4.879 -16.203  14.118  1.00  0.00     0.074 A 
ATOM     68  C   UNL     1       9.732 -19.738  12.083  1.00  0.00     0.029 A 
ATOM     69  N   UNL     1       8.163 -18.181  12.320  1.00  0.00    -0.354 N 
ATOM     70  N   UNL     1       5.899 -16.869  13.629  1.00  0.00    -0.248 NA
ATOM     71  C   UNL     1       4.246 -16.848  15.280  1.00  0.00     0.031 C 
ATOM     72  C   UNL     1       8.922 -20.088  13.167  1.00  0.00     0.029 A 
ATOM     73  C   UNL     1       7.967 -19.099  13.337  1.00  0.00     0.049 A 
ATOM     74  H   UNL     1       7.621 -17.372  12.177  1.00  0.00     0.167 HD
ATOM     75  C   UNL     1       6.047 -17.991  14.442  1.00  0.00     0.074 A 
ATOM     76  C   UNL     1       5.023 -17.907  15.462  1.00  0.00     0.031 C 
ATOM     77  C   UNL     1       6.948 -19.001  14.351  1.00  0.00     0.031 A 
BRANCH  64  78
ATOM     78  C   UNL     1      10.857 -18.435   9.597  1.00  0.00    -0.014 A 
ATOM     79  C   UNL     1      12.111 -17.798   9.587  1.00  0.00     0.010 A 
ATOM     80  C   UNL     1      10.695 -19.640   8.891  1.00  0.00     0.010 A 
ATOM     81  C   UNL     1      13.172 -18.339   8.855  1.00  0.00     0.020 A 
ATOM     82  C   UNL     1      11.761 -20.200   8.183  1.00  0.00     0.020 A 
ATOM     83  C   UNL     1      12.989 -19.537   8.158  1.00  0.00     0.054 A 
BRANCH  83  84
ATOM     84  S   UNL     1      14.391 -20.229   7.239  1.00  0.00     0.124 S 
ATOM     85  O   UNL     1      14.512 -19.291   6.124  1.00  0.00    -0.237 OA
ATOM     86  O   UNL     1      15.471 -20.180   8.220  1.00  0.00    -0.237 OA
ATOM     87  O   UNL     1      13.941 -21.570   6.876  1.00  0.00    -0.744 OA
ENDBRANCH  83  84
ENDBRANCH  64  78
BRANCH  65  88
ATOM     88  C   UNL     1       3.129 -14.296  14.385  1.00  0.00    -0.014 A 
ATOM     89  C   UNL     1       3.269 -13.835  15.707  1.00  0.00     0.010 A 
ATOM     90  C   UNL     1       1.864 -14.224  13.773  1.00  0.00     0.010 A 
ATOM     91  C   UNL     1       2.166 -13.337  16.409  1.00  0.00     0.020 A 
ATOM     92  C   UNL     1       0.766 -13.696  14.459  1.00  0.00     0.020 A 
ATOM     93  C   UNL     1       0.921 -13.269  15.779  1.00  0.00     0.054 A 
BRANCH  93  94
ATOM     94  S   UNL     1      -0.491 -12.585  16.693  1.00  0.00     0.124 S 
ATOM     95  O   UNL     1      -0.786 -13.655  17.640  1.00  0.00    -0.237 OA
ATOM     96  O   UNL     1       0.069 -11.365  17.268  1.00  0.00    -0.237 OA
ATOM     97  O   UNL     1      -1.496 -12.371  15.654  1.00  0.00    -0.744 OA
ENDBRANCH  93  94
ENDBRANCH  65  88
BRANCH  77  98
ATOM     98  C   UNL     1       6.909 -20.078  15.407  1.00  0.00    -0.014 A 
ATOM     99  C   UNL     1       5.869 -21.023  15.456  1.00  0.00     0.010 A 
ATOM    100  C   UNL     1       7.972 -20.184  16.323  1.00  0.00     0.010 A 
ATOM    101  C   UNL     1       5.878 -22.035  16.422  1.00  0.00     0.020 A 
ATOM    102  C   UNL     1       8.001 -21.211  17.270  1.00  0.00     0.020 A 
ATOM    103  C   UNL     1       6.945 -22.123  17.323  1.00  0.00     0.054 A 
BRANCH 103 104
ATOM    104  S   UNL     1       6.956 -23.471  18.536  1.00  0.00     0.124 S 
ATOM    105  O   UNL     1       5.903 -23.058  19.460  1.00  0.00    -0.237 OA
ATOM    106  O   UNL     1       6.650 -24.641  17.717  1.00  0.00    -0.237 OA
ATOM    107  O   UNL     1       8.311 -23.437  19.082  1.00  0.00    -0.744 OA
ENDBRANCH 103 104
ENDBRANCH  77  98
ENDBRANCH  51  52
ENDBRANCH  44  46
ENDBRANCH  43  44
ENDBRANCH  42  43
ENDBRANCH  41  42
ENDBRANCH  40  41
ENDBRANCH  39  40
ENDBRANCH  38  39
ENDBRANCH   1  38
TORSDOF 28
