REMARK SMILES CC(C)=CC[C@@]1(C(=O)OCCOCCOCCOCCOC(=O)c2ccc(-c3c4nc(c(-c5ccc(S(=O)(=O)[O-])cc5)c5ccc([nH]5)c(-c5ccc(S(=O)(=O)[O-])cc5)c5nc(c(-c6ccc(S(=O)(=O)[O-])cc6)c6ccc3[nH]6)C=C5)C=C4)cc2)CCC[C@H](C)C1
REMARK SMILES IDX 16 1 15 2 14 3 13 4 12 5 11 6 10 7 9 8 7 9 8 10 6 11 84 12
REMARK SMILES IDX 89 13 85 14 87 15 86 16 88 17 5 18 4 19 1 20 2 21 3 22 17 23
REMARK SMILES IDX 18 24 19 25 20 26 21 27 22 28 23 29 24 30 25 31 83 32 26 33
REMARK SMILES IDX 82 34 27 35 28 36 29 37 76 38 30 39 81 40 75 41 77 42 31 43
REMARK SMILES IDX 80 44 74 45 73 46 32 48 62 49 43 50 61 51 44 52 47 53 60 54
REMARK SMILES IDX 78 55 45 56 46 57 59 59 79 60 48 61 33 62 34 63 42 64 35 65
REMARK SMILES IDX 41 66 36 67 37 68 38 69 39 70 40 71 63 72 64 73 72 74 65 75
REMARK SMILES IDX 71 76 66 77 67 78 68 79 69 80 70 81 49 82 50 83 58 84 51 85
REMARK SMILES IDX 57 86 52 87 53 88 54 89 55 90 56 91
REMARK H PARENT 77 47 47 58
REMARK Flexibility Score: inf
ROOT
ATOM      1  C   UNL     1       1.204   0.773   0.439  1.00  0.00     0.188 C 
ENDROOT
BRANCH   1   2
ATOM      2  O   UNL     1       2.222   0.171  -0.348  1.00  0.00    -0.377 OA
BRANCH   2   3
ATOM      3  C   UNL     1       2.197   0.231  -1.762  1.00  0.00     0.188 C 
BRANCH   3   4
ATOM      4  C   UNL     1       0.877   0.187  -2.540  1.00  0.00     0.188 C 
BRANCH   4   5
ATOM      5  O   UNL     1      -0.263   0.150  -1.703  1.00  0.00    -0.376 OA
BRANCH   5   6
ATOM      6  C   UNL     1      -1.174  -0.907  -1.917  1.00  0.00     0.202 C 
BRANCH   6   7
ATOM      7  C   UNL     1      -0.777  -2.275  -1.347  1.00  0.00     0.261 C 
BRANCH   7   8
ATOM      8  O   UNL     1       0.624  -2.521  -1.167  1.00  0.00    -0.463 OA
BRANCH   8   9
ATOM      9  C   UNL     1       1.292  -3.068  -2.201  1.00  0.00     0.312 C 
ATOM     10  O   UNL     1       0.813  -3.133  -3.332  1.00  0.00    -0.252 OA
BRANCH   9  11
ATOM     11  C   UNL     1       2.647  -3.716  -1.823  1.00  0.00     0.072 C 
ATOM     12  C   UNL     1       3.610  -3.401  -3.015  1.00  0.00     0.019 C 
ATOM     13  C   UNL     1       2.332  -5.238  -1.787  1.00  0.00     0.022 C 
ATOM     14  C   UNL     1       4.831  -4.310  -3.085  1.00  0.00     0.001 C 
ATOM     15  C   UNL     1       3.538  -6.173  -1.979  1.00  0.00    -0.013 C 
ATOM     16  C   UNL     1       4.399  -5.763  -3.179  1.00  0.00     0.003 C 
ATOM     17  C   UNL     1       3.062  -7.620  -2.148  1.00  0.00     0.007 C 
BRANCH  11  18
ATOM     18  C   UNL     1       3.379  -3.260  -0.507  1.00  0.00     0.046 C 
BRANCH  18  19
ATOM     19  C   UNL     1       2.631  -2.858   0.737  1.00  0.00    -0.027 C 
ATOM     20  C   UNL     1       3.763  -4.311   2.455  1.00  0.00     0.039 C 
ATOM     21  C   UNL     1       2.815  -3.238   2.016  1.00  0.00    -0.080 C 
ATOM     22  C   UNL     1       2.084  -2.491   3.107  1.00  0.00     0.039 C 
ENDBRANCH  18  19
ENDBRANCH  11  18
ENDBRANCH   9  11
ENDBRANCH   8   9
ENDBRANCH   7   8
ENDBRANCH   6   7
ENDBRANCH   5   6
ENDBRANCH   4   5
ENDBRANCH   3   4
ENDBRANCH   2   3
ENDBRANCH   1   2
BRANCH   1  23
ATOM     23  C   UNL     1       0.727   2.195   0.094  1.00  0.00     0.188 C 
BRANCH  23  24
ATOM     24  O   UNL     1       1.664   3.156  -0.378  1.00  0.00    -0.376 OA
BRANCH  24  25
ATOM     25  C   UNL     1       2.999   3.107   0.094  1.00  0.00     0.202 C 
BRANCH  25  26
ATOM     26  C   UNL     1       3.258   3.537   1.537  1.00  0.00     0.261 C 
BRANCH  26  27
ATOM     27  O   UNL     1       2.578   2.734   2.512  1.00  0.00    -0.460 OA
BRANCH  27  28
ATOM     28  C   UNL     1       1.479   3.297   3.050  1.00  0.00     0.338 C 
ATOM     29  O   UNL     1       1.010   4.409   2.783  1.00  0.00    -0.246 OA
BRANCH  28  30
ATOM     30  C   UNL     1       0.797   2.353   3.945  1.00  0.00     0.060 A 
ATOM     31  C   UNL     1      -0.588   2.192   3.811  1.00  0.00     0.016 A 
ATOM     32  C   UNL     1       1.490   1.719   4.981  1.00  0.00     0.016 A 
ATOM     33  C   UNL     1      -1.298   1.460   4.758  1.00  0.00     0.010 A 
ATOM     34  C   UNL     1       0.774   0.994   5.936  1.00  0.00     0.010 A 
ATOM     35  C   UNL     1      -0.627   0.907   5.855  1.00  0.00    -0.014 A 
BRANCH  35  36
ATOM     36  C   UNL     1      -1.408   0.423   7.016  1.00  0.00     0.031 A 
ATOM     37  C   UNL     1      -1.589   1.345   8.194  1.00  0.00     0.074 A 
ATOM     38  C   UNL     1      -1.972  -0.797   7.011  1.00  0.00     0.049 A 
ATOM     39  N   UNL     1      -2.202   1.130   9.329  1.00  0.00    -0.248 NA
ATOM     40  C   UNL     1      -0.996   2.688   8.076  1.00  0.00     0.031 C 
ATOM     41  C   UNL     1      -1.906  -1.753   5.907  1.00  0.00     0.029 A 
ATOM     42  N   UNL     1      -2.709  -1.439   7.972  1.00  0.00    -0.354 N 
ATOM     43  C   UNL     1      -2.060   2.303  10.062  1.00  0.00     0.074 A 
ATOM     44  C   UNL     1      -1.280   3.216   9.257  1.00  0.00     0.031 C 
ATOM     45  C   UNL     1      -2.572  -2.868   6.258  1.00  0.00     0.029 A 
ATOM     46  C   UNL     1      -3.078  -2.715   7.621  1.00  0.00     0.049 A 
ATOM     47  H   UNL     1      -2.951  -1.025   8.832  1.00  0.00     0.167 HD
ATOM     48  C   UNL     1      -2.541   2.595  11.294  1.00  0.00     0.031 A 
ATOM     49  C   UNL     1      -3.732  -3.657   8.329  1.00  0.00     0.031 A 
ATOM     50  C   UNL     1      -3.305   1.676  12.094  1.00  0.00     0.049 A 
ATOM     51  C   UNL     1      -4.196  -3.335   9.726  1.00  0.00     0.074 A 
ATOM     52  C   UNL     1      -3.847   1.873  13.351  1.00  0.00     0.029 A 
ATOM     53  N   UNL     1      -3.628   0.381  11.717  1.00  0.00    -0.354 N 
ATOM     54  N   UNL     1      -4.069  -2.216  10.400  1.00  0.00    -0.248 NA
ATOM     55  C   UNL     1      -4.899  -4.400  10.454  1.00  0.00     0.031 C 
ATOM     56  C   UNL     1      -4.449   0.678  13.758  1.00  0.00     0.029 A 
ATOM     57  C   UNL     1      -4.340  -0.242  12.727  1.00  0.00     0.049 A 
ATOM     58  H   UNL     1      -3.388  -0.034  10.857  1.00  0.00     0.167 HD
ATOM     59  C   UNL     1      -4.703  -2.433  11.620  1.00  0.00     0.074 A 
ATOM     60  C   UNL     1      -5.222  -3.786  11.584  1.00  0.00     0.031 C 
ATOM     61  C   UNL     1      -4.847  -1.591  12.673  1.00  0.00     0.031 A 
BRANCH  48  62
ATOM     62  C   UNL     1      -2.217   3.951  11.865  1.00  0.00    -0.014 A 
ATOM     63  C   UNL     1      -2.803   5.122  11.349  1.00  0.00     0.010 A 
ATOM     64  C   UNL     1      -1.335   4.053  12.956  1.00  0.00     0.010 A 
ATOM     65  C   UNL     1      -2.483   6.371  11.889  1.00  0.00     0.020 A 
ATOM     66  C   UNL     1      -1.034   5.297  13.517  1.00  0.00     0.020 A 
ATOM     67  C   UNL     1      -1.598   6.451  12.969  1.00  0.00     0.054 A 
BRANCH  67  68
ATOM     68  S   UNL     1      -1.217   8.082  13.664  1.00  0.00     0.124 S 
ATOM     69  O   UNL     1      -0.373   8.664  12.623  1.00  0.00    -0.237 OA
ATOM     70  O   UNL     1      -2.539   8.685  13.810  1.00  0.00    -0.237 OA
ATOM     71  O   UNL     1      -0.534   7.774  14.919  1.00  0.00    -0.744 OA
ENDBRANCH  67  68
ENDBRANCH  48  62
BRANCH  49  72
ATOM     72  C   UNL     1      -3.970  -5.000   7.734  1.00  0.00    -0.014 A 
ATOM     73  C   UNL     1      -5.268  -5.417   7.392  1.00  0.00     0.010 A 
ATOM     74  C   UNL     1      -2.889  -5.871   7.499  1.00  0.00     0.010 A 
ATOM     75  C   UNL     1      -5.483  -6.685   6.842  1.00  0.00     0.020 A 
ATOM     76  C   UNL     1      -3.096  -7.127   6.923  1.00  0.00     0.020 A 
ATOM     77  C   UNL     1      -4.394  -7.530   6.607  1.00  0.00     0.054 A 
BRANCH  77  78
ATOM     78  S   UNL     1      -4.691  -9.148   5.840  1.00  0.00     0.124 S 
ATOM     79  O   UNL     1      -5.311  -9.892   6.931  1.00  0.00    -0.237 OA
ATOM     80  O   UNL     1      -5.570  -8.810   4.723  1.00  0.00    -0.237 OA
ATOM     81  O   UNL     1      -3.354  -9.595   5.457  1.00  0.00    -0.744 OA
ENDBRANCH  77  78
ENDBRANCH  49  72
BRANCH  61  82
ATOM     82  C   UNL     1      -5.629  -2.090  13.860  1.00  0.00    -0.014 A 
ATOM     83  C   UNL     1      -5.104  -3.066  14.725  1.00  0.00     0.010 A 
ATOM     84  C   UNL     1      -6.889  -1.530  14.142  1.00  0.00     0.010 A 
ATOM     85  C   UNL     1      -5.841  -3.498  15.831  1.00  0.00     0.020 A 
ATOM     86  C   UNL     1      -7.616  -1.938  15.263  1.00  0.00     0.020 A 
ATOM     87  C   UNL     1      -7.093  -2.932  16.092  1.00  0.00     0.054 A 
BRANCH  87  88
ATOM     88  S   UNL     1      -8.014  -3.484  17.554  1.00  0.00     0.124 S 
ATOM     89  O   UNL     1      -8.470  -4.809  17.143  1.00  0.00    -0.237 OA
ATOM     90  O   UNL     1      -6.996  -3.466  18.601  1.00  0.00    -0.237 OA
ATOM     91  O   UNL     1      -9.067  -2.481  17.700  1.00  0.00    -0.744 OA
ENDBRANCH  87  88
ENDBRANCH  61  82
ENDBRANCH  35  36
ENDBRANCH  28  30
ENDBRANCH  27  28
ENDBRANCH  26  27
ENDBRANCH  25  26
ENDBRANCH  24  25
ENDBRANCH  23  24
ENDBRANCH   1  23
TORSDOF 25
