REMARK SMILES CCNC(=O)c1ccc(N2C[C@@H](C)[C@H](C(=O)OCCOCCOCCOCCOC(=O)c3ccc(-c4c5nc(c(-c6ccc(S(=O)(=O)[O-])cc6)c6ccc([nH]6)c(-c6ccc(S(=O)(=O)[O-])cc6)c6nc(c(-c7ccc(S(=O)(=O)[O-])cc7)c7ccc4[nH]7)C=C6)C=C5)cc3)C2)nn1
REMARK SMILES IDX 23 1 22 2 21 3 20 4 19 5 18 6 17 7 15 8 16 9 14 10 10 11
REMARK SMILES IDX 11 12 92 13 12 14 13 15 9 16 6 17 7 18 94 19 8 20 93 21 4 22
REMARK SMILES IDX 3 23 5 25 2 26 1 27 24 28 25 29 26 30 27 31 28 32 29 33
REMARK SMILES IDX 30 34 31 35 32 36 33 37 91 38 34 39 90 40 35 41 36 42 37 43
REMARK SMILES IDX 84 44 38 45 89 46 83 47 85 48 39 49 88 50 82 51 81 52 40 54
REMARK SMILES IDX 70 55 51 56 69 57 52 58 55 59 68 60 86 61 53 62 54 63 67 65
REMARK SMILES IDX 87 66 56 67 41 68 42 69 50 70 43 71 49 72 44 73 45 74 46 75
REMARK SMILES IDX 47 76 48 77 71 78 72 79 80 80 73 81 79 82 74 83 75 84 76 85
REMARK SMILES IDX 77 86 78 87 57 88 58 89 66 90 59 91 65 92 60 93 61 94 62 95
REMARK SMILES IDX 63 96 64 97
REMARK H PARENT 3 24 85 53 55 64
REMARK Flexibility Score: inf
ROOT
ATOM      1  O   UNL     1      -6.067   2.260  -2.187  1.00  0.00    -0.377 OA
ENDROOT
BRANCH   1   2
ATOM      2  C   UNL     1      -7.319   2.221  -1.536  1.00  0.00     0.188 C 
BRANCH   2   3
ATOM      3  C   UNL     1      -7.308   2.615  -0.054  1.00  0.00     0.188 C 
BRANCH   3   4
ATOM      4  O   UNL     1      -6.206   3.306   0.509  1.00  0.00    -0.376 OA
BRANCH   4   5
ATOM      5  C   UNL     1      -4.870   2.901   0.243  1.00  0.00     0.202 C 
BRANCH   5   6
ATOM      6  C   UNL     1      -4.423   1.426   0.282  1.00  0.00     0.261 C 
BRANCH   6   7
ATOM      7  O   UNL     1      -5.231   0.474  -0.440  1.00  0.00    -0.463 OA
BRANCH   7   8
ATOM      8  C   UNL     1      -5.991  -0.350   0.315  1.00  0.00     0.311 C 
ATOM      9  O   UNL     1      -6.042  -0.304   1.542  1.00  0.00    -0.252 OA
BRANCH   8  10
ATOM     10  C   UNL     1      -6.810  -1.374  -0.455  1.00  0.00     0.123 C 
ATOM     11  N   UNL     1      -5.462  -2.854  -1.647  1.00  0.00    -0.354 N 
ATOM     12  C   UNL     1      -6.364  -2.371  -2.664  1.00  0.00     0.122 C 
ATOM     13  C   UNL     1      -6.074  -2.707  -0.333  1.00  0.00     0.133 C 
ATOM     14  C   UNL     1      -7.081  -1.208  -1.975  1.00  0.00     0.021 C 
ATOM     15  C   UNL     1      -8.579  -1.255  -2.293  1.00  0.00     0.010 C 
BRANCH  11  16
ATOM     16  C   UNL     1      -4.093  -2.741  -1.708  1.00  0.00     0.151 A 
ATOM     17  C   UNL     1      -1.357  -2.711  -1.804  1.00  0.00     0.150 A 
ATOM     18  C   UNL     1      -2.051  -1.849  -2.632  1.00  0.00     0.040 A 
ATOM     19  N   UNL     1      -1.988  -3.533  -0.943  1.00  0.00    -0.143 NA
ATOM     20  C   UNL     1      -3.441  -1.861  -2.567  1.00  0.00     0.051 A 
ATOM     21  N   UNL     1      -3.361  -3.528  -0.890  1.00  0.00    -0.132 NA
BRANCH  17  22
ATOM     22  C   UNL     1       0.107  -2.876  -1.909  1.00  0.00     0.271 C 
ATOM     23  N   UNL     1       0.945  -1.790  -1.815  1.00  0.00    -0.351 N 
ATOM     24  H   UNL     1       1.880  -1.958  -2.074  1.00  0.00     0.163 HD
ATOM     25  O   UNL     1       0.555  -4.002  -2.110  1.00  0.00    -0.267 OA
BRANCH  23  26
ATOM     26  C   UNL     1       0.656  -0.432  -1.391  1.00  0.00     0.113 C 
ATOM     27  C   UNL     1       1.182  -0.165   0.007  1.00  0.00     0.027 C 
ENDBRANCH  23  26
ENDBRANCH  17  22
ENDBRANCH  11  16
ENDBRANCH   8  10
ENDBRANCH   7   8
ENDBRANCH   6   7
ENDBRANCH   5   6
ENDBRANCH   4   5
ENDBRANCH   3   4
ENDBRANCH   2   3
ENDBRANCH   1   2
BRANCH   1  28
ATOM     28  C   UNL     1      -5.751   3.425  -2.939  1.00  0.00     0.188 C 
BRANCH  28  29
ATOM     29  C   UNL     1      -6.347   4.773  -2.488  1.00  0.00     0.188 C 
BRANCH  29  30
ATOM     30  O   UNL     1      -7.750   4.741  -2.263  1.00  0.00    -0.376 OA
BRANCH  30  31
ATOM     31  C   UNL     1      -8.624   5.109  -3.321  1.00  0.00     0.202 C 
BRANCH  31  32
ATOM     32  C   UNL     1      -8.622   4.263  -4.607  1.00  0.00     0.261 C 
BRANCH  32  33
ATOM     33  O   UNL     1      -7.386   4.176  -5.333  1.00  0.00    -0.460 OA
BRANCH  33  34
ATOM     34  C   UNL     1      -6.778   5.326  -5.701  1.00  0.00     0.338 C 
ATOM     35  O   UNL     1      -7.195   6.453  -5.549  1.00  0.00    -0.246 OA
BRANCH  34  36
ATOM     36  C   UNL     1      -5.404   4.985  -6.140  1.00  0.00     0.060 A 
ATOM     37  C   UNL     1      -4.317   5.564  -5.472  1.00  0.00     0.016 A 
ATOM     38  C   UNL     1      -5.191   4.108  -7.206  1.00  0.00     0.016 A 
ATOM     39  C   UNL     1      -3.013   5.303  -5.897  1.00  0.00     0.010 A 
ATOM     40  C   UNL     1      -3.885   3.866  -7.645  1.00  0.00     0.010 A 
ATOM     41  C   UNL     1      -2.793   4.491  -7.017  1.00  0.00    -0.014 A 
BRANCH  41  42
ATOM     42  C   UNL     1      -1.454   4.465  -7.659  1.00  0.00     0.031 A 
ATOM     43  C   UNL     1      -1.226   5.342  -8.863  1.00  0.00     0.074 A 
ATOM     44  C   UNL     1      -0.453   3.708  -7.175  1.00  0.00     0.049 A 
ATOM     45  N   UNL     1      -0.172   5.440  -9.630  1.00  0.00    -0.248 NA
ATOM     46  C   UNL     1      -2.336   6.230  -9.251  1.00  0.00     0.031 C 
ATOM     47  C   UNL     1      -0.522   2.865  -5.982  1.00  0.00     0.029 A 
ATOM     48  N   UNL     1       0.827   3.526  -7.640  1.00  0.00    -0.354 N 
ATOM     49  C   UNL     1      -0.489   6.398 -10.586  1.00  0.00     0.074 A 
ATOM     50  C   UNL     1      -1.847   6.823 -10.329  1.00  0.00     0.031 C 
ATOM     51  C   UNL     1       0.662   2.247  -5.816  1.00  0.00     0.029 A 
ATOM     52  C   UNL     1       1.557   2.618  -6.911  1.00  0.00     0.049 A 
ATOM     53  H   UNL     1       1.187   4.001  -8.424  1.00  0.00     0.167 HD
ATOM     54  C   UNL     1       0.284   6.893 -11.581  1.00  0.00     0.031 A 
ATOM     55  C   UNL     1       2.795   2.125  -7.120  1.00  0.00     0.031 A 
ATOM     56  C   UNL     1       1.629   6.461 -11.850  1.00  0.00     0.049 A 
ATOM     57  C   UNL     1       3.594   2.608  -8.309  1.00  0.00     0.074 A 
ATOM     58  C   UNL     1       2.486   6.889 -12.848  1.00  0.00     0.029 A 
ATOM     59  N   UNL     1       2.314   5.507 -11.115  1.00  0.00    -0.354 N 
ATOM     60  N   UNL     1       3.281   3.518  -9.200  1.00  0.00    -0.248 NA
ATOM     61  C   UNL     1       4.918   2.001  -8.511  1.00  0.00     0.031 C 
ATOM     62  C   UNL     1       3.670   6.154 -12.752  1.00  0.00     0.029 A 
ATOM     63  C   UNL     1       3.577   5.319 -11.649  1.00  0.00     0.049 A 
ATOM     64  H   UNL     1       1.956   5.032 -10.331  1.00  0.00     0.167 HD
ATOM     65  C   UNL     1       4.388   3.622 -10.040  1.00  0.00     0.074 A 
ATOM     66  C   UNL     1       5.381   2.697  -9.540  1.00  0.00     0.031 C 
ATOM     67  C   UNL     1       4.566   4.412 -11.127  1.00  0.00     0.031 A 
BRANCH  54  68
ATOM     68  C   UNL     1      -0.309   7.958 -12.466  1.00  0.00    -0.014 A 
ATOM     69  C   UNL     1      -0.520   9.261 -11.982  1.00  0.00     0.010 A 
ATOM     70  C   UNL     1      -0.588   7.674 -13.815  1.00  0.00     0.010 A 
ATOM     71  C   UNL     1      -1.016  10.257 -12.826  1.00  0.00     0.020 A 
ATOM     72  C   UNL     1      -1.056   8.675 -14.671  1.00  0.00     0.020 A 
ATOM     73  C   UNL     1      -1.274   9.959 -14.168  1.00  0.00     0.054 A 
BRANCH  73  74
ATOM     74  S   UNL     1      -1.857  11.290 -15.252  1.00  0.00     0.124 S 
ATOM     75  O   UNL     1      -3.204  11.529 -14.739  1.00  0.00    -0.237 OA
ATOM     76  O   UNL     1      -0.890  12.354 -14.997  1.00  0.00    -0.237 OA
ATOM     77  O   UNL     1      -1.796  10.703 -16.588  1.00  0.00    -0.744 OA
ENDBRANCH  73  74
ENDBRANCH  54  68
BRANCH  55  78
ATOM     78  C   UNL     1       3.366   1.092  -6.210  1.00  0.00    -0.014 A 
ATOM     79  C   UNL     1       4.518   1.366  -5.450  1.00  0.00     0.010 A 
ATOM     80  C   UNL     1       2.802  -0.196  -6.154  1.00  0.00     0.010 A 
ATOM     81  C   UNL     1       5.122   0.360  -4.692  1.00  0.00     0.020 A 
ATOM     82  C   UNL     1       3.380  -1.194  -5.364  1.00  0.00     0.020 A 
ATOM     83  C   UNL     1       4.550  -0.913  -4.657  1.00  0.00     0.054 A 
BRANCH  83  84
ATOM     84  S   UNL     1       5.348  -2.193  -3.652  1.00  0.00     0.124 S 
ATOM     85  O   UNL     1       6.559  -2.468  -4.418  1.00  0.00    -0.237 OA
ATOM     86  O   UNL     1       5.539  -1.504  -2.378  1.00  0.00    -0.237 OA
ATOM     87  O   UNL     1       4.357  -3.263  -3.627  1.00  0.00    -0.744 OA
ENDBRANCH  83  84
ENDBRANCH  55  78
BRANCH  67  88
ATOM     88  C   UNL     1       5.906   4.365 -11.818  1.00  0.00    -0.014 A 
ATOM     89  C   UNL     1       6.315   3.241 -12.556  1.00  0.00     0.010 A 
ATOM     90  C   UNL     1       6.745   5.495 -11.771  1.00  0.00     0.010 A 
ATOM     91  C   UNL     1       7.553   3.235 -13.206  1.00  0.00     0.020 A 
ATOM     92  C   UNL     1       7.967   5.505 -12.447  1.00  0.00     0.020 A 
ATOM     93  C   UNL     1       8.370   4.368 -13.149  1.00  0.00     0.054 A 
BRANCH  93  94
ATOM     94  S   UNL     1       9.950   4.350 -14.039  1.00  0.00     0.124 S 
ATOM     95  O   UNL     1      10.744   3.429 -13.231  1.00  0.00    -0.237 OA
ATOM     96  O   UNL     1       9.566   3.857 -15.360  1.00  0.00    -0.237 OA
ATOM     97  O   UNL     1      10.386   5.744 -14.003  1.00  0.00    -0.744 OA
ENDBRANCH  93  94
ENDBRANCH  67  88
ENDBRANCH  41  42
ENDBRANCH  34  36
ENDBRANCH  33  34
ENDBRANCH  32  33
ENDBRANCH  31  32
ENDBRANCH  30  31
ENDBRANCH  29  30
ENDBRANCH  28  29
ENDBRANCH   1  28
TORSDOF 26
