REMARK SMILES C[C@@H](CC(=O)OCCOCCOCCOCCOC(=O)c1ccc(-c2c3nc(c(-c4ccc(S(=O)(=O)[O-])cc4)c4ccc([nH]4)c(-c4ccc(S(=O)(=O)[O-])cc4)c4nc(c(-c5ccc(S(=O)(=O)[O-])cc5)c5ccc2[nH]5)C=C4)C=C3)cc1)NC(=O)c1ccc(O)cc1
REMARK SMILES IDX 11 1 10 2 9 3 8 4 7 5 6 6 4 7 5 8 3 9 2 10 1 11 81 12 82 13
REMARK SMILES IDX 83 15 84 16 85 17 90 18 86 19 89 20 87 21 88 22 12 24 13 25
REMARK SMILES IDX 14 26 15 27 16 28 17 29 18 30 19 31 20 32 21 33 22 34 80 35
REMARK SMILES IDX 23 36 79 37 24 38 25 39 26 40 73 41 27 42 78 43 72 44 74 45
REMARK SMILES IDX 28 46 77 47 71 48 70 49 29 51 59 52 40 53 58 54 41 55 44 56
REMARK SMILES IDX 57 57 75 58 42 59 43 60 56 62 76 63 45 64 30 65 31 66 39 67
REMARK SMILES IDX 32 68 38 69 33 70 34 71 35 72 36 73 37 74 60 75 61 76 69 77
REMARK SMILES IDX 62 78 68 79 63 80 64 81 65 82 66 83 67 84 46 85 47 86 55 87
REMARK SMILES IDX 48 88 54 89 49 90 50 91 51 92 52 93 53 94
REMARK H PARENT 81 14 88 23 74 50 44 61
REMARK Flexibility Score: inf
ROOT
ATOM      1  C   UNL     1      -1.538  -2.627  -0.637  1.00  0.00     0.188 C 
ENDROOT
BRANCH   1   2
ATOM      2  C   UNL     1      -1.390  -4.137  -0.811  1.00  0.00     0.188 C 
BRANCH   2   3
ATOM      3  O   UNL     1      -1.221  -4.961   0.325  1.00  0.00    -0.376 OA
BRANCH   3   4
ATOM      4  C   UNL     1      -0.151  -4.716   1.233  1.00  0.00     0.202 C 
BRANCH   4   5
ATOM      5  C   UNL     1       1.227  -4.236   0.742  1.00  0.00     0.261 C 
BRANCH   5   6
ATOM      6  O   UNL     1       1.256  -2.897   0.184  1.00  0.00    -0.463 OA
BRANCH   6   7
ATOM      7  C   UNL     1       1.769  -2.767  -1.055  1.00  0.00     0.307 C 
ATOM      8  O   UNL     1       2.233  -3.708  -1.700  1.00  0.00    -0.252 OA
BRANCH   7   9
ATOM      9  C   UNL     1       1.708  -1.388  -1.697  1.00  0.00     0.147 C 
BRANCH   9  10
ATOM     10  C   UNL     1       1.201  -0.080  -1.060  1.00  0.00     0.090 C 
ATOM     11  C   UNL     1       1.671   0.167   0.366  1.00  0.00     0.031 C 
BRANCH  10  12
ATOM     12  N   UNL     1      -0.250   0.108  -1.160  1.00  0.00    -0.349 N 
ATOM     13  C   UNL     1      -1.034   0.761  -2.082  1.00  0.00     0.251 C 
ATOM     14  H   UNL     1      -0.759  -0.313  -0.430  1.00  0.00     0.164 HD
ATOM     15  O   UNL     1      -2.259   0.726  -1.995  1.00  0.00    -0.269 OA
BRANCH  13  16
ATOM     16  C   UNL     1      -0.432   1.582  -3.153  1.00  0.00     0.040 A 
ATOM     17  C   UNL     1      -0.838   2.919  -3.255  1.00  0.00     0.017 A 
ATOM     18  C   UNL     1       0.486   1.061  -4.068  1.00  0.00     0.017 A 
ATOM     19  C   UNL     1      -0.252   3.755  -4.206  1.00  0.00     0.047 A 
ATOM     20  C   UNL     1       1.085   1.901  -5.010  1.00  0.00     0.047 A 
ATOM     21  C   UNL     1       0.728   3.247  -5.051  1.00  0.00     0.115 A 
BRANCH  21  22
ATOM     22  O   UNL     1       1.332   4.110  -5.917  1.00  0.00    -0.508 OA
ATOM     23  H   UNL     1       1.079   5.012  -5.931  1.00  0.00     0.293 HD
ENDBRANCH  21  22
ENDBRANCH  13  16
ENDBRANCH  10  12
ENDBRANCH   9  10
ENDBRANCH   7   9
ENDBRANCH   6   7
ENDBRANCH   5   6
ENDBRANCH   4   5
ENDBRANCH   3   4
ENDBRANCH   2   3
ENDBRANCH   1   2
BRANCH   1  24
ATOM     24  O   UNL     1      -1.133  -2.068   0.601  1.00  0.00    -0.377 OA
BRANCH  24  25
ATOM     25  C   UNL     1      -2.052  -2.008   1.689  1.00  0.00     0.188 C 
BRANCH  25  26
ATOM     26  C   UNL     1      -3.391  -2.746   1.583  1.00  0.00     0.188 C 
BRANCH  26  27
ATOM     27  O   UNL     1      -4.062  -2.506   0.360  1.00  0.00    -0.376 OA
BRANCH  27  28
ATOM     28  C   UNL     1      -4.967  -1.419   0.248  1.00  0.00     0.202 C 
BRANCH  28  29
ATOM     29  C   UNL     1      -4.541   0.014   0.614  1.00  0.00     0.261 C 
BRANCH  29  30
ATOM     30  O   UNL     1      -4.000   0.249   1.923  1.00  0.00    -0.460 OA
BRANCH  30  31
ATOM     31  C   UNL     1      -4.728  -0.096   2.999  1.00  0.00     0.338 C 
ATOM     32  O   UNL     1      -5.853  -0.573   3.005  1.00  0.00    -0.246 OA
BRANCH  31  33
ATOM     33  C   UNL     1      -3.856   0.024   4.186  1.00  0.00     0.060 A 
ATOM     34  C   UNL     1      -3.639  -1.107   4.984  1.00  0.00     0.016 A 
ATOM     35  C   UNL     1      -3.275   1.249   4.528  1.00  0.00     0.016 A 
ATOM     36  C   UNL     1      -2.899  -0.999   6.162  1.00  0.00     0.010 A 
ATOM     37  C   UNL     1      -2.544   1.359   5.716  1.00  0.00     0.010 A 
ATOM     38  C   UNL     1      -2.396   0.246   6.563  1.00  0.00    -0.014 A 
BRANCH  38  39
ATOM     39  C   UNL     1      -1.908   0.423   7.955  1.00  0.00     0.031 A 
ATOM     40  C   UNL     1      -2.838   1.044   8.966  1.00  0.00     0.074 A 
ATOM     41  C   UNL     1      -0.686   0.004   8.330  1.00  0.00     0.049 A 
ATOM     42  N   UNL     1      -2.635   1.304  10.231  1.00  0.00    -0.248 NA
ATOM     43  C   UNL     1      -4.177   1.423   8.482  1.00  0.00     0.031 C 
ATOM     44  C   UNL     1       0.287  -0.655   7.461  1.00  0.00     0.029 A 
ATOM     45  N   UNL     1      -0.058   0.072   9.550  1.00  0.00    -0.354 N 
ATOM     46  C   UNL     1      -3.814   1.883  10.691  1.00  0.00     0.074 A 
ATOM     47  C   UNL     1      -4.712   1.970   9.562  1.00  0.00     0.031 C 
ATOM     48  C   UNL     1       1.393  -0.929   8.177  1.00  0.00     0.029 A 
ATOM     49  C   UNL     1       1.219  -0.436   9.542  1.00  0.00     0.049 A 
ATOM     50  H   UNL     1      -0.483   0.449  10.354  1.00  0.00     0.167 HD
ATOM     51  C   UNL     1      -4.125   2.299  11.942  1.00  0.00     0.031 A 
ATOM     52  C   UNL     1       2.147  -0.481  10.519  1.00  0.00     0.031 A 
ATOM     53  C   UNL     1      -3.223   2.225  13.061  1.00  0.00     0.049 A 
ATOM     54  C   UNL     1       1.807   0.060  11.886  1.00  0.00     0.074 A 
ATOM     55  C   UNL     1      -3.446   2.609  14.372  1.00  0.00     0.029 A 
ATOM     56  N   UNL     1      -1.923   1.745  13.001  1.00  0.00    -0.354 N 
ATOM     57  N   UNL     1       0.680   0.582  12.310  1.00  0.00    -0.248 NA
ATOM     58  C   UNL     1       2.861  -0.008  12.908  1.00  0.00     0.031 C 
ATOM     59  C   UNL     1      -2.260   2.423  15.088  1.00  0.00     0.029 A 
ATOM     60  C   UNL     1      -1.322   1.850  14.244  1.00  0.00     0.049 A 
ATOM     61  H   UNL     1      -1.492   1.382  12.193  1.00  0.00     0.167 HD
ATOM     62  C   UNL     1       0.880   0.873  13.657  1.00  0.00     0.074 A 
ATOM     63  C   UNL     1       2.229   0.454  13.978  1.00  0.00     0.031 C 
ATOM     64  C   UNL     1       0.024   1.431  14.550  1.00  0.00     0.031 A 
BRANCH  51  65
ATOM     65  C   UNL     1      -5.487   2.908  12.156  1.00  0.00    -0.014 A 
ATOM     66  C   UNL     1      -6.658   2.130  12.087  1.00  0.00     0.010 A 
ATOM     67  C   UNL     1      -5.595   4.276  12.465  1.00  0.00     0.010 A 
ATOM     68  C   UNL     1      -7.912   2.718  12.282  1.00  0.00     0.020 A 
ATOM     69  C   UNL     1      -6.844   4.861  12.694  1.00  0.00     0.020 A 
ATOM     70  C   UNL     1      -7.996   4.080  12.584  1.00  0.00     0.054 A 
BRANCH  70  71
ATOM     71  S   UNL     1      -9.634   4.810  12.856  1.00  0.00     0.124 S 
ATOM     72  O   UNL     1     -10.199   4.795  11.509  1.00  0.00    -0.237 OA
ATOM     73  O   UNL     1     -10.244   3.881  13.803  1.00  0.00    -0.237 OA
ATOM     74  O   UNL     1      -9.339   6.137  13.391  1.00  0.00    -0.744 OA
ENDBRANCH  70  71
ENDBRANCH  51  65
BRANCH  52  75
ATOM     75  C   UNL     1       3.497  -1.049  10.241  1.00  0.00    -0.014 A 
ATOM     76  C   UNL     1       3.917  -2.245  10.849  1.00  0.00     0.010 A 
ATOM     77  C   UNL     1       4.376  -0.385   9.365  1.00  0.00     0.010 A 
ATOM     78  C   UNL     1       5.194  -2.758  10.600  1.00  0.00     0.020 A 
ATOM     79  C   UNL     1       5.641  -0.911   9.088  1.00  0.00     0.020 A 
ATOM     80  C   UNL     1       6.046  -2.090   9.716  1.00  0.00     0.054 A 
BRANCH  80  81
ATOM     81  S   UNL     1       7.677  -2.803   9.366  1.00  0.00     0.124 S 
ATOM     82  O   UNL     1       8.385  -2.578  10.622  1.00  0.00    -0.237 OA
ATOM     83  O   UNL     1       7.351  -4.194   9.062  1.00  0.00    -0.237 OA
ATOM     84  O   UNL     1       8.156  -2.020   8.228  1.00  0.00    -0.744 OA
ENDBRANCH  80  81
ENDBRANCH  52  75
BRANCH  64  85
ATOM     85  C   UNL     1       0.498   1.582  15.973  1.00  0.00    -0.014 A 
ATOM     86  C   UNL     1       1.499   2.506  16.323  1.00  0.00     0.010 A 
ATOM     87  C   UNL     1      -0.106   0.814  16.987  1.00  0.00     0.010 A 
ATOM     88  C   UNL     1       1.916   2.628  17.652  1.00  0.00     0.020 A 
ATOM     89  C   UNL     1       0.283   0.958  18.321  1.00  0.00     0.020 A 
ATOM     90  C   UNL     1       1.305   1.852  18.643  1.00  0.00     0.054 A 
BRANCH  90  91
ATOM     91  S   UNL     1       1.844   2.051  20.363  1.00  0.00     0.124 S 
ATOM     92  O   UNL     1       3.164   1.427  20.342  1.00  0.00    -0.237 OA
ATOM     93  O   UNL     1       1.837   3.501  20.535  1.00  0.00    -0.237 OA
ATOM     94  O   UNL     1       0.829   1.333  21.131  1.00  0.00    -0.744 OA
ENDBRANCH  90  91
ENDBRANCH  64  85
ENDBRANCH  38  39
ENDBRANCH  31  33
ENDBRANCH  30  31
ENDBRANCH  29  30
ENDBRANCH  28  29
ENDBRANCH  27  28
ENDBRANCH  26  27
ENDBRANCH  25  26
ENDBRANCH  24  25
ENDBRANCH   1  24
TORSDOF 27
