REMARK SMILES CC[C@@H](C)[C@@H](C(=O)OCCOCCOCCOCCOC(=O)c1ccc(-c2c3nc(c(-c4ccc(S(=O)(=O)[O-])cc4)c4ccc([nH]4)c(-c4ccc(S(=O)(=O)[O-])cc4)c4nc(c(-c5ccc(S(=O)(=O)[O-])cc5)c5ccc2[nH]5)C=C4)C=C3)cc1)N1C(=O)/C(=C/c2ccc(O)cc2)SC1=S
REMARK SMILES IDX 14 1 13 2 12 3 11 4 10 5 9 6 8 7 6 8 7 9 5 10 3 11 4 12 2 13
REMARK SMILES IDX 1 14 83 15 84 16 96 17 85 18 86 19 95 20 97 21 87 22 88 23
REMARK SMILES IDX 89 24 94 25 90 26 93 27 91 28 92 29 15 31 16 32 17 33 18 34
REMARK SMILES IDX 19 35 20 36 21 37 22 38 23 39 24 40 82 41 25 42 81 43 26 44
REMARK SMILES IDX 27 45 28 46 75 47 29 48 80 49 74 50 76 51 30 52 79 53 73 54
REMARK SMILES IDX 72 55 31 57 61 58 42 59 60 60 43 61 46 62 59 63 77 64 44 65
REMARK SMILES IDX 45 66 58 68 78 69 47 70 32 71 33 72 41 73 34 74 40 75 35 76
REMARK SMILES IDX 36 77 37 78 38 79 39 80 62 81 63 82 71 83 64 84 70 85 65 86
REMARK SMILES IDX 66 87 67 88 68 89 69 90 48 91 49 92 57 93 50 94 56 95 51 96
REMARK SMILES IDX 52 97 53 98 54 99 55 100
REMARK H PARENT 92 30 76 56 46 67
REMARK Flexibility Score: inf
ROOT
ATOM      1  O   UNL     1       2.900   1.397  -2.498  1.00  0.00    -0.377 OA
ENDROOT
BRANCH   1   2
ATOM      2  C   UNL     1       3.198   0.641  -3.667  1.00  0.00     0.188 C 
BRANCH   2   3
ATOM      3  C   UNL     1       3.134   1.335  -5.036  1.00  0.00     0.188 C 
BRANCH   3   4
ATOM      4  O   UNL     1       2.933   2.730  -4.940  1.00  0.00    -0.376 OA
BRANCH   4   5
ATOM      5  C   UNL     1       1.638   3.191  -5.275  1.00  0.00     0.202 C 
BRANCH   5   6
ATOM      6  C   UNL     1       0.369   2.566  -4.640  1.00  0.00     0.261 C 
BRANCH   6   7
ATOM      7  O   UNL     1       0.473   1.246  -4.063  1.00  0.00    -0.462 OA
BRANCH   7   8
ATOM      8  C   UNL     1      -0.375   0.270  -4.476  1.00  0.00     0.329 C 
ATOM      9  O   UNL     1      -1.121   0.378  -5.447  1.00  0.00    -0.250 OA
BRANCH   8  10
ATOM     10  C   UNL     1      -0.303  -1.054  -3.641  1.00  0.00     0.204 C 
BRANCH  10  11
ATOM     11  C   UNL     1       0.378  -1.066  -2.213  1.00  0.00     0.020 C 
ATOM     12  C   UNL     1       0.117  -2.388  -1.464  1.00  0.00     0.010 C 
BRANCH  11  13
ATOM     13  C   UNL     1      -0.083   0.107  -1.304  1.00  0.00     0.002 C 
ATOM     14  C   UNL     1       0.628   0.172   0.050  1.00  0.00     0.004 C 
ENDBRANCH  11  13
ENDBRANCH  10  11
BRANCH  10  15
ATOM     15  N   UNL     1       0.089  -2.209  -4.536  1.00  0.00    -0.278 N 
ATOM     16  C   UNL     1       1.110  -2.080  -5.460  1.00  0.00     0.267 C 
ATOM     17  C   UNL     1      -0.520  -3.449  -4.552  1.00  0.00     0.149 C 
ATOM     18  O   UNL     1       1.714  -1.063  -5.746  1.00  0.00    -0.268 OA
ATOM     19  C   UNL     1       1.361  -3.339  -6.205  1.00  0.00     0.081 C 
ATOM     20  S   UNL     1       0.441  -4.590  -5.496  1.00  0.00    -0.054 SA
ATOM     21  S   UNL     1      -1.953  -3.936  -3.852  1.00  0.00    -0.052 S 
ATOM     22  C   UNL     1       2.158  -3.377  -7.288  1.00  0.00     0.029 C 
BRANCH  22  23
ATOM     23  C   UNL     1       2.427  -4.545  -8.140  1.00  0.00    -0.024 A 
ATOM     24  C   UNL     1       3.746  -4.881  -8.477  1.00  0.00     0.012 A 
ATOM     25  C   UNL     1       1.379  -5.314  -8.661  1.00  0.00     0.012 A 
ATOM     26  C   UNL     1       4.008  -6.016  -9.252  1.00  0.00     0.047 A 
ATOM     27  C   UNL     1       1.638  -6.455  -9.422  1.00  0.00     0.047 A 
ATOM     28  C   UNL     1       2.954  -6.805  -9.697  1.00  0.00     0.115 A 
BRANCH  28  29
ATOM     29  O   UNL     1       3.249  -7.931 -10.406  1.00  0.00    -0.508 OA
ATOM     30  H   UNL     1       4.142  -8.153 -10.583  1.00  0.00     0.293 HD
ENDBRANCH  28  29
ENDBRANCH  22  23
ENDBRANCH  10  15
ENDBRANCH   8  10
ENDBRANCH   7   8
ENDBRANCH   6   7
ENDBRANCH   5   6
ENDBRANCH   4   5
ENDBRANCH   3   4
ENDBRANCH   2   3
ENDBRANCH   1   2
BRANCH   1  31
ATOM     31  C   UNL     1       3.543   2.661  -2.326  1.00  0.00     0.188 C 
BRANCH  31  32
ATOM     32  C   UNL     1       4.937   2.890  -2.958  1.00  0.00     0.188 C 
BRANCH  32  33
ATOM     33  O   UNL     1       5.611   1.712  -3.372  1.00  0.00    -0.376 OA
BRANCH  33  34
ATOM     34  C   UNL     1       6.539   1.128  -2.472  1.00  0.00     0.202 C 
BRANCH  34  35
ATOM     35  C   UNL     1       6.035   0.730  -1.075  1.00  0.00     0.261 C 
BRANCH  35  36
ATOM     36  O   UNL     1       5.513   1.794  -0.261  1.00  0.00    -0.460 OA
BRANCH  36  37
ATOM     37  C   UNL     1       6.326   2.840  -0.009  1.00  0.00     0.338 C 
ATOM     38  O   UNL     1       7.498   2.956  -0.336  1.00  0.00    -0.246 OA
BRANCH  37  39
ATOM     39  C   UNL     1       5.509   3.935   0.549  1.00  0.00     0.060 A 
ATOM     40  C   UNL     1       5.435   5.144  -0.154  1.00  0.00     0.016 A 
ATOM     41  C   UNL     1       4.836   3.778   1.763  1.00  0.00     0.016 A 
ATOM     42  C   UNL     1       4.731   6.218   0.381  1.00  0.00     0.010 A 
ATOM     43  C   UNL     1       4.151   4.867   2.312  1.00  0.00     0.010 A 
ATOM     44  C   UNL     1       4.136   6.104   1.643  1.00  0.00    -0.014 A 
BRANCH  44  45
ATOM     45  C   UNL     1       3.698   7.344   2.328  1.00  0.00     0.031 A 
ATOM     46  C   UNL     1       4.632   7.980   3.324  1.00  0.00     0.074 A 
ATOM     47  C   UNL     1       2.542   7.948   1.997  1.00  0.00     0.049 A 
ATOM     48  N   UNL     1       4.507   9.107   3.974  1.00  0.00    -0.248 NA
ATOM     49  C   UNL     1       5.877   7.250   3.619  1.00  0.00     0.031 C 
ATOM     50  C   UNL     1       1.581   7.454   1.011  1.00  0.00     0.029 A 
ATOM     51  N   UNL     1       1.994   9.123   2.445  1.00  0.00    -0.354 N 
ATOM     52  C   UNL     1       5.653   9.221   4.753  1.00  0.00     0.074 A 
ATOM     53  C   UNL     1       6.443   8.032   4.525  1.00  0.00     0.031 C 
ATOM     54  C   UNL     1       0.563   8.328   0.922  1.00  0.00     0.029 A 
ATOM     55  C   UNL     1       0.787   9.426   1.861  1.00  0.00     0.049 A 
ATOM     56  H   UNL     1       2.423   9.694   3.122  1.00  0.00     0.167 HD
ATOM     57  C   UNL     1       6.021  10.230   5.578  1.00  0.00     0.031 A 
ATOM     58  C   UNL     1      -0.044  10.467   2.067  1.00  0.00     0.031 A 
ATOM     59  C   UNL     1       5.223  11.404   5.817  1.00  0.00     0.049 A 
ATOM     60  C   UNL     1       0.355  11.544   3.043  1.00  0.00     0.074 A 
ATOM     61  C   UNL     1       5.508  12.487   6.630  1.00  0.00     0.029 A 
ATOM     62  N   UNL     1       3.979  11.645   5.252  1.00  0.00    -0.354 N 
ATOM     63  N   UNL     1       1.453  11.649   3.755  1.00  0.00    -0.248 NA
ATOM     64  C   UNL     1      -0.591  12.652   3.228  1.00  0.00     0.031 C 
ATOM     65  C   UNL     1       4.408  13.350   6.609  1.00  0.00     0.029 A 
ATOM     66  C   UNL     1       3.471  12.845   5.721  1.00  0.00     0.049 A 
ATOM     67  H   UNL     1       3.525  11.051   4.612  1.00  0.00     0.167 HD
ATOM     68  C   UNL     1       1.342  12.852   4.447  1.00  0.00     0.074 A 
ATOM     69  C   UNL     1       0.081  13.445   4.051  1.00  0.00     0.031 C 
ATOM     70  C   UNL     1       2.207  13.418   5.327  1.00  0.00     0.031 A 
BRANCH  57  71
ATOM     71  C   UNL     1       7.328  10.086   6.316  1.00  0.00    -0.014 A 
ATOM     72  C   UNL     1       8.563  10.147   5.643  1.00  0.00     0.010 A 
ATOM     73  C   UNL     1       7.320   9.919   7.713  1.00  0.00     0.010 A 
ATOM     74  C   UNL     1       9.761  10.007   6.349  1.00  0.00     0.020 A 
ATOM     75  C   UNL     1       8.517   9.811   8.426  1.00  0.00     0.020 A 
ATOM     76  C   UNL     1       9.730   9.840   7.737  1.00  0.00     0.054 A 
BRANCH  76  77
ATOM     77  S   UNL     1      11.301   9.689   8.631  1.00  0.00     0.124 S 
ATOM     78  O   UNL     1      11.762   8.368   8.209  1.00  0.00    -0.237 OA
ATOM     79  O   UNL     1      12.072  10.817   8.115  1.00  0.00    -0.237 OA
ATOM     80  O   UNL     1      10.914   9.792  10.036  1.00  0.00    -0.744 OA
ENDBRANCH  76  77
ENDBRANCH  57  71
BRANCH  58  81
ATOM     81  C   UNL     1      -1.342  10.539   1.338  1.00  0.00    -0.014 A 
ATOM     82  C   UNL     1      -1.583  11.540   0.381  1.00  0.00     0.010 A 
ATOM     83  C   UNL     1      -2.353   9.598   1.610  1.00  0.00     0.010 A 
ATOM     84  C   UNL     1      -2.816  11.609  -0.277  1.00  0.00     0.020 A 
ATOM     85  C   UNL     1      -3.574   9.644   0.932  1.00  0.00     0.020 A 
ATOM     86  C   UNL     1      -3.801  10.657  -0.001  1.00  0.00     0.054 A 
BRANCH  86  87
ATOM     87  S   UNL     1      -5.372  10.734  -0.905  1.00  0.00     0.124 S 
ATOM     88  O   UNL     1      -6.000  11.917  -0.326  1.00  0.00    -0.237 OA
ATOM     89  O   UNL     1      -4.929  10.866  -2.291  1.00  0.00    -0.237 OA
ATOM     90  O   UNL     1      -6.015   9.462  -0.583  1.00  0.00    -0.744 OA
ENDBRANCH  86  87
ENDBRANCH  58  81
BRANCH  70  91
ATOM     91  C   UNL     1       1.837  14.768   5.889  1.00  0.00    -0.014 A 
ATOM     92  C   UNL     1       0.755  14.929   6.772  1.00  0.00     0.010 A 
ATOM     93  C   UNL     1       2.604  15.896   5.538  1.00  0.00     0.010 A 
ATOM     94  C   UNL     1       0.408  16.199   7.243  1.00  0.00     0.020 A 
ATOM     95  C   UNL     1       2.285  17.161   6.036  1.00  0.00     0.020 A 
ATOM     96  C   UNL     1       1.173  17.308   6.866  1.00  0.00     0.054 A 
BRANCH  96  97
ATOM     97  S   UNL     1       0.703  18.945   7.489  1.00  0.00     0.124 S 
ATOM     98  O   UNL     1      -0.507  19.226   6.720  1.00  0.00    -0.237 OA
ATOM     99  O   UNL     1       0.499  18.700   8.914  1.00  0.00    -0.237 OA
ATOM    100  O   UNL     1       1.855  19.784   7.165  1.00  0.00    -0.744 OA
ENDBRANCH  96  97
ENDBRANCH  70  91
ENDBRANCH  44  45
ENDBRANCH  37  39
ENDBRANCH  36  37
ENDBRANCH  35  36
ENDBRANCH  34  35
ENDBRANCH  33  34
ENDBRANCH  32  33
ENDBRANCH  31  32
ENDBRANCH   1  31
TORSDOF 28
