REMARK SMILES C#CCN(CC(=O)OCCOCCOCCOCCOC(=O)c1ccc(-c2c3nc(c(-c4ccc(S(=O)(=O)[O-])cc4)c4ccc([nH]4)c(-c4ccc(S(=O)(=O)[O-])cc4)c4nc(c(-c5ccc(S(=O)(=O)[O-])cc5)c5ccc2[nH]5)C=C4)C=C3)cc1)C(=O)[C@@H]1CC(=O)N(C2CC2)C1
REMARK SMILES IDX 13 1 12 2 11 3 10 4 9 5 8 6 6 7 7 8 5 9 4 10 3 11 2 12 1 13
REMARK SMILES IDX 83 14 84 15 85 16 86 17 93 18 87 19 89 20 88 21 90 22 91 23
REMARK SMILES IDX 92 24 14 25 15 26 16 27 17 28 18 29 19 30 20 31 21 32 22 33
REMARK SMILES IDX 23 34 24 35 82 36 25 37 81 38 26 39 27 40 28 41 75 42 29 43
REMARK SMILES IDX 80 44 74 45 76 46 30 47 79 48 73 49 72 50 31 52 61 53 42 54
REMARK SMILES IDX 60 55 43 56 46 57 59 58 77 59 44 60 45 61 58 63 78 64 47 65
REMARK SMILES IDX 32 66 33 67 41 68 34 69 40 70 35 71 36 72 37 73 38 74 39 75
REMARK SMILES IDX 62 76 63 77 71 78 64 79 70 80 65 81 66 82 67 83 68 84 69 85
REMARK SMILES IDX 48 86 49 87 57 88 50 89 56 90 51 91 52 92 53 93 54 94 55 95
REMARK H PARENT 76 51 46 62
REMARK Flexibility Score: inf
ROOT
ATOM      1  C   UNL     1      -4.595  -2.466  -2.338  1.00  0.00     0.188 C 
ENDROOT
BRANCH   1   2
ATOM      2  C   UNL     1      -5.690  -3.420  -1.826  1.00  0.00     0.188 C 
BRANCH   2   3
ATOM      3  O   UNL     1      -6.989  -2.885  -1.982  1.00  0.00    -0.376 OA
BRANCH   3   4
ATOM      4  C   UNL     1      -7.570  -2.390  -0.788  1.00  0.00     0.202 C 
BRANCH   4   5
ATOM      5  C   UNL     1      -6.834  -1.274  -0.004  1.00  0.00     0.261 C 
BRANCH   5   6
ATOM      6  O   UNL     1      -5.386  -1.381   0.114  1.00  0.00    -0.462 OA
BRANCH   6   7
ATOM      7  C   UNL     1      -4.818  -1.490   1.340  1.00  0.00     0.325 C 
ATOM      8  O   UNL     1      -5.472  -1.607   2.372  1.00  0.00    -0.250 OA
BRANCH   7   9
ATOM      9  C   UNL     1      -3.243  -1.493   1.365  1.00  0.00     0.243 C 
BRANCH   9  10
ATOM     10  N   UNL     1      -2.277  -1.418   0.221  1.00  0.00    -0.320 N 
BRANCH  10  11
ATOM     11  C   UNL     1      -1.752  -0.043  -0.054  1.00  0.00     0.210 C 
BRANCH  11  12
ATOM     12  C   UNL     1      -0.232  -0.043  -0.054  1.00  0.00    -0.085 C 
ATOM     13  C   UNL     1       1.072  -0.043  -0.054  1.00  0.00     0.006 C 
ENDBRANCH  11  12
ENDBRANCH  10  11
BRANCH  10  14
ATOM     14  C   UNL     1      -1.730  -2.463  -0.550  1.00  0.00     0.229 C 
ATOM     15  O   UNL     1      -0.838  -2.244  -1.386  1.00  0.00    -0.274 OA
BRANCH  14  16
ATOM     16  C   UNL     1      -2.204  -3.924  -0.562  1.00  0.00     0.107 C 
ATOM     17  C   UNL     1      -3.405  -4.323   0.225  1.00  0.00     0.115 C 
ATOM     18  C   UNL     1      -1.184  -5.004  -0.194  1.00  0.00     0.133 C 
ATOM     19  C   UNL     1      -2.819  -4.870   1.470  1.00  0.00     0.223 C 
ATOM     20  N   UNL     1      -1.651  -5.519   1.082  1.00  0.00    -0.339 N 
ATOM     21  O   UNL     1      -3.386  -4.871   2.549  1.00  0.00    -0.275 OA
BRANCH  20  22
ATOM     22  C   UNL     1      -1.414  -6.880   1.486  1.00  0.00     0.085 C 
ATOM     23  C   UNL     1      -1.648  -7.351   2.895  1.00  0.00     0.027 C 
ATOM     24  C   UNL     1      -2.600  -7.771   1.813  1.00  0.00     0.027 C 
ENDBRANCH  20  22
ENDBRANCH  14  16
ENDBRANCH  10  14
ENDBRANCH   9  10
ENDBRANCH   7   9
ENDBRANCH   6   7
ENDBRANCH   5   6
ENDBRANCH   4   5
ENDBRANCH   3   4
ENDBRANCH   2   3
ENDBRANCH   1   2
BRANCH   1  25
ATOM     25  O   UNL     1      -4.971  -1.451  -3.245  1.00  0.00    -0.377 OA
BRANCH  25  26
ATOM     26  C   UNL     1      -5.897  -1.810  -4.253  1.00  0.00     0.188 C 
BRANCH  26  27
ATOM     27  C   UNL     1      -5.789  -3.199  -4.926  1.00  0.00     0.188 C 
BRANCH  27  28
ATOM     28  O   UNL     1      -4.727  -4.030  -4.466  1.00  0.00    -0.376 OA
BRANCH  28  29
ATOM     29  C   UNL     1      -3.635  -4.255  -5.343  1.00  0.00     0.202 C 
BRANCH  29  30
ATOM     30  C   UNL     1      -2.688  -3.072  -5.589  1.00  0.00     0.261 C 
BRANCH  30  31
ATOM     31  O   UNL     1      -3.317  -1.857  -6.011  1.00  0.00    -0.460 OA
BRANCH  31  32
ATOM     32  C   UNL     1      -3.910  -1.849  -7.225  1.00  0.00     0.338 C 
ATOM     33  O   UNL     1      -3.967  -2.770  -8.022  1.00  0.00    -0.246 OA
BRANCH  32  34
ATOM     34  C   UNL     1      -4.687  -0.595  -7.303  1.00  0.00     0.060 A 
ATOM     35  C   UNL     1      -6.083  -0.676  -7.418  1.00  0.00     0.016 A 
ATOM     36  C   UNL     1      -4.059   0.639  -7.118  1.00  0.00     0.016 A 
ATOM     37  C   UNL     1      -6.857   0.475  -7.289  1.00  0.00     0.010 A 
ATOM     38  C   UNL     1      -4.832   1.800  -7.058  1.00  0.00     0.010 A 
ATOM     39  C   UNL     1      -6.232   1.721  -7.144  1.00  0.00    -0.014 A 
BRANCH  39  40
ATOM     40  C   UNL     1      -7.032   2.949  -7.337  1.00  0.00     0.031 A 
ATOM     41  C   UNL     1      -7.196   3.442  -8.746  1.00  0.00     0.074 A 
ATOM     42  C   UNL     1      -7.614   3.590  -6.308  1.00  0.00     0.049 A 
ATOM     43  N   UNL     1      -7.828   4.495  -9.188  1.00  0.00    -0.248 NA
ATOM     44  C   UNL     1      -6.562   2.630  -9.801  1.00  0.00     0.031 C 
ATOM     45  C   UNL     1      -7.570   3.170  -4.908  1.00  0.00     0.029 A 
ATOM     46  N   UNL     1      -8.358   4.743  -6.291  1.00  0.00    -0.354 N 
ATOM     47  C   UNL     1      -7.672   4.470 -10.568  1.00  0.00     0.074 A 
ATOM     48  C   UNL     1      -6.867   3.315 -10.891  1.00  0.00     0.031 C 
ATOM     49  C   UNL     1      -8.249   4.064  -4.165  1.00  0.00     0.029 A 
ATOM     50  C   UNL     1      -8.744   5.134  -5.030  1.00  0.00     0.049 A 
ATOM     51  H   UNL     1      -8.594   5.244  -7.105  1.00  0.00     0.167 HD
ATOM     52  C   UNL     1      -8.157   5.335 -11.486  1.00  0.00     0.031 A 
ATOM     53  C   UNL     1      -9.399   6.242  -4.627  1.00  0.00     0.031 A 
ATOM     54  C   UNL     1      -8.920   6.506 -11.154  1.00  0.00     0.049 A 
ATOM     55  C   UNL     1      -9.838   7.249  -5.663  1.00  0.00     0.074 A 
ATOM     56  C   UNL     1      -9.453   7.454 -12.007  1.00  0.00     0.029 A 
ATOM     57  N   UNL     1      -9.244   6.896  -9.863  1.00  0.00    -0.354 N 
ATOM     58  N   UNL     1      -9.710   7.201  -6.970  1.00  0.00    -0.248 NA
ATOM     59  C   UNL     1     -10.515   8.458  -5.172  1.00  0.00     0.031 C 
ATOM     60  C   UNL     1     -10.042   8.454 -11.229  1.00  0.00     0.029 A 
ATOM     61  C   UNL     1      -9.942   8.091  -9.894  1.00  0.00     0.049 A 
ATOM     62  H   UNL     1      -9.012   6.398  -9.046  1.00  0.00     0.167 HD
ATOM     63  C   UNL     1     -10.316   8.357  -7.455  1.00  0.00     0.074 A 
ATOM     64  C   UNL     1     -10.826   9.074  -6.304  1.00  0.00     0.031 C 
ATOM     65  C   UNL     1     -10.441   8.788  -8.735  1.00  0.00     0.031 A 
BRANCH  52  66
ATOM     66  C   UNL     1      -7.831   5.068 -12.929  1.00  0.00    -0.014 A 
ATOM     67  C   UNL     1      -8.412   3.990 -13.621  1.00  0.00     0.010 A 
ATOM     68  C   UNL     1      -6.954   5.929 -13.613  1.00  0.00     0.010 A 
ATOM     69  C   UNL     1      -8.103   3.764 -14.964  1.00  0.00     0.020 A 
ATOM     70  C   UNL     1      -6.665   5.724 -14.964  1.00  0.00     0.020 A 
ATOM     71  C   UNL     1      -7.234   4.636 -15.628  1.00  0.00     0.054 A 
BRANCH  71  72
ATOM     72  S   UNL     1      -6.889   4.344 -17.384  1.00  0.00     0.124 S 
ATOM     73  O   UNL     1      -6.078   3.130 -17.335  1.00  0.00    -0.237 OA
ATOM     74  O   UNL     1      -8.226   4.183 -17.948  1.00  0.00    -0.237 OA
ATOM     75  O   UNL     1      -6.179   5.550 -17.804  1.00  0.00    -0.744 OA
ENDBRANCH  71  72
ENDBRANCH  52  66
BRANCH  53  76
ATOM     76  C   UNL     1      -9.651   6.486  -3.178  1.00  0.00    -0.014 A 
ATOM     77  C   UNL     1     -10.960   6.505  -2.663  1.00  0.00     0.010 A 
ATOM     78  C   UNL     1      -8.575   6.732  -2.304  1.00  0.00     0.010 A 
ATOM     79  C   UNL     1     -11.188   6.787  -1.312  1.00  0.00     0.020 A 
ATOM     80  C   UNL     1      -8.797   6.982  -0.947  1.00  0.00     0.020 A 
ATOM     81  C   UNL     1     -10.104   7.021  -0.461  1.00  0.00     0.054 A 
BRANCH  81  82
ATOM     82  S   UNL     1     -10.422   7.342   1.296  1.00  0.00     0.124 S 
ATOM     83  O   UNL     1     -11.004   8.680   1.260  1.00  0.00    -0.237 OA
ATOM     84  O   UNL     1     -11.339   6.262   1.651  1.00  0.00    -0.237 OA
ATOM     85  O   UNL     1      -9.098   7.251   1.906  1.00  0.00    -0.744 OA
ENDBRANCH  81  82
ENDBRANCH  53  76
BRANCH  65  86
ATOM     86  C   UNL     1     -11.186  10.077  -8.969  1.00  0.00    -0.014 A 
ATOM     87  C   UNL     1     -10.639  11.318  -8.599  1.00  0.00     0.010 A 
ATOM     88  C   UNL     1     -12.428  10.047  -9.632  1.00  0.00     0.010 A 
ATOM     89  C   UNL     1     -11.335  12.502  -8.856  1.00  0.00     0.020 A 
ATOM     90  C   UNL     1     -13.111  11.230  -9.922  1.00  0.00     0.020 A 
ATOM     91  C   UNL     1     -12.566  12.450  -9.518  1.00  0.00     0.054 A 
BRANCH  91  92
ATOM     92  S   UNL     1     -13.428  14.004  -9.878  1.00  0.00     0.124 S 
ATOM     93  O   UNL     1     -13.878  14.417  -8.552  1.00  0.00    -0.237 OA
ATOM     94  O   UNL     1     -12.373  14.825 -10.467  1.00  0.00    -0.237 OA
ATOM     95  O   UNL     1     -14.490  13.608 -10.800  1.00  0.00    -0.744 OA
ENDBRANCH  91  92
ENDBRANCH  65  86
ENDBRANCH  39  40
ENDBRANCH  32  34
ENDBRANCH  31  32
ENDBRANCH  30  31
ENDBRANCH  29  30
ENDBRANCH  28  29
ENDBRANCH  27  28
ENDBRANCH  26  27
ENDBRANCH  25  26
ENDBRANCH   1  25
TORSDOF 29
