REMARK SMILES Cc1c(NC(=O)c2ccc(Br)cc2N)cccc1C(=O)OCCOCCOCCOCCOC(=O)c1ccc(-c2c3nc(c(-c4ccc(S(=O)(=O)[O-])cc4)c4ccc([nH]4)c(-c4ccc(S(=O)(=O)[O-])cc4)c4nc(c(-c5ccc(S(=O)(=O)[O-])cc5)c5ccc2[nH]5)C=C4)C=C3)cc1
REMARK SMILES IDX 27 1 26 2 25 3 24 4 23 5 22 6 21 7 19 8 20 9 18 10 1 11 2 12
REMARK SMILES IDX 3 13 15 14 17 15 16 16 4 17 5 18 6 20 7 21 8 22 13 23 9 24
REMARK SMILES IDX 12 25 10 26 11 27 14 28 28 31 29 32 30 33 31 34 32 35 33 36
REMARK SMILES IDX 34 37 35 38 36 39 37 40 95 41 38 42 94 43 39 44 40 45 41 46
REMARK SMILES IDX 88 47 42 48 93 49 87 50 89 51 43 52 92 53 86 54 85 55 44 57
REMARK SMILES IDX 74 58 55 59 73 60 56 61 59 62 72 63 90 64 57 65 58 66 71 68
REMARK SMILES IDX 91 69 60 70 45 71 46 72 54 73 47 74 53 75 48 76 49 77 50 78
REMARK SMILES IDX 51 79 52 80 75 81 76 82 84 83 77 84 83 85 78 86 79 87 80 88
REMARK SMILES IDX 81 89 82 90 61 91 62 92 70 93 63 94 69 95 64 96 65 97 66 98
REMARK SMILES IDX 67 99 68 100
REMARK H PARENT 4 19 14 29 14 30 89 56 59 67
REMARK Flexibility Score: inf
ROOT
ATOM      1  O   UNL     1       1.348   1.228  -2.409  1.00  0.00    -0.377 OA
ENDROOT
BRANCH   1   2
ATOM      2  C   UNL     1       0.001   1.359  -2.821  1.00  0.00     0.188 C 
BRANCH   2   3
ATOM      3  C   UNL     1      -0.970   2.279  -2.064  1.00  0.00     0.188 C 
BRANCH   3   4
ATOM      4  O   UNL     1      -0.696   3.656  -1.902  1.00  0.00    -0.376 OA
BRANCH   4   5
ATOM      5  C   UNL     1       0.207   3.962  -0.848  1.00  0.00     0.202 C 
BRANCH   5   6
ATOM      6  C   UNL     1      -0.258   3.702   0.569  1.00  0.00     0.261 C 
BRANCH   6   7
ATOM      7  O   UNL     1      -0.121   2.315   0.832  1.00  0.00    -0.460 OA
BRANCH   7   8
ATOM      8  C   UNL     1      -1.151   1.790   1.502  1.00  0.00     0.338 C 
ATOM      9  O   UNL     1      -1.968   2.378   2.173  1.00  0.00    -0.246 OA
BRANCH   8  10
ATOM     10  C   UNL     1      -1.351   0.403   1.028  1.00  0.00     0.065 A 
ATOM     11  C   UNL     1       1.095  -0.255   0.508  1.00  0.00     0.047 C 
ATOM     12  C   UNL     1      -0.368  -0.562   0.714  1.00  0.00    -0.013 A 
ATOM     13  C   UNL     1      -0.810  -1.878   0.481  1.00  0.00     0.045 A 
ATOM     14  C   UNL     1      -2.185  -2.154   0.424  1.00  0.00     0.026 A 
ATOM     15  C   UNL     1      -2.714   0.126   0.829  1.00  0.00     0.016 A 
ATOM     16  C   UNL     1      -3.132  -1.144   0.503  1.00  0.00     0.003 A 
BRANCH  13  17
ATOM     17  N   UNL     1       0.154  -2.901   0.326  1.00  0.00    -0.322 N 
ATOM     18  C   UNL     1       0.067  -4.094  -0.360  1.00  0.00     0.257 C 
ATOM     19  H   UNL     1       1.015  -2.737   0.773  1.00  0.00     0.170 HD
ATOM     20  O   UNL     1       0.877  -4.997  -0.165  1.00  0.00    -0.269 OA
BRANCH  18  21
ATOM     21  C   UNL     1      -1.003  -4.278  -1.368  1.00  0.00     0.063 A 
ATOM     22  C   UNL     1      -1.839  -5.388  -1.188  1.00  0.00     0.017 A 
ATOM     23  C   UNL     1      -1.263  -3.322  -2.373  1.00  0.00     0.045 A 
ATOM     24  C   UNL     1      -2.983  -5.524  -1.970  1.00  0.00     0.016 A 
ATOM     25  C   UNL     1      -2.413  -3.485  -3.152  1.00  0.00     0.042 A 
ATOM     26  C   UNL     1      -3.274  -4.562  -2.934  1.00  0.00     0.020 A 
ATOM     27  Br  UNL     1      -4.854  -4.713  -3.961  1.00  0.00    -0.051 Br
BRANCH  23  28
ATOM     28  N   UNL     1      -0.387  -2.294  -2.693  1.00  0.00    -0.398 N 
ATOM     29  H   UNL     1       0.429  -2.159  -2.160  1.00  0.00     0.156 HD
ATOM     30  H   UNL     1      -0.583  -1.700  -3.454  1.00  0.00     0.156 HD
ENDBRANCH  23  28
ENDBRANCH  18  21
ENDBRANCH  13  17
ENDBRANCH   8  10
ENDBRANCH   7   8
ENDBRANCH   6   7
ENDBRANCH   5   6
ENDBRANCH   4   5
ENDBRANCH   3   4
ENDBRANCH   2   3
ENDBRANCH   1   2
BRANCH   1  31
ATOM     31  C   UNL     1       2.337   2.026  -3.075  1.00  0.00     0.188 C 
BRANCH  31  32
ATOM     32  C   UNL     1       2.037   2.557  -4.466  1.00  0.00     0.188 C 
BRANCH  32  33
ATOM     33  O   UNL     1       1.042   3.572  -4.309  1.00  0.00    -0.376 OA
BRANCH  33  34
ATOM     34  C   UNL     1       0.265   3.870  -5.452  1.00  0.00     0.202 C 
BRANCH  34  35
ATOM     35  C   UNL     1       1.091   4.200  -6.697  1.00  0.00     0.261 C 
BRANCH  35  36
ATOM     36  O   UNL     1       1.578   5.569  -6.700  1.00  0.00    -0.460 OA
BRANCH  36  37
ATOM     37  C   UNL     1       2.878   5.844  -6.369  1.00  0.00     0.338 C 
ATOM     38  O   UNL     1       3.698   6.234  -7.187  1.00  0.00    -0.246 OA
BRANCH  37  39
ATOM     39  C   UNL     1       3.105   5.951  -4.902  1.00  0.00     0.060 A 
ATOM     40  C   UNL     1       4.364   5.802  -4.303  1.00  0.00     0.016 A 
ATOM     41  C   UNL     1       2.020   6.206  -4.091  1.00  0.00     0.016 A 
ATOM     42  C   UNL     1       4.494   5.676  -2.901  1.00  0.00     0.010 A 
ATOM     43  C   UNL     1       2.145   6.037  -2.727  1.00  0.00     0.010 A 
ATOM     44  C   UNL     1       3.359   5.709  -2.101  1.00  0.00    -0.014 A 
BRANCH  44  45
ATOM     45  C   UNL     1       3.268   5.350  -0.661  1.00  0.00     0.031 A 
ATOM     46  C   UNL     1       2.486   6.273   0.249  1.00  0.00     0.074 A 
ATOM     47  C   UNL     1       3.505   4.058  -0.293  1.00  0.00     0.049 A 
ATOM     48  N   UNL     1       2.096   5.990   1.444  1.00  0.00    -0.248 NA
ATOM     49  C   UNL     1       1.979   7.588  -0.161  1.00  0.00     0.031 C 
ATOM     50  C   UNL     1       2.941   3.343   0.858  1.00  0.00     0.029 A 
ATOM     51  N   UNL     1       4.228   3.039  -0.893  1.00  0.00    -0.354 N 
ATOM     52  C   UNL     1       1.059   6.838   1.802  1.00  0.00     0.074 A 
ATOM     53  C   UNL     1       1.065   7.856   0.784  1.00  0.00     0.031 C 
ATOM     54  C   UNL     1       3.420   2.093   0.946  1.00  0.00     0.029 A 
ATOM     55  C   UNL     1       4.532   2.043   0.038  1.00  0.00     0.049 A 
ATOM     56  H   UNL     1       4.491   3.021  -1.842  1.00  0.00     0.167 HD
ATOM     57  C   UNL     1       0.252   6.493   2.855  1.00  0.00     0.031 A 
ATOM     58  C   UNL     1       5.806   1.846   0.489  1.00  0.00     0.031 A 
ATOM     59  C   UNL     1       0.795   5.317   3.572  1.00  0.00     0.049 A 
ATOM     60  C   UNL     1       5.863   2.337   1.952  1.00  0.00     0.074 A 
ATOM     61  C   UNL     1       0.298   4.078   3.933  1.00  0.00     0.029 A 
ATOM     62  N   UNL     1       2.166   5.262   3.846  1.00  0.00    -0.354 N 
ATOM     63  N   UNL     1       5.160   3.360   2.407  1.00  0.00    -0.248 NA
ATOM     64  C   UNL     1       6.385   1.510   3.044  1.00  0.00     0.031 C 
ATOM     65  C   UNL     1       1.413   3.226   4.214  1.00  0.00     0.029 A 
ATOM     66  C   UNL     1       2.586   3.971   4.113  1.00  0.00     0.049 A 
ATOM     67  H   UNL     1       2.760   6.047   3.849  1.00  0.00     0.167 HD
ATOM     68  C   UNL     1       4.941   3.196   3.757  1.00  0.00     0.074 A 
ATOM     69  C   UNL     1       5.796   2.068   4.119  1.00  0.00     0.031 C 
ATOM     70  C   UNL     1       3.956   3.731   4.552  1.00  0.00     0.031 A 
BRANCH  57  71
ATOM     71  C   UNL     1      -1.130   7.085   3.183  1.00  0.00    -0.014 A 
ATOM     72  C   UNL     1      -1.817   6.630   4.334  1.00  0.00     0.010 A 
ATOM     73  C   UNL     1      -1.847   8.014   2.395  1.00  0.00     0.010 A 
ATOM     74  C   UNL     1      -3.114   7.058   4.681  1.00  0.00     0.020 A 
ATOM     75  C   UNL     1      -3.141   8.478   2.747  1.00  0.00     0.020 A 
ATOM     76  C   UNL     1      -3.771   7.992   3.890  1.00  0.00     0.054 A 
BRANCH  76  77
ATOM     77  S   UNL     1      -5.420   8.570   4.399  1.00  0.00     0.124 S 
ATOM     78  O   UNL     1      -6.237   7.366   4.265  1.00  0.00    -0.237 OA
ATOM     79  O   UNL     1      -5.192   9.023   5.768  1.00  0.00    -0.237 OA
ATOM     80  O   UNL     1      -5.728   9.633   3.443  1.00  0.00    -0.744 OA
ENDBRANCH  76  77
ENDBRANCH  57  71
BRANCH  58  81
ATOM     81  C   UNL     1       6.767   1.829  -0.670  1.00  0.00    -0.014 A 
ATOM     82  C   UNL     1       6.635   0.675  -1.493  1.00  0.00     0.010 A 
ATOM     83  C   UNL     1       7.156   3.029  -1.302  1.00  0.00     0.010 A 
ATOM     84  C   UNL     1       6.599   0.776  -2.893  1.00  0.00     0.020 A 
ATOM     85  C   UNL     1       7.138   3.127  -2.715  1.00  0.00     0.020 A 
ATOM     86  C   UNL     1       6.785   2.017  -3.495  1.00  0.00     0.054 A 
BRANCH  86  87
ATOM     87  S   UNL     1       6.292   2.197  -5.247  1.00  0.00     0.124 S 
ATOM     88  O   UNL     1       7.401   1.570  -5.954  1.00  0.00    -0.237 OA
ATOM     89  O   UNL     1       5.019   1.479  -5.295  1.00  0.00    -0.237 OA
ATOM     90  O   UNL     1       6.176   3.639  -5.415  1.00  0.00    -0.744 OA
ENDBRANCH  86  87
ENDBRANCH  58  81
BRANCH  70  91
ATOM     91  C   UNL     1       4.287   4.191   5.952  1.00  0.00    -0.014 A 
ATOM     92  C   UNL     1       5.608   4.276   6.410  1.00  0.00     0.010 A 
ATOM     93  C   UNL     1       3.276   4.773   6.760  1.00  0.00     0.010 A 
ATOM     94  C   UNL     1       5.903   4.866   7.636  1.00  0.00     0.020 A 
ATOM     95  C   UNL     1       3.568   5.415   7.959  1.00  0.00     0.020 A 
ATOM     96  C   UNL     1       4.883   5.430   8.401  1.00  0.00     0.054 A 
BRANCH  96  97
ATOM     97  S   UNL     1       5.313   6.208   9.967  1.00  0.00     0.124 S 
ATOM     98  O   UNL     1       5.508   5.044  10.826  1.00  0.00    -0.237 OA
ATOM     99  O   UNL     1       6.526   6.951   9.631  1.00  0.00    -0.237 OA
ATOM    100  O   UNL     1       4.150   7.033  10.279  1.00  0.00    -0.744 OA
ENDBRANCH  96  97
ENDBRANCH  70  91
ENDBRANCH  44  45
ENDBRANCH  37  39
ENDBRANCH  36  37
ENDBRANCH  35  36
ENDBRANCH  34  35
ENDBRANCH  33  34
ENDBRANCH  32  33
ENDBRANCH  31  32
ENDBRANCH   1  31
TORSDOF 26
