REMARK SMILES CC(C)c1ccc(-c2cnc([C@@H]3[NH2+][C@H](C(=O)OCCOCCOCCOCCOC(=O)c4ccc(-c5c6nc(c(-c7ccc(S(=O)(=O)[O-])cc7)c7ccc([nH]7)c(-c7ccc(S(=O)(=O)[O-])cc7)c7nc(c(-c8ccc(S(=O)(=O)[O-])cc8)c8ccc5[nH]8)C=C7)C=C6)cc4)C(C)(C)S3)s2)cc1
REMARK SMILES IDX 23 1 22 2 21 3 20 4 19 5 18 6 17 7 15 8 16 9 14 10 12 11
REMARK SMILES IDX 13 12 95 13 92 16 93 17 94 18 11 19 8 20 9 21 96 22 10 23
REMARK SMILES IDX 7 24 4 25 5 26 98 27 6 28 97 29 2 30 1 31 3 32 24 33 25 34
REMARK SMILES IDX 26 35 27 36 28 37 29 38 30 39 31 40 32 41 33 42 91 43 34 44
REMARK SMILES IDX 90 45 35 46 36 47 37 48 84 49 38 50 89 51 83 52 85 53 39 54
REMARK SMILES IDX 88 55 82 56 81 57 40 59 70 60 51 61 69 62 52 63 55 64 68 65
REMARK SMILES IDX 86 66 53 67 54 68 67 70 87 71 56 72 41 73 42 74 50 75 43 76
REMARK SMILES IDX 49 77 44 78 45 79 46 80 47 81 48 82 71 83 72 84 80 85 73 86
REMARK SMILES IDX 79 87 74 88 75 89 76 90 77 91 78 92 57 93 58 94 66 95 59 96
REMARK SMILES IDX 65 97 60 98 61 99 62 100 63 101 64 102
REMARK H PARENT 13 14 13 15 85 58 55 69
REMARK Flexibility Score: inf
ROOT
ATOM      1  O   UNL     1     -13.721   3.654  -0.944  1.00  0.00    -0.377 OA
ENDROOT
BRANCH   1   2
ATOM      2  C   UNL     1     -12.437   4.224  -1.113  1.00  0.00     0.188 C 
BRANCH   2   3
ATOM      3  C   UNL     1     -11.739   3.846  -2.398  1.00  0.00     0.188 C 
BRANCH   3   4
ATOM      4  O   UNL     1     -12.504   3.828  -3.588  1.00  0.00    -0.376 OA
BRANCH   4   5
ATOM      5  C   UNL     1     -13.449   2.765  -3.724  1.00  0.00     0.202 C 
BRANCH   5   6
ATOM      6  C   UNL     1     -13.080   1.324  -3.300  1.00  0.00     0.261 C 
BRANCH   6   7
ATOM      7  O   UNL     1     -12.547   1.163  -1.960  1.00  0.00    -0.459 OA
BRANCH   7   8
ATOM      8  C   UNL     1     -11.644   0.154  -1.834  1.00  0.00     0.366 C 
ATOM      9  O   UNL     1     -11.435  -0.666  -2.731  1.00  0.00    -0.245 OA
BRANCH   8  10
ATOM     10  C   UNL     1     -10.904   0.026  -0.464  1.00  0.00     0.310 C 
ATOM     11  C   UNL     1      -8.859   1.347  -0.603  1.00  0.00     0.304 C 
ATOM     12  N   UNL     1      -9.415  -0.019  -0.716  1.00  0.00    -0.317 N 
ATOM     13  S   UNL     1      -9.913   2.267   0.565  1.00  0.00    -0.079 SA
ATOM     14  H   UNL     1      -8.971  -0.626  -0.027  1.00  0.00     0.348 HD
ATOM     15  H   UNL     1      -9.238  -0.383  -1.652  1.00  0.00     0.348 HD
ATOM     16  C   UNL     1     -11.110   0.902   0.794  1.00  0.00     0.079 C 
ATOM     17  C   UNL     1     -10.622   0.158   2.069  1.00  0.00     0.030 C 
ATOM     18  C   UNL     1     -12.534   1.363   1.109  1.00  0.00     0.030 C 
BRANCH  11  19
ATOM     19  C   UNL     1      -8.707   2.074  -1.934  1.00  0.00     0.162 A 
ATOM     20  C   UNL     1      -8.090   3.585  -3.753  1.00  0.00     0.055 A 
ATOM     21  C   UNL     1      -9.140   2.730  -4.006  1.00  0.00     0.132 A 
ATOM     22  S   UNL     1      -7.518   3.324  -2.158  1.00  0.00    -0.112 S 
ATOM     23  N   UNL     1      -9.443   1.841  -3.002  1.00  0.00    -0.242 NA
BRANCH  20  24
ATOM     24  C   UNL     1      -7.472   4.506  -4.700  1.00  0.00    -0.007 A 
ATOM     25  C   UNL     1      -6.504   6.119  -6.830  1.00  0.00    -0.045 A 
ATOM     26  C   UNL     1      -6.152   4.763  -6.722  1.00  0.00     0.004 A 
ATOM     27  C   UNL     1      -7.356   6.649  -5.848  1.00  0.00     0.004 A 
ATOM     28  C   UNL     1      -6.618   3.974  -5.670  1.00  0.00     0.010 A 
ATOM     29  C   UNL     1      -7.838   5.851  -4.794  1.00  0.00     0.010 A 
BRANCH  25  30
ATOM     30  C   UNL     1      -5.978   6.912  -8.022  1.00  0.00     0.013 C 
ATOM     31  C   UNL     1      -6.475   8.358  -8.134  1.00  0.00     0.012 C 
ATOM     32  C   UNL     1      -4.442   6.915  -8.045  1.00  0.00     0.012 C 
ENDBRANCH  25  30
ENDBRANCH  20  24
ENDBRANCH  11  19
ENDBRANCH   8  10
ENDBRANCH   7   8
ENDBRANCH   6   7
ENDBRANCH   5   6
ENDBRANCH   4   5
ENDBRANCH   3   4
ENDBRANCH   2   3
ENDBRANCH   1   2
BRANCH   1  33
ATOM     33  C   UNL     1     -14.848   4.514  -1.059  1.00  0.00     0.188 C 
BRANCH  33  34
ATOM     34  C   UNL     1     -14.579   6.015  -1.187  1.00  0.00     0.188 C 
BRANCH  34  35
ATOM     35  O   UNL     1     -13.974   6.716  -0.092  1.00  0.00    -0.376 OA
BRANCH  35  36
ATOM     36  C   UNL     1     -13.764   6.064   1.158  1.00  0.00     0.202 C 
BRANCH  36  37
ATOM     37  C   UNL     1     -14.882   6.269   2.176  1.00  0.00     0.261 C 
BRANCH  37  38
ATOM     38  O   UNL     1     -16.101   5.652   1.746  1.00  0.00    -0.460 OA
BRANCH  38  39
ATOM     39  C   UNL     1     -16.893   6.448   0.994  1.00  0.00     0.338 C 
ATOM     40  O   UNL     1     -16.732   7.634   0.744  1.00  0.00    -0.246 OA
BRANCH  39  41
ATOM     41  C   UNL     1     -17.935   5.628   0.356  1.00  0.00     0.060 A 
ATOM     42  C   UNL     1     -18.206   5.849  -1.000  1.00  0.00     0.016 A 
ATOM     43  C   UNL     1     -18.676   4.700   1.093  1.00  0.00     0.016 A 
ATOM     44  C   UNL     1     -19.264   5.195  -1.609  1.00  0.00     0.010 A 
ATOM     45  C   UNL     1     -19.757   4.062   0.489  1.00  0.00     0.010 A 
ATOM     46  C   UNL     1     -20.082   4.356  -0.845  1.00  0.00    -0.014 A 
BRANCH  46  47
ATOM     47  C   UNL     1     -21.404   3.999  -1.395  1.00  0.00     0.031 A 
ATOM     48  C   UNL     1     -22.585   4.842  -0.999  1.00  0.00     0.074 A 
ATOM     49  C   UNL     1     -21.518   3.016  -2.300  1.00  0.00     0.049 A 
ATOM     50  N   UNL     1     -23.824   4.772  -1.407  1.00  0.00    -0.248 NA
ATOM     51  C   UNL     1     -22.333   5.911  -0.017  1.00  0.00     0.031 C 
ATOM     52  C   UNL     1     -20.417   2.188  -2.792  1.00  0.00     0.029 A 
ATOM     53  N   UNL     1     -22.615   2.564  -2.982  1.00  0.00    -0.354 N 
ATOM     54  C   UNL     1     -24.498   5.783  -0.730  1.00  0.00     0.074 A 
ATOM     55  C   UNL     1     -23.542   6.425   0.142  1.00  0.00     0.031 C 
ATOM     56  C   UNL     1     -20.896   1.332  -3.710  1.00  0.00     0.029 A 
ATOM     57  C   UNL     1     -22.336   1.534  -3.844  1.00  0.00     0.049 A 
ATOM     58  H   UNL     1     -23.517   2.942  -2.865  1.00  0.00     0.167 HD
ATOM     59  C   UNL     1     -25.797   6.147  -0.836  1.00  0.00     0.031 A 
ATOM     60  C   UNL     1     -23.160   0.832  -4.644  1.00  0.00     0.031 A 
ATOM     61  C   UNL     1     -26.741   5.479  -1.693  1.00  0.00     0.049 A 
ATOM     62  C   UNL     1     -24.617   1.206  -4.687  1.00  0.00     0.074 A 
ATOM     63  C   UNL     1     -28.084   5.754  -1.878  1.00  0.00     0.029 A 
ATOM     64  N   UNL     1     -26.439   4.393  -2.504  1.00  0.00    -0.354 N 
ATOM     65  N   UNL     1     -25.244   2.168  -4.049  1.00  0.00    -0.248 NA
ATOM     66  C   UNL     1     -25.473   0.411  -5.575  1.00  0.00     0.031 C 
ATOM     67  C   UNL     1     -28.607   4.793  -2.750  1.00  0.00     0.029 A 
ATOM     68  C   UNL     1     -27.575   3.968  -3.170  1.00  0.00     0.049 A 
ATOM     69  H   UNL     1     -25.547   3.986  -2.592  1.00  0.00     0.167 HD
ATOM     70  C   UNL     1     -26.565   2.111  -4.481  1.00  0.00     0.074 A 
ATOM     71  C   UNL     1     -26.635   1.036  -5.452  1.00  0.00     0.031 C 
ATOM     72  C   UNL     1     -27.624   2.878  -4.114  1.00  0.00     0.031 A 
BRANCH  59  73
ATOM     73  C   UNL     1     -26.273   7.282   0.035  1.00  0.00    -0.014 A 
ATOM     74  C   UNL     1     -25.836   8.604  -0.172  1.00  0.00     0.010 A 
ATOM     75  C   UNL     1     -27.180   7.021   1.078  1.00  0.00     0.010 A 
ATOM     76  C   UNL     1     -26.263   9.633   0.674  1.00  0.00     0.020 A 
ATOM     77  C   UNL     1     -27.635   8.052   1.905  1.00  0.00     0.020 A 
ATOM     78  C   UNL     1     -27.159   9.349   1.709  1.00  0.00     0.054 A 
BRANCH  78  79
ATOM     79  S   UNL     1     -27.708  10.704   2.781  1.00  0.00     0.124 S 
ATOM     80  O   UNL     1     -26.498  10.992   3.548  1.00  0.00    -0.237 OA
ATOM     81  O   UNL     1     -28.102  11.732   1.821  1.00  0.00    -0.237 OA
ATOM     82  O   UNL     1     -28.805  10.119   3.548  1.00  0.00    -0.744 OA
ENDBRANCH  78  79
ENDBRANCH  59  73
BRANCH  60  83
ATOM     83  C   UNL     1     -22.620  -0.286  -5.463  1.00  0.00    -0.014 A 
ATOM     84  C   UNL     1     -22.570  -0.195  -6.865  1.00  0.00     0.010 A 
ATOM     85  C   UNL     1     -22.136  -1.449  -4.836  1.00  0.00     0.010 A 
ATOM     86  C   UNL     1     -22.058  -1.252  -7.624  1.00  0.00     0.020 A 
ATOM     87  C   UNL     1     -21.594  -2.494  -5.589  1.00  0.00     0.020 A 
ATOM     88  C   UNL     1     -21.568  -2.392  -6.980  1.00  0.00     0.054 A 
BRANCH  88  89
ATOM     89  S   UNL     1     -20.855  -3.724  -7.984  1.00  0.00     0.124 S 
ATOM     90  O   UNL     1     -22.037  -4.282  -8.632  1.00  0.00    -0.237 OA
ATOM     91  O   UNL     1     -19.935  -3.000  -8.857  1.00  0.00    -0.237 OA
ATOM     92  O   UNL     1     -20.214  -4.590  -6.997  1.00  0.00    -0.744 OA
ENDBRANCH  88  89
ENDBRANCH  60  83
BRANCH  72  93
ATOM     93  C   UNL     1     -28.938   2.595  -4.798  1.00  0.00    -0.014 A 
ATOM     94  C   UNL     1     -29.640   1.396  -4.574  1.00  0.00     0.010 A 
ATOM     95  C   UNL     1     -29.477   3.548  -5.681  1.00  0.00     0.010 A 
ATOM     96  C   UNL     1     -30.817   1.126  -5.276  1.00  0.00     0.020 A 
ATOM     97  C   UNL     1     -30.674   3.299  -6.354  1.00  0.00     0.020 A 
ATOM     98  C   UNL     1     -31.322   2.077  -6.169  1.00  0.00     0.054 A 
BRANCH  98  99
ATOM     99  S   UNL     1     -32.841   1.696  -7.082  1.00  0.00     0.124 S 
ATOM    100  O   UNL     1     -32.373   0.709  -8.051  1.00  0.00    -0.237 OA
ATOM    101  O   UNL     1     -33.723   1.182  -6.037  1.00  0.00    -0.237 OA
ATOM    102  O   UNL     1     -33.238   2.984  -7.646  1.00  0.00    -0.744 OA
ENDBRANCH  98  99
ENDBRANCH  72  93
ENDBRANCH  46  47
ENDBRANCH  39  41
ENDBRANCH  38  39
ENDBRANCH  37  38
ENDBRANCH  36  37
ENDBRANCH  35  36
ENDBRANCH  34  35
ENDBRANCH  33  34
ENDBRANCH   1  33
TORSDOF 26
