REMARK SMILES CCn1cc(C(=O)OCCOCCOCCOCCOC(=O)c2ccc(-c3c4nc(c(-c5ccc(S(=O)(=O)[O-])cc5)c5ccc([nH]5)c(-c5ccc(S(=O)(=O)[O-])cc5)c5nc(c(-c6ccc(S(=O)(=O)[O-])cc6)c6ccc3[nH]6)C=C5)C=C4)cc2)c(=O)c2cc(F)c(NC3CCCCC3)cc21
REMARK SMILES IDX 15 1 14 2 13 3 12 4 11 5 10 6 9 7 8 8 6 9 7 10 5 11 3 12
REMARK SMILES IDX 4 13 98 14 85 15 97 16 83 17 86 18 89 19 84 20 87 21 88 22
REMARK SMILES IDX 2 23 1 24 90 25 91 27 92 28 96 29 93 30 95 31 94 32 16 33
REMARK SMILES IDX 17 34 18 35 19 36 20 37 21 38 22 39 23 40 24 41 82 42 25 43
REMARK SMILES IDX 81 44 26 45 27 46 28 47 75 48 29 49 80 50 74 51 76 52 30 53
REMARK SMILES IDX 79 54 73 55 72 56 31 58 61 59 42 60 60 61 43 62 46 63 59 64
REMARK SMILES IDX 77 65 44 66 45 67 58 69 78 70 47 71 32 72 33 73 41 74 34 75
REMARK SMILES IDX 40 76 35 77 36 78 37 79 38 80 39 81 62 82 63 83 71 84 64 85
REMARK SMILES IDX 70 86 65 87 66 88 67 89 68 90 69 91 48 92 49 93 57 94 50 95
REMARK SMILES IDX 56 96 51 97 52 98 53 99 54 100 55 101
REMARK H PARENT 90 26 76 57 46 68
REMARK Flexibility Score: inf
ROOT
ATOM      1  C   UNL     1       2.688  -2.595   5.533  1.00  0.00     0.188 C 
ENDROOT
BRANCH   1   2
ATOM      2  O   UNL     1       2.236  -2.705   4.187  1.00  0.00    -0.377 OA
BRANCH   2   3
ATOM      3  C   UNL     1       2.004  -3.987   3.629  1.00  0.00     0.188 C 
BRANCH   3   4
ATOM      4  C   UNL     1       3.127  -5.038   3.721  1.00  0.00     0.188 C 
BRANCH   4   5
ATOM      5  O   UNL     1       4.253  -4.628   4.492  1.00  0.00    -0.376 OA
BRANCH   5   6
ATOM      6  C   UNL     1       5.469  -4.448   3.777  1.00  0.00     0.202 C 
BRANCH   6   7
ATOM      7  C   UNL     1       5.533  -3.151   2.963  1.00  0.00     0.261 C 
BRANCH   7   8
ATOM      8  O   UNL     1       4.484  -3.026   1.994  1.00  0.00    -0.459 OA
BRANCH   8   9
ATOM      9  C   UNL     1       4.513  -3.872   0.934  1.00  0.00     0.343 C 
ATOM     10  O   UNL     1       5.408  -4.656   0.666  1.00  0.00    -0.246 OA
BRANCH   9  11
ATOM     11  C   UNL     1       3.219  -3.778   0.234  1.00  0.00     0.124 A 
ATOM     12  N   UNL     1       1.465  -2.336  -0.636  1.00  0.00    -0.347 N 
ATOM     13  C   UNL     1       2.697  -2.575  -0.050  1.00  0.00     0.105 A 
ATOM     14  C   UNL     1       0.730  -3.449  -1.121  1.00  0.00     0.054 A 
ATOM     15  C   UNL     1       1.133  -4.758  -0.810  1.00  0.00     0.050 A 
ATOM     16  C   UNL     1      -0.406  -3.313  -1.934  1.00  0.00     0.055 A 
ATOM     17  C   UNL     1       2.394  -4.971  -0.062  1.00  0.00     0.204 A 
ATOM     18  C   UNL     1       0.370  -5.865  -1.200  1.00  0.00     0.055 A 
ATOM     19  C   UNL     1      -1.185  -4.393  -2.373  1.00  0.00     0.073 A 
ATOM     20  O   UNL     1       2.699  -6.096   0.319  1.00  0.00    -0.288 OA
ATOM     21  C   UNL     1      -0.777  -5.669  -1.962  1.00  0.00     0.147 A 
ATOM     22  F   UNL     1      -1.496  -6.742  -2.334  1.00  0.00    -0.205 F 
BRANCH  12  23
ATOM     23  C   UNL     1       0.887  -0.986  -0.838  1.00  0.00     0.119 C 
ATOM     24  C   UNL     1       1.363   0.079   0.140  1.00  0.00     0.027 C 
ENDBRANCH  12  23
BRANCH  19  25
ATOM     25  N   UNL     1      -2.307  -4.241  -3.176  1.00  0.00    -0.380 N 
ATOM     26  H   UNL     1      -2.805  -5.063  -3.388  1.00  0.00     0.160 HD
BRANCH  25  27
ATOM     27  C   UNL     1      -2.835  -2.999  -3.747  1.00  0.00     0.079 C 
ATOM     28  C   UNL     1      -3.363  -2.061  -2.644  1.00  0.00     0.025 C 
ATOM     29  C   UNL     1      -1.842  -2.392  -4.758  1.00  0.00     0.025 C 
ATOM     30  C   UNL     1      -3.562  -0.619  -3.094  1.00  0.00     0.002 C 
ATOM     31  C   UNL     1      -2.138  -0.942  -5.118  1.00  0.00     0.002 C 
ATOM     32  C   UNL     1      -2.365  -0.094  -3.875  1.00  0.00     0.000 C 
ENDBRANCH  25  27
ENDBRANCH  19  25
ENDBRANCH   9  11
ENDBRANCH   8   9
ENDBRANCH   7   8
ENDBRANCH   6   7
ENDBRANCH   5   6
ENDBRANCH   4   5
ENDBRANCH   3   4
ENDBRANCH   2   3
ENDBRANCH   1   2
BRANCH   1  33
ATOM     33  C   UNL     1       2.506  -3.741   6.555  1.00  0.00     0.188 C 
BRANCH  33  34
ATOM     34  O   UNL     1       1.543  -4.720   6.189  1.00  0.00    -0.376 OA
BRANCH  34  35
ATOM     35  C   UNL     1       0.358  -4.769   6.967  1.00  0.00     0.202 C 
BRANCH  35  36
ATOM     36  C   UNL     1      -0.625  -3.628   6.689  1.00  0.00     0.261 C 
BRANCH  36  37
ATOM     37  O   UNL     1      -0.122  -2.309   6.942  1.00  0.00    -0.460 OA
BRANCH  37  38
ATOM     38  C   UNL     1       0.255  -2.010   8.206  1.00  0.00     0.338 C 
ATOM     39  O   UNL     1       0.207  -2.738   9.182  1.00  0.00    -0.246 OA
BRANCH  38  40
ATOM     40  C   UNL     1       0.920  -0.692   8.156  1.00  0.00     0.060 A 
ATOM     41  C   UNL     1       0.278   0.387   7.545  1.00  0.00     0.016 A 
ATOM     42  C   UNL     1       2.211  -0.549   8.680  1.00  0.00     0.016 A 
ATOM     43  C   UNL     1       0.921   1.622   7.480  1.00  0.00     0.010 A 
ATOM     44  C   UNL     1       2.856   0.690   8.610  1.00  0.00     0.010 A 
ATOM     45  C   UNL     1       2.204   1.789   8.031  1.00  0.00    -0.014 A 
BRANCH  45  46
ATOM     46  C   UNL     1       2.753   3.157   8.179  1.00  0.00     0.031 A 
ATOM     47  C   UNL     1       3.791   3.711   7.253  1.00  0.00     0.074 A 
ATOM     48  C   UNL     1       2.264   3.913   9.182  1.00  0.00     0.049 A 
ATOM     49  N   UNL     1       4.261   4.931   7.197  1.00  0.00    -0.248 NA
ATOM     50  C   UNL     1       4.377   2.792   6.267  1.00  0.00     0.031 C 
ATOM     51  C   UNL     1       1.261   3.461  10.150  1.00  0.00     0.029 A 
ATOM     52  N   UNL     1       2.518   5.210   9.544  1.00  0.00    -0.354 N 
ATOM     53  C   UNL     1       5.181   4.939   6.157  1.00  0.00     0.074 A 
ATOM     54  C   UNL     1       5.237   3.587   5.638  1.00  0.00     0.031 C 
ATOM     55  C   UNL     1       0.957   4.476  10.970  1.00  0.00     0.029 A 
ATOM     56  C   UNL     1       1.763   5.639  10.610  1.00  0.00     0.049 A 
ATOM     57  H   UNL     1       3.178   5.780   9.086  1.00  0.00     0.167 HD
ATOM     58  C   UNL     1       5.892   5.986   5.674  1.00  0.00     0.031 A 
ATOM     59  C   UNL     1       1.708   6.836  11.226  1.00  0.00     0.031 A 
ATOM     60  C   UNL     1       5.838   7.321   6.220  1.00  0.00     0.049 A 
ATOM     61  C   UNL     1       2.543   7.967  10.700  1.00  0.00     0.074 A 
ATOM     62  C   UNL     1       6.494   8.455   5.770  1.00  0.00     0.029 A 
ATOM     63  N   UNL     1       5.106   7.705   7.335  1.00  0.00    -0.354 N 
ATOM     64  N   UNL     1       3.344   7.979   9.662  1.00  0.00    -0.248 NA
ATOM     65  C   UNL     1       2.458   9.248  11.413  1.00  0.00     0.031 C 
ATOM     66  C   UNL     1       6.220   9.501   6.653  1.00  0.00     0.029 A 
ATOM     67  C   UNL     1       5.326   9.046   7.609  1.00  0.00     0.049 A 
ATOM     68  H   UNL     1       4.516   7.112   7.854  1.00  0.00     0.167 HD
ATOM     69  C   UNL     1       3.847   9.272   9.586  1.00  0.00     0.074 A 
ATOM     70  C   UNL     1       3.244  10.019  10.671  1.00  0.00     0.031 C 
ATOM     71  C   UNL     1       4.732   9.786   8.697  1.00  0.00     0.031 A 
BRANCH  58  72
ATOM     72  C   UNL     1       6.782   5.765   4.476  1.00  0.00    -0.014 A 
ATOM     73  C   UNL     1       8.176   5.923   4.593  1.00  0.00     0.010 A 
ATOM     74  C   UNL     1       6.225   5.558   3.201  1.00  0.00     0.010 A 
ATOM     75  C   UNL     1       8.991   5.916   3.457  1.00  0.00     0.020 A 
ATOM     76  C   UNL     1       7.040   5.523   2.065  1.00  0.00     0.020 A 
ATOM     77  C   UNL     1       8.415   5.728   2.198  1.00  0.00     0.054 A 
BRANCH  77  78
ATOM     78  S   UNL     1       9.482   5.765   0.731  1.00  0.00     0.124 S 
ATOM     79  O   UNL     1       9.789   7.186   0.607  1.00  0.00    -0.237 OA
ATOM     80  O   UNL     1      10.597   4.908   1.126  1.00  0.00    -0.237 OA
ATOM     81  O   UNL     1       8.631   5.216  -0.324  1.00  0.00    -0.744 OA
ENDBRANCH  77  78
ENDBRANCH  58  72
BRANCH  59  82
ATOM     82  C   UNL     1       0.774   7.011  12.372  1.00  0.00    -0.014 A 
ATOM     83  C   UNL     1       0.987   6.313  13.576  1.00  0.00     0.010 A 
ATOM     84  C   UNL     1      -0.388   7.789  12.229  1.00  0.00     0.010 A 
ATOM     85  C   UNL     1       0.027   6.338  14.590  1.00  0.00     0.020 A 
ATOM     86  C   UNL     1      -1.336   7.843  13.255  1.00  0.00     0.020 A 
ATOM     87  C   UNL     1      -1.136   7.091  14.416  1.00  0.00     0.054 A 
BRANCH  87  88
ATOM     88  S   UNL     1      -2.398   7.056  15.718  1.00  0.00     0.124 S 
ATOM     89  O   UNL     1      -2.989   5.734  15.525  1.00  0.00    -0.237 OA
ATOM     90  O   UNL     1      -1.605   7.219  16.934  1.00  0.00    -0.237 OA
ATOM     91  O   UNL     1      -3.264   8.183  15.386  1.00  0.00    -0.744 OA
ENDBRANCH  87  88
ENDBRANCH  59  82
BRANCH  71  92
ATOM     92  C   UNL     1       5.133  11.232   8.848  1.00  0.00    -0.014 A 
ATOM     93  C   UNL     1       4.790  12.163   7.849  1.00  0.00     0.010 A 
ATOM     94  C   UNL     1       5.965  11.642   9.905  1.00  0.00     0.010 A 
ATOM     95  C   UNL     1       5.306  13.460   7.878  1.00  0.00     0.020 A 
ATOM     96  C   UNL     1       6.458  12.950   9.955  1.00  0.00     0.020 A 
ATOM     97  C   UNL     1       6.149  13.842   8.925  1.00  0.00     0.054 A 
BRANCH  97  98
ATOM     98  S   UNL     1       6.851  15.514   8.919  1.00  0.00     0.124 S 
ATOM     99  O   UNL     1       7.872  15.415   7.881  1.00  0.00    -0.237 OA
ATOM    100  O   UNL     1       5.695  16.346   8.588  1.00  0.00    -0.237 OA
ATOM    101  O   UNL     1       7.357  15.680  10.280  1.00  0.00    -0.744 OA
ENDBRANCH  97  98
ENDBRANCH  71  92
ENDBRANCH  45  46
ENDBRANCH  38  40
ENDBRANCH  37  38
ENDBRANCH  36  37
ENDBRANCH  35  36
ENDBRANCH  34  35
ENDBRANCH  33  34
ENDBRANCH   1  33
TORSDOF 26
