REMARK SMILES Cc1ccc(-c2ccc(C(=O)Nc3ccc(C(=O)OCCOCCOCCOCCOC(=O)c4ccc(-c5c6nc(c(-c7ccc(S(=O)(=O)[O-])cc7)c7ccc([nH]7)c(-c7ccc(S(=O)(=O)[O-])cc7)c7nc(c(-c8ccc(S(=O)(=O)[O-])cc8)c8ccc5[nH]8)C=C7)C=C6)cc4)c(O)c3)o2)c([N+](=O)[O-])c1
REMARK SMILES IDX 24 1 23 2 22 3 21 4 20 5 19 6 17 7 18 8 16 9 13 10 14 11
REMARK SMILES IDX 96 12 15 13 94 14 12 15 10 16 11 17 9 19 6 20 7 21 97 22
REMARK SMILES IDX 8 23 5 24 1 25 2 26 3 27 102 28 4 29 98 30 99 31 100 32
REMARK SMILES IDX 101 33 95 34 25 36 26 37 27 38 28 39 29 40 30 41 31 42 32 43
REMARK SMILES IDX 33 44 34 45 35 46 93 47 36 48 92 49 37 50 38 51 39 52 86 53
REMARK SMILES IDX 40 54 91 55 85 56 87 57 41 58 90 59 84 60 83 61 42 63 72 64
REMARK SMILES IDX 53 65 71 66 54 67 57 68 70 69 88 70 55 71 56 72 69 74 89 75
REMARK SMILES IDX 58 76 43 77 44 78 52 79 45 80 51 81 46 82 47 83 48 84 49 85
REMARK SMILES IDX 50 86 73 87 74 88 82 89 75 90 81 91 76 92 77 93 78 94 79 95
REMARK SMILES IDX 80 96 59 97 60 98 68 99 61 100 67 101 62 102 63 103 64 104
REMARK SMILES IDX 65 105 66 106
REMARK H PARENT 12 18 95 35 87 62 57 73
REMARK Flexibility Score: inf
ROOT
ATOM      1  C   UNL     1     -10.879   0.278  -3.761  1.00  0.00     0.188 C 
ENDROOT
BRANCH   1   2
ATOM      2  C   UNL     1     -11.346   1.686  -3.309  1.00  0.00     0.188 C 
BRANCH   2   3
ATOM      3  O   UNL     1     -11.198   2.831  -4.126  1.00  0.00    -0.376 OA
BRANCH   3   4
ATOM      4  C   UNL     1      -9.863   3.199  -4.404  1.00  0.00     0.202 C 
BRANCH   4   5
ATOM      5  C   UNL     1      -9.318   4.350  -3.587  1.00  0.00     0.261 C 
BRANCH   5   6
ATOM      6  O   UNL     1      -8.491   3.774  -2.587  1.00  0.00    -0.460 OA
BRANCH   6   7
ATOM      7  C   UNL     1      -9.175   3.635  -1.453  1.00  0.00     0.341 C 
ATOM      8  O   UNL     1      -9.963   4.420  -0.970  1.00  0.00    -0.246 OA
BRANCH   7   9
ATOM      9  C   UNL     1      -8.967   2.277  -0.927  1.00  0.00     0.101 A 
ATOM     10  C   UNL     1      -8.318  -0.045   0.372  1.00  0.00     0.045 A 
ATOM     11  C   UNL     1      -7.968   0.081  -0.968  1.00  0.00     0.027 A 
ATOM     12  C   UNL     1      -9.277   0.797   0.931  1.00  0.00     0.073 A 
ATOM     13  C   UNL     1      -8.255   1.280  -1.612  1.00  0.00     0.022 A 
ATOM     14  C   UNL     1      -9.597   1.969   0.275  1.00  0.00     0.132 A 
BRANCH  10  15
ATOM     15  N   UNL     1      -7.629  -0.880   1.252  1.00  0.00    -0.319 N 
ATOM     16  C   UNL     1      -6.259  -1.083   1.389  1.00  0.00     0.291 C 
ATOM     17  O   UNL     1      -5.937  -1.883   2.275  1.00  0.00    -0.265 OA
ATOM     18  H   UNL     1      -8.195  -1.403   1.865  1.00  0.00     0.170 HD
BRANCH  16  19
ATOM     19  C   UNL     1      -5.262  -0.342   0.614  1.00  0.00     0.192 A 
ATOM     20  C   UNL     1      -3.192   0.102  -0.045  1.00  0.00     0.142 A 
ATOM     21  C   UNL     1      -4.006   0.933  -0.771  1.00  0.00     0.052 A 
ATOM     22  O   UNL     1      -3.940  -0.745   0.720  1.00  0.00    -0.451 OA
ATOM     23  C   UNL     1      -5.271   0.795  -0.178  1.00  0.00     0.057 A 
BRANCH  20  24
ATOM     24  C   UNL     1      -1.749   0.052   0.101  1.00  0.00     0.095 A 
ATOM     25  C   UNL     1       2.575  -0.135   0.022  1.00  0.00     0.044 C 
ATOM     26  C   UNL     1       1.080  -0.069   0.096  1.00  0.00    -0.044 A 
ATOM     27  C   UNL     1       0.312  -1.241   0.090  1.00  0.00     0.004 A 
ATOM     28  C   UNL     1       0.434   1.167   0.162  1.00  0.00     0.089 A 
ATOM     29  C   UNL     1      -1.088  -1.182   0.092  1.00  0.00     0.019 A 
ATOM     30  C   UNL     1      -0.965   1.219   0.180  1.00  0.00     0.280 A 
BRANCH  30  31
ATOM     31  N   UNL     1      -1.566   2.544   0.317  1.00  0.00     0.063 N 
ATOM     32  O   UNL     1      -2.458   2.693   1.162  1.00  0.00    -0.258 OA
ATOM     33  O   UNL     1      -1.099   3.443  -0.396  1.00  0.00    -0.258 OA
ENDBRANCH  30  31
ENDBRANCH  20  24
ENDBRANCH  16  19
ENDBRANCH  10  15
BRANCH  14  34
ATOM     34  O   UNL     1     -10.501   2.796   0.884  1.00  0.00    -0.507 OA
ATOM     35  H   UNL     1     -10.747   3.603   0.475  1.00  0.00     0.293 HD
ENDBRANCH  14  34
ENDBRANCH   7   9
ENDBRANCH   6   7
ENDBRANCH   5   6
ENDBRANCH   4   5
ENDBRANCH   3   4
ENDBRANCH   2   3
ENDBRANCH   1   2
BRANCH   1  36
ATOM     36  O   UNL     1      -9.640   0.087  -4.421  1.00  0.00    -0.377 OA
BRANCH  36  37
ATOM     37  C   UNL     1      -9.606   0.222  -5.851  1.00  0.00     0.188 C 
BRANCH  37  38
ATOM     38  C   UNL     1     -10.895   0.102  -6.653  1.00  0.00     0.188 C 
BRANCH  38  39
ATOM     39  O   UNL     1     -11.736   1.210  -6.332  1.00  0.00    -0.376 OA
BRANCH  39  40
ATOM     40  C   UNL     1     -13.133   0.972  -6.335  1.00  0.00     0.202 C 
BRANCH  40  41
ATOM     41  C   UNL     1     -13.670   0.394  -7.645  1.00  0.00     0.261 C 
BRANCH  41  42
ATOM     42  O   UNL     1     -13.742   1.408  -8.670  1.00  0.00    -0.460 OA
BRANCH  42  43
ATOM     43  C   UNL     1     -12.790   1.340  -9.648  1.00  0.00     0.338 C 
ATOM     44  O   UNL     1     -12.906   0.657 -10.650  1.00  0.00    -0.246 OA
BRANCH  43  45
ATOM     45  C   UNL     1     -11.661   2.273  -9.363  1.00  0.00     0.060 A 
ATOM     46  C   UNL     1     -10.396   2.116  -9.948  1.00  0.00     0.016 A 
ATOM     47  C   UNL     1     -11.821   3.218  -8.367  1.00  0.00     0.016 A 
ATOM     48  C   UNL     1      -9.255   2.741  -9.393  1.00  0.00     0.010 A 
ATOM     49  C   UNL     1     -10.697   3.779  -7.794  1.00  0.00     0.010 A 
ATOM     50  C   UNL     1      -9.387   3.524  -8.251  1.00  0.00    -0.014 A 
BRANCH  50  51
ATOM     51  C   UNL     1      -8.294   4.065  -7.388  1.00  0.00     0.031 A 
ATOM     52  C   UNL     1      -8.442   5.509  -6.928  1.00  0.00     0.074 A 
ATOM     53  C   UNL     1      -7.527   3.179  -6.684  1.00  0.00     0.049 A 
ATOM     54  N   UNL     1      -7.778   6.087  -5.984  1.00  0.00    -0.248 NA
ATOM     55  C   UNL     1      -9.462   6.421  -7.464  1.00  0.00     0.031 C 
ATOM     56  C   UNL     1      -6.943   3.379  -5.349  1.00  0.00     0.029 A 
ATOM     57  N   UNL     1      -7.168   1.859  -6.921  1.00  0.00    -0.354 N 
ATOM     58  C   UNL     1      -8.503   7.188  -5.531  1.00  0.00     0.074 A 
ATOM     59  C   UNL     1      -9.505   7.393  -6.543  1.00  0.00     0.031 C 
ATOM     60  C   UNL     1      -6.295   2.284  -4.917  1.00  0.00     0.029 A 
ATOM     61  C   UNL     1      -6.095   1.489  -6.097  1.00  0.00     0.049 A 
ATOM     62  H   UNL     1      -7.605   1.266  -7.575  1.00  0.00     0.167 HD
ATOM     63  C   UNL     1      -8.250   7.705  -4.283  1.00  0.00     0.031 A 
ATOM     64  C   UNL     1      -4.831   1.293  -6.588  1.00  0.00     0.031 A 
ATOM     65  C   UNL     1      -7.079   7.038  -3.666  1.00  0.00     0.049 A 
ATOM     66  C   UNL     1      -3.939   2.490  -6.169  1.00  0.00     0.074 A 
ATOM     67  C   UNL     1      -6.833   6.402  -2.461  1.00  0.00     0.029 A 
ATOM     68  N   UNL     1      -5.948   6.794  -4.451  1.00  0.00    -0.354 N 
ATOM     69  N   UNL     1      -4.403   3.713  -5.983  1.00  0.00    -0.248 NA
ATOM     70  C   UNL     1      -2.575   2.359  -5.648  1.00  0.00     0.031 C 
ATOM     71  C   UNL     1      -5.630   5.640  -2.604  1.00  0.00     0.029 A 
ATOM     72  C   UNL     1      -5.112   5.856  -3.877  1.00  0.00     0.049 A 
ATOM     73  H   UNL     1      -5.769   7.238  -5.311  1.00  0.00     0.167 HD
ATOM     74  C   UNL     1      -3.547   4.427  -5.180  1.00  0.00     0.074 A 
ATOM     75  C   UNL     1      -2.379   3.561  -5.067  1.00  0.00     0.031 C 
ATOM     76  C   UNL     1      -3.811   5.580  -4.480  1.00  0.00     0.031 A 
BRANCH  63  77
ATOM     77  C   UNL     1      -9.130   8.704  -3.493  1.00  0.00    -0.014 A 
ATOM     78  C   UNL     1      -8.735   9.096  -2.189  1.00  0.00     0.010 A 
ATOM     79  C   UNL     1     -10.351   9.271  -3.923  1.00  0.00     0.010 A 
ATOM     80  C   UNL     1      -9.487   9.969  -1.374  1.00  0.00     0.020 A 
ATOM     81  C   UNL     1     -11.107  10.174  -3.127  1.00  0.00     0.020 A 
ATOM     82  C   UNL     1     -10.669  10.517  -1.851  1.00  0.00     0.054 A 
BRANCH  82  83
ATOM     83  S   UNL     1     -11.575  11.702  -0.808  1.00  0.00     0.124 S 
ATOM     84  O   UNL     1     -11.990  10.880   0.326  1.00  0.00    -0.237 OA
ATOM     85  O   UNL     1     -10.559  12.709  -0.511  1.00  0.00    -0.237 OA
ATOM     86  O   UNL     1     -12.665  12.164  -1.667  1.00  0.00    -0.744 OA
ENDBRANCH  82  83
ENDBRANCH  63  77
BRANCH  64  87
ATOM     87  C   UNL     1      -4.872   0.377  -7.782  1.00  0.00    -0.014 A 
ATOM     88  C   UNL     1      -5.215  -0.964  -7.451  1.00  0.00     0.010 A 
ATOM     89  C   UNL     1      -5.329   0.876  -9.019  1.00  0.00     0.010 A 
ATOM     90  C   UNL     1      -6.233  -1.641  -8.141  1.00  0.00     0.020 A 
ATOM     91  C   UNL     1      -6.344   0.188  -9.724  1.00  0.00     0.020 A 
ATOM     92  C   UNL     1      -6.844  -1.025  -9.230  1.00  0.00     0.054 A 
BRANCH  92  93
ATOM     93  S   UNL     1      -8.462  -1.670  -9.786  1.00  0.00     0.124 S 
ATOM     94  O   UNL     1      -8.086  -2.858 -10.541  1.00  0.00    -0.237 OA
ATOM     95  O   UNL     1      -9.160  -1.912  -8.524  1.00  0.00    -0.237 OA
ATOM     96  O   UNL     1      -8.998  -0.565 -10.573  1.00  0.00    -0.744 OA
ENDBRANCH  92  93
ENDBRANCH  64  87
BRANCH  76  97
ATOM     97  C   UNL     1      -2.777   6.675  -4.331  1.00  0.00    -0.014 A 
ATOM     98  C   UNL     1      -1.564   6.664  -5.029  1.00  0.00     0.010 A 
ATOM     99  C   UNL     1      -3.119   7.875  -3.649  1.00  0.00     0.010 A 
ATOM    100  C   UNL     1      -0.713   7.768  -5.006  1.00  0.00     0.020 A 
ATOM    101  C   UNL     1      -2.304   9.004  -3.669  1.00  0.00     0.020 A 
ATOM    102  C   UNL     1      -1.088   8.930  -4.329  1.00  0.00     0.054 A 
BRANCH 102 103
ATOM    103  S   UNL     1       0.025  10.347  -4.364  1.00  0.00     0.124 S 
ATOM    104  O   UNL     1       1.062   9.931  -3.422  1.00  0.00    -0.237 OA
ATOM    105  O   UNL     1       0.435  10.395  -5.766  1.00  0.00    -0.237 OA
ATOM    106  O   UNL     1      -0.810  11.461  -3.926  1.00  0.00    -0.744 OA
ENDBRANCH 102 103
ENDBRANCH  76  97
ENDBRANCH  50  51
ENDBRANCH  43  45
ENDBRANCH  42  43
ENDBRANCH  41  42
ENDBRANCH  40  41
ENDBRANCH  39  40
ENDBRANCH  38  39
ENDBRANCH  37  38
ENDBRANCH  36  37
ENDBRANCH   1  36
TORSDOF 28
