REMARK SMILES CC[C@H](C)CN(CC)C(=O)NC[C@@](C)(O)C(=O)OCCOCCOCCOCCOC(=O)c1ccc(-c2c3nc(c(-c4ccc(S(=O)(=O)[O-])cc4)c4ccc([nH]4)c(-c4ccc(S(=O)(=O)[O-])cc4)c4nc(c(-c5ccc(S(=O)(=O)[O-])cc5)c5ccc2[nH]5)C=C4)C=C3)cc1
REMARK SMILES IDX 22 1 21 2 20 3 19 4 18 5 16 6 17 7 13 8 14 9 12 10 11 11
REMARK SMILES IDX 9 12 10 13 6 15 5 16 3 17 4 18 2 19 1 20 7 21 8 22 15 23
REMARK SMILES IDX 23 25 24 26 25 27 26 28 27 29 28 30 29 31 30 32 31 33 32 34
REMARK SMILES IDX 33 35 34 36 92 37 35 38 91 39 36 40 37 41 38 42 85 43 39 44
REMARK SMILES IDX 90 45 84 46 86 47 40 48 89 49 83 50 82 51 41 53 71 54 52 55
REMARK SMILES IDX 70 56 53 57 56 58 69 59 87 60 54 61 55 62 68 64 88 65 57 66
REMARK SMILES IDX 42 67 43 68 51 69 44 70 50 71 45 72 46 73 47 74 48 75 49 76
REMARK SMILES IDX 72 77 73 78 81 79 74 80 80 81 75 82 76 83 77 84 78 85 79 86
REMARK SMILES IDX 58 87 59 88 67 89 60 90 66 91 61 92 62 93 63 94 64 95 65 96
REMARK H PARENT 11 14 15 24 86 52 56 63
REMARK Flexibility Score: inf
ROOT
ATOM      1  C   UNL     1      -0.650   7.039   2.590  1.00  0.00     0.188 C 
ENDROOT
BRANCH   1   2
ATOM      2  O   UNL     1      -1.971   7.535   2.699  1.00  0.00    -0.376 OA
BRANCH   2   3
ATOM      3  C   UNL     1      -2.824   6.960   3.671  1.00  0.00     0.202 C 
BRANCH   3   4
ATOM      4  C   UNL     1      -2.351   6.721   5.116  1.00  0.00     0.261 C 
BRANCH   4   5
ATOM      5  O   UNL     1      -0.944   6.518   5.301  1.00  0.00    -0.461 OA
BRANCH   5   6
ATOM      6  C   UNL     1      -0.489   5.253   5.472  1.00  0.00     0.339 C 
ATOM      7  O   UNL     1      -1.193   4.250   5.442  1.00  0.00    -0.249 OA
BRANCH   6   8
ATOM      8  C   UNL     1       1.048   5.214   5.722  1.00  0.00     0.176 C 
ATOM      9  C   UNL     1       1.252   4.387   6.993  1.00  0.00     0.057 C 
BRANCH   8  10
ATOM     10  C   UNL     1       1.807   4.610   4.494  1.00  0.00     0.164 C 
BRANCH  10  11
ATOM     11  N   UNL     1       1.107   3.552   3.786  1.00  0.00    -0.334 N 
ATOM     12  C   UNL     1       0.558   3.499   2.556  1.00  0.00     0.317 C 
ATOM     13  O   UNL     1      -0.553   2.965   2.508  1.00  0.00    -0.249 OA
ATOM     14  H   UNL     1       1.018   2.718   4.301  1.00  0.00     0.165 HD
BRANCH  12  15
ATOM     15  N   UNL     1       1.213   3.913   1.423  1.00  0.00    -0.325 N 
BRANCH  15  16
ATOM     16  C   UNL     1       0.557   3.586   0.135  1.00  0.00     0.124 C 
BRANCH  16  17
ATOM     17  C   UNL     1       1.049   2.243  -0.478  1.00  0.00     0.005 C 
ATOM     18  C   UNL     1       0.578   1.002   0.294  1.00  0.00     0.009 C 
BRANCH  17  19
ATOM     19  C   UNL     1       0.621   2.144  -1.960  1.00  0.00     0.002 C 
ATOM     20  C   UNL     1       1.125   0.881  -2.651  1.00  0.00     0.004 C 
ENDBRANCH  17  19
ENDBRANCH  16  17
ENDBRANCH  15  16
BRANCH  15  21
ATOM     21  C   UNL     1       2.561   4.483   1.319  1.00  0.00     0.118 C 
ATOM     22  C   UNL     1       2.555   5.996   1.150  1.00  0.00     0.027 C 
ENDBRANCH  15  21
ENDBRANCH  12  15
ENDBRANCH  10  11
ENDBRANCH   8  10
BRANCH   8  23
ATOM     23  O   UNL     1       1.624   6.493   6.024  1.00  0.00    -0.377 OA
ATOM     24  H   UNL     1       2.578   6.392   6.167  1.00  0.00     0.212 HD
ENDBRANCH   8  23
ENDBRANCH   6   8
ENDBRANCH   5   6
ENDBRANCH   4   5
ENDBRANCH   3   4
ENDBRANCH   2   3
ENDBRANCH   1   2
BRANCH   1  25
ATOM     25  C   UNL     1       0.388   7.971   3.243  1.00  0.00     0.188 C 
BRANCH  25  26
ATOM     26  O   UNL     1      -0.083   9.110   3.936  1.00  0.00    -0.377 OA
BRANCH  26  27
ATOM     27  C   UNL     1      -0.933  10.021   3.252  1.00  0.00     0.188 C 
BRANCH  27  28
ATOM     28  C   UNL     1      -0.999  10.056   1.705  1.00  0.00     0.188 C 
BRANCH  28  29
ATOM     29  O   UNL     1       0.080   9.429   1.021  1.00  0.00    -0.376 OA
BRANCH  29  30
ATOM     30  C   UNL     1       1.060  10.273   0.438  1.00  0.00     0.202 C 
BRANCH  30  31
ATOM     31  C   UNL     1       1.972  11.014   1.426  1.00  0.00     0.261 C 
BRANCH  31  32
ATOM     32  O   UNL     1       1.301  11.909   2.325  1.00  0.00    -0.460 OA
BRANCH  32  33
ATOM     33  C   UNL     1       0.625  12.938   1.768  1.00  0.00     0.338 C 
ATOM     34  O   UNL     1       0.570  13.226   0.584  1.00  0.00    -0.246 OA
BRANCH  33  35
ATOM     35  C   UNL     1      -0.221  13.539   2.816  1.00  0.00     0.060 A 
ATOM     36  C   UNL     1      -1.609  13.544   2.631  1.00  0.00     0.016 A 
ATOM     37  C   UNL     1       0.343  14.055   3.986  1.00  0.00     0.016 A 
ATOM     38  C   UNL     1      -2.437  14.095   3.606  1.00  0.00     0.010 A 
ATOM     39  C   UNL     1      -0.487  14.633   4.950  1.00  0.00     0.010 A 
ATOM     40  C   UNL     1      -1.877  14.684   4.747  1.00  0.00    -0.014 A 
BRANCH  40  41
ATOM     41  C   UNL     1      -2.746  15.517   5.610  1.00  0.00     0.031 A 
ATOM     42  C   UNL     1      -2.769  17.003   5.370  1.00  0.00     0.074 A 
ATOM     43  C   UNL     1      -3.548  14.960   6.535  1.00  0.00     0.049 A 
ATOM     44  N   UNL     1      -3.500  17.922   5.944  1.00  0.00    -0.248 NA
ATOM     45  C   UNL     1      -1.850  17.522   4.341  1.00  0.00     0.031 C 
ATOM     46  C   UNL     1      -3.631  13.530   6.835  1.00  0.00     0.029 A 
ATOM     47  N   UNL     1      -4.455  15.536   7.389  1.00  0.00    -0.354 N 
ATOM     48  C   UNL     1      -3.124  19.124   5.356  1.00  0.00     0.074 A 
ATOM     49  C   UNL     1      -2.087  18.825   4.395  1.00  0.00     0.031 C 
ATOM     50  C   UNL     1      -4.539  13.342   7.809  1.00  0.00     0.029 A 
ATOM     51  C   UNL     1      -5.082  14.637   8.218  1.00  0.00     0.049 A 
ATOM     52  H   UNL     1      -4.638  16.503   7.406  1.00  0.00     0.167 HD
ATOM     53  C   UNL     1      -3.603  20.366   5.596  1.00  0.00     0.031 A 
ATOM     54  C   UNL     1      -5.980  14.840   9.203  1.00  0.00     0.031 A 
ATOM     55  C   UNL     1      -4.635  20.659   6.554  1.00  0.00     0.049 A 
ATOM     56  C   UNL     1      -6.463  16.243   9.477  1.00  0.00     0.074 A 
ATOM     57  C   UNL     1      -5.221  21.880   6.836  1.00  0.00     0.029 A 
ATOM     58  N   UNL     1      -5.223  19.728   7.396  1.00  0.00    -0.354 N 
ATOM     59  N   UNL     1      -6.148  17.361   8.863  1.00  0.00    -0.248 NA
ATOM     60  C   UNL     1      -7.434  16.411  10.566  1.00  0.00     0.031 C 
ATOM     61  C   UNL     1      -6.108  21.701   7.901  1.00  0.00     0.029 A 
ATOM     62  C   UNL     1      -6.133  20.355   8.230  1.00  0.00     0.049 A 
ATOM     63  H   UNL     1      -5.023  18.764   7.401  1.00  0.00     0.167 HD
ATOM     64  C   UNL     1      -6.902  18.357   9.478  1.00  0.00     0.074 A 
ATOM     65  C   UNL     1      -7.710  17.705  10.487  1.00  0.00     0.031 C 
ATOM     66  C   UNL     1      -6.923  19.692   9.235  1.00  0.00     0.031 A 
BRANCH  53  67
ATOM     67  C   UNL     1      -2.991  21.518   4.845  1.00  0.00    -0.014 A 
ATOM     68  C   UNL     1      -3.248  21.727   3.479  1.00  0.00     0.010 A 
ATOM     69  C   UNL     1      -2.213  22.457   5.548  1.00  0.00     0.010 A 
ATOM     70  C   UNL     1      -2.733  22.852   2.828  1.00  0.00     0.020 A 
ATOM     71  C   UNL     1      -1.718  23.596   4.908  1.00  0.00     0.020 A 
ATOM     72  C   UNL     1      -1.978  23.783   3.549  1.00  0.00     0.054 A 
BRANCH  72  73
ATOM     73  S   UNL     1      -1.388  25.272   2.698  1.00  0.00     0.124 S 
ATOM     74  O   UNL     1      -0.364  24.728   1.810  1.00  0.00    -0.237 OA
ATOM     75  O   UNL     1      -2.596  25.760   2.037  1.00  0.00    -0.237 OA
ATOM     76  O   UNL     1      -0.888  26.117   3.780  1.00  0.00    -0.744 OA
ENDBRANCH  72  73
ENDBRANCH  53  67
BRANCH  54  77
ATOM     77  C   UNL     1      -6.456  13.700  10.039  1.00  0.00    -0.014 A 
ATOM     78  C   UNL     1      -7.804  13.299  10.030  1.00  0.00     0.010 A 
ATOM     79  C   UNL     1      -5.557  13.039  10.897  1.00  0.00     0.010 A 
ATOM     80  C   UNL     1      -8.251  12.291  10.892  1.00  0.00     0.020 A 
ATOM     81  C   UNL     1      -5.991  12.007  11.733  1.00  0.00     0.020 A 
ATOM     82  C   UNL     1      -7.341  11.654  11.741  1.00  0.00     0.054 A 
BRANCH  82  83
ATOM     83  S   UNL     1      -7.938  10.344  12.845  1.00  0.00     0.124 S 
ATOM     84  O   UNL     1      -8.681  11.105  13.844  1.00  0.00    -0.237 OA
ATOM     85  O   UNL     1      -8.743   9.518  11.948  1.00  0.00    -0.237 OA
ATOM     86  O   UNL     1      -6.709   9.715  13.324  1.00  0.00    -0.744 OA
ENDBRANCH  82  83
ENDBRANCH  54  77
BRANCH  66  87
ATOM     87  C   UNL     1      -7.871  20.529  10.054  1.00  0.00    -0.014 A 
ATOM     88  C   UNL     1      -7.665  20.736  11.430  1.00  0.00     0.010 A 
ATOM     89  C   UNL     1      -8.974  21.141   9.430  1.00  0.00     0.010 A 
ATOM     90  C   UNL     1      -8.575  21.489  12.176  1.00  0.00     0.020 A 
ATOM     91  C   UNL     1      -9.866  21.926  10.165  1.00  0.00     0.020 A 
ATOM     92  C   UNL     1      -9.674  22.074  11.539  1.00  0.00     0.054 A 
BRANCH  92  93
ATOM     93  S   UNL     1     -10.838  23.050  12.529  1.00  0.00     0.124 S 
ATOM     94  O   UNL     1     -11.543  22.013  13.278  1.00  0.00    -0.237 OA
ATOM     95  O   UNL     1      -9.953  23.904  13.317  1.00  0.00    -0.237 OA
ATOM     96  O   UNL     1     -11.642  23.750  11.529  1.00  0.00    -0.744 OA
ENDBRANCH  92  93
ENDBRANCH  66  87
ENDBRANCH  40  41
ENDBRANCH  33  35
ENDBRANCH  32  33
ENDBRANCH  31  32
ENDBRANCH  30  31
ENDBRANCH  29  30
ENDBRANCH  28  29
ENDBRANCH  27  28
ENDBRANCH  26  27
ENDBRANCH  25  26
ENDBRANCH   1  25
TORSDOF 31
