REMARK SMILES CC(=O)N[C@@H]1[C@H](Oc2ccc(C)c(C)c2)O[C@H]2COC(C)(C)O[C@@H]2[C@H]1O[C@@H](C)C(=O)OCCOCCOCCOCCOC(=O)c1ccc(-c2c3nc(c(-c4ccc(S(=O)(=O)[O-])cc4)c4ccc([nH]4)c(-c4ccc(S(=O)(=O)[O-])cc4)c4nc(c(-c5ccc(S(=O)(=O)[O-])cc5)c5ccc2[nH]5)C=C4)C=C3)cc1
REMARK SMILES IDX 36 1 35 2 34 3 33 4 32 5 31 6 29 7 30 8 27 9 28 10 26 11
REMARK SMILES IDX 25 12 5 13 6 14 16 15 24 16 17 17 23 18 18 19 20 20 19 21
REMARK SMILES IDX 21 22 22 23 4 24 1 25 2 26 3 27 7 29 8 30 9 31 15 32 10 33
REMARK SMILES IDX 13 34 11 35 14 36 12 37 37 38 38 39 39 40 40 41 41 42 42 43
REMARK SMILES IDX 43 44 44 45 45 46 46 47 47 48 105 49 48 50 104 51 49 52
REMARK SMILES IDX 50 53 51 54 98 55 52 56 103 57 97 58 99 59 53 60 102 61
REMARK SMILES IDX 96 62 95 63 54 65 84 66 65 67 83 68 66 69 69 70 82 71 100 72
REMARK SMILES IDX 67 73 68 74 81 76 101 77 70 78 55 79 56 80 64 81 57 82 63 83
REMARK SMILES IDX 58 84 59 85 60 86 61 87 62 88 85 89 86 90 94 91 87 92 93 93
REMARK SMILES IDX 88 94 89 95 90 96 91 97 92 98 71 99 72 100 80 101 73 102
REMARK SMILES IDX 79 103 74 104 75 105 76 106 77 107 78 108
REMARK H PARENT 4 28 99 64 69 75
REMARK Flexibility Score: inf
ROOT
ATOM      1  C   UNL     1       0.109   3.941   2.003  1.00  0.00     0.188 C 
ENDROOT
BRANCH   1   2
ATOM      2  C   UNL     1      -0.062   5.165   1.092  1.00  0.00     0.188 C 
BRANCH   2   3
ATOM      3  O   UNL     1       0.060   4.857  -0.295  1.00  0.00    -0.376 OA
BRANCH   3   4
ATOM      4  C   UNL     1       1.160   5.439  -0.976  1.00  0.00     0.202 C 
BRANCH   4   5
ATOM      5  C   UNL     1       2.469   4.667  -0.820  1.00  0.00     0.261 C 
BRANCH   5   6
ATOM      6  O   UNL     1       2.678   4.184   0.512  1.00  0.00    -0.461 OA
BRANCH   6   7
ATOM      7  C   UNL     1       3.755   4.600   1.231  1.00  0.00     0.335 C 
ATOM      8  O   UNL     1       4.532   5.475   0.872  1.00  0.00    -0.249 OA
BRANCH   7   9
ATOM      9  C   UNL     1       3.779   3.882   2.611  1.00  0.00     0.225 C 
ATOM     10  C   UNL     1       5.174   3.796   3.225  1.00  0.00     0.051 C 
BRANCH   9  11
ATOM     11  O   UNL     1       3.007   2.688   2.763  1.00  0.00    -0.358 OA
BRANCH  11  12
ATOM     12  C   UNL     1       3.528   1.414   2.341  1.00  0.00     0.180 C 
ATOM     13  C   UNL     1       2.445   0.332   2.655  1.00  0.00     0.182 C 
ATOM     14  C   UNL     1       2.884  -1.092   2.174  1.00  0.00     0.333 C 
ATOM     15  O   UNL     1       3.345  -1.076   0.811  1.00  0.00    -0.332 OA
ATOM     16  C   UNL     1       3.919   1.328   0.846  1.00  0.00     0.184 C 
ATOM     17  C   UNL     1       4.337  -0.101   0.539  1.00  0.00     0.180 C 
ATOM     18  O   UNL     1       5.023   2.203   0.613  1.00  0.00    -0.342 OA
ATOM     19  C   UNL     1       4.821  -0.147  -0.897  1.00  0.00     0.198 C 
ATOM     20  C   UNL     1       5.763   2.029  -0.598  1.00  0.00     0.163 C 
ATOM     21  O   UNL     1       5.978   0.677  -0.987  1.00  0.00    -0.348 OA
ATOM     22  C   UNL     1       7.142   2.610  -0.272  1.00  0.00     0.075 C 
ATOM     23  C   UNL     1       5.160   2.815  -1.755  1.00  0.00     0.075 C 
BRANCH  13  24
ATOM     24  N   UNL     1       1.996   0.359   4.058  1.00  0.00    -0.345 N 
ATOM     25  C   UNL     1      -0.339  -0.343   3.658  1.00  0.00     0.114 C 
ATOM     26  C   UNL     1       0.796  -0.009   4.585  1.00  0.00     0.217 C 
ATOM     27  O   UNL     1       0.653  -0.014   5.807  1.00  0.00    -0.275 OA
ATOM     28  H   UNL     1       2.658   0.691   4.707  1.00  0.00     0.164 HD
ENDBRANCH  13  24
BRANCH  14  29
ATOM     29  O   UNL     1       3.627  -1.908   3.127  1.00  0.00    -0.463 OA
BRANCH  29  30
ATOM     30  C   UNL     1       4.910  -1.531   3.378  1.00  0.00     0.123 A 
ATOM     31  C   UNL     1       5.187  -0.685   4.442  1.00  0.00     0.047 A 
ATOM     32  C   UNL     1       5.944  -1.973   2.561  1.00  0.00     0.050 A 
ATOM     33  C   UNL     1       6.415  -0.031   4.488  1.00  0.00     0.007 A 
ATOM     34  C   UNL     1       7.192  -1.323   2.591  1.00  0.00    -0.045 A 
ATOM     35  C   UNL     1       7.387  -0.267   3.503  1.00  0.00    -0.048 A 
ATOM     36  C   UNL     1       8.204  -1.716   1.548  1.00  0.00     0.045 C 
ATOM     37  C   UNL     1       8.592   0.630   3.454  1.00  0.00     0.044 C 
ENDBRANCH  29  30
ENDBRANCH  14  29
ENDBRANCH  11  12
ENDBRANCH   9  11
ENDBRANCH   7   9
ENDBRANCH   6   7
ENDBRANCH   5   6
ENDBRANCH   4   5
ENDBRANCH   3   4
ENDBRANCH   2   3
ENDBRANCH   1   2
BRANCH   1  38
ATOM     38  O   UNL     1      -0.640   2.767   1.731  1.00  0.00    -0.377 OA
BRANCH  38  39
ATOM     39  C   UNL     1      -0.599   2.281   0.401  1.00  0.00     0.188 C 
BRANCH  39  40
ATOM     40  C   UNL     1      -1.824   2.671  -0.451  1.00  0.00     0.188 C 
BRANCH  40  41
ATOM     41  O   UNL     1      -2.973   3.297   0.112  1.00  0.00    -0.376 OA
BRANCH  41  42
ATOM     42  C   UNL     1      -3.293   3.135   1.483  1.00  0.00     0.202 C 
BRANCH  42  43
ATOM     43  C   UNL     1      -3.561   1.732   2.050  1.00  0.00     0.261 C 
BRANCH  43  44
ATOM     44  O   UNL     1      -2.834   0.651   1.453  1.00  0.00    -0.460 OA
BRANCH  44  45
ATOM     45  C   UNL     1      -3.498  -0.001   0.469  1.00  0.00     0.338 C 
ATOM     46  O   UNL     1      -4.610   0.239   0.041  1.00  0.00    -0.246 OA
BRANCH  45  47
ATOM     47  C   UNL     1      -2.609  -1.022  -0.119  1.00  0.00     0.060 A 
ATOM     48  C   UNL     1      -2.317  -0.936  -1.485  1.00  0.00     0.016 A 
ATOM     49  C   UNL     1      -2.156  -2.105   0.639  1.00  0.00     0.016 A 
ATOM     50  C   UNL     1      -1.603  -1.956  -2.110  1.00  0.00     0.010 A 
ATOM     51  C   UNL     1      -1.462  -3.141   0.005  1.00  0.00     0.010 A 
ATOM     52  C   UNL     1      -1.220  -3.087  -1.379  1.00  0.00    -0.014 A 
BRANCH  52  53
ATOM     53  C   UNL     1      -0.773  -4.295  -2.111  1.00  0.00     0.031 A 
ATOM     54  C   UNL     1      -1.802  -5.336  -2.469  1.00  0.00     0.074 A 
ATOM     55  C   UNL     1       0.505  -4.444  -2.499  1.00  0.00     0.049 A 
ATOM     56  N   UNL     1      -1.649  -6.467  -3.106  1.00  0.00    -0.248 NA
ATOM     57  C   UNL     1      -3.189  -5.058  -2.059  1.00  0.00     0.031 C 
ATOM     58  C   UNL     1       1.581  -3.482  -2.261  1.00  0.00     0.029 A 
ATOM     59  N   UNL     1       1.111  -5.468  -3.181  1.00  0.00    -0.354 N 
ATOM     60  C   UNL     1      -2.915  -7.038  -3.170  1.00  0.00     0.074 A 
ATOM     61  C   UNL     1      -3.821  -6.140  -2.487  1.00  0.00     0.031 C 
ATOM     62  C   UNL     1       2.720  -3.967  -2.788  1.00  0.00     0.029 A 
ATOM     63  C   UNL     1       2.459  -5.284  -3.370  1.00  0.00     0.049 A 
ATOM     64  H   UNL     1       0.625  -6.261  -3.505  1.00  0.00     0.167 HD
ATOM     65  C   UNL     1      -3.293  -8.202  -3.747  1.00  0.00     0.031 A 
ATOM     66  C   UNL     1       3.379  -6.095  -3.929  1.00  0.00     0.031 A 
ATOM     67  C   UNL     1      -2.390  -9.106  -4.406  1.00  0.00     0.049 A 
ATOM     68  C   UNL     1       2.951  -7.429  -4.484  1.00  0.00     0.074 A 
ATOM     69  C   UNL     1      -2.677 -10.312  -5.022  1.00  0.00     0.029 A 
ATOM     70  N   UNL     1      -1.024  -8.909  -4.524  1.00  0.00    -0.354 N 
ATOM     71  N   UNL     1       1.748  -7.948  -4.551  1.00  0.00    -0.248 NA
ATOM     72  C   UNL     1       4.008  -8.287  -5.040  1.00  0.00     0.031 C 
ATOM     73  C   UNL     1      -1.474 -10.868  -5.469  1.00  0.00     0.029 A 
ATOM     74  C   UNL     1      -0.447  -9.983  -5.179  1.00  0.00     0.049 A 
ATOM     75  H   UNL     1      -0.535  -8.121  -4.192  1.00  0.00     0.167 HD
ATOM     76  C   UNL     1       1.900  -9.183  -5.173  1.00  0.00     0.074 A 
ATOM     77  C   UNL     1       3.309  -9.328  -5.476  1.00  0.00     0.031 C 
ATOM     78  C   UNL     1       0.959 -10.114  -5.468  1.00  0.00     0.031 A 
BRANCH  65  79
ATOM     79  C   UNL     1      -4.746  -8.579  -3.652  1.00  0.00    -0.014 A 
ATOM     80  C   UNL     1      -5.720  -7.916  -4.420  1.00  0.00     0.010 A 
ATOM     81  C   UNL     1      -5.139  -9.626  -2.800  1.00  0.00     0.010 A 
ATOM     82  C   UNL     1      -7.068  -8.270  -4.309  1.00  0.00     0.020 A 
ATOM     83  C   UNL     1      -6.483  -9.998  -2.703  1.00  0.00     0.020 A 
ATOM     84  C   UNL     1      -7.441  -9.305  -3.446  1.00  0.00     0.054 A 
BRANCH  84  85
ATOM     85  S   UNL     1      -9.194  -9.756  -3.332  1.00  0.00     0.124 S 
ATOM     86  O   UNL     1      -9.739  -8.650  -2.549  1.00  0.00    -0.237 OA
ATOM     87  O   UNL     1      -9.608  -9.796  -4.733  1.00  0.00    -0.237 OA
ATOM     88  O   UNL     1      -9.177 -11.050  -2.654  1.00  0.00    -0.744 OA
ENDBRANCH  84  85
ENDBRANCH  65  79
BRANCH  66  89
ATOM     89  C   UNL     1       4.807  -5.680  -3.966  1.00  0.00    -0.014 A 
ATOM     90  C   UNL     1       5.427  -5.344  -5.182  1.00  0.00     0.010 A 
ATOM     91  C   UNL     1       5.556  -5.621  -2.776  1.00  0.00     0.010 A 
ATOM     92  C   UNL     1       6.773  -4.965  -5.209  1.00  0.00     0.020 A 
ATOM     93  C   UNL     1       6.894  -5.220  -2.796  1.00  0.00     0.020 A 
ATOM     94  C   UNL     1       7.497  -4.903  -4.015  1.00  0.00     0.054 A 
BRANCH  94  95
ATOM     95  S   UNL     1       9.225  -4.351  -4.062  1.00  0.00     0.124 S 
ATOM     96  O   UNL     1       9.906  -5.532  -4.583  1.00  0.00    -0.237 OA
ATOM     97  O   UNL     1       9.167  -3.204  -4.964  1.00  0.00    -0.237 OA
ATOM     98  O   UNL     1       9.515  -4.022  -2.667  1.00  0.00    -0.744 OA
ENDBRANCH  94  95
ENDBRANCH  66  89
BRANCH  78  99
ATOM     99  C   UNL     1       1.412 -11.363  -6.175  1.00  0.00    -0.014 A 
ATOM    100  C   UNL     1       2.118 -12.369  -5.492  1.00  0.00     0.010 A 
ATOM    101  C   UNL     1       1.066 -11.563  -7.525  1.00  0.00     0.010 A 
ATOM    102  C   UNL     1       2.493 -13.542  -6.154  1.00  0.00     0.020 A 
ATOM    103  C   UNL     1       1.417 -12.744  -8.182  1.00  0.00     0.020 A 
ATOM    104  C   UNL     1       2.140 -13.722  -7.495  1.00  0.00     0.054 A 
BRANCH 104 105
ATOM    105  S   UNL     1       2.594 -15.273  -8.319  1.00  0.00     0.124 S 
ATOM    106  O   UNL     1       4.023 -15.087  -8.551  1.00  0.00    -0.237 OA
ATOM    107  O   UNL     1       2.245 -16.282  -7.321  1.00  0.00    -0.237 OA
ATOM    108  O   UNL     1       1.763 -15.283  -9.521  1.00  0.00    -0.744 OA
ENDBRANCH 104 105
ENDBRANCH  78  99
ENDBRANCH  52  53
ENDBRANCH  45  47
ENDBRANCH  44  45
ENDBRANCH  43  44
ENDBRANCH  42  43
ENDBRANCH  41  42
ENDBRANCH  40  41
ENDBRANCH  39  40
ENDBRANCH  38  39
ENDBRANCH   1  38
TORSDOF 28
