REMARK SMILES C[C@@H](C(=O)OCCOCCOCCOCCOC(=O)c1ccc(-c2c3nc(c(-c4ccc(S(=O)(=O)[O-])cc4)c4ccc([nH]4)c(-c4ccc(S(=O)(=O)[O-])cc4)c4nc(c(-c5ccc(S(=O)(=O)[O-])cc5)c5ccc2[nH]5)C=C4)C=C3)cc1)c1ccn(C(F)F)c(=O)c1
REMARK SMILES IDX 12 1 11 2 10 3 9 4 8 5 7 6 6 7 5 8 3 9 4 10 2 11 1 12 80 13
REMARK SMILES IDX 81 14 89 15 82 16 87 17 83 18 88 19 84 20 85 21 86 22 13 23
REMARK SMILES IDX 14 24 15 25 16 26 17 27 18 28 19 29 20 30 21 31 79 32 22 33
REMARK SMILES IDX 78 34 23 35 24 36 25 37 72 38 26 39 77 40 71 41 73 42 27 43
REMARK SMILES IDX 76 44 70 45 69 46 28 48 58 49 39 50 57 51 40 52 43 53 56 54
REMARK SMILES IDX 74 55 41 56 42 57 55 59 75 60 44 61 29 62 30 63 38 64 31 65
REMARK SMILES IDX 37 66 32 67 33 68 34 69 35 70 36 71 59 72 60 73 68 74 61 75
REMARK SMILES IDX 67 76 62 77 63 78 64 79 65 80 66 81 45 82 46 83 54 84 47 85
REMARK SMILES IDX 53 86 48 87 49 88 50 89 51 90 52 91
REMARK H PARENT 73 47 43 58
REMARK Flexibility Score: inf
ROOT
ATOM      1  C   UNL     1       2.946   2.295  -3.247  1.00  0.00     0.188 C 
ENDROOT
BRANCH   1   2
ATOM      2  O   UNL     1       2.296   1.901  -2.042  1.00  0.00    -0.377 OA
BRANCH   2   3
ATOM      3  C   UNL     1       0.883   1.869  -2.024  1.00  0.00     0.188 C 
BRANCH   3   4
ATOM      4  C   UNL     1       0.210   3.222  -1.754  1.00  0.00     0.188 C 
BRANCH   4   5
ATOM      5  O   UNL     1       0.960   4.384  -2.039  1.00  0.00    -0.376 OA
BRANCH   5   6
ATOM      6  C   UNL     1       2.018   4.806  -1.189  1.00  0.00     0.202 C 
BRANCH   6   7
ATOM      7  C   UNL     1       2.482   4.109   0.111  1.00  0.00     0.261 C 
BRANCH   7   8
ATOM      8  O   UNL     1       1.882   2.848   0.424  1.00  0.00    -0.463 OA
BRANCH   8   9
ATOM      9  C   UNL     1       1.191   2.726   1.582  1.00  0.00     0.313 C 
ATOM     10  O   UNL     1       1.023   3.632   2.390  1.00  0.00    -0.252 OA
BRANCH   9  11
ATOM     11  C   UNL     1       0.504   1.347   1.710  1.00  0.00     0.126 C 
ATOM     12  C   UNL     1       1.362   0.208   1.112  1.00  0.00     0.025 C 
BRANCH  11  13
ATOM     13  C   UNL     1      -0.973   1.382   1.272  1.00  0.00    -0.027 A 
ATOM     14  C   UNL     1      -1.667   0.127   1.016  1.00  0.00     0.023 A 
ATOM     15  C   UNL     1      -1.691   2.517   1.145  1.00  0.00     0.076 A 
ATOM     16  C   UNL     1      -2.958   0.109   0.653  1.00  0.00     0.095 A 
ATOM     17  C   UNL     1      -3.116   2.522   0.708  1.00  0.00     0.255 A 
ATOM     18  N   UNL     1      -3.681   1.277   0.509  1.00  0.00    -0.258 N 
ATOM     19  O   UNL     1      -3.687   3.598   0.559  1.00  0.00    -0.269 OA
BRANCH  18  20
ATOM     20  C   UNL     1      -5.073   1.247   0.141  1.00  0.00     0.451 C 
ATOM     21  F   UNL     1      -5.839   1.882   1.063  1.00  0.00    -0.185 F 
ATOM     22  F   UNL     1      -5.279   1.845  -1.058  1.00  0.00    -0.185 F 
ENDBRANCH  18  20
ENDBRANCH  11  13
ENDBRANCH   9  11
ENDBRANCH   8   9
ENDBRANCH   7   8
ENDBRANCH   6   7
ENDBRANCH   5   6
ENDBRANCH   4   5
ENDBRANCH   3   4
ENDBRANCH   2   3
ENDBRANCH   1   2
BRANCH   1  23
ATOM     23  C   UNL     1       2.175   3.027  -4.369  1.00  0.00     0.188 C 
BRANCH  23  24
ATOM     24  O   UNL     1       0.853   2.560  -4.594  1.00  0.00    -0.376 OA
BRANCH  24  25
ATOM     25  C   UNL     1       0.626   1.645  -5.655  1.00  0.00     0.202 C 
BRANCH  25  26
ATOM     26  C   UNL     1       1.282   0.260  -5.543  1.00  0.00     0.261 C 
BRANCH  26  27
ATOM     27  O   UNL     1       2.716   0.240  -5.461  1.00  0.00    -0.460 OA
BRANCH  27  28
ATOM     28  C   UNL     1       3.410   0.814  -6.466  1.00  0.00     0.338 C 
ATOM     29  O   UNL     1       2.956   1.301  -7.488  1.00  0.00    -0.246 OA
BRANCH  28  30
ATOM     30  C   UNL     1       4.816   0.937  -6.029  1.00  0.00     0.060 A 
ATOM     31  C   UNL     1       5.396   2.211  -5.956  1.00  0.00     0.016 A 
ATOM     32  C   UNL     1       5.556  -0.198  -5.690  1.00  0.00     0.016 A 
ATOM     33  C   UNL     1       6.733   2.350  -5.583  1.00  0.00     0.010 A 
ATOM     34  C   UNL     1       6.902  -0.059  -5.338  1.00  0.00     0.010 A 
ATOM     35  C   UNL     1       7.506   1.212  -5.320  1.00  0.00    -0.014 A 
BRANCH  35  36
ATOM     36  C   UNL     1       8.982   1.329  -5.235  1.00  0.00     0.031 A 
ATOM     37  C   UNL     1       9.793   0.996  -6.460  1.00  0.00     0.074 A 
ATOM     38  C   UNL     1       9.594   1.741  -4.110  1.00  0.00     0.049 A 
ATOM     39  N   UNL     1      11.090   0.970  -6.615  1.00  0.00    -0.248 NA
ATOM     40  C   UNL     1       9.034   0.643  -7.672  1.00  0.00     0.031 C 
ATOM     41  C   UNL     1       8.920   2.142  -2.877  1.00  0.00     0.029 A 
ATOM     42  N   UNL     1      10.930   1.882  -3.826  1.00  0.00    -0.354 N 
ATOM     43  C   UNL     1      11.304   0.590  -7.935  1.00  0.00     0.074 A 
ATOM     44  C   UNL     1      10.005   0.363  -8.528  1.00  0.00     0.031 C 
ATOM     45  C   UNL     1       9.849   2.473  -1.962  1.00  0.00     0.029 A 
ATOM     46  C   UNL     1      11.180   2.270  -2.531  1.00  0.00     0.049 A 
ATOM     47  H   UNL     1      11.641   1.721  -4.487  1.00  0.00     0.167 HD
ATOM     48  C   UNL     1      12.476   0.448  -8.597  1.00  0.00     0.031 A 
ATOM     49  C   UNL     1      12.349   2.417  -1.874  1.00  0.00     0.031 A 
ATOM     50  C   UNL     1      13.768   0.656  -7.999  1.00  0.00     0.049 A 
ATOM     51  C   UNL     1      13.644   2.169  -2.607  1.00  0.00     0.074 A 
ATOM     52  C   UNL     1      15.015   0.542  -8.586  1.00  0.00     0.029 A 
ATOM     53  N   UNL     1      13.979   1.013  -6.675  1.00  0.00    -0.354 N 
ATOM     54  N   UNL     1      13.832   1.827  -3.860  1.00  0.00    -0.248 NA
ATOM     55  C   UNL     1      14.886   2.335  -1.839  1.00  0.00     0.031 C 
ATOM     56  C   UNL     1      15.982   0.765  -7.601  1.00  0.00     0.029 A 
ATOM     57  C   UNL     1      15.337   1.094  -6.420  1.00  0.00     0.049 A 
ATOM     58  H   UNL     1      13.268   1.183  -6.016  1.00  0.00     0.167 HD
ATOM     59  C   UNL     1      15.212   1.769  -4.037  1.00  0.00     0.074 A 
ATOM     60  C   UNL     1      15.809   2.126  -2.767  1.00  0.00     0.031 C 
ATOM     61  C   UNL     1      15.920   1.453  -5.150  1.00  0.00     0.031 A 
BRANCH  48  62
ATOM     62  C   UNL     1      12.414   0.009 -10.037  1.00  0.00    -0.014 A 
ATOM     63  C   UNL     1      11.917   0.860 -11.041  1.00  0.00     0.010 A 
ATOM     64  C   UNL     1      12.896  -1.263 -10.397  1.00  0.00     0.010 A 
ATOM     65  C   UNL     1      11.869   0.434 -12.371  1.00  0.00     0.020 A 
ATOM     66  C   UNL     1      12.880  -1.681 -11.731  1.00  0.00     0.020 A 
ATOM     67  C   UNL     1      12.352  -0.835 -12.707  1.00  0.00     0.054 A 
BRANCH  67  68
ATOM     68  S   UNL     1      12.303  -1.350 -14.445  1.00  0.00     0.124 S 
ATOM     69  O   UNL     1      10.870  -1.532 -14.666  1.00  0.00    -0.237 OA
ATOM     70  O   UNL     1      12.904  -0.210 -15.132  1.00  0.00    -0.237 OA
ATOM     71  O   UNL     1      13.096  -2.577 -14.467  1.00  0.00    -0.744 OA
ENDBRANCH  67  68
ENDBRANCH  48  62
BRANCH  49  72
ATOM     72  C   UNL     1      12.352   2.792  -0.431  1.00  0.00    -0.014 A 
ATOM     73  C   UNL     1      12.857   4.033  -0.007  1.00  0.00     0.010 A 
ATOM     74  C   UNL     1      11.855   1.894   0.532  1.00  0.00     0.010 A 
ATOM     75  C   UNL     1      12.882   4.362   1.353  1.00  0.00     0.020 A 
ATOM     76  C   UNL     1      11.848   2.231   1.888  1.00  0.00     0.020 A 
ATOM     77  C   UNL     1      12.372   3.460   2.291  1.00  0.00     0.054 A 
BRANCH  77  78
ATOM     78  S   UNL     1      12.368   3.929   4.044  1.00  0.00     0.124 S 
ATOM     79  O   UNL     1      13.787   3.870   4.379  1.00  0.00    -0.237 OA
ATOM     80  O   UNL     1      11.780   5.266   4.008  1.00  0.00    -0.237 OA
ATOM     81  O   UNL     1      11.533   2.906   4.670  1.00  0.00    -0.744 OA
ENDBRANCH  77  78
ENDBRANCH  49  72
BRANCH  61  82
ATOM     82  C   UNL     1      17.424   1.520  -5.067  1.00  0.00    -0.014 A 
ATOM     83  C   UNL     1      18.163   0.583  -4.323  1.00  0.00     0.010 A 
ATOM     84  C   UNL     1      18.113   2.505  -5.801  1.00  0.00     0.010 A 
ATOM     85  C   UNL     1      19.559   0.651  -4.288  1.00  0.00     0.020 A 
ATOM     86  C   UNL     1      19.509   2.556  -5.795  1.00  0.00     0.020 A 
ATOM     87  C   UNL     1      20.223   1.637  -5.026  1.00  0.00     0.054 A 
BRANCH  87  88
ATOM     88  S   UNL     1      22.037   1.674  -4.998  1.00  0.00     0.124 S 
ATOM     89  O   UNL     1      22.310   2.147  -3.644  1.00  0.00    -0.237 OA
ATOM     90  O   UNL     1      22.389   0.281  -5.261  1.00  0.00    -0.237 OA
ATOM     91  O   UNL     1      22.381   2.611  -6.066  1.00  0.00    -0.744 OA
ENDBRANCH  87  88
ENDBRANCH  61  82
ENDBRANCH  35  36
ENDBRANCH  28  30
ENDBRANCH  27  28
ENDBRANCH  26  27
ENDBRANCH  25  26
ENDBRANCH  24  25
ENDBRANCH  23  24
ENDBRANCH   1  23
TORSDOF 25
