REMARK SMILES CC[NH2+][C@]1(C(=O)OCCOCCOCCOCCOC(=O)c2ccc(-c3c4nc(c(-c5ccc(S(=O)(=O)[O-])cc5)c5ccc([nH]5)c(-c5ccc(S(=O)(=O)[O-])cc5)c5nc(c(-c6ccc(S(=O)(=O)[O-])cc6)c6ccc3[nH]6)C=C5)C=C4)cc2)CC[C@H](SC2COC2)C1
REMARK SMILES IDX 14 1 13 2 12 3 11 4 10 5 9 6 8 7 7 8 5 9 6 10 4 11 82 12
REMARK SMILES IDX 90 13 83 14 84 15 3 16 2 19 1 20 85 21 86 22 87 23 89 24
REMARK SMILES IDX 88 25 15 26 16 27 17 28 18 29 19 30 20 31 21 32 22 33 23 34
REMARK SMILES IDX 81 35 24 36 80 37 25 38 26 39 27 40 74 41 28 42 79 43 73 44
REMARK SMILES IDX 75 45 29 46 78 47 72 48 71 49 30 51 60 52 41 53 59 54 42 55
REMARK SMILES IDX 45 56 58 57 76 58 43 59 44 60 57 62 77 63 46 64 31 65 32 66
REMARK SMILES IDX 40 67 33 68 39 69 34 70 35 71 36 72 37 73 38 74 61 75 62 76
REMARK SMILES IDX 70 77 63 78 69 79 64 80 65 81 66 82 67 83 68 84 47 85 48 86
REMARK SMILES IDX 56 87 49 88 55 89 50 90 51 91 52 92 53 93 54 94
REMARK H PARENT 3 17 3 18 75 50 45 61
REMARK Flexibility Score: inf
ROOT
ATOM      1  C   UNL     1       0.050  -1.529  -3.423  1.00  0.00     0.188 C 
ENDROOT
BRANCH   1   2
ATOM      2  O   UNL     1      -0.470  -0.249  -3.739  1.00  0.00    -0.377 OA
BRANCH   2   3
ATOM      3  C   UNL     1       0.250   0.873  -3.248  1.00  0.00     0.188 C 
BRANCH   3   4
ATOM      4  C   UNL     1       1.789   0.830  -3.085  1.00  0.00     0.188 C 
BRANCH   4   5
ATOM      5  O   UNL     1       2.265  -0.321  -2.400  1.00  0.00    -0.376 OA
BRANCH   5   6
ATOM      6  C   UNL     1       2.617  -0.203  -1.031  1.00  0.00     0.202 C 
BRANCH   6   7
ATOM      7  C   UNL     1       1.495   0.197  -0.068  1.00  0.00     0.261 C 
BRANCH   7   8
ATOM      8  O   UNL     1       0.841   1.443  -0.363  1.00  0.00    -0.459 OA
BRANCH   8   9
ATOM      9  C   UNL     1       1.580   2.587  -0.375  1.00  0.00     0.368 C 
ATOM     10  O   UNL     1       2.780   2.632  -0.143  1.00  0.00    -0.245 OA
BRANCH   9  11
ATOM     11  C   UNL     1       0.704   3.802  -0.777  1.00  0.00     0.195 C 
ATOM     12  C   UNL     1       1.367   5.091  -0.288  1.00  0.00     0.082 C 
ATOM     13  C   UNL     1       0.675   4.111  -2.293  1.00  0.00     0.095 C 
ATOM     14  C   UNL     1       0.643   6.193  -1.044  1.00  0.00     0.022 C 
ATOM     15  C   UNL     1       0.294   5.612  -2.418  1.00  0.00     0.054 C 
BRANCH  11  16
ATOM     16  N   UNL     1      -0.708   3.604  -0.372  1.00  0.00    -0.332 N 
ATOM     17  H   UNL     1      -1.277   4.281  -0.880  1.00  0.00     0.347 HD
ATOM     18  H   UNL     1      -0.924   2.632  -0.591  1.00  0.00     0.347 HD
BRANCH  16  19
ATOM     19  C   UNL     1      -0.990   3.760   1.046  1.00  0.00     0.257 C 
ATOM     20  C   UNL     1      -2.429   3.344   1.308  1.00  0.00     0.071 C 
ENDBRANCH  16  19
ENDBRANCH  11  16
BRANCH  15  21
ATOM     21  S   UNL     1      -1.469   5.766  -2.869  1.00  0.00    -0.150 SA
BRANCH  21  22
ATOM     22  C   UNL     1      -1.810   7.521  -3.105  1.00  0.00     0.098 C 
ATOM     23  C   UNL     1      -1.446   8.520  -2.010  1.00  0.00     0.177 C 
ATOM     24  C   UNL     1      -0.851   8.331  -3.968  1.00  0.00     0.177 C 
ATOM     25  O   UNL     1      -0.881   9.425  -3.004  1.00  0.00    -0.379 OA
ENDBRANCH  21  22
ENDBRANCH  15  21
ENDBRANCH   9  11
ENDBRANCH   8   9
ENDBRANCH   7   8
ENDBRANCH   6   7
ENDBRANCH   5   6
ENDBRANCH   4   5
ENDBRANCH   3   4
ENDBRANCH   2   3
ENDBRANCH   1   2
BRANCH   1  26
ATOM     26  C   UNL     1       1.100  -1.992  -4.449  1.00  0.00     0.188 C 
BRANCH  26  27
ATOM     27  O   UNL     1       1.614  -0.941  -5.250  1.00  0.00    -0.376 OA
BRANCH  27  28
ATOM     28  C   UNL     1       0.968  -0.551  -6.451  1.00  0.00     0.202 C 
BRANCH  28  29
ATOM     29  C   UNL     1      -0.559  -0.529  -6.675  1.00  0.00     0.261 C 
BRANCH  29  30
ATOM     30  O   UNL     1      -1.367  -1.507  -6.022  1.00  0.00    -0.460 OA
BRANCH  30  31
ATOM     31  C   UNL     1      -1.284  -2.785  -6.435  1.00  0.00     0.338 C 
ATOM     32  O   UNL     1      -0.581  -3.228  -7.326  1.00  0.00    -0.246 OA
BRANCH  31  33
ATOM     33  C   UNL     1      -2.048  -3.587  -5.456  1.00  0.00     0.060 A 
ATOM     34  C   UNL     1      -1.380  -4.568  -4.711  1.00  0.00     0.016 A 
ATOM     35  C   UNL     1      -3.403  -3.325  -5.230  1.00  0.00     0.016 A 
ATOM     36  C   UNL     1      -2.069  -5.305  -3.751  1.00  0.00     0.010 A 
ATOM     37  C   UNL     1      -4.103  -4.090  -4.296  1.00  0.00     0.010 A 
ATOM     38  C   UNL     1      -3.444  -5.103  -3.578  1.00  0.00    -0.014 A 
BRANCH  38  39
ATOM     39  C   UNL     1      -4.233  -6.109  -2.834  1.00  0.00     0.031 A 
ATOM     40  C   UNL     1      -4.872  -7.216  -3.628  1.00  0.00     0.074 A 
ATOM     41  C   UNL     1      -4.361  -6.059  -1.497  1.00  0.00     0.049 A 
ATOM     42  N   UNL     1      -5.642  -8.188  -3.221  1.00  0.00    -0.248 NA
ATOM     43  C   UNL     1      -4.605  -7.223  -5.078  1.00  0.00     0.031 C 
ATOM     44  C   UNL     1      -3.745  -5.063  -0.621  1.00  0.00     0.029 A 
ATOM     45  N   UNL     1      -5.066  -6.869  -0.643  1.00  0.00    -0.354 N 
ATOM     46  C   UNL     1      -5.961  -8.914  -4.362  1.00  0.00     0.074 A 
ATOM     47  C   UNL     1      -5.321  -8.261  -5.481  1.00  0.00     0.031 C 
ATOM     48  C   UNL     1      -4.114  -5.313   0.648  1.00  0.00     0.029 A 
ATOM     49  C   UNL     1      -5.017  -6.462   0.669  1.00  0.00     0.049 A 
ATOM     50  H   UNL     1      -5.560  -7.666  -0.942  1.00  0.00     0.167 HD
ATOM     51  C   UNL     1      -6.720 -10.028  -4.468  1.00  0.00     0.031 A 
ATOM     52  C   UNL     1      -5.653  -6.949   1.754  1.00  0.00     0.031 A 
ATOM     53  C   UNL     1      -7.367 -10.664  -3.353  1.00  0.00     0.049 A 
ATOM     54  C   UNL     1      -6.557  -8.148   1.597  1.00  0.00     0.074 A 
ATOM     55  C   UNL     1      -8.147 -11.805  -3.350  1.00  0.00     0.029 A 
ATOM     56  N   UNL     1      -7.317 -10.206  -2.045  1.00  0.00    -0.354 N 
ATOM     57  N   UNL     1      -6.826  -8.844   0.517  1.00  0.00    -0.248 NA
ATOM     58  C   UNL     1      -7.236  -8.632   2.808  1.00  0.00     0.031 C 
ATOM     59  C   UNL     1      -8.623 -12.002  -2.051  1.00  0.00     0.029 A 
ATOM     60  C   UNL     1      -8.078 -11.025  -1.231  1.00  0.00     0.049 A 
ATOM     61  H   UNL     1      -6.815  -9.415  -1.741  1.00  0.00     0.167 HD
ATOM     62  C   UNL     1      -7.676  -9.868   0.926  1.00  0.00     0.074 A 
ATOM     63  C   UNL     1      -7.865  -9.707   2.353  1.00  0.00     0.031 C 
ATOM     64  C   UNL     1      -8.247 -10.854   0.190  1.00  0.00     0.031 A 
BRANCH  51  65
ATOM     65  C   UNL     1      -6.926 -10.607  -5.841  1.00  0.00    -0.014 A 
ATOM     66  C   UNL     1      -5.884 -11.257  -6.526  1.00  0.00     0.010 A 
ATOM     67  C   UNL     1      -8.201 -10.544  -6.433  1.00  0.00     0.010 A 
ATOM     68  C   UNL     1      -6.108 -11.814  -7.788  1.00  0.00     0.020 A 
ATOM     69  C   UNL     1      -8.437 -11.126  -7.681  1.00  0.00     0.020 A 
ATOM     70  C   UNL     1      -7.385 -11.749  -8.354  1.00  0.00     0.054 A 
BRANCH  70  71
ATOM     71  S   UNL     1      -7.660 -12.530  -9.968  1.00  0.00     0.124 S 
ATOM     72  O   UNL     1      -6.926 -11.638 -10.864  1.00  0.00    -0.237 OA
ATOM     73  O   UNL     1      -7.075 -13.855  -9.784  1.00  0.00    -0.237 OA
ATOM     74  O   UNL     1      -9.113 -12.508 -10.122  1.00  0.00    -0.744 OA
ENDBRANCH  70  71
ENDBRANCH  51  65
BRANCH  52  75
ATOM     75  C   UNL     1      -5.491  -6.289   3.080  1.00  0.00    -0.014 A 
ATOM     76  C   UNL     1      -4.850  -6.949   4.143  1.00  0.00     0.010 A 
ATOM     77  C   UNL     1      -6.005  -4.996   3.293  1.00  0.00     0.010 A 
ATOM     78  C   UNL     1      -4.752  -6.342   5.400  1.00  0.00     0.020 A 
ATOM     79  C   UNL     1      -5.880  -4.373   4.537  1.00  0.00     0.020 A 
ATOM     80  C   UNL     1      -5.267  -5.056   5.588  1.00  0.00     0.054 A 
BRANCH  80  81
ATOM     81  S   UNL     1      -5.097  -4.274   7.216  1.00  0.00     0.124 S 
ATOM     82  O   UNL     1      -6.054  -5.030   8.018  1.00  0.00    -0.237 OA
ATOM     83  O   UNL     1      -3.688  -4.502   7.529  1.00  0.00    -0.237 OA
ATOM     84  O   UNL     1      -5.453  -2.880   6.965  1.00  0.00    -0.744 OA
ENDBRANCH  80  81
ENDBRANCH  52  75
BRANCH  64  85
ATOM     85  C   UNL     1      -9.089 -11.872   0.915  1.00  0.00    -0.014 A 
ATOM     86  C   UNL     1     -10.351 -11.543   1.440  1.00  0.00     0.010 A 
ATOM     87  C   UNL     1      -8.633 -13.200   1.010  1.00  0.00     0.010 A 
ATOM     88  C   UNL     1     -11.127 -12.517   2.074  1.00  0.00     0.020 A 
ATOM     89  C   UNL     1      -9.419 -14.184   1.613  1.00  0.00     0.020 A 
ATOM     90  C   UNL     1     -10.656 -13.832   2.155  1.00  0.00     0.054 A 
BRANCH  90  91
ATOM     91  S   UNL     1     -11.703 -15.086   2.943  1.00  0.00     0.124 S 
ATOM     92  O   UNL     1     -11.611 -14.717   4.353  1.00  0.00    -0.237 OA
ATOM     93  O   UNL     1     -13.003 -14.858   2.316  1.00  0.00    -0.237 OA
ATOM     94  O   UNL     1     -11.060 -16.349   2.587  1.00  0.00    -0.744 OA
ENDBRANCH  90  91
ENDBRANCH  64  85
ENDBRANCH  38  39
ENDBRANCH  31  33
ENDBRANCH  30  31
ENDBRANCH  29  30
ENDBRANCH  28  29
ENDBRANCH  27  28
ENDBRANCH  26  27
ENDBRANCH   1  26
TORSDOF 27
