REMARK SMILES CCn1cccc1C(=O)N1CC[C@H](C(=O)OCCOCCOCCOCCOC(=O)c2ccc(-c3c4nc(c(-c5ccc(S(=O)(=O)[O-])cc5)c5ccc([nH]5)c(-c5ccc(S(=O)(=O)[O-])cc5)c5nc(c(-c6ccc(S(=O)(=O)[O-])cc6)c6ccc3[nH]6)C=C5)C=C4)cc2)[C@H]1C
REMARK SMILES IDX 22 1 21 2 20 3 19 4 18 5 17 6 16 7 14 8 15 9 13 10 10 11
REMARK SMILES IDX 11 12 91 13 12 14 92 15 8 16 9 17 7 18 3 19 4 20 5 21 6 22
REMARK SMILES IDX 2 23 1 24 23 25 24 26 25 27 26 28 27 29 28 30 29 31 30 32
REMARK SMILES IDX 31 33 32 34 90 35 33 36 89 37 34 38 35 39 36 40 83 41 37 42
REMARK SMILES IDX 88 43 82 44 84 45 38 46 87 47 81 48 80 49 39 51 69 52 50 53
REMARK SMILES IDX 68 54 51 55 54 56 67 57 85 58 52 59 53 60 66 62 86 63 55 64
REMARK SMILES IDX 40 65 41 66 49 67 42 68 48 69 43 70 44 71 45 72 46 73 47 74
REMARK SMILES IDX 70 75 71 76 79 77 72 78 78 79 73 80 74 81 75 82 76 83 77 84
REMARK SMILES IDX 56 85 57 86 65 87 58 88 64 89 59 90 60 91 61 92 62 93 63 94
REMARK H PARENT 84 50 54 61
REMARK Flexibility Score: inf
ROOT
ATOM      1  O   UNL     1      -6.183   0.580  -2.539  1.00  0.00    -0.377 OA
ENDROOT
BRANCH   1   2
ATOM      2  C   UNL     1      -5.260  -0.253  -1.851  1.00  0.00     0.188 C 
BRANCH   2   3
ATOM      3  C   UNL     1      -5.666  -1.551  -1.121  1.00  0.00     0.188 C 
BRANCH   3   4
ATOM      4  O   UNL     1      -6.913  -1.463  -0.444  1.00  0.00    -0.376 OA
BRANCH   4   5
ATOM      5  C   UNL     1      -6.811  -1.497   0.973  1.00  0.00     0.202 C 
BRANCH   5   6
ATOM      6  C   UNL     1      -6.419  -0.136   1.549  1.00  0.00     0.261 C 
BRANCH   6   7
ATOM      7  O   UNL     1      -5.114   0.329   1.148  1.00  0.00    -0.463 OA
BRANCH   7   8
ATOM      8  C   UNL     1      -4.027  -0.329   1.615  1.00  0.00     0.311 C 
ATOM      9  O   UNL     1      -4.076  -1.303   2.372  1.00  0.00    -0.252 OA
BRANCH   8  10
ATOM     10  C   UNL     1      -2.753   0.320   1.100  1.00  0.00     0.123 C 
ATOM     11  N   UNL     1      -0.996  -1.115   0.268  1.00  0.00    -0.334 N 
ATOM     12  C   UNL     1      -0.973  -1.127   1.721  1.00  0.00     0.121 C 
ATOM     13  C   UNL     1      -2.186  -0.359  -0.163  1.00  0.00     0.096 C 
ATOM     14  C   UNL     1      -1.626   0.182   2.120  1.00  0.00     0.039 C 
ATOM     15  C   UNL     1      -1.829   0.665  -1.241  1.00  0.00     0.032 C 
BRANCH  11  16
ATOM     16  C   UNL     1      -0.764  -2.342  -0.355  1.00  0.00     0.270 C 
ATOM     17  O   UNL     1      -1.606  -3.237  -0.253  1.00  0.00    -0.267 OA
BRANCH  16  18
ATOM     18  C   UNL     1       0.472  -2.527  -1.110  1.00  0.00     0.107 A 
ATOM     19  N   UNL     1       1.514  -1.659  -1.400  1.00  0.00    -0.344 N 
ATOM     20  C   UNL     1       2.451  -2.293  -2.189  1.00  0.00     0.086 A 
ATOM     21  C   UNL     1       2.038  -3.582  -2.408  1.00  0.00     0.020 A 
ATOM     22  C   UNL     1       0.811  -3.730  -1.732  1.00  0.00     0.033 A 
BRANCH  19  23
ATOM     23  C   UNL     1       1.658  -0.262  -1.034  1.00  0.00     0.119 C 
ATOM     24  C   UNL     1       2.277  -0.060   0.335  1.00  0.00     0.027 C 
ENDBRANCH  19  23
ENDBRANCH  16  18
ENDBRANCH  11  16
ENDBRANCH   8  10
ENDBRANCH   7   8
ENDBRANCH   6   7
ENDBRANCH   5   6
ENDBRANCH   4   5
ENDBRANCH   3   4
ENDBRANCH   2   3
ENDBRANCH   1   2
BRANCH   1  25
ATOM     25  C   UNL     1      -7.518   0.145  -2.708  1.00  0.00     0.188 C 
BRANCH  25  26
ATOM     26  C   UNL     1      -7.717  -1.148  -3.515  1.00  0.00     0.188 C 
BRANCH  26  27
ATOM     27  O   UNL     1      -6.524  -1.891  -3.744  1.00  0.00    -0.376 OA
BRANCH  27  28
ATOM     28  C   UNL     1      -5.992  -1.906  -5.059  1.00  0.00     0.202 C 
BRANCH  28  29
ATOM     29  C   UNL     1      -5.248  -0.629  -5.473  1.00  0.00     0.261 C 
BRANCH  29  30
ATOM     30  O   UNL     1      -6.037   0.562  -5.457  1.00  0.00    -0.460 OA
BRANCH  30  31
ATOM     31  C   UNL     1      -7.126   0.508  -6.212  1.00  0.00     0.338 C 
ATOM     32  O   UNL     1      -7.577  -0.470  -6.846  1.00  0.00    -0.246 OA
BRANCH  31  33
ATOM     33  C   UNL     1      -7.768   1.791  -6.297  1.00  0.00     0.060 A 
ATOM     34  C   UNL     1      -9.167   1.810  -6.221  1.00  0.00     0.016 A 
ATOM     35  C   UNL     1      -7.017   2.806  -6.898  1.00  0.00     0.016 A 
ATOM     36  C   UNL     1      -9.840   2.782  -6.921  1.00  0.00     0.010 A 
ATOM     37  C   UNL     1      -7.694   3.742  -7.642  1.00  0.00     0.010 A 
ATOM     38  C   UNL     1      -9.094   3.679  -7.696  1.00  0.00    -0.014 A 
BRANCH  38  39
ATOM     39  C   UNL     1      -9.811   4.561  -8.617  1.00  0.00     0.031 A 
ATOM     40  C   UNL     1     -10.137   5.896  -7.991  1.00  0.00     0.074 A 
ATOM     41  C   UNL     1     -10.093   4.034  -9.843  1.00  0.00     0.049 A 
ATOM     42  N   UNL     1     -11.068   6.733  -8.314  1.00  0.00    -0.248 NA
ATOM     43  C   UNL     1      -9.391   6.335  -6.780  1.00  0.00     0.031 C 
ATOM     44  C   UNL     1      -9.723   2.663 -10.265  1.00  0.00     0.029 A 
ATOM     45  N   UNL     1     -10.733   4.507 -10.966  1.00  0.00    -0.354 N 
ATOM     46  C   UNL     1     -10.924   7.848  -7.476  1.00  0.00     0.074 A 
ATOM     47  C   UNL     1      -9.950   7.508  -6.485  1.00  0.00     0.031 C 
ATOM     48  C   UNL     1     -10.194   2.400 -11.500  1.00  0.00     0.029 A 
ATOM     49  C   UNL     1     -10.882   3.568 -12.013  1.00  0.00     0.049 A 
ATOM     50  H   UNL     1     -11.064   5.432 -11.036  1.00  0.00     0.167 HD
ATOM     51  C   UNL     1     -11.528   9.040  -7.719  1.00  0.00     0.031 A 
ATOM     52  C   UNL     1     -11.539   3.699 -13.203  1.00  0.00     0.031 A 
ATOM     53  C   UNL     1     -12.354   8.973  -8.878  1.00  0.00     0.049 A 
ATOM     54  C   UNL     1     -11.970   5.108 -13.306  1.00  0.00     0.074 A 
ATOM     55  C   UNL     1     -13.564   8.380  -9.130  1.00  0.00     0.029 A 
ATOM     56  N   UNL     1     -11.758   9.292 -10.077  1.00  0.00    -0.354 N 
ATOM     57  N   UNL     1     -11.177   6.125 -13.460  1.00  0.00    -0.248 NA
ATOM     58  C   UNL     1     -13.394   5.431 -13.153  1.00  0.00     0.031 C 
ATOM     59  C   UNL     1     -13.485   7.984 -10.485  1.00  0.00     0.029 A 
ATOM     60  C   UNL     1     -12.278   8.440 -11.025  1.00  0.00     0.049 A 
ATOM     61  H   UNL     1     -11.088   9.996 -10.229  1.00  0.00     0.167 HD
ATOM     62  C   UNL     1     -11.946   7.183 -13.035  1.00  0.00     0.074 A 
ATOM     63  C   UNL     1     -13.324   6.760 -13.154  1.00  0.00     0.031 C 
ATOM     64  C   UNL     1     -11.433   8.070 -12.143  1.00  0.00     0.031 A 
BRANCH  51  65
ATOM     65  C   UNL     1     -11.257  10.376  -7.105  1.00  0.00    -0.014 A 
ATOM     66  C   UNL     1     -12.266  11.356  -7.226  1.00  0.00     0.010 A 
ATOM     67  C   UNL     1      -9.976  10.790  -6.705  1.00  0.00     0.010 A 
ATOM     68  C   UNL     1     -11.982  12.712  -7.071  1.00  0.00     0.020 A 
ATOM     69  C   UNL     1      -9.693  12.148  -6.512  1.00  0.00     0.020 A 
ATOM     70  C   UNL     1     -10.685  13.101  -6.750  1.00  0.00     0.054 A 
BRANCH  70  71
ATOM     71  S   UNL     1     -10.295  14.869  -6.740  1.00  0.00     0.124 S 
ATOM     72  O   UNL     1     -10.266  15.182  -8.165  1.00  0.00    -0.237 OA
ATOM     73  O   UNL     1     -11.417  15.438  -5.996  1.00  0.00    -0.237 OA
ATOM     74  O   UNL     1      -9.007  14.932  -6.053  1.00  0.00    -0.744 OA
ENDBRANCH  70  71
ENDBRANCH  51  65
BRANCH  52  75
ATOM     75  C   UNL     1     -12.004   2.759 -14.288  1.00  0.00    -0.014 A 
ATOM     76  C   UNL     1     -11.829   1.368 -14.290  1.00  0.00     0.010 A 
ATOM     77  C   UNL     1     -12.823   3.280 -15.325  1.00  0.00     0.010 A 
ATOM     78  C   UNL     1     -12.545   0.539 -15.179  1.00  0.00     0.020 A 
ATOM     79  C   UNL     1     -13.576   2.470 -16.179  1.00  0.00     0.020 A 
ATOM     80  C   UNL     1     -13.453   1.093 -16.082  1.00  0.00     0.054 A 
BRANCH  80  81
ATOM     81  S   UNL     1     -14.587   0.036 -17.024  1.00  0.00     0.124 S 
ATOM     82  O   UNL     1     -13.855  -0.176 -18.268  1.00  0.00    -0.237 OA
ATOM     83  O   UNL     1     -14.731  -1.140 -16.168  1.00  0.00    -0.237 OA
ATOM     84  O   UNL     1     -15.791   0.858 -17.136  1.00  0.00    -0.744 OA
ENDBRANCH  80  81
ENDBRANCH  52  75
BRANCH  64  85
ATOM     85  C   UNL     1      -9.916   8.188 -12.162  1.00  0.00    -0.014 A 
ATOM     86  C   UNL     1      -9.256   8.638 -13.320  1.00  0.00     0.010 A 
ATOM     87  C   UNL     1      -9.113   7.766 -11.084  1.00  0.00     0.010 A 
ATOM     88  C   UNL     1      -7.855   8.653 -13.403  1.00  0.00     0.020 A 
ATOM     89  C   UNL     1      -7.711   7.780 -11.153  1.00  0.00     0.020 A 
ATOM     90  C   UNL     1      -7.088   8.221 -12.319  1.00  0.00     0.054 A 
BRANCH  90  91
ATOM     91  S   UNL     1      -5.277   8.218 -12.467  1.00  0.00     0.124 S 
ATOM     92  O   UNL     1      -5.048   7.361 -13.627  1.00  0.00    -0.237 OA
ATOM     93  O   UNL     1      -4.974   9.633 -12.668  1.00  0.00    -0.237 OA
ATOM     94  O   UNL     1      -4.820   7.662 -11.194  1.00  0.00    -0.744 OA
ENDBRANCH  90  91
ENDBRANCH  64  85
ENDBRANCH  38  39
ENDBRANCH  31  33
ENDBRANCH  30  31
ENDBRANCH  29  30
ENDBRANCH  28  29
ENDBRANCH  27  28
ENDBRANCH  26  27
ENDBRANCH  25  26
ENDBRANCH   1  25
TORSDOF 26
