REMARK SMILES O=C(C[C@H]1C[N@@H+](Cc2c(F)cccc2F)CCO1)OCCOCCOCCOCCOC(=O)c1ccc(-c2c3nc(c(-c4ccc(S(=O)(=O)[O-])cc4)c4ccc([nH]4)c(-c4ccc(S(=O)(=O)[O-])cc4)c4nc(c(-c5ccc(S(=O)(=O)[O-])cc5)c5ccc2[nH]5)C=C4)C=C3)cc1
REMARK SMILES IDX 25 1 24 2 23 3 22 4 21 5 20 6 19 7 2 8 1 9 3 10 4 11 5 12
REMARK SMILES IDX 18 13 6 14 17 15 16 16 7 18 8 19 9 20 14 21 10 22 11 23
REMARK SMILES IDX 13 24 15 25 12 26 26 27 27 28 28 29 29 30 30 31 31 32 32 33
REMARK SMILES IDX 33 34 34 35 35 36 93 37 36 38 92 39 37 40 38 41 39 42 86 43
REMARK SMILES IDX 40 44 91 45 85 46 87 47 41 48 90 49 84 50 83 51 42 53 72 54
REMARK SMILES IDX 53 55 71 56 54 57 57 58 70 59 88 60 55 61 56 62 69 64 89 65
REMARK SMILES IDX 58 66 43 67 44 68 52 69 45 70 51 71 46 72 47 73 48 74 49 75
REMARK SMILES IDX 50 76 73 77 74 78 82 79 75 80 81 81 76 82 77 83 78 84 79 85
REMARK SMILES IDX 80 86 59 87 60 88 68 89 61 90 67 91 62 92 63 93 64 94 65 95
REMARK SMILES IDX 66 96
REMARK H PARENT 6 17 87 52 57 63
REMARK Flexibility Score: inf
ROOT
ATOM      1  O   UNL     1       7.765   4.387  -0.767  1.00  0.00    -0.377 OA
ENDROOT
BRANCH   1   2
ATOM      2  C   UNL     1       6.613   3.302  -0.857  1.00  0.00     0.188 C 
BRANCH   2   3
ATOM      3  C   UNL     1       4.424   3.471  -0.643  1.00  0.00     0.188 C 
BRANCH   3   4
ATOM      4  O   UNL     1       3.593   4.215   0.688  1.00  0.00    -0.376 OA
BRANCH   4   5
ATOM      5  C   UNL     1       4.120   5.033   1.907  1.00  0.00     0.202 C 
BRANCH   5   6
ATOM      6  C   UNL     1       5.420   4.525   3.086  1.00  0.00     0.261 C 
BRANCH   6   7
ATOM      7  O   UNL     1       6.608   3.295   2.895  1.00  0.00    -0.463 OA
BRANCH   7   8
ATOM      8  C   UNL     1       6.955   1.916   2.687  1.00  0.00     0.308 C 
ATOM      9  O   UNL     1       8.153   1.622   2.836  1.00  0.00    -0.252 OA
BRANCH   8  10
ATOM     10  C   UNL     1       5.931   0.535   2.253  1.00  0.00     0.160 C 
BRANCH  10  11
ATOM     11  C   UNL     1       4.296   0.124   1.585  1.00  0.00     0.184 C 
ATOM     12  C   UNL     1       3.533  -0.106   2.809  1.00  0.00     0.295 C 
ATOM     13  O   UNL     1       3.300   0.948   0.752  1.00  0.00    -0.366 OA
ATOM     14  N   UNL     1       3.463   1.290   3.235  1.00  0.00    -0.327 N 
ATOM     15  C   UNL     1       2.117   1.665   1.379  1.00  0.00     0.222 C 
ATOM     16  C   UNL     1       2.112   1.711   2.908  1.00  0.00     0.291 C 
ATOM     17  H   UNL     1       3.766   1.281   4.208  1.00  0.00     0.348 HD
BRANCH  14  18
ATOM     18  C   UNL     1       4.389   2.371   2.492  1.00  0.00     0.305 C 
BRANCH  18  19
ATOM     19  C   UNL     1       5.427   2.704   0.941  1.00  0.00     0.078 A 
ATOM     20  C   UNL     1       5.733   4.483   0.459  1.00  0.00     0.135 A 
ATOM     21  C   UNL     1       5.405   1.550  -0.443  1.00  0.00     0.135 A 
ATOM     22  F   UNL     1       6.400   5.371   1.214  1.00  0.00    -0.206 F 
ATOM     23  C   UNL     1       5.507   5.028  -1.264  1.00  0.00     0.040 A 
ATOM     24  C   UNL     1       5.332   2.078  -2.123  1.00  0.00     0.040 A 
ATOM     25  F   UNL     1       5.975   0.338  -0.308  1.00  0.00    -0.206 F 
ATOM     26  C   UNL     1       5.380   3.785  -2.547  1.00  0.00     0.006 A 
ENDBRANCH  18  19
ENDBRANCH  14  18
ENDBRANCH  10  11
ENDBRANCH   8  10
ENDBRANCH   7   8
ENDBRANCH   6   7
ENDBRANCH   5   6
ENDBRANCH   4   5
ENDBRANCH   3   4
ENDBRANCH   2   3
ENDBRANCH   1   2
BRANCH   1  27
ATOM     27  C   UNL     1       7.893   5.698  -1.348  1.00  0.00     0.188 C 
BRANCH  27  28
ATOM     28  C   UNL     1       7.644   5.928  -2.872  1.00  0.00     0.188 C 
BRANCH  28  29
ATOM     29  O   UNL     1       8.301   5.089  -3.801  1.00  0.00    -0.376 OA
BRANCH  29  30
ATOM     30  C   UNL     1       9.579   4.633  -3.399  1.00  0.00     0.202 C 
BRANCH  30  31
ATOM     31  C   UNL     1      10.697   5.689  -3.279  1.00  0.00     0.261 C 
BRANCH  31  32
ATOM     32  O   UNL     1      10.430   6.810  -2.403  1.00  0.00    -0.460 OA
BRANCH  32  33
ATOM     33  C   UNL     1       9.970   7.957  -2.969  1.00  0.00     0.338 C 
ATOM     34  O   UNL     1       9.840   8.174  -4.162  1.00  0.00    -0.246 OA
BRANCH  33  35
ATOM     35  C   UNL     1       9.398   8.842  -1.913  1.00  0.00     0.060 A 
ATOM     36  C   UNL     1       8.079   9.317  -2.050  1.00  0.00     0.016 A 
ATOM     37  C   UNL     1      10.163   9.240  -0.816  1.00  0.00     0.016 A 
ATOM     38  C   UNL     1       7.541  10.212  -1.123  1.00  0.00     0.010 A 
ATOM     39  C   UNL     1       9.643  10.180   0.084  1.00  0.00     0.010 A 
ATOM     40  C   UNL     1       8.350  10.706  -0.096  1.00  0.00    -0.014 A 
BRANCH  40  41
ATOM     41  C   UNL     1       7.962  11.977   0.567  1.00  0.00     0.031 A 
ATOM     42  C   UNL     1       8.504  13.256  -0.023  1.00  0.00     0.074 A 
ATOM     43  C   UNL     1       7.122  12.013   1.617  1.00  0.00     0.049 A 
ATOM     44  N   UNL     1       8.364  14.488   0.387  1.00  0.00    -0.248 NA
ATOM     45  C   UNL     1       9.315  13.120  -1.248  1.00  0.00     0.031 C 
ATOM     46  C   UNL     1       6.477  10.853   2.229  1.00  0.00     0.029 A 
ATOM     47  N   UNL     1       6.670  13.079   2.357  1.00  0.00    -0.354 N 
ATOM     48  C   UNL     1       9.071  15.270  -0.521  1.00  0.00     0.074 A 
ATOM     49  C   UNL     1       9.667  14.374  -1.485  1.00  0.00     0.031 C 
ATOM     50  C   UNL     1       5.729  11.268   3.268  1.00  0.00     0.029 A 
ATOM     51  C   UNL     1       5.870  12.716   3.416  1.00  0.00     0.049 A 
ATOM     52  H   UNL     1       6.898  14.014   2.149  1.00  0.00     0.167 HD
ATOM     53  C   UNL     1       9.208  16.615  -0.555  1.00  0.00     0.031 A 
ATOM     54  C   UNL     1       5.343  13.467   4.405  1.00  0.00     0.031 A 
ATOM     55  C   UNL     1       8.631  17.500   0.420  1.00  0.00     0.049 A 
ATOM     56  C   UNL     1       5.593  14.957   4.401  1.00  0.00     0.074 A 
ATOM     57  C   UNL     1       8.716  18.879   0.489  1.00  0.00     0.029 A 
ATOM     58  N   UNL     1       7.864  17.090   1.501  1.00  0.00    -0.354 N 
ATOM     59  N   UNL     1       6.256  15.684   3.531  1.00  0.00    -0.248 NA
ATOM     60  C   UNL     1       5.010  15.729   5.507  1.00  0.00     0.031 C 
ATOM     61  C   UNL     1       8.057  19.297   1.649  1.00  0.00     0.029 A 
ATOM     62  C   UNL     1       7.492  18.187   2.258  1.00  0.00     0.049 A 
ATOM     63  H   UNL     1       7.620  16.158   1.699  1.00  0.00     0.167 HD
ATOM     64  C   UNL     1       6.144  17.000   3.971  1.00  0.00     0.074 A 
ATOM     65  C   UNL     1       5.321  16.970   5.162  1.00  0.00     0.031 C 
ATOM     66  C   UNL     1       6.676  18.133   3.445  1.00  0.00     0.031 A 
BRANCH  53  67
ATOM     67  C   UNL     1      10.036  17.211  -1.665  1.00  0.00    -0.014 A 
ATOM     68  C   UNL     1       9.584  17.204  -2.997  1.00  0.00     0.010 A 
ATOM     69  C   UNL     1      11.258  17.840  -1.362  1.00  0.00     0.010 A 
ATOM     70  C   UNL     1      10.344  17.803  -4.006  1.00  0.00     0.020 A 
ATOM     71  C   UNL     1      12.005  18.467  -2.363  1.00  0.00     0.020 A 
ATOM     72  C   UNL     1      11.545  18.439  -3.680  1.00  0.00     0.054 A 
BRANCH  72  73
ATOM     73  S   UNL     1      12.472  19.269  -5.001  1.00  0.00     0.124 S 
ATOM     74  O   UNL     1      12.924  18.140  -5.810  1.00  0.00    -0.237 OA
ATOM     75  O   UNL     1      11.453  20.116  -5.617  1.00  0.00    -0.237 OA
ATOM     76  O   UNL     1      13.527  19.986  -4.289  1.00  0.00    -0.744 OA
ENDBRANCH  72  73
ENDBRANCH  53  67
BRANCH  54  77
ATOM     77  C   UNL     1       4.569  12.831   5.511  1.00  0.00    -0.014 A 
ATOM     78  C   UNL     1       3.211  13.133   5.719  1.00  0.00     0.010 A 
ATOM     79  C   UNL     1       5.208  11.945   6.399  1.00  0.00     0.010 A 
ATOM     80  C   UNL     1       2.519  12.592   6.809  1.00  0.00     0.020 A 
ATOM     81  C   UNL     1       4.511  11.371   7.466  1.00  0.00     0.020 A 
ATOM     82  C   UNL     1       3.175  11.712   7.674  1.00  0.00     0.054 A 
BRANCH  82  83
ATOM     83  S   UNL     1       2.250  11.000   9.064  1.00  0.00     0.124 S 
ATOM     84  O   UNL     1       2.065  12.157   9.932  1.00  0.00    -0.237 OA
ATOM     85  O   UNL     1       1.044  10.496   8.411  1.00  0.00    -0.237 OA
ATOM     86  O   UNL     1       3.147   9.967   9.578  1.00  0.00    -0.744 OA
ENDBRANCH  82  83
ENDBRANCH  54  77
BRANCH  66  87
ATOM     87  C   UNL     1       6.348  19.434   4.134  1.00  0.00    -0.014 A 
ATOM     88  C   UNL     1       6.829  19.724   5.423  1.00  0.00     0.010 A 
ATOM     89  C   UNL     1       5.559  20.391   3.468  1.00  0.00     0.010 A 
ATOM     90  C   UNL     1       6.473  20.917   6.059  1.00  0.00     0.020 A 
ATOM     91  C   UNL     1       5.237  21.603   4.083  1.00  0.00     0.020 A 
ATOM     92  C   UNL     1       5.676  21.847   5.385  1.00  0.00     0.054 A 
BRANCH  92  93
ATOM     93  S   UNL     1       5.231  23.387   6.232  1.00  0.00     0.124 S 
ATOM     94  O   UNL     1       4.295  22.915   7.248  1.00  0.00    -0.237 OA
ATOM     95  O   UNL     1       6.520  23.858   6.733  1.00  0.00    -0.237 OA
ATOM     96  O   UNL     1       4.642  24.207   5.176  1.00  0.00    -0.744 OA
ENDBRANCH  92  93
ENDBRANCH  66  87
ENDBRANCH  40  41
ENDBRANCH  33  35
ENDBRANCH  32  33
ENDBRANCH  31  32
ENDBRANCH  30  31
ENDBRANCH  29  30
ENDBRANCH  28  29
ENDBRANCH  27  28
ENDBRANCH   1  27
TORSDOF 26
