REMARK SMILES O=C(OCCOCCOCCOCCOC(=O)[C@@H]1C[NH2+]C[C@H](c2ccc(F)cc2)C1)c1ccc(-c2c3nc(c(-c4ccc(S(=O)(=O)[O-])cc4)c4ccc([nH]4)c(-c4ccc(S(=O)(=O)[O-])cc4)c4nc(c(-c5ccc(S(=O)(=O)[O-])cc5)c5ccc2[nH]5)C=C4)C=C3)cc1
REMARK SMILES IDX 8 1 7 2 6 3 5 4 4 5 3 6 2 7 1 8 31 9 32 10 90 11 33 12 89 13
REMARK SMILES IDX 34 14 35 15 36 16 83 17 37 18 88 19 82 20 84 21 38 22 87 23
REMARK SMILES IDX 81 24 80 25 39 27 69 28 50 29 68 30 51 31 54 32 67 33 85 34
REMARK SMILES IDX 52 35 53 36 66 38 86 39 55 40 40 41 41 42 49 43 42 44 48 45
REMARK SMILES IDX 43 46 44 47 45 48 46 49 47 50 70 51 71 52 79 53 72 54 78 55
REMARK SMILES IDX 73 56 74 57 75 58 76 59 77 60 56 61 57 62 65 63 58 64 64 65
REMARK SMILES IDX 59 66 60 67 61 68 62 69 63 70 9 71 10 72 11 73 12 74 13 75
REMARK SMILES IDX 14 76 15 77 16 78 17 79 18 80 19 81 30 82 20 83 22 84 21 85
REMARK SMILES IDX 23 88 24 89 29 90 25 91 28 92 26 93 27 94
REMARK H PARENT 84 26 54 37 20 86 20 87
REMARK Flexibility Score: inf
ROOT
ATOM      1  C   UNL     1       6.936   6.295   2.453  1.00  0.00     0.188 C 
ENDROOT
BRANCH   1   2
ATOM      2  C   UNL     1       8.396   5.938   2.227  1.00  0.00     0.188 C 
BRANCH   2   3
ATOM      3  O   UNL     1       8.516   4.617   1.704  1.00  0.00    -0.376 OA
BRANCH   3   4
ATOM      4  C   UNL     1       9.492   3.787   2.329  1.00  0.00     0.202 C 
BRANCH   4   5
ATOM      5  C   UNL     1      10.928   4.066   1.892  1.00  0.00     0.261 C 
BRANCH   5   6
ATOM      6  O   UNL     1      11.162   5.446   1.580  1.00  0.00    -0.460 OA
BRANCH   6   7
ATOM      7  C   UNL     1      10.994   6.077   0.391  1.00  0.00     0.338 C 
ATOM      8  O   UNL     1      11.311   7.266   0.328  1.00  0.00    -0.246 OA
BRANCH   7   9
ATOM      9  C   UNL     1      10.414   5.449  -0.842  1.00  0.00     0.060 A 
ATOM     10  C   UNL     1       9.614   4.306  -0.879  1.00  0.00     0.016 A 
ATOM     11  C   UNL     1      10.633   6.122  -2.057  1.00  0.00     0.016 A 
ATOM     12  C   UNL     1       9.046   3.837  -2.049  1.00  0.00     0.010 A 
ATOM     13  C   UNL     1      10.092   5.644  -3.255  1.00  0.00     0.010 A 
ATOM     14  C   UNL     1       9.312   4.484  -3.245  1.00  0.00    -0.014 A 
BRANCH  14  15
ATOM     15  C   UNL     1       8.970   3.748  -4.468  1.00  0.00     0.031 A 
ATOM     16  C   UNL     1      10.074   2.968  -5.115  1.00  0.00     0.074 A 
ATOM     17  C   UNL     1       7.686   3.626  -4.842  1.00  0.00     0.049 A 
ATOM     18  N   UNL     1      10.056   2.263  -6.210  1.00  0.00    -0.248 NA
ATOM     19  C   UNL     1      11.374   2.965  -4.416  1.00  0.00     0.031 C 
ATOM     20  C   UNL     1       6.538   4.198  -4.129  1.00  0.00     0.029 A 
ATOM     21  N   UNL     1       7.125   2.949  -5.889  1.00  0.00    -0.354 N 
ATOM     22  C   UNL     1      11.348   1.771  -6.352  1.00  0.00     0.074 A 
ATOM     23  C   UNL     1      12.125   2.248  -5.235  1.00  0.00     0.031 C 
ATOM     24  C   UNL     1       5.409   3.840  -4.762  1.00  0.00     0.029 A 
ATOM     25  C   UNL     1       5.759   3.083  -5.957  1.00  0.00     0.049 A 
ATOM     26  H   UNL     1       7.649   2.418  -6.531  1.00  0.00     0.167 HD
ATOM     27  C   UNL     1      11.834   0.999  -7.349  1.00  0.00     0.031 A 
ATOM     28  C   UNL     1       4.908   2.672  -6.916  1.00  0.00     0.031 A 
ATOM     29  C   UNL     1      11.021   0.563  -8.448  1.00  0.00     0.049 A 
ATOM     30  C   UNL     1       5.497   1.933  -8.089  1.00  0.00     0.074 A 
ATOM     31  C   UNL     1      11.391  -0.147  -9.572  1.00  0.00     0.029 A 
ATOM     32  N   UNL     1       9.656   0.807  -8.550  1.00  0.00    -0.354 N 
ATOM     33  N   UNL     1       6.741   1.554  -8.280  1.00  0.00    -0.248 NA
ATOM     34  C   UNL     1       4.582   1.580  -9.178  1.00  0.00     0.031 C 
ATOM     35  C   UNL     1      10.260  -0.278 -10.384  1.00  0.00     0.029 A 
ATOM     36  C   UNL     1       9.170   0.283  -9.731  1.00  0.00     0.049 A 
ATOM     37  H   UNL     1       9.116   1.283  -7.879  1.00  0.00     0.167 HD
ATOM     38  C   UNL     1       6.756   0.897  -9.502  1.00  0.00     0.074 A 
ATOM     39  C   UNL     1       5.390   0.916  -9.994  1.00  0.00     0.031 C 
ATOM     40  C   UNL     1       7.795   0.330 -10.166  1.00  0.00     0.031 A 
BRANCH  27  41
ATOM     41  C   UNL     1      13.307   0.697  -7.328  1.00  0.00    -0.014 A 
ATOM     42  C   UNL     1      13.876  -0.173  -6.380  1.00  0.00     0.010 A 
ATOM     43  C   UNL     1      14.147   1.338  -8.257  1.00  0.00     0.010 A 
ATOM     44  C   UNL     1      15.261  -0.363  -6.336  1.00  0.00     0.020 A 
ATOM     45  C   UNL     1      15.528   1.129  -8.235  1.00  0.00     0.020 A 
ATOM     46  C   UNL     1      16.078   0.291  -7.263  1.00  0.00     0.054 A 
BRANCH  46  47
ATOM     47  S   UNL     1      17.870   0.019  -7.191  1.00  0.00     0.124 S 
ATOM     48  O   UNL     1      18.236   0.737  -5.972  1.00  0.00    -0.237 OA
ATOM     49  O   UNL     1      17.969  -1.436  -7.116  1.00  0.00    -0.237 OA
ATOM     50  O   UNL     1      18.362   0.612  -8.433  1.00  0.00    -0.744 OA
ENDBRANCH  46  47
ENDBRANCH  27  41
BRANCH  28  51
ATOM     51  C   UNL     1       3.461   3.022  -6.845  1.00  0.00    -0.014 A 
ATOM     52  C   UNL     1       2.472   2.028  -6.743  1.00  0.00     0.010 A 
ATOM     53  C   UNL     1       3.060   4.372  -6.884  1.00  0.00     0.010 A 
ATOM     54  C   UNL     1       1.116   2.376  -6.701  1.00  0.00     0.020 A 
ATOM     55  C   UNL     1       1.710   4.726  -6.810  1.00  0.00     0.020 A 
ATOM     56  C   UNL     1       0.744   3.723  -6.734  1.00  0.00     0.054 A 
BRANCH  56  57
ATOM     57  S   UNL     1      -1.018   4.152  -6.649  1.00  0.00     0.124 S 
ATOM     58  O   UNL     1      -1.500   3.719  -7.956  1.00  0.00    -0.237 OA
ATOM     59  O   UNL     1      -1.478   3.363  -5.509  1.00  0.00    -0.237 OA
ATOM     60  O   UNL     1      -1.008   5.598  -6.432  1.00  0.00    -0.744 OA
ENDBRANCH  56  57
ENDBRANCH  28  51
BRANCH  40  61
ATOM     61  C   UNL     1       7.478  -0.351 -11.466  1.00  0.00    -0.014 A 
ATOM     62  C   UNL     1       7.170   0.389 -12.620  1.00  0.00     0.010 A 
ATOM     63  C   UNL     1       7.570  -1.752 -11.543  1.00  0.00     0.010 A 
ATOM     64  C   UNL     1       6.931  -0.268 -13.827  1.00  0.00     0.020 A 
ATOM     65  C   UNL     1       7.367  -2.409 -12.755  1.00  0.00     0.020 A 
ATOM     66  C   UNL     1       7.036  -1.662 -13.887  1.00  0.00     0.054 A 
BRANCH  66  67
ATOM     67  S   UNL     1       6.780  -2.485 -15.480  1.00  0.00     0.124 S 
ATOM     68  O   UNL     1       5.335  -2.364 -15.655  1.00  0.00    -0.237 OA
ATOM     69  O   UNL     1       7.593  -1.680 -16.389  1.00  0.00    -0.237 OA
ATOM     70  O   UNL     1       7.269  -3.842 -15.252  1.00  0.00    -0.744 OA
ENDBRANCH  66  67
ENDBRANCH  40  61
ENDBRANCH  14  15
ENDBRANCH   7   9
ENDBRANCH   6   7
ENDBRANCH   5   6
ENDBRANCH   4   5
ENDBRANCH   3   4
ENDBRANCH   2   3
ENDBRANCH   1   2
BRANCH   1  71
ATOM     71  O   UNL     1       6.255   5.422   3.346  1.00  0.00    -0.377 OA
BRANCH  71  72
ATOM     72  C   UNL     1       6.289   4.025   3.069  1.00  0.00     0.188 C 
BRANCH  72  73
ATOM     73  C   UNL     1       5.762   3.465   1.743  1.00  0.00     0.188 C 
BRANCH  73  74
ATOM     74  O   UNL     1       5.535   4.465   0.784  1.00  0.00    -0.376 OA
BRANCH  74  75
ATOM     75  C   UNL     1       4.200   4.883   0.575  1.00  0.00     0.202 C 
BRANCH  75  76
ATOM     76  C   UNL     1       3.171   5.071   1.719  1.00  0.00     0.261 C 
BRANCH  76  77
ATOM     77  O   UNL     1       3.596   5.017   3.094  1.00  0.00    -0.463 OA
BRANCH  77  78
ATOM     78  C   UNL     1       3.257   3.944   3.867  1.00  0.00     0.314 C 
ATOM     79  O   UNL     1       2.772   2.905   3.422  1.00  0.00    -0.252 OA
BRANCH  78  80
ATOM     80  C   UNL     1       3.530   4.159   5.369  1.00  0.00     0.155 C 
ATOM     81  C   UNL     1       3.965   5.598   5.664  1.00  0.00     0.275 C 
ATOM     82  C   UNL     1       4.505   3.148   6.051  1.00  0.00     0.035 C 
ATOM     83  N   UNL     1       4.048   5.853   7.104  1.00  0.00    -0.345 N 
ATOM     84  C   UNL     1       4.679   3.470   7.555  1.00  0.00     0.075 C 
ATOM     85  C   UNL     1       5.041   4.968   7.714  1.00  0.00     0.268 C 
ATOM     86  H   UNL     1       3.137   5.683   7.530  1.00  0.00     0.346 HD
ATOM     87  H   UNL     1       4.326   6.822   7.256  1.00  0.00     0.346 HD
BRANCH  84  88
ATOM     88  C   UNL     1       5.694   2.660   8.369  1.00  0.00    -0.039 A 
ATOM     89  C   UNL     1       5.628   2.780   9.775  1.00  0.00     0.007 A 
ATOM     90  C   UNL     1       6.736   1.894   7.824  1.00  0.00     0.007 A 
ATOM     91  C   UNL     1       6.588   2.204  10.606  1.00  0.00     0.039 A 
ATOM     92  C   UNL     1       7.693   1.300   8.663  1.00  0.00     0.039 A 
ATOM     93  C   UNL     1       7.617   1.471  10.041  1.00  0.00     0.123 A 
ATOM     94  F   UNL     1       8.552   0.931  10.834  1.00  0.00    -0.207 F 
ENDBRANCH  84  88
ENDBRANCH  78  80
ENDBRANCH  77  78
ENDBRANCH  76  77
ENDBRANCH  75  76
ENDBRANCH  74  75
ENDBRANCH  73  74
ENDBRANCH  72  73
ENDBRANCH  71  72
ENDBRANCH   1  71
TORSDOF 24
