REMARK SMILES COc1cnc(SCC(=O)OCCOCCOCCOCCOC(=O)c2ccc(-c3c4nc(c(-c5ccc(S(=O)(=O)[O-])cc5)c5ccc([nH]5)c(-c5ccc(S(=O)(=O)[O-])cc5)c5nc(c(-c6ccc(S(=O)(=O)[O-])cc6)c6ccc3[nH]6)C=C5)C=C4)cc2)[nH]c1=O
REMARK SMILES IDX 17 1 16 2 15 3 14 4 13 5 12 6 11 7 9 8 10 9 8 10 7 11 6 12
REMARK SMILES IDX 3 13 4 14 87 15 5 16 86 17 88 18 2 20 1 21 18 22 19 23 20 24
REMARK SMILES IDX 21 25 22 26 23 27 24 28 25 29 26 30 27 31 85 32 28 33 84 34
REMARK SMILES IDX 29 35 30 36 31 37 78 38 32 39 83 40 77 41 79 42 33 43 82 44
REMARK SMILES IDX 76 45 75 46 34 48 64 49 45 50 63 51 46 52 49 53 62 54 80 55
REMARK SMILES IDX 47 56 48 57 61 59 81 60 50 61 35 62 36 63 44 64 37 65 43 66
REMARK SMILES IDX 38 67 39 68 40 69 41 70 42 71 65 72 66 73 74 74 67 75 73 76
REMARK SMILES IDX 68 77 69 78 70 79 71 80 72 81 51 82 52 83 60 84 53 85 59 86
REMARK SMILES IDX 54 87 55 88 56 89 57 90 58 91
REMARK H PARENT 86 19 79 47 49 58
REMARK Flexibility Score: inf
ROOT
ATOM      1  O   UNL     1       1.600  -5.357  -1.875  1.00  0.00    -0.377 OA
ENDROOT
BRANCH   1   2
ATOM      2  C   UNL     1       0.594  -4.973  -2.784  1.00  0.00     0.188 C 
BRANCH   2   3
ATOM      3  C   UNL     1      -0.857  -5.466  -2.933  1.00  0.00     0.188 C 
BRANCH   3   4
ATOM      4  O   UNL     1      -1.204  -6.780  -2.581  1.00  0.00    -0.376 OA
BRANCH   4   5
ATOM      5  C   UNL     1      -0.706  -7.917  -3.247  1.00  0.00     0.202 C 
BRANCH   5   6
ATOM      6  C   UNL     1       0.107  -7.919  -4.559  1.00  0.00     0.261 C 
BRANCH   6   7
ATOM      7  O   UNL     1       0.668  -6.680  -5.034  1.00  0.00    -0.463 OA
BRANCH   7   8
ATOM      8  C   UNL     1       0.069  -6.104  -6.105  1.00  0.00     0.316 C 
ATOM      9  O   UNL     1      -0.897  -6.612  -6.674  1.00  0.00    -0.251 OA
BRANCH   8  10
ATOM     10  C   UNL     1       0.594  -4.751  -6.574  1.00  0.00     0.200 C 
BRANCH  10  11
ATOM     11  S   UNL     1       2.091  -4.004  -5.872  1.00  0.00    -0.076 SA
BRANCH  11  12
ATOM     12  C   UNL     1       1.473  -2.748  -4.819  1.00  0.00     0.168 A 
ATOM     13  C   UNL     1       0.703  -0.955  -2.866  1.00  0.00     0.202 A 
ATOM     14  C   UNL     1      -0.124  -1.551  -3.740  1.00  0.00     0.166 A 
ATOM     15  C   UNL     1       2.160  -1.216  -3.098  1.00  0.00     0.293 A 
ATOM     16  N   UNL     1       0.223  -2.434  -4.741  1.00  0.00    -0.229 NA
ATOM     17  N   UNL     1       2.436  -2.173  -4.042  1.00  0.00    -0.298 N 
ATOM     18  O   UNL     1       3.055  -0.629  -2.500  1.00  0.00    -0.265 OA
ATOM     19  H   UNL     1       3.371  -2.457  -4.165  1.00  0.00     0.172 HD
BRANCH  13  20
ATOM     20  O   UNL     1       0.161  -0.236  -1.812  1.00  0.00    -0.490 OA
ATOM     21  C   UNL     1       1.004   0.258  -0.777  1.00  0.00     0.278 C 
ENDBRANCH  13  20
ENDBRANCH  11  12
ENDBRANCH  10  11
ENDBRANCH   8  10
ENDBRANCH   7   8
ENDBRANCH   6   7
ENDBRANCH   5   6
ENDBRANCH   4   5
ENDBRANCH   3   4
ENDBRANCH   2   3
ENDBRANCH   1   2
BRANCH   1  22
ATOM     22  C   UNL     1       1.363  -6.427  -1.000  1.00  0.00     0.188 C 
BRANCH  22  23
ATOM     23  C   UNL     1       0.328  -6.117   0.082  1.00  0.00     0.188 C 
BRANCH  23  24
ATOM     24  O   UNL     1      -0.456  -4.969  -0.208  1.00  0.00    -0.376 OA
BRANCH  24  25
ATOM     25  C   UNL     1      -0.053  -3.717   0.332  1.00  0.00     0.202 C 
BRANCH  25  26
ATOM     26  C   UNL     1       1.370  -3.171   0.117  1.00  0.00     0.261 C 
BRANCH  26  27
ATOM     27  O   UNL     1       2.462  -4.034   0.423  1.00  0.00    -0.460 OA
BRANCH  27  28
ATOM     28  C   UNL     1       2.647  -4.367   1.710  1.00  0.00     0.338 C 
ATOM     29  O   UNL     1       1.992  -4.007   2.674  1.00  0.00    -0.246 OA
BRANCH  28  30
ATOM     30  C   UNL     1       3.654  -5.438   1.696  1.00  0.00     0.060 A 
ATOM     31  C   UNL     1       3.266  -6.710   2.128  1.00  0.00     0.016 A 
ATOM     32  C   UNL     1       4.935  -5.208   1.180  1.00  0.00     0.016 A 
ATOM     33  C   UNL     1       4.170  -7.761   2.064  1.00  0.00     0.010 A 
ATOM     34  C   UNL     1       5.853  -6.255   1.148  1.00  0.00     0.010 A 
ATOM     35  C   UNL     1       5.478  -7.523   1.623  1.00  0.00    -0.014 A 
BRANCH  35  36
ATOM     36  C   UNL     1       6.496  -8.553   1.897  1.00  0.00     0.031 A 
ATOM     37  C   UNL     1       7.289  -8.424   3.164  1.00  0.00     0.074 A 
ATOM     38  C   UNL     1       6.641  -9.611   1.084  1.00  0.00     0.049 A 
ATOM     39  N   UNL     1       8.192  -9.225   3.663  1.00  0.00    -0.248 NA
ATOM     40  C   UNL     1       7.022  -7.228   3.982  1.00  0.00     0.031 C 
ATOM     41  C   UNL     1       5.878  -9.844  -0.142  1.00  0.00     0.029 A 
ATOM     42  N   UNL     1       7.476 -10.692   1.176  1.00  0.00    -0.354 N 
ATOM     43  C   UNL     1       8.602  -8.629   4.849  1.00  0.00     0.074 A 
ATOM     44  C   UNL     1       7.881  -7.383   4.976  1.00  0.00     0.031 C 
ATOM     45  C   UNL     1       6.286 -11.000  -0.692  1.00  0.00     0.029 A 
ATOM     46  C   UNL     1       7.357 -11.566   0.125  1.00  0.00     0.049 A 
ATOM     47  H   UNL     1       8.102 -10.828   1.924  1.00  0.00     0.167 HD
ATOM     48  C   UNL     1       9.499  -9.085   5.754  1.00  0.00     0.031 A 
ATOM     49  C   UNL     1       8.053 -12.686  -0.151  1.00  0.00     0.031 A 
ATOM     50  C   UNL     1      10.235 -10.309   5.584  1.00  0.00     0.049 A 
ATOM     51  C   UNL     1       9.103 -13.140   0.826  1.00  0.00     0.074 A 
ATOM     52  C   UNL     1      11.172 -10.877   6.426  1.00  0.00     0.029 A 
ATOM     53  N   UNL     1      10.126 -11.145   4.479  1.00  0.00    -0.354 N 
ATOM     54  N   UNL     1       9.466 -12.586   1.961  1.00  0.00    -0.248 NA
ATOM     55  C   UNL     1       9.828 -14.372   0.496  1.00  0.00     0.031 C 
ATOM     56  C   UNL     1      11.683 -12.017   5.796  1.00  0.00     0.029 A 
ATOM     57  C   UNL     1      11.008 -12.205   4.598  1.00  0.00     0.049 A 
ATOM     58  H   UNL     1       9.513 -11.004   3.723  1.00  0.00     0.167 HD
ATOM     59  C   UNL     1      10.452 -13.411   2.490  1.00  0.00     0.074 A 
ATOM     60  C   UNL     1      10.610 -14.512   1.559  1.00  0.00     0.031 C 
ATOM     61  C   UNL     1      11.160 -13.275   3.641  1.00  0.00     0.031 A 
BRANCH  48  62
ATOM     62  C   UNL     1       9.770  -8.212   6.953  1.00  0.00    -0.014 A 
ATOM     63  C   UNL     1       8.784  -7.971   7.929  1.00  0.00     0.010 A 
ATOM     64  C   UNL     1      11.024  -7.592   7.086  1.00  0.00     0.010 A 
ATOM     65  C   UNL     1       9.027  -7.077   8.977  1.00  0.00     0.020 A 
ATOM     66  C   UNL     1      11.284  -6.725   8.151  1.00  0.00     0.020 A 
ATOM     67  C   UNL     1      10.274  -6.453   9.076  1.00  0.00     0.054 A 
BRANCH  67  68
ATOM     68  S   UNL     1      10.556  -5.282  10.431  1.00  0.00     0.124 S 
ATOM     69  O   UNL     1       9.728  -4.148  10.027  1.00  0.00    -0.237 OA
ATOM     70  O   UNL     1      10.081  -6.022  11.597  1.00  0.00    -0.237 OA
ATOM     71  O   UNL     1      11.997  -5.045  10.392  1.00  0.00    -0.744 OA
ENDBRANCH  67  68
ENDBRANCH  48  62
BRANCH  49  72
ATOM     72  C   UNL     1       7.778 -13.421  -1.415  1.00  0.00    -0.014 A 
ATOM     73  C   UNL     1       7.141 -14.674  -1.406  1.00  0.00     0.010 A 
ATOM     74  C   UNL     1       8.095 -12.825  -2.651  1.00  0.00     0.010 A 
ATOM     75  C   UNL     1       6.813 -15.309  -2.609  1.00  0.00     0.020 A 
ATOM     76  C   UNL     1       7.744 -13.443  -3.854  1.00  0.00     0.020 A 
ATOM     77  C   UNL     1       7.104 -14.681  -3.825  1.00  0.00     0.054 A 
BRANCH  77  78
ATOM     78  S   UNL     1       6.569 -15.473  -5.369  1.00  0.00     0.124 S 
ATOM     79  O   UNL     1       7.461 -16.624  -5.447  1.00  0.00    -0.237 OA
ATOM     80  O   UNL     1       5.166 -15.774  -5.094  1.00  0.00    -0.237 OA
ATOM     81  O   UNL     1       6.788 -14.439  -6.378  1.00  0.00    -0.744 OA
ENDBRANCH  77  78
ENDBRANCH  49  72
BRANCH  61  82
ATOM     82  C   UNL     1      12.162 -14.354   3.962  1.00  0.00    -0.014 A 
ATOM     83  C   UNL     1      13.347 -14.496   3.219  1.00  0.00     0.010 A 
ATOM     84  C   UNL     1      11.935 -15.204   5.060  1.00  0.00     0.010 A 
ATOM     85  C   UNL     1      14.268 -15.495   3.545  1.00  0.00     0.020 A 
ATOM     86  C   UNL     1      12.869 -16.180   5.411  1.00  0.00     0.020 A 
ATOM     87  C   UNL     1      14.023 -16.330   4.639  1.00  0.00     0.054 A 
BRANCH  87  88
ATOM     88  S   UNL     1      15.250 -17.596   5.060  1.00  0.00     0.124 S 
ATOM     89  O   UNL     1      15.084 -18.554   3.970  1.00  0.00    -0.237 OA
ATOM     90  O   UNL     1      16.502 -16.843   5.051  1.00  0.00    -0.237 OA
ATOM     91  O   UNL     1      14.824 -18.070   6.375  1.00  0.00    -0.744 OA
ENDBRANCH  87  88
ENDBRANCH  61  82
ENDBRANCH  35  36
ENDBRANCH  28  30
ENDBRANCH  27  28
ENDBRANCH  26  27
ENDBRANCH  25  26
ENDBRANCH  24  25
ENDBRANCH  23  24
ENDBRANCH  22  23
ENDBRANCH   1  22
TORSDOF 26
