REMARK SMILES Cc1ccc2[nH]c3c(=O)n(CC(=O)OCCOCCOCCOCCOC(=O)c4ccc(-c5c6nc(c(-c7ccc(S(=O)(=O)[O-])cc7)c7ccc([nH]7)c(-c7ccc(S(=O)(=O)[O-])cc7)c7nc(c(-c8ccc(S(=O)(=O)[O-])cc8)c8ccc5[nH]8)C=C7)C=C6)cc4)cnc3c2c1
REMARK SMILES IDX 21 1 20 2 19 3 18 4 17 5 16 6 15 7 14 8 12 9 13 10 11 11
REMARK SMILES IDX 10 12 1 13 2 14 3 15 93 16 4 17 92 18 5 19 91 20 6 21 7 22
REMARK SMILES IDX 90 23 8 25 89 26 9 27 22 28 23 29 24 30 25 31 26 32 27 33
REMARK SMILES IDX 28 34 29 35 30 36 88 37 31 38 87 39 32 40 33 41 34 42 81 43
REMARK SMILES IDX 35 44 86 45 80 46 82 47 36 48 85 49 79 50 78 51 37 53 67 54
REMARK SMILES IDX 48 55 66 56 49 57 52 58 65 59 83 60 50 61 51 62 64 64 84 65
REMARK SMILES IDX 53 66 38 67 39 68 47 69 40 70 46 71 41 72 42 73 43 74 44 75
REMARK SMILES IDX 45 76 68 77 69 78 77 79 70 80 76 81 71 82 72 83 73 84 74 85
REMARK SMILES IDX 75 86 54 87 55 88 63 89 56 90 62 91 57 92 58 93 59 94 60 95
REMARK SMILES IDX 61 96
REMARK H PARENT 6 24 82 52 52 63
REMARK Flexibility Score: inf
ROOT
ATOM      1  C   UNL     1       1.306  -0.512   9.236  1.00  0.00     0.188 C 
ENDROOT
BRANCH   1   2
ATOM      2  O   UNL     1       0.326  -1.242   8.551  1.00  0.00    -0.377 OA
BRANCH   2   3
ATOM      3  C   UNL     1      -1.019  -0.878   8.630  1.00  0.00     0.188 C 
BRANCH   3   4
ATOM      4  C   UNL     1      -1.814  -1.097   9.909  1.00  0.00     0.188 C 
BRANCH   4   5
ATOM      5  O   UNL     1      -1.170  -1.494  11.090  1.00  0.00    -0.376 OA
BRANCH   5   6
ATOM      6  C   UNL     1      -0.281  -2.591  11.163  1.00  0.00     0.202 C 
BRANCH   6   7
ATOM      7  C   UNL     1      -0.081  -3.735  10.143  1.00  0.00     0.261 C 
BRANCH   7   8
ATOM      8  O   UNL     1      -0.732  -3.675   8.865  1.00  0.00    -0.462 OA
BRANCH   8   9
ATOM      9  C   UNL     1      -1.958  -4.239   8.798  1.00  0.00     0.326 C 
ATOM     10  O   UNL     1      -2.544  -4.716   9.764  1.00  0.00    -0.250 OA
BRANCH   9  11
ATOM     11  C   UNL     1      -2.575  -4.242   7.390  1.00  0.00     0.249 C 
BRANCH  11  12
ATOM     12  N   UNL     1      -2.004  -3.445   6.291  1.00  0.00    -0.286 N 
ATOM     13  C   UNL     1       1.278  -0.077   0.027  1.00  0.00     0.044 C 
ATOM     14  C   UNL     1       0.600  -0.015   1.365  1.00  0.00    -0.050 A 
ATOM     15  C   UNL     1       0.262   1.222   1.925  1.00  0.00     0.005 A 
ATOM     16  C   UNL     1       0.320  -1.200   2.071  1.00  0.00     0.016 A 
ATOM     17  C   UNL     1      -0.466   1.309   3.117  1.00  0.00     0.027 A 
ATOM     18  C   UNL     1      -0.420  -1.143   3.271  1.00  0.00     0.026 A 
ATOM     19  C   UNL     1      -0.846   0.110   3.733  1.00  0.00     0.048 A 
ATOM     20  C   UNL     1      -0.883  -2.086   4.219  1.00  0.00     0.103 A 
ATOM     21  N   UNL     1      -1.655  -0.116   4.832  1.00  0.00    -0.349 N 
ATOM     22  C   UNL     1      -1.730  -1.459   5.081  1.00  0.00     0.132 A 
ATOM     23  N   UNL     1      -0.590  -3.448   4.331  1.00  0.00    -0.236 NA
ATOM     24  H   UNL     1      -2.108   0.583   5.355  1.00  0.00     0.167 HD
ATOM     25  C   UNL     1      -2.474  -2.152   6.080  1.00  0.00     0.278 A 
ATOM     26  C   UNL     1      -1.113  -4.010   5.386  1.00  0.00     0.203 A 
ATOM     27  O   UNL     1      -3.404  -1.631   6.690  1.00  0.00    -0.267 OA
ENDBRANCH  11  12
ENDBRANCH   9  11
ENDBRANCH   8   9
ENDBRANCH   7   8
ENDBRANCH   6   7
ENDBRANCH   5   6
ENDBRANCH   4   5
ENDBRANCH   3   4
ENDBRANCH   2   3
ENDBRANCH   1   2
BRANCH   1  28
ATOM     28  C   UNL     1       1.015   0.831   9.903  1.00  0.00     0.188 C 
BRANCH  28  29
ATOM     29  O   UNL     1      -0.093   1.508   9.348  1.00  0.00    -0.376 OA
BRANCH  29  30
ATOM     30  C   UNL     1       0.092   2.474   8.330  1.00  0.00     0.202 C 
BRANCH  30  31
ATOM     31  C   UNL     1       1.037   2.294   7.120  1.00  0.00     0.261 C 
BRANCH  31  32
ATOM     32  O   UNL     1       2.171   1.459   7.336  1.00  0.00    -0.460 OA
BRANCH  32  33
ATOM     33  C   UNL     1       3.426   1.987   7.386  1.00  0.00     0.338 C 
ATOM     34  O   UNL     1       3.761   3.113   7.165  1.00  0.00    -0.246 OA
BRANCH  33  35
ATOM     35  C   UNL     1       4.214   0.953   8.119  1.00  0.00     0.060 A 
ATOM     36  C   UNL     1       4.300  -0.365   7.652  1.00  0.00     0.016 A 
ATOM     37  C   UNL     1       4.497   1.260   9.456  1.00  0.00     0.016 A 
ATOM     38  C   UNL     1       4.511  -1.390   8.579  1.00  0.00     0.010 A 
ATOM     39  C   UNL     1       4.682   0.233  10.378  1.00  0.00     0.010 A 
ATOM     40  C   UNL     1       4.628  -1.096   9.954  1.00  0.00    -0.014 A 
BRANCH  40  41
ATOM     41  C   UNL     1       4.916  -2.201  10.883  1.00  0.00     0.031 A 
ATOM     42  C   UNL     1       6.238  -2.804  10.601  1.00  0.00     0.074 A 
ATOM     43  C   UNL     1       4.215  -2.587  11.973  1.00  0.00     0.049 A 
ATOM     44  N   UNL     1       6.504  -4.009  10.227  1.00  0.00    -0.248 NA
ATOM     45  C   UNL     1       7.387  -1.881  10.573  1.00  0.00     0.031 C 
ATOM     46  C   UNL     1       3.061  -1.910  12.561  1.00  0.00     0.029 A 
ATOM     47  N   UNL     1       4.440  -3.621  12.853  1.00  0.00    -0.354 N 
ATOM     48  C   UNL     1       7.886  -4.048  10.107  1.00  0.00     0.074 A 
ATOM     49  C   UNL     1       8.346  -2.683  10.123  1.00  0.00     0.031 C 
ATOM     50  C   UNL     1       2.789  -2.437  13.774  1.00  0.00     0.029 A 
ATOM     51  C   UNL     1       3.711  -3.526  14.040  1.00  0.00     0.049 A 
ATOM     52  H   UNL     1       5.059  -4.362  12.662  1.00  0.00     0.167 HD
ATOM     53  C   UNL     1       8.590  -5.197  10.278  1.00  0.00     0.031 A 
ATOM     54  C   UNL     1       3.888  -4.210  15.204  1.00  0.00     0.031 A 
ATOM     55  C   UNL     1       7.769  -6.366  10.133  1.00  0.00     0.049 A 
ATOM     56  C   UNL     1       4.650  -5.441  14.896  1.00  0.00     0.074 A 
ATOM     57  C   UNL     1       7.002  -6.880   9.107  1.00  0.00     0.029 A 
ATOM     58  N   UNL     1       7.364  -7.003  11.280  1.00  0.00    -0.354 N 
ATOM     59  N   UNL     1       4.178  -6.428  14.187  1.00  0.00    -0.248 NA
ATOM     60  C   UNL     1       6.097  -5.399  15.026  1.00  0.00     0.031 C 
ATOM     61  C   UNL     1       5.886  -7.487   9.744  1.00  0.00     0.029 A 
ATOM     62  C   UNL     1       6.051  -7.369  11.127  1.00  0.00     0.049 A 
ATOM     63  H   UNL     1       7.920  -7.168  12.075  1.00  0.00     0.167 HD
ATOM     64  C   UNL     1       5.256  -6.859  13.428  1.00  0.00     0.074 A 
ATOM     65  C   UNL     1       6.428  -6.257  14.058  1.00  0.00     0.031 C 
ATOM     66  C   UNL     1       5.078  -7.438  12.205  1.00  0.00     0.031 A 
BRANCH  53  67
ATOM     67  C   UNL     1       9.944  -5.204  10.934  1.00  0.00    -0.014 A 
ATOM     68  C   UNL     1      10.406  -4.132  11.730  1.00  0.00     0.010 A 
ATOM     69  C   UNL     1      10.701  -6.387  10.954  1.00  0.00     0.010 A 
ATOM     70  C   UNL     1      11.592  -4.198  12.454  1.00  0.00     0.020 A 
ATOM     71  C   UNL     1      11.869  -6.485  11.725  1.00  0.00     0.020 A 
ATOM     72  C   UNL     1      12.314  -5.381  12.454  1.00  0.00     0.054 A 
BRANCH  72  73
ATOM     73  S   UNL     1      13.796  -5.457  13.485  1.00  0.00     0.124 S 
ATOM     74  O   UNL     1      14.701  -4.561  12.769  1.00  0.00    -0.237 OA
ATOM     75  O   UNL     1      13.307  -4.963  14.769  1.00  0.00    -0.237 OA
ATOM     76  O   UNL     1      14.159  -6.870  13.457  1.00  0.00    -0.744 OA
ENDBRANCH  72  73
ENDBRANCH  53  67
BRANCH  54  77
ATOM     77  C   UNL     1       3.776  -3.650  16.587  1.00  0.00    -0.014 A 
ATOM     78  C   UNL     1       3.914  -2.259  16.783  1.00  0.00     0.010 A 
ATOM     79  C   UNL     1       3.804  -4.465  17.738  1.00  0.00     0.010 A 
ATOM     80  C   UNL     1       4.130  -1.705  18.048  1.00  0.00     0.020 A 
ATOM     81  C   UNL     1       4.028  -3.915  19.019  1.00  0.00     0.020 A 
ATOM     82  C   UNL     1       4.226  -2.539  19.156  1.00  0.00     0.054 A 
BRANCH  82  83
ATOM     83  S   UNL     1       4.707  -1.788  20.739  1.00  0.00     0.124 S 
ATOM     84  O   UNL     1       6.084  -1.379  20.473  1.00  0.00    -0.237 OA
ATOM     85  O   UNL     1       3.748  -0.694  20.876  1.00  0.00    -0.237 OA
ATOM     86  O   UNL     1       4.552  -2.873  21.703  1.00  0.00    -0.744 OA
ENDBRANCH  82  83
ENDBRANCH  54  77
BRANCH  66  87
ATOM     87  C   UNL     1       3.710  -7.967  11.818  1.00  0.00    -0.014 A 
ATOM     88  C   UNL     1       3.659  -9.281  11.312  1.00  0.00     0.010 A 
ATOM     89  C   UNL     1       2.550  -7.172  11.727  1.00  0.00     0.010 A 
ATOM     90  C   UNL     1       2.519  -9.767  10.671  1.00  0.00     0.020 A 
ATOM     91  C   UNL     1       1.387  -7.668  11.110  1.00  0.00     0.020 A 
ATOM     92  C   UNL     1       1.395  -8.950  10.553  1.00  0.00     0.054 A 
BRANCH  92  93
ATOM     93  S   UNL     1      -0.021  -9.584   9.611  1.00  0.00     0.124 S 
ATOM     94  O   UNL     1       0.505  -9.618   8.247  1.00  0.00    -0.237 OA
ATOM     95  O   UNL     1      -0.256 -10.890  10.222  1.00  0.00    -0.237 OA
ATOM     96  O   UNL     1      -1.071  -8.594   9.835  1.00  0.00    -0.744 OA
ENDBRANCH  92  93
ENDBRANCH  66  87
ENDBRANCH  40  41
ENDBRANCH  33  35
ENDBRANCH  32  33
ENDBRANCH  31  32
ENDBRANCH  30  31
ENDBRANCH  29  30
ENDBRANCH  28  29
ENDBRANCH   1  28
TORSDOF 24
