REMARK SMILES C[C@@H](C(=O)OCCOCCOCCOCCOC(=O)c1ccc(-c2c3nc(c(-c4ccc(S(=O)(=O)[O-])cc4)c4ccc([nH]4)c(-c4ccc(S(=O)(=O)[O-])cc4)c4nc(c(-c5ccc(S(=O)(=O)[O-])cc5)c5ccc2[nH]5)C=C4)C=C3)cc1)c1ccc2c3cc(Cl)ccc3n(C(=O)c3ccc(Cl)cc3)c2c1
REMARK SMILES IDX 11 1 10 2 9 3 8 4 7 5 6 6 5 7 3 8 4 9 2 10 1 11 80 12 81 13
REMARK SMILES IDX 102 14 82 15 101 16 83 17 91 18 84 19 90 20 85 21 89 22
REMARK SMILES IDX 86 23 88 24 87 25 92 26 93 27 94 28 95 29 100 30 96 31 99 32
REMARK SMILES IDX 97 33 98 34 12 35 13 36 14 37 15 38 16 39 17 40 18 41 19 42
REMARK SMILES IDX 20 43 21 44 79 45 22 46 78 47 23 48 24 49 25 50 72 51 26 52
REMARK SMILES IDX 77 53 71 54 73 55 27 56 76 57 70 58 69 59 28 61 58 62 39 63
REMARK SMILES IDX 57 64 40 65 43 66 56 67 74 68 41 69 42 70 55 72 75 73 44 74
REMARK SMILES IDX 29 75 30 76 38 77 31 78 37 79 32 80 33 81 34 82 35 83 36 84
REMARK SMILES IDX 59 85 60 86 68 87 61 88 67 89 62 90 63 91 64 92 65 93 66 94
REMARK SMILES IDX 45 95 46 96 54 97 47 98 53 99 48 100 49 101 50 102 51 103
REMARK SMILES IDX 52 104
REMARK H PARENT 73 60 43 71
REMARK Flexibility Score: inf
ROOT
ATOM      1  O   UNL     1       2.216   1.498  -2.227  1.00  0.00    -0.377 OA
ENDROOT
BRANCH   1   2
ATOM      2  C   UNL     1       0.808   1.641  -2.165  1.00  0.00     0.188 C 
BRANCH   2   3
ATOM      3  C   UNL     1       0.272   3.074  -2.033  1.00  0.00     0.188 C 
BRANCH   3   4
ATOM      4  O   UNL     1       1.129   4.072  -2.544  1.00  0.00    -0.376 OA
BRANCH   4   5
ATOM      5  C   UNL     1       2.024   4.752  -1.677  1.00  0.00     0.202 C 
BRANCH   5   6
ATOM      6  C   UNL     1       2.650   4.138  -0.406  1.00  0.00     0.261 C 
BRANCH   6   7
ATOM      7  O   UNL     1       2.043   2.941   0.087  1.00  0.00    -0.463 OA
BRANCH   7   8
ATOM      8  C   UNL     1       1.440   2.967   1.299  1.00  0.00     0.313 C 
ATOM      9  O   UNL     1       1.358   3.963   2.009  1.00  0.00    -0.252 OA
BRANCH   8  10
ATOM     10  C   UNL     1       0.741   1.643   1.626  1.00  0.00     0.126 C 
ATOM     11  C   UNL     1       1.554   0.415   1.160  1.00  0.00     0.025 C 
BRANCH  10  12
ATOM     12  C   UNL     1      -0.746   1.616   1.236  1.00  0.00    -0.032 A 
ATOM     13  C   UNL     1      -1.462   2.778   0.934  1.00  0.00     0.005 A 
ATOM     14  C   UNL     1      -1.452   0.403   1.257  1.00  0.00     0.032 A 
ATOM     15  C   UNL     1      -2.809   2.739   0.554  1.00  0.00     0.011 A 
ATOM     16  C   UNL     1      -2.848   0.374   1.015  1.00  0.00     0.057 A 
ATOM     17  C   UNL     1      -3.515   1.524   0.616  1.00  0.00     0.008 A 
ATOM     18  N   UNL     1      -3.789  -0.673   1.113  1.00  0.00    -0.276 N 
ATOM     19  C   UNL     1      -4.882   1.193   0.442  1.00  0.00     0.009 A 
ATOM     20  C   UNL     1      -5.064  -0.112   0.922  1.00  0.00     0.057 A 
ATOM     21  C   UNL     1      -5.993   1.971   0.047  1.00  0.00     0.031 A 
ATOM     22  C   UNL     1      -6.368  -0.573   1.200  1.00  0.00     0.029 A 
ATOM     23  C   UNL     1      -7.275   1.483   0.267  1.00  0.00     0.041 A 
ATOM     24  C   UNL     1      -7.461   0.248   0.874  1.00  0.00     0.023 A 
ATOM     25  Cl  UNL     1      -8.633   2.457  -0.148  1.00  0.00    -0.084 Cl
BRANCH  18  26
ATOM     26  C   UNL     1      -3.424  -2.007   1.458  1.00  0.00     0.262 C 
ATOM     27  O   UNL     1      -2.300  -2.143   1.949  1.00  0.00    -0.268 OA
BRANCH  26  28
ATOM     28  C   UNL     1      -4.147  -3.301   1.299  1.00  0.00     0.040 A 
ATOM     29  C   UNL     1      -3.607  -4.397   2.013  1.00  0.00     0.015 A 
ATOM     30  C   UNL     1      -5.183  -3.547   0.396  1.00  0.00     0.015 A 
ATOM     31  C   UNL     1      -4.076  -5.698   1.831  1.00  0.00     0.021 A 
ATOM     32  C   UNL     1      -5.679  -4.855   0.238  1.00  0.00     0.021 A 
ATOM     33  C   UNL     1      -5.116  -5.922   0.944  1.00  0.00     0.041 A 
ATOM     34  Cl  UNL     1      -5.684  -7.526   0.693  1.00  0.00    -0.084 Cl
ENDBRANCH  26  28
ENDBRANCH  18  26
ENDBRANCH  10  12
ENDBRANCH   8  10
ENDBRANCH   7   8
ENDBRANCH   6   7
ENDBRANCH   5   6
ENDBRANCH   4   5
ENDBRANCH   3   4
ENDBRANCH   2   3
ENDBRANCH   1   2
BRANCH   1  35
ATOM     35  C   UNL     1       2.912   1.947  -3.389  1.00  0.00     0.188 C 
BRANCH  35  36
ATOM     36  C   UNL     1       2.175   2.522  -4.623  1.00  0.00     0.188 C 
BRANCH  36  37
ATOM     37  O   UNL     1       0.845   2.066  -4.808  1.00  0.00    -0.376 OA
BRANCH  37  38
ATOM     38  C   UNL     1       0.621   1.023  -5.742  1.00  0.00     0.202 C 
BRANCH  38  39
ATOM     39  C   UNL     1       1.292  -0.331  -5.463  1.00  0.00     0.261 C 
BRANCH  39  40
ATOM     40  O   UNL     1       2.726  -0.325  -5.378  1.00  0.00    -0.460 OA
BRANCH  40  41
ATOM     41  C   UNL     1       3.418   0.118  -6.449  1.00  0.00     0.338 C 
ATOM     42  O   UNL     1       2.962   0.474  -7.524  1.00  0.00    -0.246 OA
BRANCH  41  43
ATOM     43  C   UNL     1       4.825   0.292  -6.035  1.00  0.00     0.060 A 
ATOM     44  C   UNL     1       5.402   1.568  -6.098  1.00  0.00     0.016 A 
ATOM     45  C   UNL     1       5.568  -0.798  -5.579  1.00  0.00     0.016 A 
ATOM     46  C   UNL     1       6.739   1.748  -5.743  1.00  0.00     0.010 A 
ATOM     47  C   UNL     1       6.914  -0.620  -5.247  1.00  0.00     0.010 A 
ATOM     48  C   UNL     1       7.515   0.646  -5.363  1.00  0.00    -0.014 A 
BRANCH  48  49
ATOM     49  C   UNL     1       8.991   0.774  -5.291  1.00  0.00     0.031 A 
ATOM     50  C   UNL     1       9.801   0.316  -6.475  1.00  0.00     0.074 A 
ATOM     51  C   UNL     1       9.602   1.303  -4.216  1.00  0.00     0.049 A 
ATOM     52  N   UNL     1      11.099   0.275  -6.627  1.00  0.00    -0.248 NA
ATOM     53  C   UNL     1       9.042  -0.163  -7.643  1.00  0.00     0.031 C 
ATOM     54  C   UNL     1       8.928   1.830  -3.031  1.00  0.00     0.029 A 
ATOM     55  N   UNL     1      10.938   1.475  -3.949  1.00  0.00    -0.354 N 
ATOM     56  C   UNL     1      11.312  -0.241  -7.900  1.00  0.00     0.074 A 
ATOM     57  C   UNL     1      10.013  -0.530  -8.466  1.00  0.00     0.031 C 
ATOM     58  C   UNL     1       9.857   2.255  -2.156  1.00  0.00     0.029 A 
ATOM     59  C   UNL     1      11.189   1.995  -2.702  1.00  0.00     0.049 A 
ATOM     60  H   UNL     1      11.649   1.246  -4.590  1.00  0.00     0.167 HD
ATOM     61  C   UNL     1      12.484  -0.452  -8.544  1.00  0.00     0.031 A 
ATOM     62  C   UNL     1      12.357   2.210  -2.063  1.00  0.00     0.031 A 
ATOM     63  C   UNL     1      13.776  -0.182  -7.971  1.00  0.00     0.049 A 
ATOM     64  C   UNL     1      13.653   1.886  -2.767  1.00  0.00     0.074 A 
ATOM     65  C   UNL     1      15.023  -0.356  -8.543  1.00  0.00     0.029 A 
ATOM     66  N   UNL     1      13.987   0.311  -6.692  1.00  0.00    -0.354 N 
ATOM     67  N   UNL     1      13.840   1.415  -3.977  1.00  0.00    -0.248 NA
ATOM     68  C   UNL     1      14.895   2.132  -2.020  1.00  0.00     0.031 C 
ATOM     69  C   UNL     1      15.990  -0.032  -7.587  1.00  0.00     0.029 A 
ATOM     70  C   UNL     1      15.345   0.419  -6.446  1.00  0.00     0.049 A 
ATOM     71  H   UNL     1      13.277   0.548  -6.053  1.00  0.00     0.167 HD
ATOM     72  C   UNL     1      15.220   1.339  -4.147  1.00  0.00     0.074 A 
ATOM     73  C   UNL     1      15.818   1.827  -2.921  1.00  0.00     0.031 C 
ATOM     74  C   UNL     1      15.928   0.908  -5.221  1.00  0.00     0.031 A 
BRANCH  61  75
ATOM     75  C   UNL     1      12.421  -1.038  -9.931  1.00  0.00    -0.014 A 
ATOM     76  C   UNL     1      11.922  -0.296 -11.017  1.00  0.00     0.010 A 
ATOM     77  C   UNL     1      12.903  -2.340 -10.157  1.00  0.00     0.010 A 
ATOM     78  C   UNL     1      11.872  -0.859 -12.295  1.00  0.00     0.020 A 
ATOM     79  C   UNL     1      12.885  -2.895 -11.440  1.00  0.00     0.020 A 
ATOM     80  C   UNL     1      12.355  -2.156 -12.498  1.00  0.00     0.054 A 
BRANCH  80  81
ATOM     81  S   UNL     1      12.302  -2.849 -14.173  1.00  0.00     0.124 S 
ATOM     82  O   UNL     1      10.869  -3.053 -14.370  1.00  0.00    -0.237 OA
ATOM     83  O   UNL     1      12.901  -1.787 -14.977  1.00  0.00    -0.237 OA
ATOM     84  O   UNL     1      13.096  -4.071 -14.069  1.00  0.00    -0.744 OA
ENDBRANCH  80  81
ENDBRANCH  61  75
BRANCH  62  85
ATOM     85  C   UNL     1      12.360   2.732  -0.667  1.00  0.00    -0.014 A 
ATOM     86  C   UNL     1      12.864   4.012  -0.375  1.00  0.00     0.010 A 
ATOM     87  C   UNL     1      11.863   1.940   0.385  1.00  0.00     0.010 A 
ATOM     88  C   UNL     1      12.887   4.482   0.942  1.00  0.00     0.020 A 
ATOM     89  C   UNL     1      11.854   2.418   1.698  1.00  0.00     0.020 A 
ATOM     90  C   UNL     1      12.377   3.683   1.970  1.00  0.00     0.054 A 
BRANCH  90  91
ATOM     91  S   UNL     1      12.370   4.335   3.663  1.00  0.00     0.124 S 
ATOM     92  O   UNL     1      13.789   4.315   4.003  1.00  0.00    -0.237 OA
ATOM     93  O   UNL     1      11.779   5.659   3.486  1.00  0.00    -0.237 OA
ATOM     94  O   UNL     1      11.538   3.382   4.394  1.00  0.00    -0.744 OA
ENDBRANCH  90  91
ENDBRANCH  62  85
BRANCH  74  95
ATOM     95  C   UNL     1      17.433   0.984  -5.145  1.00  0.00    -0.014 A 
ATOM     96  C   UNL     1      18.172   0.130  -4.308  1.00  0.00     0.010 A 
ATOM     97  C   UNL     1      18.121   1.887  -5.978  1.00  0.00     0.010 A 
ATOM     98  C   UNL     1      19.568   0.201  -4.280  1.00  0.00     0.020 A 
ATOM     99  C   UNL     1      19.517   1.938  -5.978  1.00  0.00     0.020 A 
ATOM    100  C   UNL     1      20.232   1.104  -5.117  1.00  0.00     0.054 A 
BRANCH 100 101
ATOM    101  S   UNL     1      22.045   1.145  -5.094  1.00  0.00     0.124 S 
ATOM    102  O   UNL     1      22.319   1.756  -3.796  1.00  0.00    -0.237 OA
ATOM    103  O   UNL     1      22.398  -0.268  -5.210  1.00  0.00    -0.237 OA
ATOM    104  O   UNL     1      22.390   1.964  -6.253  1.00  0.00    -0.744 OA
ENDBRANCH 100 101
ENDBRANCH  74  95
ENDBRANCH  48  49
ENDBRANCH  41  43
ENDBRANCH  40  41
ENDBRANCH  39  40
ENDBRANCH  38  39
ENDBRANCH  37  38
ENDBRANCH  36  37
ENDBRANCH  35  36
ENDBRANCH   1  35
TORSDOF 26
