REMARK SMILES COc1ccc(S(=O)(=O)N[C@@H](CO)C(=O)OCCOCCOCCOCCOC(=O)c2ccc(-c3c4nc(c(-c5ccc(S(=O)(=O)[O-])cc5)c5ccc([nH]5)c(-c5ccc(S(=O)(=O)[O-])cc5)c5nc(c(-c6ccc(S(=O)(=O)[O-])cc6)c6ccc3[nH]6)C=C5)C=C4)cc2)cc1C
REMARK SMILES IDX 21 1 20 2 19 3 18 4 17 5 16 6 14 7 15 8 11 9 10 10 7 12 8 13
REMARK SMILES IDX 9 14 6 15 3 16 4 17 92 18 5 19 91 20 93 21 2 22 1 23 12 24
REMARK SMILES IDX 13 25 22 27 23 28 24 29 25 30 26 31 27 32 28 33 29 34 30 35
REMARK SMILES IDX 31 36 32 37 90 38 33 39 89 40 34 41 35 42 36 43 83 44 37 45
REMARK SMILES IDX 88 46 82 47 84 48 38 49 87 50 81 51 80 52 39 54 69 55 50 56
REMARK SMILES IDX 68 57 51 58 54 59 67 60 85 61 52 62 53 63 66 65 86 66 55 67
REMARK SMILES IDX 40 68 41 69 49 70 42 71 48 72 43 73 44 74 45 75 46 76 47 77
REMARK SMILES IDX 70 78 71 79 79 80 72 81 78 82 73 83 74 84 75 85 76 86 77 87
REMARK SMILES IDX 56 88 57 89 65 90 58 91 64 92 59 93 60 94 61 95 62 96 63 97
REMARK H PARENT 10 11 13 26 84 53 54 64
REMARK Flexibility Score: inf
ROOT
ATOM      1  C   UNL     1       4.394  -2.091  -5.620  1.00  0.00     0.188 C 
ENDROOT
BRANCH   1   2
ATOM      2  C   UNL     1       4.865  -1.629  -4.235  1.00  0.00     0.188 C 
BRANCH   2   3
ATOM      3  O   UNL     1       6.205  -1.295  -3.952  1.00  0.00    -0.376 OA
BRANCH   3   4
ATOM      4  C   UNL     1       7.018  -2.433  -3.659  1.00  0.00     0.202 C 
BRANCH   4   5
ATOM      5  C   UNL     1       6.576  -3.387  -2.537  1.00  0.00     0.261 C 
BRANCH   5   6
ATOM      6  O   UNL     1       5.522  -4.274  -2.974  1.00  0.00    -0.462 OA
BRANCH   6   7
ATOM      7  C   UNL     1       4.572  -4.583  -2.057  1.00  0.00     0.326 C 
ATOM      8  O   UNL     1       4.573  -4.211  -0.889  1.00  0.00    -0.250 OA
BRANCH   7   9
ATOM      9  C   UNL     1       3.418  -5.365  -2.667  1.00  0.00     0.205 C 
BRANCH   9  10
ATOM     10  N   UNL     1       3.108  -4.992  -4.076  1.00  0.00    -0.194 NA
ATOM     11  H   UNL     1       3.634  -4.143  -4.279  1.00  0.00     0.142 HD
BRANCH  10  12
ATOM     12  S   UNL     1       1.525  -4.702  -4.534  1.00  0.00     0.241 S 
ATOM     13  O   UNL     1       0.794  -5.914  -4.245  1.00  0.00    -0.207 OA
ATOM     14  O   UNL     1       1.531  -4.112  -5.854  1.00  0.00    -0.207 OA
BRANCH  12  15
ATOM     15  C   UNL     1       0.970  -3.450  -3.389  1.00  0.00     0.083 A 
ATOM     16  C   UNL     1       0.503  -1.841  -1.141  1.00  0.00     0.121 A 
ATOM     17  C   UNL     1      -0.475  -2.733  -1.629  1.00  0.00     0.048 A 
ATOM     18  C   UNL     1       1.737  -1.759  -1.781  1.00  0.00    -0.008 A 
ATOM     19  C   UNL     1      -0.240  -3.560  -2.734  1.00  0.00     0.025 A 
ATOM     20  C   UNL     1       1.890  -2.506  -2.952  1.00  0.00     0.029 A 
ATOM     21  C   UNL     1       2.945  -1.031  -1.253  1.00  0.00     0.048 C 
BRANCH  16  22
ATOM     22  O   UNL     1       0.149  -1.198   0.013  1.00  0.00    -0.496 OA
ATOM     23  C   UNL     1       0.616   0.139   0.154  1.00  0.00     0.278 C 
ENDBRANCH  16  22
ENDBRANCH  12  15
ENDBRANCH  10  12
ENDBRANCH   9  10
BRANCH   9  24
ATOM     24  C   UNL     1       3.610  -6.872  -2.508  1.00  0.00     0.188 C 
BRANCH  24  25
ATOM     25  O   UNL     1       3.872  -7.527  -3.748  1.00  0.00    -0.394 OA
ATOM     26  H   UNL     1       3.117  -7.405  -4.344  1.00  0.00     0.210 HD
ENDBRANCH  24  25
ENDBRANCH   9  24
ENDBRANCH   7   9
ENDBRANCH   6   7
ENDBRANCH   5   6
ENDBRANCH   4   5
ENDBRANCH   3   4
ENDBRANCH   2   3
ENDBRANCH   1   2
BRANCH   1  27
ATOM     27  O   UNL     1       5.094  -3.180  -6.176  1.00  0.00    -0.377 OA
BRANCH  27  28
ATOM     28  C   UNL     1       5.780  -2.939  -7.418  1.00  0.00     0.188 C 
BRANCH  28  29
ATOM     29  C   UNL     1       5.789  -1.531  -8.005  1.00  0.00     0.188 C 
BRANCH  29  30
ATOM     30  O   UNL     1       6.323  -0.656  -7.006  1.00  0.00    -0.376 OA
BRANCH  30  31
ATOM     31  C   UNL     1       5.913   0.698  -7.069  1.00  0.00     0.202 C 
BRANCH  31  32
ATOM     32  C   UNL     1       6.325   1.384  -8.367  1.00  0.00     0.261 C 
BRANCH  32  33
ATOM     33  O   UNL     1       7.736   1.700  -8.363  1.00  0.00    -0.460 OA
BRANCH  33  34
ATOM     34  C   UNL     1       8.549   0.888  -9.103  1.00  0.00     0.338 C 
ATOM     35  O   UNL     1       8.857   1.130 -10.258  1.00  0.00    -0.246 OA
BRANCH  34  36
ATOM     36  C   UNL     1       9.122  -0.223  -8.289  1.00  0.00     0.060 A 
ATOM     37  C   UNL     1       9.607  -1.400  -8.878  1.00  0.00     0.016 A 
ATOM     38  C   UNL     1       9.052  -0.151  -6.909  1.00  0.00     0.016 A 
ATOM     39  C   UNL     1       9.848  -2.557  -8.100  1.00  0.00     0.010 A 
ATOM     40  C   UNL     1       9.204  -1.309  -6.167  1.00  0.00     0.010 A 
ATOM     41  C   UNL     1       9.581  -2.542  -6.732  1.00  0.00    -0.014 A 
BRANCH  41  42
ATOM     42  C   UNL     1       9.505  -3.708  -5.807  1.00  0.00     0.031 A 
ATOM     43  C   UNL     1      10.079  -3.562  -4.410  1.00  0.00     0.074 A 
ATOM     44  C   UNL     1       8.562  -4.666  -6.034  1.00  0.00     0.049 A 
ATOM     45  N   UNL     1       9.856  -4.365  -3.422  1.00  0.00    -0.248 NA
ATOM     46  C   UNL     1      10.941  -2.448  -3.992  1.00  0.00     0.031 C 
ATOM     47  C   UNL     1       7.745  -5.321  -5.002  1.00  0.00     0.029 A 
ATOM     48  N   UNL     1       7.988  -5.174  -7.187  1.00  0.00    -0.354 N 
ATOM     49  C   UNL     1      10.252  -3.762  -2.241  1.00  0.00     0.074 A 
ATOM     50  C   UNL     1      10.979  -2.591  -2.659  1.00  0.00     0.031 C 
ATOM     51  C   UNL     1       6.827  -6.128  -5.550  1.00  0.00     0.029 A 
ATOM     52  C   UNL     1       7.258  -6.335  -6.902  1.00  0.00     0.049 A 
ATOM     53  H   UNL     1       8.080  -4.775  -8.082  1.00  0.00     0.167 HD
ATOM     54  C   UNL     1       9.821  -4.267  -1.045  1.00  0.00     0.031 A 
ATOM     55  C   UNL     1       7.635  -7.574  -7.338  1.00  0.00     0.031 A 
ATOM     56  C   UNL     1       9.106  -5.551  -1.204  1.00  0.00     0.049 A 
ATOM     57  C   UNL     1       8.157  -8.460  -6.193  1.00  0.00     0.074 A 
ATOM     58  C   UNL     1       7.903  -6.056  -0.736  1.00  0.00     0.029 A 
ATOM     59  N   UNL     1       9.597  -6.508  -2.091  1.00  0.00    -0.354 N 
ATOM     60  N   UNL     1       8.478  -8.004  -5.001  1.00  0.00    -0.248 NA
ATOM     61  C   UNL     1       8.303  -9.910  -6.250  1.00  0.00     0.031 C 
ATOM     62  C   UNL     1       7.661  -7.298  -1.389  1.00  0.00     0.029 A 
ATOM     63  C   UNL     1       8.747  -7.583  -2.202  1.00  0.00     0.049 A 
ATOM     64  H   UNL     1      10.448  -6.424  -2.579  1.00  0.00     0.167 HD
ATOM     65  C   UNL     1       8.839  -9.021  -4.158  1.00  0.00     0.074 A 
ATOM     66  C   UNL     1       8.727 -10.197  -5.003  1.00  0.00     0.031 C 
ATOM     67  C   UNL     1       9.200  -8.812  -2.850  1.00  0.00     0.031 A 
BRANCH  54  68
ATOM     68  C   UNL     1       9.873  -3.559   0.314  1.00  0.00    -0.014 A 
ATOM     69  C   UNL     1       9.535  -4.294   1.476  1.00  0.00     0.010 A 
ATOM     70  C   UNL     1      10.114  -2.183   0.522  1.00  0.00     0.010 A 
ATOM     71  C   UNL     1       9.389  -3.703   2.744  1.00  0.00     0.020 A 
ATOM     72  C   UNL     1      10.014  -1.582   1.801  1.00  0.00     0.020 A 
ATOM     73  C   UNL     1       9.625  -2.343   2.901  1.00  0.00     0.054 A 
BRANCH  73  74
ATOM     74  S   UNL     1       9.426  -1.605   4.552  1.00  0.00     0.124 S 
ATOM     75  O   UNL     1       7.981  -1.673   4.755  1.00  0.00    -0.237 OA
ATOM     76  O   UNL     1      10.221  -2.491   5.399  1.00  0.00    -0.237 OA
ATOM     77  O   UNL     1       9.965  -0.256   4.397  1.00  0.00    -0.744 OA
ENDBRANCH  73  74
ENDBRANCH  54  68
BRANCH  55  78
ATOM     78  C   UNL     1       7.886  -7.577  -8.819  1.00  0.00    -0.014 A 
ATOM     79  C   UNL     1       6.702  -7.390  -9.579  1.00  0.00     0.010 A 
ATOM     80  C   UNL     1       9.074  -6.980  -9.289  1.00  0.00     0.010 A 
ATOM     81  C   UNL     1       6.624  -6.356 -10.522  1.00  0.00     0.020 A 
ATOM     82  C   UNL     1       9.000  -5.952 -10.250  1.00  0.00     0.020 A 
ATOM     83  C   UNL     1       7.757  -5.589 -10.787  1.00  0.00     0.054 A 
BRANCH  83  84
ATOM     84  S   UNL     1       7.518  -3.945 -11.545  1.00  0.00     0.124 S 
ATOM     85  O   UNL     1       7.228  -4.275 -12.934  1.00  0.00    -0.237 OA
ATOM     86  O   UNL     1       6.401  -3.401 -10.772  1.00  0.00    -0.237 OA
ATOM     87  O   UNL     1       8.798  -3.285 -11.306  1.00  0.00    -0.744 OA
ENDBRANCH  83  84
ENDBRANCH  55  78
BRANCH  67  88
ATOM     88  C   UNL     1      10.050  -9.727  -1.974  1.00  0.00    -0.014 A 
ATOM     89  C   UNL     1      10.368 -11.056  -2.256  1.00  0.00     0.010 A 
ATOM     90  C   UNL     1      10.657  -9.177  -0.806  1.00  0.00     0.010 A 
ATOM     91  C   UNL     1      11.270 -11.777  -1.458  1.00  0.00     0.020 A 
ATOM     92  C   UNL     1      11.568  -9.875  -0.012  1.00  0.00     0.020 A 
ATOM     93  C   UNL     1      11.880 -11.177  -0.356  1.00  0.00     0.054 A 
BRANCH  93  94
ATOM     94  S   UNL     1      13.098 -12.116   0.588  1.00  0.00     0.124 S 
ATOM     95  O   UNL     1      12.310 -13.252   1.062  1.00  0.00    -0.237 OA
ATOM     96  O   UNL     1      14.099 -12.429  -0.429  1.00  0.00    -0.237 OA
ATOM     97  O   UNL     1      13.538 -11.187   1.625  1.00  0.00    -0.744 OA
ENDBRANCH  93  94
ENDBRANCH  67  88
ENDBRANCH  41  42
ENDBRANCH  34  36
ENDBRANCH  33  34
ENDBRANCH  32  33
ENDBRANCH  31  32
ENDBRANCH  30  31
ENDBRANCH  29  30
ENDBRANCH  28  29
ENDBRANCH  27  28
ENDBRANCH   1  27
TORSDOF 29
