REMARK SMILES N#Cc1ccccc1S(=O)(=O)N1CCC(C(=O)OCCOCCOCCOCCOC(=O)c2ccc(-c3c4nc(c(-c5ccc(S(=O)(=O)[O-])cc5)c5ccc([nH]5)c(-c5ccc(S(=O)(=O)[O-])cc5)c5nc(c(-c6ccc(S(=O)(=O)[O-])cc6)c6ccc3[nH]6)C=C5)C=C4)cc2)CC1
REMARK SMILES IDX 24 1 23 2 22 3 21 4 20 5 19 6 18 7 16 8 17 9 15 10 12 11
REMARK SMILES IDX 13 12 94 13 14 14 93 15 9 16 10 17 11 18 8 19 3 20 4 21 5 22
REMARK SMILES IDX 7 23 6 24 2 25 1 26 25 27 26 28 27 29 28 30 29 31 30 32
REMARK SMILES IDX 31 33 32 34 33 35 34 36 92 37 35 38 91 39 36 40 37 41 38 42
REMARK SMILES IDX 85 43 39 44 90 45 84 46 86 47 40 48 89 49 83 50 82 51 41 53
REMARK SMILES IDX 71 54 52 55 70 56 53 57 56 58 69 59 87 60 54 61 55 62 68 64
REMARK SMILES IDX 88 65 57 66 42 67 43 68 51 69 44 70 50 71 45 72 46 73 47 74
REMARK SMILES IDX 48 75 49 76 72 77 73 78 81 79 74 80 80 81 75 82 76 83 77 84
REMARK SMILES IDX 78 85 79 86 58 87 59 88 67 89 60 90 66 91 61 92 62 93 63 94
REMARK SMILES IDX 64 95 65 96
REMARK H PARENT 86 52 56 63
REMARK Flexibility Score: inf
ROOT
ATOM      1  O   UNL     1      -7.214  -1.487   1.613  1.00  0.00    -0.377 OA
ENDROOT
BRANCH   1   2
ATOM      2  C   UNL     1      -6.790  -0.142   1.660  1.00  0.00     0.188 C 
BRANCH   2   3
ATOM      3  C   UNL     1      -7.447   0.812   0.659  1.00  0.00     0.188 C 
BRANCH   3   4
ATOM      4  O   UNL     1      -8.778   0.612   0.231  1.00  0.00    -0.376 OA
BRANCH   4   5
ATOM      5  C   UNL     1      -9.191  -0.527  -0.508  1.00  0.00     0.202 C 
BRANCH   5   6
ATOM      6  C   UNL     1      -8.298  -1.395  -1.411  1.00  0.00     0.261 C 
BRANCH   6   7
ATOM      7  O   UNL     1      -6.976  -1.683  -0.950  1.00  0.00    -0.463 OA
BRANCH   7   8
ATOM      8  C   UNL     1      -5.996  -0.997  -1.570  1.00  0.00     0.309 C 
ATOM      9  O   UNL     1      -6.182  -0.174  -2.463  1.00  0.00    -0.252 OA
BRANCH   8  10
ATOM     10  C   UNL     1      -4.601  -1.295  -1.066  1.00  0.00     0.102 C 
ATOM     11  N   UNL     1      -1.987  -2.377  -0.585  1.00  0.00    -0.198 NA
ATOM     12  C   UNL     1      -2.926  -2.314   0.549  1.00  0.00     0.103 C 
ATOM     13  C   UNL     1      -2.347  -1.896  -1.928  1.00  0.00     0.103 C 
ATOM     14  C   UNL     1      -4.393  -2.167   0.166  1.00  0.00     0.032 C 
ATOM     15  C   UNL     1      -3.834  -1.942  -2.204  1.00  0.00     0.032 C 
BRANCH  11  16
ATOM     16  S   UNL     1      -0.357  -2.587  -0.226  1.00  0.00     0.244 S 
ATOM     17  O   UNL     1       0.246  -3.208  -1.389  1.00  0.00    -0.207 OA
ATOM     18  O   UNL     1      -0.249  -3.196   1.083  1.00  0.00    -0.207 OA
BRANCH  16  19
ATOM     19  C   UNL     1       0.473  -1.014  -0.075  1.00  0.00     0.100 A 
ATOM     20  C   UNL     1      -0.093   0.258   0.023  1.00  0.00     0.072 A 
ATOM     21  C   UNL     1       0.757   1.385   0.045  1.00  0.00     0.021 A 
ATOM     22  C   UNL     1       2.143   1.254   0.025  1.00  0.00     0.001 A 
ATOM     23  C   UNL     1       1.880  -1.133  -0.075  1.00  0.00     0.023 A 
ATOM     24  C   UNL     1       2.707  -0.012  -0.014  1.00  0.00     0.001 A 
BRANCH  20  25
ATOM     25  C   UNL     1      -1.472   0.573   0.176  1.00  0.00     0.101 C 
ATOM     26  N   UNL     1      -2.553   0.972   0.345  1.00  0.00    -0.192 NA
ENDBRANCH  20  25
ENDBRANCH  16  19
ENDBRANCH  11  16
ENDBRANCH   8  10
ENDBRANCH   7   8
ENDBRANCH   6   7
ENDBRANCH   5   6
ENDBRANCH   4   5
ENDBRANCH   3   4
ENDBRANCH   2   3
ENDBRANCH   1   2
BRANCH   1  27
ATOM     27  C   UNL     1      -8.379  -1.883   2.327  1.00  0.00     0.188 C 
BRANCH  27  28
ATOM     28  C   UNL     1      -9.322  -0.828   2.948  1.00  0.00     0.188 C 
BRANCH  28  29
ATOM     29  O   UNL     1      -8.697   0.351   3.414  1.00  0.00    -0.376 OA
BRANCH  29  30
ATOM     30  C   UNL     1      -8.255   0.440   4.758  1.00  0.00     0.202 C 
BRANCH  30  31
ATOM     31  C   UNL     1      -7.401  -0.676   5.389  1.00  0.00     0.261 C 
BRANCH  31  32
ATOM     32  O   UNL     1      -7.854  -2.027   5.234  1.00  0.00    -0.460 OA
BRANCH  32  33
ATOM     33  C   UNL     1      -9.042  -2.360   5.782  1.00  0.00     0.338 C 
ATOM     34  O   UNL     1      -9.769  -1.636   6.437  1.00  0.00    -0.246 OA
BRANCH  33  35
ATOM     35  C   UNL     1      -9.415  -3.701   5.274  1.00  0.00     0.060 A 
ATOM     36  C   UNL     1     -10.558  -3.833   4.473  1.00  0.00     0.016 A 
ATOM     37  C   UNL     1      -8.646  -4.822   5.590  1.00  0.00     0.016 A 
ATOM     38  C   UNL     1     -10.960  -5.090   4.022  1.00  0.00     0.010 A 
ATOM     39  C   UNL     1      -9.067  -6.086   5.162  1.00  0.00     0.010 A 
ATOM     40  C   UNL     1     -10.247  -6.229   4.409  1.00  0.00    -0.014 A 
BRANCH  40  41
ATOM     41  C   UNL     1     -10.845  -7.572   4.204  1.00  0.00     0.031 A 
ATOM     42  C   UNL     1     -11.516  -8.241   5.374  1.00  0.00     0.074 A 
ATOM     43  C   UNL     1     -10.823  -8.174   3.001  1.00  0.00     0.049 A 
ATOM     44  N   UNL     1     -12.058  -9.428   5.452  1.00  0.00    -0.248 NA
ATOM     45  C   UNL     1     -11.581  -7.465   6.625  1.00  0.00     0.031 C 
ATOM     46  C   UNL     1     -10.261  -7.604   1.778  1.00  0.00     0.029 A 
ATOM     47  N   UNL     1     -11.286  -9.408   2.616  1.00  0.00    -0.354 N 
ATOM     48  C   UNL     1     -12.510  -9.550   6.762  1.00  0.00     0.074 A 
ATOM     49  C   UNL     1     -12.153  -8.329   7.450  1.00  0.00     0.031 C 
ATOM     50  C   UNL     1     -10.402  -8.493   0.779  1.00  0.00     0.029 A 
ATOM     51  C   UNL     1     -11.024  -9.709   1.301  1.00  0.00     0.049 A 
ATOM     52  H   UNL     1     -11.760 -10.020   3.225  1.00  0.00     0.167 HD
ATOM     53  C   UNL     1     -13.166 -10.585   7.339  1.00  0.00     0.031 A 
ATOM     54  C   UNL     1     -11.234 -10.846   0.606  1.00  0.00     0.031 A 
ATOM     55  C   UNL     1     -13.504 -11.803   6.652  1.00  0.00     0.049 A 
ATOM     56  C   UNL     1     -11.884 -12.020   1.295  1.00  0.00     0.074 A 
ATOM     57  C   UNL     1     -14.181 -12.906   7.143  1.00  0.00     0.029 A 
ATOM     58  N   UNL     1     -13.182 -12.087   5.333  1.00  0.00    -0.354 N 
ATOM     59  N   UNL     1     -12.327 -12.114   2.527  1.00  0.00    -0.248 NA
ATOM     60  C   UNL     1     -12.068 -13.240   0.496  1.00  0.00     0.031 C 
ATOM     61  C   UNL     1     -14.197 -13.886   6.146  1.00  0.00     0.029 A 
ATOM     62  C   UNL     1     -13.611 -13.362   5.005  1.00  0.00     0.049 A 
ATOM     63  H   UNL     1     -12.716 -11.472   4.721  1.00  0.00     0.167 HD
ATOM     64  C   UNL     1     -12.874 -13.390   2.638  1.00  0.00     0.074 A 
ATOM     65  C   UNL     1     -12.720 -14.023   1.344  1.00  0.00     0.031 C 
ATOM     66  C   UNL     1     -13.453 -13.983   3.712  1.00  0.00     0.031 A 
BRANCH  53  67
ATOM     67  C   UNL     1     -13.520 -10.462   8.800  1.00  0.00    -0.014 A 
ATOM     68  C   UNL     1     -14.482  -9.541   9.251  1.00  0.00     0.010 A 
ATOM     69  C   UNL     1     -12.904 -11.317   9.734  1.00  0.00     0.010 A 
ATOM     70  C   UNL     1     -14.793  -9.450  10.610  1.00  0.00     0.020 A 
ATOM     71  C   UNL     1     -13.239 -11.254  11.089  1.00  0.00     0.020 A 
ATOM     72  C   UNL     1     -14.171 -10.309  11.521  1.00  0.00     0.054 A 
BRANCH  72  73
ATOM     73  S   UNL     1     -14.618 -10.189  13.274  1.00  0.00     0.124 S 
ATOM     74  O   UNL     1     -14.055  -8.892  13.641  1.00  0.00    -0.237 OA
ATOM     75  O   UNL     1     -16.077 -10.251  13.234  1.00  0.00    -0.237 OA
ATOM     76  O   UNL     1     -13.964 -11.345  13.882  1.00  0.00    -0.744 OA
ENDBRANCH  72  73
ENDBRANCH  53  67
BRANCH  54  77
ATOM     77  C   UNL     1     -10.804 -10.942  -0.818  1.00  0.00    -0.014 A 
ATOM     78  C   UNL     1     -11.749 -11.082  -1.849  1.00  0.00     0.010 A 
ATOM     79  C   UNL     1      -9.436 -10.905  -1.150  1.00  0.00     0.010 A 
ATOM     80  C   UNL     1     -11.336 -11.198  -3.180  1.00  0.00     0.020 A 
ATOM     81  C   UNL     1      -9.021 -10.984  -2.482  1.00  0.00     0.020 A 
ATOM     82  C   UNL     1      -9.974 -11.141  -3.488  1.00  0.00     0.054 A 
BRANCH  82  83
ATOM     83  S   UNL     1      -9.468 -11.236  -5.228  1.00  0.00     0.124 S 
ATOM     84  O   UNL     1      -9.790 -12.620  -5.564  1.00  0.00    -0.237 OA
ATOM     85  O   UNL     1     -10.311 -10.220  -5.853  1.00  0.00    -0.237 OA
ATOM     86  O   UNL     1      -8.043 -10.916  -5.189  1.00  0.00    -0.744 OA
ENDBRANCH  82  83
ENDBRANCH  54  77
BRANCH  66  87
ATOM     87  C   UNL     1     -14.009 -15.374   3.531  1.00  0.00    -0.014 A 
ATOM     88  C   UNL     1     -13.170 -16.484   3.329  1.00  0.00     0.010 A 
ATOM     89  C   UNL     1     -15.399 -15.578   3.623  1.00  0.00     0.010 A 
ATOM     90  C   UNL     1     -13.713 -17.765   3.187  1.00  0.00     0.020 A 
ATOM     91  C   UNL     1     -15.943 -16.861   3.521  1.00  0.00     0.020 A 
ATOM     92  C   UNL     1     -15.096 -17.945   3.288  1.00  0.00     0.054 A 
BRANCH  92  93
ATOM     93  S   UNL     1     -15.768 -19.624   3.145  1.00  0.00     0.124 S 
ATOM     94  O   UNL     1     -15.540 -19.925   1.734  1.00  0.00    -0.237 OA
ATOM     95  O   UNL     1     -14.947 -20.377   4.090  1.00  0.00    -0.237 OA
ATOM     96  O   UNL     1     -17.170 -19.471   3.529  1.00  0.00    -0.744 OA
ENDBRANCH  92  93
ENDBRANCH  66  87
ENDBRANCH  40  41
ENDBRANCH  33  35
ENDBRANCH  32  33
ENDBRANCH  31  32
ENDBRANCH  30  31
ENDBRANCH  29  30
ENDBRANCH  28  29
ENDBRANCH  27  28
ENDBRANCH   1  27
TORSDOF 26
