REMARK SMILES O=C(OCCOCCOCCOCCOC(=O)[C@@H](F)[C@H]1CCCc2cccnc21)c1ccc(-c2c3nc(c(-c4ccc(S(=O)(=O)[O-])cc4)c4ccc([nH]4)c(-c4ccc(S(=O)(=O)[O-])cc4)c4nc(c(-c5ccc(S(=O)(=O)[O-])cc5)c5ccc2[nH]5)C=C4)C=C3)cc1
REMARK SMILES IDX 8 1 7 2 6 3 5 4 4 5 3 6 2 7 1 8 30 9 31 10 89 11 32 12 88 13
REMARK SMILES IDX 33 14 34 15 35 16 82 17 36 18 87 19 81 20 83 21 37 22 86 23
REMARK SMILES IDX 80 24 79 25 38 27 68 28 49 29 67 30 50 31 53 32 66 33 84 34
REMARK SMILES IDX 51 35 52 36 65 38 85 39 54 40 39 41 40 42 48 43 41 44 47 45
REMARK SMILES IDX 42 46 43 47 44 48 45 49 46 50 69 51 70 52 78 53 71 54 77 55
REMARK SMILES IDX 72 56 73 57 74 58 75 59 76 60 55 61 56 62 64 63 57 64 63 65
REMARK SMILES IDX 58 66 59 67 60 68 61 69 62 70 9 71 10 72 11 73 12 74 13 75
REMARK SMILES IDX 14 76 15 77 16 78 17 79 18 80 19 81 20 82 21 83 29 84 22 85
REMARK SMILES IDX 24 86 28 87 23 88 25 89 27 90 26 91
REMARK H PARENT 83 26 53 37
REMARK Flexibility Score: inf
ROOT
ATOM      1  C   UNL     1       8.059   0.347  -6.794  1.00  0.00     0.188 C 
ENDROOT
BRANCH   1   2
ATOM      2  C   UNL     1       8.702  -0.667  -7.742  1.00  0.00     0.188 C 
BRANCH   2   3
ATOM      3  O   UNL     1       9.094  -0.021  -8.946  1.00  0.00    -0.376 OA
BRANCH   3   4
ATOM      4  C   UNL     1       9.154  -0.794 -10.132  1.00  0.00     0.202 C 
BRANCH   4   5
ATOM      5  C   UNL     1      10.076  -2.013 -10.109  1.00  0.00     0.261 C 
BRANCH   5   6
ATOM      6  O   UNL     1      10.811  -2.218  -8.884  1.00  0.00    -0.460 OA
BRANCH   6   7
ATOM      7  C   UNL     1      11.999  -1.695  -8.498  1.00  0.00     0.338 C 
ATOM      8  O   UNL     1      12.586  -2.160  -7.526  1.00  0.00    -0.246 OA
BRANCH   7   9
ATOM      9  C   UNL     1      12.642  -0.597  -9.253  1.00  0.00     0.060 A 
ATOM     10  C   UNL     1      11.972   0.569  -9.602  1.00  0.00     0.016 A 
ATOM     11  C   UNL     1      14.011  -0.685  -9.517  1.00  0.00     0.016 A 
ATOM     12  C   UNL     1      12.565   1.515 -10.425  1.00  0.00     0.010 A 
ATOM     13  C   UNL     1      14.654   0.333 -10.230  1.00  0.00     0.010 A 
ATOM     14  C   UNL     1      13.911   1.398 -10.764  1.00  0.00    -0.014 A 
BRANCH  14  15
ATOM     15  C   UNL     1      14.483   2.297 -11.796  1.00  0.00     0.031 A 
ATOM     16  C   UNL     1      14.983   1.676 -13.074  1.00  0.00     0.074 A 
ATOM     17  C   UNL     1      14.456   3.636 -11.646  1.00  0.00     0.049 A 
ATOM     18  N   UNL     1      15.646   2.221 -14.058  1.00  0.00    -0.248 NA
ATOM     19  C   UNL     1      14.711   0.239 -13.261  1.00  0.00     0.031 C 
ATOM     20  C   UNL     1      13.887   4.354 -10.501  1.00  0.00     0.029 A 
ATOM     21  N   UNL     1      14.879   4.638 -12.481  1.00  0.00    -0.354 N 
ATOM     22  C   UNL     1      15.940   1.179 -14.933  1.00  0.00     0.074 A 
ATOM     23  C   UNL     1      15.381  -0.027 -14.370  1.00  0.00     0.031 C 
ATOM     24  C   UNL     1      13.931   5.675 -10.741  1.00  0.00     0.029 A 
ATOM     25  C   UNL     1      14.623   5.902 -12.004  1.00  0.00     0.049 A 
ATOM     26  H   UNL     1      15.325   4.468 -13.342  1.00  0.00     0.167 HD
ATOM     27  C   UNL     1      16.627   1.228 -16.098  1.00  0.00     0.031 A 
ATOM     28  C   UNL     1      14.943   7.107 -12.516  1.00  0.00     0.031 A 
ATOM     29  C   UNL     1      17.128   2.450 -16.659  1.00  0.00     0.049 A 
ATOM     30  C   UNL     1      15.732   7.138 -13.796  1.00  0.00     0.074 A 
ATOM     31  C   UNL     1      17.879   2.637 -17.804  1.00  0.00     0.029 A 
ATOM     32  N   UNL     1      16.898   3.708 -16.116  1.00  0.00    -0.354 N 
ATOM     33  N   UNL     1      16.107   6.135 -14.557  1.00  0.00    -0.248 NA
ATOM     34  C   UNL     1      16.166   8.456 -14.275  1.00  0.00     0.031 C 
ATOM     35  C   UNL     1      18.131   4.008 -17.934  1.00  0.00     0.029 A 
ATOM     36  C   UNL     1      17.495   4.677 -16.898  1.00  0.00     0.049 A 
ATOM     37  H   UNL     1      16.385   3.882 -15.294  1.00  0.00     0.167 HD
ATOM     38  C   UNL     1      16.815   6.700 -15.609  1.00  0.00     0.074 A 
ATOM     39  C   UNL     1      16.793   8.136 -15.399  1.00  0.00     0.031 C 
ATOM     40  C   UNL     1      17.438   6.095 -16.651  1.00  0.00     0.031 A 
BRANCH  27  41
ATOM     41  C   UNL     1      16.933  -0.084 -16.769  1.00  0.00    -0.014 A 
ATOM     42  C   UNL     1      15.938  -0.844 -17.410  1.00  0.00     0.010 A 
ATOM     43  C   UNL     1      18.244  -0.591 -16.706  1.00  0.00     0.010 A 
ATOM     44  C   UNL     1      16.236  -2.111 -17.922  1.00  0.00     0.020 A 
ATOM     45  C   UNL     1      18.552  -1.845 -17.241  1.00  0.00     0.020 A 
ATOM     46  C   UNL     1      17.539  -2.609 -17.822  1.00  0.00     0.054 A 
BRANCH  46  47
ATOM     47  S   UNL     1      17.897  -4.267 -18.467  1.00  0.00     0.124 S 
ATOM     48  O   UNL     1      17.307  -5.122 -17.440  1.00  0.00    -0.237 OA
ATOM     49  O   UNL     1      17.208  -4.268 -19.755  1.00  0.00    -0.237 OA
ATOM     50  O   UNL     1      19.355  -4.301 -18.545  1.00  0.00    -0.744 OA
ENDBRANCH  46  47
ENDBRANCH  27  41
BRANCH  28  51
ATOM     51  C   UNL     1      14.570   8.360 -11.798  1.00  0.00    -0.014 A 
ATOM     52  C   UNL     1      13.651   9.266 -12.357  1.00  0.00     0.010 A 
ATOM     53  C   UNL     1      15.129   8.654 -10.539  1.00  0.00     0.010 A 
ATOM     54  C   UNL     1      13.306  10.441 -11.678  1.00  0.00     0.020 A 
ATOM     55  C   UNL     1      14.764   9.810  -9.843  1.00  0.00     0.020 A 
ATOM     56  C   UNL     1      13.863  10.704 -10.423  1.00  0.00     0.054 A 
BRANCH  56  57
ATOM     57  S   UNL     1      13.363  12.204  -9.532  1.00  0.00     0.124 S 
ATOM     58  O   UNL     1      14.101  13.242 -10.248  1.00  0.00    -0.237 OA
ATOM     59  O   UNL     1      11.914  12.216  -9.717  1.00  0.00    -0.237 OA
ATOM     60  O   UNL     1      13.806  11.952  -8.163  1.00  0.00    -0.744 OA
ENDBRANCH  56  57
ENDBRANCH  28  51
BRANCH  40  61
ATOM     61  C   UNL     1      18.104   6.992 -17.654  1.00  0.00    -0.014 A 
ATOM     62  C   UNL     1      19.328   7.618 -17.366  1.00  0.00     0.010 A 
ATOM     63  C   UNL     1      17.517   7.162 -18.920  1.00  0.00     0.010 A 
ATOM     64  C   UNL     1      19.941   8.430 -18.321  1.00  0.00     0.020 A 
ATOM     65  C   UNL     1      18.139   7.953 -19.885  1.00  0.00     0.020 A 
ATOM     66  C   UNL     1      19.340   8.594 -19.574  1.00  0.00     0.054 A 
BRANCH  66  67
ATOM     67  S   UNL     1      20.173   9.620 -20.815  1.00  0.00     0.124 S 
ATOM     68  O   UNL     1      19.859  10.969 -20.352  1.00  0.00    -0.237 OA
ATOM     69  O   UNL     1      21.571   9.217 -20.682  1.00  0.00    -0.237 OA
ATOM     70  O   UNL     1      19.536   9.227 -22.070  1.00  0.00    -0.744 OA
ENDBRANCH  66  67
ENDBRANCH  40  61
ENDBRANCH  14  15
ENDBRANCH   7   9
ENDBRANCH   6   7
ENDBRANCH   5   6
ENDBRANCH   4   5
ENDBRANCH   3   4
ENDBRANCH   2   3
ENDBRANCH   1   2
BRANCH   1  71
ATOM     71  O   UNL     1       6.807   0.885  -7.236  1.00  0.00    -0.377 OA
BRANCH  71  72
ATOM     72  C   UNL     1       6.770   1.492  -8.529  1.00  0.00     0.188 C 
BRANCH  72  73
ATOM     73  C   UNL     1       7.584   2.786  -8.740  1.00  0.00     0.188 C 
BRANCH  73  74
ATOM     74  O   UNL     1       8.869   2.705  -8.155  1.00  0.00    -0.376 OA
BRANCH  74  75
ATOM     75  C   UNL     1       9.283   3.740  -7.277  1.00  0.00     0.202 C 
BRANCH  75  76
ATOM     76  C   UNL     1       8.375   4.214  -6.119  1.00  0.00     0.261 C 
BRANCH  76  77
ATOM     77  O   UNL     1       7.175   3.457  -5.901  1.00  0.00    -0.461 OA
BRANCH  77  78
ATOM     78  C   UNL     1       5.998   4.101  -6.167  1.00  0.00     0.341 C 
ATOM     79  O   UNL     1       5.943   5.261  -6.555  1.00  0.00    -0.249 OA
BRANCH  78  80
ATOM     80  C   UNL     1       4.798   3.153  -6.108  1.00  0.00     0.284 C 
ATOM     81  F   UNL     1       5.084   2.048  -5.343  1.00  0.00    -0.234 F 
BRANCH  80  82
ATOM     82  C   UNL     1       3.458   3.718  -5.589  1.00  0.00     0.084 C 
ATOM     83  C   UNL     1       3.231   5.232  -5.710  1.00  0.00     0.014 C 
ATOM     84  C   UNL     1       2.321   2.968  -6.289  1.00  0.00     0.050 A 
ATOM     85  C   UNL     1       2.964   5.642  -7.154  1.00  0.00     0.006 C 
ATOM     86  C   UNL     1       1.515   3.582  -7.260  1.00  0.00    -0.026 A 
ATOM     87  N   UNL     1       2.163   1.665  -5.949  1.00  0.00    -0.261 NA
ATOM     88  C   UNL     1       1.647   5.037  -7.622  1.00  0.00     0.037 C 
ATOM     89  C   UNL     1       0.510   2.820  -7.869  1.00  0.00     0.007 A 
ATOM     90  C   UNL     1       1.203   0.954  -6.580  1.00  0.00     0.111 A 
ATOM     91  C   UNL     1       0.355   1.483  -7.532  1.00  0.00     0.020 A 
ENDBRANCH  80  82
ENDBRANCH  78  80
ENDBRANCH  77  78
ENDBRANCH  76  77
ENDBRANCH  75  76
ENDBRANCH  74  75
ENDBRANCH  73  74
ENDBRANCH  72  73
ENDBRANCH  71  72
ENDBRANCH   1  71
TORSDOF 24
