REMARK SMILES CN(C)c1cc(C(F)(F)F)cc(-c2cccc(/C=C/C(=O)OCCOCCOCCOCCOC(=O)c3ccc(-c4c5nc(c(-c6ccc(S(=O)(=O)[O-])cc6)c6ccc([nH]6)c(-c6ccc(S(=O)(=O)[O-])cc6)c6nc(c(-c7ccc(S(=O)(=O)[O-])cc7)c7ccc4[nH]7)C=C6)C=C5)cc3)c2)n1
REMARK SMILES IDX 28 1 27 2 26 3 25 4 24 5 23 6 22 7 20 8 21 9 19 10 18 11
REMARK SMILES IDX 17 12 13 13 14 14 97 15 15 16 16 17 12 18 4 19 5 20 98 21
REMARK SMILES IDX 6 22 11 23 2 24 1 25 3 26 7 27 8 28 9 29 10 30 29 31 30 32
REMARK SMILES IDX 31 33 32 34 33 35 34 36 35 37 36 38 37 39 38 40 96 41 39 42
REMARK SMILES IDX 95 43 40 44 41 45 42 46 89 47 43 48 94 49 88 50 90 51 44 52
REMARK SMILES IDX 93 53 87 54 86 55 45 57 75 58 56 59 74 60 57 61 60 62 73 63
REMARK SMILES IDX 91 64 58 65 59 66 72 68 92 69 61 70 46 71 47 72 55 73 48 74
REMARK SMILES IDX 54 75 49 76 50 77 51 78 52 79 53 80 76 81 77 82 85 83 78 84
REMARK SMILES IDX 84 85 79 86 80 87 81 88 82 89 83 90 62 91 63 92 71 93 64 94
REMARK SMILES IDX 70 95 65 96 66 97 67 98 68 99 69 100
REMARK H PARENT 90 56 60 67
REMARK Flexibility Score: inf
ROOT
ATOM      1  O   UNL     1      -1.760   0.468  11.038  1.00  0.00    -0.377 OA
ENDROOT
BRANCH   1   2
ATOM      2  C   UNL     1      -2.987  -0.200  10.802  1.00  0.00     0.188 C 
BRANCH   2   3
ATOM      3  C   UNL     1      -3.540  -1.079  11.940  1.00  0.00     0.188 C 
BRANCH   3   4
ATOM      4  O   UNL     1      -2.993  -0.775  13.210  1.00  0.00    -0.376 OA
BRANCH   4   5
ATOM      5  C   UNL     1      -2.004  -1.613  13.779  1.00  0.00     0.202 C 
BRANCH   5   6
ATOM      6  C   UNL     1      -0.763  -2.048  12.982  1.00  0.00     0.261 C 
BRANCH   6   7
ATOM      7  O   UNL     1      -0.966  -2.352  11.600  1.00  0.00    -0.460 OA
BRANCH   7   8
ATOM      8  C   UNL     1      -1.519  -3.544  11.300  1.00  0.00     0.330 C 
ATOM      9  O   UNL     1      -1.878  -4.397  12.097  1.00  0.00    -0.247 OA
BRANCH   8  10
ATOM     10  C   UNL     1      -1.807  -3.638   9.850  1.00  0.00     0.094 C 
ATOM     11  C   UNL     1      -1.260  -2.839   8.918  1.00  0.00     0.015 C 
BRANCH  11  12
ATOM     12  C   UNL     1      -1.581  -2.905   7.483  1.00  0.00    -0.025 A 
ATOM     13  C   UNL     1      -0.824  -2.593   5.169  1.00  0.00     0.001 A 
ATOM     14  C   UNL     1      -2.095  -2.986   4.724  1.00  0.00     0.010 A 
ATOM     15  C   UNL     1      -0.592  -2.542   6.557  1.00  0.00     0.018 A 
ATOM     16  C   UNL     1      -3.100  -3.317   5.634  1.00  0.00     0.001 A 
ATOM     17  C   UNL     1      -2.846  -3.268   7.006  1.00  0.00     0.008 A 
BRANCH  13  18
ATOM     18  C   UNL     1       0.243  -2.267   4.214  1.00  0.00     0.073 A 
ATOM     19  C   UNL     1       0.877  -0.977   2.365  1.00  0.00     0.129 A 
ATOM     20  C   UNL     1       2.136  -1.572   2.375  1.00  0.00     0.060 A 
ATOM     21  N   UNL     1      -0.056  -1.336   3.276  1.00  0.00    -0.231 NA
ATOM     22  C   UNL     1       2.462  -2.521   3.349  1.00  0.00     0.061 A 
ATOM     23  C   UNL     1       1.488  -2.877   4.280  1.00  0.00     0.042 A 
BRANCH  19  24
ATOM     24  N   UNL     1       0.571   0.026   1.460  1.00  0.00    -0.363 N 
ATOM     25  C   UNL     1       0.996  -0.067   0.079  1.00  0.00     0.144 C 
ATOM     26  C   UNL     1      -0.493   0.942   1.829  1.00  0.00     0.144 C 
ENDBRANCH  19  24
BRANCH  22  27
ATOM     27  C   UNL     1       3.835  -3.124   3.430  1.00  0.00     0.416 C 
ATOM     28  F   UNL     1       4.447  -2.864   4.616  1.00  0.00    -0.166 F 
ATOM     29  F   UNL     1       3.810  -4.480   3.308  1.00  0.00    -0.166 F 
ATOM     30  F   UNL     1       4.683  -2.680   2.461  1.00  0.00    -0.166 F 
ENDBRANCH  22  27
ENDBRANCH  13  18
ENDBRANCH  11  12
ENDBRANCH   8  10
ENDBRANCH   7   8
ENDBRANCH   6   7
ENDBRANCH   5   6
ENDBRANCH   4   5
ENDBRANCH   3   4
ENDBRANCH   2   3
ENDBRANCH   1   2
BRANCH   1  31
ATOM     31  C   UNL     1      -1.657   1.420  12.098  1.00  0.00     0.188 C 
BRANCH  31  32
ATOM     32  C   UNL     1      -2.883   1.944  12.887  1.00  0.00     0.188 C 
BRANCH  32  33
ATOM     33  O   UNL     1      -4.137   1.734  12.258  1.00  0.00    -0.376 OA
BRANCH  33  34
ATOM     34  C   UNL     1      -4.800   2.865  11.723  1.00  0.00     0.202 C 
BRANCH  34  35
ATOM     35  C   UNL     1      -4.119   3.551  10.531  1.00  0.00     0.261 C 
BRANCH  35  36
ATOM     36  O   UNL     1      -2.763   3.971  10.738  1.00  0.00    -0.460 OA
BRANCH  36  37
ATOM     37  C   UNL     1      -2.553   4.948  11.652  1.00  0.00     0.338 C 
ATOM     38  O   UNL     1      -3.389   5.514  12.323  1.00  0.00    -0.246 OA
BRANCH  37  39
ATOM     39  C   UNL     1      -1.090   5.079  11.827  1.00  0.00     0.060 A 
ATOM     40  C   UNL     1      -0.528   4.840  13.088  1.00  0.00     0.016 A 
ATOM     41  C   UNL     1      -0.280   5.427  10.745  1.00  0.00     0.016 A 
ATOM     42  C   UNL     1       0.848   4.982  13.276  1.00  0.00     0.010 A 
ATOM     43  C   UNL     1       1.094   5.587  10.939  1.00  0.00     0.010 A 
ATOM     44  C   UNL     1       1.660   5.398  12.213  1.00  0.00    -0.014 A 
BRANCH  44  45
ATOM     45  C   UNL     1       3.059   5.822  12.467  1.00  0.00     0.031 A 
ATOM     46  C   UNL     1       3.343   7.295  12.598  1.00  0.00     0.074 A 
ATOM     47  C   UNL     1       4.056   4.927  12.586  1.00  0.00     0.049 A 
ATOM     48  N   UNL     1       4.486   7.907  12.764  1.00  0.00    -0.248 NA
ATOM     49  C   UNL     1       2.181   8.196  12.528  1.00  0.00     0.031 C 
ATOM     50  C   UNL     1       3.903   3.474  12.521  1.00  0.00     0.029 A 
ATOM     51  N   UNL     1       5.402   5.116  12.777  1.00  0.00    -0.354 N 
ATOM     52  C   UNL     1       4.183   9.264  12.803  1.00  0.00     0.074 A 
ATOM     53  C   UNL     1       2.755   9.386  12.617  1.00  0.00     0.031 C 
ATOM     54  C   UNL     1       5.113   2.903  12.660  1.00  0.00     0.029 A 
ATOM     55  C   UNL     1       6.128   3.948  12.783  1.00  0.00     0.049 A 
ATOM     56  H   UNL     1       5.810   6.004  12.897  1.00  0.00     0.167 HD
ATOM     57  C   UNL     1       5.019  10.314  12.982  1.00  0.00     0.031 A 
ATOM     58  C   UNL     1       7.460   3.748  12.854  1.00  0.00     0.031 A 
ATOM     59  C   UNL     1       6.443  10.188  13.151  1.00  0.00     0.049 A 
ATOM     60  C   UNL     1       8.380   4.937  12.976  1.00  0.00     0.074 A 
ATOM     61  C   UNL     1       7.374  11.190  13.358  1.00  0.00     0.029 A 
ATOM     62  N   UNL     1       7.142   8.991  13.121  1.00  0.00    -0.354 N 
ATOM     63  N   UNL     1       8.078   6.212  13.043  1.00  0.00    -0.248 NA
ATOM     64  C   UNL     1       9.822   4.658  13.042  1.00  0.00     0.031 C 
ATOM     65  C   UNL     1       8.644  10.606  13.384  1.00  0.00     0.029 A 
ATOM     66  C   UNL     1       8.497   9.232  13.273  1.00  0.00     0.049 A 
ATOM     67  H   UNL     1       6.735   8.102  13.009  1.00  0.00     0.167 HD
ATOM     68  C   UNL     1       9.289   6.884  13.190  1.00  0.00     0.074 A 
ATOM     69  C   UNL     1      10.325   5.873  13.217  1.00  0.00     0.031 C 
ATOM     70  C   UNL     1       9.520   8.216  13.298  1.00  0.00     0.031 A 
BRANCH  57  71
ATOM     71  C   UNL     1       4.419  11.695  12.958  1.00  0.00    -0.014 A 
ATOM     72  C   UNL     1       3.587  12.152  13.996  1.00  0.00     0.010 A 
ATOM     73  C   UNL     1       4.728  12.566  11.896  1.00  0.00     0.010 A 
ATOM     74  C   UNL     1       3.046  13.440  13.953  1.00  0.00     0.020 A 
ATOM     75  C   UNL     1       4.214  13.865  11.866  1.00  0.00     0.020 A 
ATOM     76  C   UNL     1       3.364  14.289  12.888  1.00  0.00     0.054 A 
BRANCH  76  77
ATOM     77  S   UNL     1       2.671  15.965  12.876  1.00  0.00     0.124 S 
ATOM     78  O   UNL     1       1.260  15.706  12.604  1.00  0.00    -0.237 OA
ATOM     79  O   UNL     1       2.974  16.445  14.221  1.00  0.00    -0.237 OA
ATOM     80  O   UNL     1       3.399  16.634  11.800  1.00  0.00    -0.744 OA
ENDBRANCH  76  77
ENDBRANCH  57  71
BRANCH  58  81
ATOM     81  C   UNL     1       8.010   2.364  12.786  1.00  0.00    -0.014 A 
ATOM     82  C   UNL     1       8.639   1.783  13.901  1.00  0.00     0.010 A 
ATOM     83  C   UNL     1       7.910   1.619  11.596  1.00  0.00     0.010 A 
ATOM     84  C   UNL     1       9.169   0.490  13.823  1.00  0.00     0.020 A 
ATOM     85  C   UNL     1       8.409   0.316  11.524  1.00  0.00     0.020 A 
ATOM     86  C   UNL     1       9.045  -0.237  12.636  1.00  0.00     0.054 A 
BRANCH  86  87
ATOM     87  S   UNL     1       9.687  -1.933  12.579  1.00  0.00     0.124 S 
ATOM     88  O   UNL     1      11.130  -1.714  12.592  1.00  0.00    -0.237 OA
ATOM     89  O   UNL     1       9.124  -2.522  13.792  1.00  0.00    -0.237 OA
ATOM     90  O   UNL     1       9.145  -2.463  11.329  1.00  0.00    -0.744 OA
ENDBRANCH  86  87
ENDBRANCH  58  81
BRANCH  70  91
ATOM     91  C   UNL     1      10.946   8.667  13.500  1.00  0.00    -0.014 A 
ATOM     92  C   UNL     1      11.898   8.580  12.469  1.00  0.00     0.010 A 
ATOM     93  C   UNL     1      11.319   9.247  14.727  1.00  0.00     0.010 A 
ATOM     94  C   UNL     1      13.205   9.034  12.674  1.00  0.00     0.020 A 
ATOM     95  C   UNL     1      12.614   9.733  14.924  1.00  0.00     0.020 A 
ATOM     96  C   UNL     1      13.553   9.610  13.900  1.00  0.00     0.054 A 
BRANCH  96  97
ATOM     97  S   UNL     1      15.243  10.232  14.123  1.00  0.00     0.124 S 
ATOM     98  O   UNL     1      16.015   8.995  14.201  1.00  0.00    -0.237 OA
ATOM     99  O   UNL     1      15.452  11.029  12.917  1.00  0.00    -0.237 OA
ATOM    100  O   UNL     1      15.169  10.999  15.365  1.00  0.00    -0.744 OA
ENDBRANCH  96  97
ENDBRANCH  70  91
ENDBRANCH  44  45
ENDBRANCH  37  39
ENDBRANCH  36  37
ENDBRANCH  35  36
ENDBRANCH  34  35
ENDBRANCH  33  34
ENDBRANCH  32  33
ENDBRANCH  31  32
ENDBRANCH   1  31
TORSDOF 27
