REMARK SMILES Cc1ccc(C[C@H](C(=O)OCCOCCOCCOCCOC(=O)c2ccc(-c3c4nc(c(-c5ccc(S(=O)(=O)[O-])cc5)c5ccc([nH]5)c(-c5ccc(S(=O)(=O)[O-])cc5)c5nc(c(-c6ccc(S(=O)(=O)[O-])cc6)c6ccc3[nH]6)C=C5)C=C4)cc2)[C@@H]2CCCC[C@@H]2O)cc1
REMARK SMILES IDX 17 1 16 2 15 3 14 4 13 5 12 6 11 7 10 8 8 9 9 10 7 11 6 12
REMARK SMILES IDX 5 13 1 14 2 15 3 16 93 17 4 18 92 19 85 20 86 21 90 22 87 23
REMARK SMILES IDX 89 24 88 25 91 26 18 28 19 29 20 30 21 31 22 32 23 33 24 34
REMARK SMILES IDX 25 35 26 36 84 37 27 38 83 39 28 40 29 41 30 42 77 43 31 44
REMARK SMILES IDX 82 45 76 46 78 47 32 48 81 49 75 50 74 51 33 53 63 54 44 55
REMARK SMILES IDX 62 56 45 57 48 58 61 59 79 60 46 61 47 62 60 64 80 65 49 66
REMARK SMILES IDX 34 67 35 68 43 69 36 70 42 71 37 72 38 73 39 74 40 75 41 76
REMARK SMILES IDX 64 77 65 78 73 79 66 80 72 81 67 82 68 83 69 84 70 85 71 86
REMARK SMILES IDX 50 87 51 88 59 89 52 90 58 91 53 92 54 93 55 94 56 95 57 96
REMARK H PARENT 91 27 78 52 48 63
REMARK Flexibility Score: inf
ROOT
ATOM      1  C   UNL     1      -7.208  -3.103   2.868  1.00  0.00     0.188 C 
ENDROOT
BRANCH   1   2
ATOM      2  O   UNL     1      -7.418  -2.347   1.668  1.00  0.00    -0.377 OA
BRANCH   2   3
ATOM      3  C   UNL     1      -7.747  -3.062   0.489  1.00  0.00     0.188 C 
BRANCH   3   4
ATOM      4  C   UNL     1      -6.625  -3.454  -0.478  1.00  0.00     0.188 C 
BRANCH   4   5
ATOM      5  O   UNL     1      -5.572  -4.303  -0.055  1.00  0.00    -0.376 OA
BRANCH   5   6
ATOM      6  C   UNL     1      -4.474  -3.630   0.558  1.00  0.00     0.202 C 
BRANCH   6   7
ATOM      7  C   UNL     1      -3.815  -2.514  -0.238  1.00  0.00     0.261 C 
BRANCH   7   8
ATOM      8  O   UNL     1      -4.589  -1.321  -0.019  1.00  0.00    -0.463 OA
BRANCH   8   9
ATOM      9  C   UNL     1      -4.517  -0.414  -1.005  1.00  0.00     0.309 C 
ATOM     10  O   UNL     1      -3.588  -0.330  -1.808  1.00  0.00    -0.252 OA
BRANCH   9  11
ATOM     11  C   UNL     1      -5.858   0.287  -1.188  1.00  0.00     0.109 C 
BRANCH  11  12
ATOM     12  C   UNL     1      -5.889   1.665  -0.479  1.00  0.00     0.051 C 
BRANCH  12  13
ATOM     13  C   UNL     1      -6.128   1.875   1.018  1.00  0.00    -0.047 A 
ATOM     14  C   UNL     1      -6.943   3.147   5.125  1.00  0.00     0.044 C 
ATOM     15  C   UNL     1      -6.702   2.712   3.704  1.00  0.00    -0.051 A 
ATOM     16  C   UNL     1      -7.455   1.707   3.077  1.00  0.00     0.004 A 
ATOM     17  C   UNL     1      -5.649   3.275   2.986  1.00  0.00     0.004 A 
ATOM     18  C   UNL     1      -7.175   1.294   1.750  1.00  0.00     0.004 A 
ATOM     19  C   UNL     1      -5.378   2.874   1.669  1.00  0.00     0.004 A 
ENDBRANCH  12  13
ENDBRANCH  11  12
BRANCH  11  20
ATOM     20  C   UNL     1      -6.015   0.351  -2.775  1.00  0.00     0.032 C 
ATOM     21  C   UNL     1      -6.965   1.418  -3.325  1.00  0.00     0.007 C 
ATOM     22  C   UNL     1      -6.388  -1.007  -3.443  1.00  0.00     0.118 C 
ATOM     23  C   UNL     1      -8.426   1.072  -3.081  1.00  0.00     0.001 C 
ATOM     24  C   UNL     1      -7.852  -1.379  -3.199  1.00  0.00     0.032 C 
ATOM     25  C   UNL     1      -8.781  -0.280  -3.696  1.00  0.00     0.003 C 
BRANCH  22  26
ATOM     26  O   UNL     1      -5.572  -2.090  -3.042  1.00  0.00    -0.393 OA
ATOM     27  H   UNL     1      -5.704  -2.262  -2.096  1.00  0.00     0.210 HD
ENDBRANCH  22  26
ENDBRANCH  11  20
ENDBRANCH   9  11
ENDBRANCH   8   9
ENDBRANCH   7   8
ENDBRANCH   6   7
ENDBRANCH   5   6
ENDBRANCH   4   5
ENDBRANCH   3   4
ENDBRANCH   2   3
ENDBRANCH   1   2
BRANCH   1  28
ATOM     28  C   UNL     1      -7.930  -4.436   3.013  1.00  0.00     0.188 C 
BRANCH  28  29
ATOM     29  O   UNL     1      -7.268  -5.389   2.174  1.00  0.00    -0.376 OA
BRANCH  29  30
ATOM     30  C   UNL     1      -8.038  -6.526   1.822  1.00  0.00     0.202 C 
BRANCH  30  31
ATOM     31  C   UNL     1      -8.499  -7.357   3.022  1.00  0.00     0.261 C 
BRANCH  31  32
ATOM     32  O   UNL     1      -7.418  -8.158   3.541  1.00  0.00    -0.460 OA
BRANCH  32  33
ATOM     33  C   UNL     1      -6.939  -7.783   4.762  1.00  0.00     0.338 C 
ATOM     34  O   UNL     1      -7.338  -8.254   5.813  1.00  0.00    -0.246 OA
BRANCH  33  35
ATOM     35  C   UNL     1      -5.755  -6.894   4.629  1.00  0.00     0.060 A 
ATOM     36  C   UNL     1      -5.364  -6.030   5.661  1.00  0.00     0.016 A 
ATOM     37  C   UNL     1      -5.061  -6.875   3.427  1.00  0.00     0.016 A 
ATOM     38  C   UNL     1      -4.361  -5.068   5.442  1.00  0.00     0.010 A 
ATOM     39  C   UNL     1      -4.112  -5.897   3.203  1.00  0.00     0.010 A 
ATOM     40  C   UNL     1      -3.768  -4.952   4.182  1.00  0.00    -0.014 A 
BRANCH  40  41
ATOM     41  C   UNL     1      -2.971  -3.797   3.707  1.00  0.00     0.031 A 
ATOM     42  C   UNL     1      -1.758  -3.990   2.845  1.00  0.00     0.074 A 
ATOM     43  C   UNL     1      -3.607  -2.602   3.663  1.00  0.00     0.049 A 
ATOM     44  N   UNL     1      -1.135  -3.061   2.197  1.00  0.00    -0.248 NA
ATOM     45  C   UNL     1      -1.171  -5.300   2.591  1.00  0.00     0.031 C 
ATOM     46  C   UNL     1      -3.352  -1.510   2.727  1.00  0.00     0.029 A 
ATOM     47  N   UNL     1      -4.677  -2.110   4.388  1.00  0.00    -0.354 N 
ATOM     48  C   UNL     1      -0.364  -3.639   1.210  1.00  0.00     0.074 A 
ATOM     49  C   UNL     1      -0.364  -5.042   1.556  1.00  0.00     0.031 C 
ATOM     50  C   UNL     1      -4.147  -0.469   2.986  1.00  0.00     0.029 A 
ATOM     51  C   UNL     1      -4.674  -0.723   4.291  1.00  0.00     0.049 A 
ATOM     52  H   UNL     1      -5.330  -2.650   4.888  1.00  0.00     0.167 HD
ATOM     53  C   UNL     1       0.072  -2.882   0.151  1.00  0.00     0.031 A 
ATOM     54  C   UNL     1      -4.372   0.063   5.359  1.00  0.00     0.031 A 
ATOM     55  C   UNL     1      -0.270  -1.442   0.308  1.00  0.00     0.049 A 
ATOM     56  C   UNL     1      -3.077   0.849   5.051  1.00  0.00     0.074 A 
ATOM     57  C   UNL     1      -0.877  -0.489  -0.495  1.00  0.00     0.029 A 
ATOM     58  N   UNL     1      -0.127  -0.814   1.559  1.00  0.00    -0.354 N 
ATOM     59  N   UNL     1      -2.086   0.377   4.307  1.00  0.00    -0.248 NA
ATOM     60  C   UNL     1      -2.935   2.288   5.263  1.00  0.00     0.031 C 
ATOM     61  C   UNL     1      -1.196   0.648   0.304  1.00  0.00     0.029 A 
ATOM     62  C   UNL     1      -0.725   0.433   1.593  1.00  0.00     0.049 A 
ATOM     63  H   UNL     1       0.345  -1.217   2.324  1.00  0.00     0.167 HD
ATOM     64  C   UNL     1      -1.348   1.422   3.780  1.00  0.00     0.074 A 
ATOM     65  C   UNL     1      -1.886   2.589   4.471  1.00  0.00     0.031 C 
ATOM     66  C   UNL     1      -0.496   1.377   2.694  1.00  0.00     0.031 A 
BRANCH  53  67
ATOM     67  C   UNL     1       0.652  -3.480  -1.154  1.00  0.00    -0.014 A 
ATOM     68  C   UNL     1       0.774  -2.708  -2.333  1.00  0.00     0.010 A 
ATOM     69  C   UNL     1       1.094  -4.812  -1.294  1.00  0.00     0.010 A 
ATOM     70  C   UNL     1       1.258  -3.231  -3.555  1.00  0.00     0.020 A 
ATOM     71  C   UNL     1       1.570  -5.358  -2.504  1.00  0.00     0.020 A 
ATOM     72  C   UNL     1       1.655  -4.561  -3.634  1.00  0.00     0.054 A 
BRANCH  72  73
ATOM     73  S   UNL     1       2.341  -5.213  -5.183  1.00  0.00     0.124 S 
ATOM     74  O   UNL     1       1.225  -5.067  -6.113  1.00  0.00    -0.237 OA
ATOM     75  O   UNL     1       3.480  -4.330  -5.422  1.00  0.00    -0.237 OA
ATOM     76  O   UNL     1       2.692  -6.594  -4.854  1.00  0.00    -0.744 OA
ENDBRANCH  72  73
ENDBRANCH  53  67
BRANCH  54  77
ATOM     77  C   UNL     1      -5.186  -0.367   6.554  1.00  0.00    -0.014 A 
ATOM     78  C   UNL     1      -6.584  -0.182   6.359  1.00  0.00     0.010 A 
ATOM     79  C   UNL     1      -4.818  -1.459   7.370  1.00  0.00     0.010 A 
ATOM     80  C   UNL     1      -7.541  -1.131   6.736  1.00  0.00     0.020 A 
ATOM     81  C   UNL     1      -5.787  -2.425   7.767  1.00  0.00     0.020 A 
ATOM     82  C   UNL     1      -7.129  -2.283   7.385  1.00  0.00     0.054 A 
BRANCH  82  83
ATOM     83  S   UNL     1      -8.326  -3.659   7.466  1.00  0.00     0.124 S 
ATOM     84  O   UNL     1      -9.307  -3.167   8.427  1.00  0.00    -0.237 OA
ATOM     85  O   UNL     1      -8.794  -3.745   6.083  1.00  0.00    -0.237 OA
ATOM     86  O   UNL     1      -7.512  -4.783   7.911  1.00  0.00    -0.744 OA
ENDBRANCH  82  83
ENDBRANCH  54  77
BRANCH  66  87
ATOM     87  C   UNL     1       0.729   2.275   2.495  1.00  0.00    -0.014 A 
ATOM     88  C   UNL     1       1.046   3.402   3.256  1.00  0.00     0.010 A 
ATOM     89  C   UNL     1       1.726   1.846   1.568  1.00  0.00     0.010 A 
ATOM     90  C   UNL     1       2.306   4.015   3.156  1.00  0.00     0.020 A 
ATOM     91  C   UNL     1       2.989   2.431   1.475  1.00  0.00     0.020 A 
ATOM     92  C   UNL     1       3.281   3.502   2.298  1.00  0.00     0.054 A 
BRANCH  92  93
ATOM     93  S   UNL     1       4.954   4.180   2.369  1.00  0.00     0.124 S 
ATOM     94  O   UNL     1       4.755   5.540   1.874  1.00  0.00    -0.237 OA
ATOM     95  O   UNL     1       5.269   4.071   3.792  1.00  0.00    -0.237 OA
ATOM     96  O   UNL     1       5.730   3.304   1.496  1.00  0.00    -0.744 OA
ENDBRANCH  92  93
ENDBRANCH  66  87
ENDBRANCH  40  41
ENDBRANCH  33  35
ENDBRANCH  32  33
ENDBRANCH  31  32
ENDBRANCH  30  31
ENDBRANCH  29  30
ENDBRANCH  28  29
ENDBRANCH   1  28
TORSDOF 27
