REMARK SMILES O=C(Cc1cccn(C(F)F)c1=O)OCCOCCOCCOCCOC(=O)c1ccc(-c2c3nc(c(-c4ccc(S(=O)(=O)[O-])cc4)c4ccc([nH]4)c(-c4ccc(S(=O)(=O)[O-])cc4)c4nc(c(-c5ccc(S(=O)(=O)[O-])cc5)c5ccc2[nH]5)C=C4)C=C3)cc1
REMARK SMILES IDX 21 1 20 2 19 3 18 4 17 5 16 6 15 7 14 8 2 9 1 10 3 11 4 12
REMARK SMILES IDX 5 13 12 14 6 15 8 16 13 17 7 18 9 19 10 20 11 21 22 22 23 23
REMARK SMILES IDX 24 24 25 25 26 26 27 27 28 28 29 29 30 30 88 31 31 32 87 33
REMARK SMILES IDX 32 34 33 35 34 36 81 37 35 38 86 39 80 40 82 41 36 42 85 43
REMARK SMILES IDX 79 44 78 45 37 47 67 48 48 49 66 50 49 51 52 52 65 53 83 54
REMARK SMILES IDX 50 55 51 56 64 58 84 59 53 60 38 61 39 62 47 63 40 64 46 65
REMARK SMILES IDX 41 66 42 67 43 68 44 69 45 70 68 71 69 72 77 73 70 74 76 75
REMARK SMILES IDX 71 76 72 77 73 78 74 79 75 80 54 81 55 82 63 83 56 84 62 85
REMARK SMILES IDX 57 86 58 87 59 88 60 89 61 90
REMARK H PARENT 82 46 52 57
REMARK Flexibility Score: inf
ROOT
ATOM      1  C   UNL     1       4.086   2.998   2.059  1.00  0.00     0.188 C 
ENDROOT
BRANCH   1   2
ATOM      2  O   UNL     1       2.726   2.761   2.385  1.00  0.00    -0.377 OA
BRANCH   2   3
ATOM      3  C   UNL     1       2.097   1.757   1.596  1.00  0.00     0.188 C 
BRANCH   3   4
ATOM      4  C   UNL     1       2.686   0.357   1.790  1.00  0.00     0.188 C 
BRANCH   4   5
ATOM      5  O   UNL     1       4.093   0.292   1.620  1.00  0.00    -0.376 OA
BRANCH   5   6
ATOM      6  C   UNL     1       4.695  -0.005   0.375  1.00  0.00     0.202 C 
BRANCH   6   7
ATOM      7  C   UNL     1       4.162   0.664  -0.886  1.00  0.00     0.261 C 
BRANCH   7   8
ATOM      8  O   UNL     1       2.798   0.394  -1.271  1.00  0.00    -0.463 OA
BRANCH   8   9
ATOM      9  C   UNL     1       2.154  -0.765  -1.491  1.00  0.00     0.310 C 
ATOM     10  O   UNL     1       1.075  -0.747  -2.082  1.00  0.00    -0.252 OA
BRANCH   9  11
ATOM     11  C   UNL     1       2.658  -2.055  -0.888  1.00  0.00     0.164 C 
BRANCH  11  12
ATOM     12  C   UNL     1       3.808  -2.785  -1.502  1.00  0.00     0.029 A 
ATOM     13  C   UNL     1       4.727  -2.328  -2.368  1.00  0.00     0.011 A 
ATOM     14  C   UNL     1       3.884  -4.225  -1.072  1.00  0.00     0.258 A 
ATOM     15  C   UNL     1       5.809  -3.165  -2.822  1.00  0.00     0.019 A 
ATOM     16  N   UNL     1       4.827  -5.001  -1.712  1.00  0.00    -0.258 N 
ATOM     17  O   UNL     1       3.111  -4.658  -0.220  1.00  0.00    -0.269 OA
ATOM     18  C   UNL     1       5.803  -4.469  -2.528  1.00  0.00     0.095 A 
BRANCH  16  19
ATOM     19  C   UNL     1       4.685  -6.425  -1.584  1.00  0.00     0.451 C 
ATOM     20  F   UNL     1       4.202  -6.921  -2.756  1.00  0.00    -0.185 F 
ATOM     21  F   UNL     1       5.896  -7.011  -1.395  1.00  0.00    -0.185 F 
ENDBRANCH  16  19
ENDBRANCH  11  12
ENDBRANCH   9  11
ENDBRANCH   8   9
ENDBRANCH   7   8
ENDBRANCH   6   7
ENDBRANCH   5   6
ENDBRANCH   4   5
ENDBRANCH   3   4
ENDBRANCH   2   3
ENDBRANCH   1   2
BRANCH   1  22
ATOM     22  C   UNL     1       5.139   2.513   3.083  1.00  0.00     0.188 C 
BRANCH  22  23
ATOM     23  O   UNL     1       4.782   1.798   4.258  1.00  0.00    -0.376 OA
BRANCH  23  24
ATOM     24  C   UNL     1       3.585   2.118   4.947  1.00  0.00     0.202 C 
BRANCH  24  25
ATOM     25  C   UNL     1       3.375   3.546   5.472  1.00  0.00     0.261 C 
BRANCH  25  26
ATOM     26  O   UNL     1       3.551   4.588   4.501  1.00  0.00    -0.460 OA
BRANCH  26  27
ATOM     27  C   UNL     1       4.710   5.297   4.579  1.00  0.00     0.338 C 
ATOM     28  O   UNL     1       5.588   5.177   5.403  1.00  0.00    -0.246 OA
BRANCH  27  29
ATOM     29  C   UNL     1       4.843   6.099   3.335  1.00  0.00     0.060 A 
ATOM     30  C   UNL     1       3.784   6.873   2.854  1.00  0.00     0.016 A 
ATOM     31  C   UNL     1       6.030   5.991   2.594  1.00  0.00     0.016 A 
ATOM     32  C   UNL     1       3.924   7.557   1.642  1.00  0.00     0.010 A 
ATOM     33  C   UNL     1       6.156   6.649   1.367  1.00  0.00     0.010 A 
ATOM     34  C   UNL     1       5.113   7.458   0.896  1.00  0.00    -0.014 A 
BRANCH  34  35
ATOM     35  C   UNL     1       5.352   8.391  -0.233  1.00  0.00     0.031 A 
ATOM     36  C   UNL     1       5.123   8.014  -1.665  1.00  0.00     0.074 A 
ATOM     37  C   UNL     1       5.794   9.624   0.084  1.00  0.00     0.049 A 
ATOM     38  N   UNL     1       5.225   8.770  -2.727  1.00  0.00    -0.248 NA
ATOM     39  C   UNL     1       4.737   6.624  -1.951  1.00  0.00     0.031 C 
ATOM     40  C   UNL     1       6.068  10.082   1.449  1.00  0.00     0.029 A 
ATOM     41  N   UNL     1       6.086  10.711  -0.698  1.00  0.00    -0.354 N 
ATOM     42  C   UNL     1       4.889   7.965  -3.808  1.00  0.00     0.074 A 
ATOM     43  C   UNL     1       4.621   6.644  -3.277  1.00  0.00     0.031 C 
ATOM     44  C   UNL     1       6.477  11.357   1.409  1.00  0.00     0.029 A 
ATOM     45  C   UNL     1       6.520  11.801   0.019  1.00  0.00     0.049 A 
ATOM     46  H   UNL     1       5.994  10.711  -1.679  1.00  0.00     0.167 HD
ATOM     47  C   UNL     1       4.798   8.314  -5.114  1.00  0.00     0.031 A 
ATOM     48  C   UNL     1       6.912  13.025  -0.387  1.00  0.00     0.031 A 
ATOM     49  C   UNL     1       5.075   9.637  -5.621  1.00  0.00     0.049 A 
ATOM     50  C   UNL     1       6.833  13.370  -1.845  1.00  0.00     0.074 A 
ATOM     51  C   UNL     1       4.950  10.092  -6.924  1.00  0.00     0.029 A 
ATOM     52  N   UNL     1       5.537  10.708  -4.871  1.00  0.00    -0.354 N 
ATOM     53  N   UNL     1       6.417  12.623  -2.840  1.00  0.00    -0.248 NA
ATOM     54  C   UNL     1       7.257  14.720  -2.241  1.00  0.00     0.031 C 
ATOM     55  C   UNL     1       5.412  11.407  -6.976  1.00  0.00     0.029 A 
ATOM     56  C   UNL     1       5.746  11.805  -5.692  1.00  0.00     0.049 A 
ATOM     57  H   UNL     1       5.694  10.691  -3.899  1.00  0.00     0.167 HD
ATOM     58  C   UNL     1       6.519  13.415  -3.977  1.00  0.00     0.074 A 
ATOM     59  C   UNL     1       7.009  14.708  -3.545  1.00  0.00     0.031 C 
ATOM     60  C   UNL     1       6.238  13.091  -5.261  1.00  0.00     0.031 A 
BRANCH  47  61
ATOM     61  C   UNL     1       4.345   7.289  -6.124  1.00  0.00    -0.014 A 
ATOM     62  C   UNL     1       5.225   6.875  -7.143  1.00  0.00     0.010 A 
ATOM     63  C   UNL     1       2.989   6.924  -6.204  1.00  0.00     0.010 A 
ATOM     64  C   UNL     1       4.747   6.172  -8.253  1.00  0.00     0.020 A 
ATOM     65  C   UNL     1       2.512   6.199  -7.301  1.00  0.00     0.020 A 
ATOM     66  C   UNL     1       3.388   5.857  -8.334  1.00  0.00     0.054 A 
BRANCH  66  67
ATOM     67  S   UNL     1       2.770   5.037  -9.831  1.00  0.00     0.124 S 
ATOM     68  O   UNL     1       2.869   6.097 -10.829  1.00  0.00    -0.237 OA
ATOM     69  O   UNL     1       3.707   3.928  -9.992  1.00  0.00    -0.237 OA
ATOM     70  O   UNL     1       1.410   4.643  -9.470  1.00  0.00    -0.744 OA
ENDBRANCH  66  67
ENDBRANCH  47  61
BRANCH  48  71
ATOM     71  C   UNL     1       7.391  14.001   0.630  1.00  0.00    -0.014 A 
ATOM     72  C   UNL     1       8.577  13.744   1.345  1.00  0.00     0.010 A 
ATOM     73  C   UNL     1       6.633  15.138   0.952  1.00  0.00     0.010 A 
ATOM     74  C   UNL     1       8.968  14.575   2.396  1.00  0.00     0.020 A 
ATOM     75  C   UNL     1       7.041  15.994   1.981  1.00  0.00     0.020 A 
ATOM     76  C   UNL     1       8.191  15.690   2.714  1.00  0.00     0.054 A 
BRANCH  76  77
ATOM     77  S   UNL     1       8.702  16.737   4.103  1.00  0.00     0.124 S 
ATOM     78  O   UNL     1       8.302  15.927   5.251  1.00  0.00    -0.237 OA
ATOM     79  O   UNL     1      10.142  16.863   3.894  1.00  0.00    -0.237 OA
ATOM     80  O   UNL     1       7.937  17.965   3.905  1.00  0.00    -0.744 OA
ENDBRANCH  76  77
ENDBRANCH  48  71
BRANCH  60  81
ATOM     81  C   UNL     1       6.469  14.128  -6.331  1.00  0.00    -0.014 A 
ATOM     82  C   UNL     1       5.379  14.642  -7.060  1.00  0.00     0.010 A 
ATOM     83  C   UNL     1       7.776  14.467  -6.725  1.00  0.00     0.010 A 
ATOM     84  C   UNL     1       5.593  15.425  -8.197  1.00  0.00     0.020 A 
ATOM     85  C   UNL     1       7.992  15.277  -7.843  1.00  0.00     0.020 A 
ATOM     86  C   UNL     1       6.900  15.723  -8.591  1.00  0.00     0.054 A 
BRANCH  86  87
ATOM     87  S   UNL     1       7.158  16.674 -10.114  1.00  0.00     0.124 S 
ATOM     88  O   UNL     1       6.822  15.698 -11.147  1.00  0.00    -0.237 OA
ATOM     89  O   UNL     1       6.216  17.781  -9.963  1.00  0.00    -0.237 OA
ATOM     90  O   UNL     1       8.568  17.052 -10.049  1.00  0.00    -0.744 OA
ENDBRANCH  86  87
ENDBRANCH  60  81
ENDBRANCH  34  35
ENDBRANCH  27  29
ENDBRANCH  26  27
ENDBRANCH  25  26
ENDBRANCH  24  25
ENDBRANCH  23  24
ENDBRANCH  22  23
ENDBRANCH   1  22
TORSDOF 25
