REMARK SMILES CCCC[C@H](NS(=O)(=O)c1cccc(F)c1)C(=O)OCCOCCOCCOCCOC(=O)c1ccc(-c2c3nc(c(-c4ccc(S(=O)(=O)[O-])cc4)c4ccc([nH]4)c(-c4ccc(S(=O)(=O)[O-])cc4)c4nc(c(-c5ccc(S(=O)(=O)[O-])cc5)c5ccc2[nH]5)C=C4)C=C3)cc1
REMARK SMILES IDX 25 1 24 2 23 3 22 4 21 5 20 6 19 7 17 8 18 9 5 10 4 11 3 12
REMARK SMILES IDX 2 13 1 14 6 15 7 17 8 18 9 19 10 20 11 21 16 22 12 23 14 24
REMARK SMILES IDX 13 25 15 26 26 27 27 28 28 29 29 30 30 31 31 32 32 33 33 34
REMARK SMILES IDX 34 35 35 36 93 37 36 38 92 39 37 40 38 41 39 42 86 43 40 44
REMARK SMILES IDX 91 45 85 46 87 47 41 48 90 49 84 50 83 51 42 53 72 54 53 55
REMARK SMILES IDX 71 56 54 57 57 58 70 59 88 60 55 61 56 62 69 64 89 65 58 66
REMARK SMILES IDX 43 67 44 68 52 69 45 70 51 71 46 72 47 73 48 74 49 75 50 76
REMARK SMILES IDX 73 77 74 78 82 79 75 80 81 81 76 82 77 83 78 84 79 85 80 86
REMARK SMILES IDX 59 87 60 88 68 89 61 90 67 91 62 92 63 93 64 94 65 95 66 96
REMARK H PARENT 6 16 87 52 57 63
REMARK Flexibility Score: inf
ROOT
ATOM      1  O   UNL     1       0.775  -1.095   5.624  1.00  0.00    -0.377 OA
ENDROOT
BRANCH   1   2
ATOM      2  C   UNL     1      -0.217  -1.734   4.837  1.00  0.00     0.188 C 
BRANCH   2   3
ATOM      3  C   UNL     1      -1.592  -1.043   4.871  1.00  0.00     0.188 C 
BRANCH   3   4
ATOM      4  O   UNL     1      -2.594  -1.639   5.697  1.00  0.00    -0.376 OA
BRANCH   4   5
ATOM      5  C   UNL     1      -2.645  -3.061   5.742  1.00  0.00     0.202 C 
BRANCH   5   6
ATOM      6  C   UNL     1      -2.941  -3.796   4.424  1.00  0.00     0.261 C 
BRANCH   6   7
ATOM      7  O   UNL     1      -2.082  -3.438   3.312  1.00  0.00    -0.462 OA
BRANCH   7   8
ATOM      8  C   UNL     1      -2.714  -2.906   2.220  1.00  0.00     0.324 C 
ATOM      9  O   UNL     1      -3.915  -2.659   2.172  1.00  0.00    -0.250 OA
BRANCH   8  10
ATOM     10  C   UNL     1      -1.798  -2.712   1.006  1.00  0.00     0.179 C 
BRANCH  10  11
ATOM     11  C   UNL     1      -1.548  -4.077   0.354  1.00  0.00     0.032 C 
BRANCH  11  12
ATOM     12  C   UNL     1      -0.406  -4.188  -0.668  1.00  0.00     0.002 C 
BRANCH  12  13
ATOM     13  C   UNL     1       1.017  -4.414  -0.131  1.00  0.00    -0.003 C 
ATOM     14  C   UNL     1       1.125  -5.311   1.091  1.00  0.00     0.004 C 
ENDBRANCH  12  13
ENDBRANCH  11  12
ENDBRANCH  10  11
BRANCH  10  15
ATOM     15  N   UNL     1      -0.544  -1.992   1.279  1.00  0.00    -0.197 NA
ATOM     16  H   UNL     1       0.208  -2.680   1.260  1.00  0.00     0.142 HD
BRANCH  15  17
ATOM     17  S   UNL     1      -0.095  -0.729   0.240  1.00  0.00     0.241 S 
ATOM     18  O   UNL     1       1.257  -0.981  -0.194  1.00  0.00    -0.207 OA
ATOM     19  O   UNL     1      -1.163  -0.436  -0.690  1.00  0.00    -0.207 OA
BRANCH  17  20
ATOM     20  C   UNL     1      -0.037   0.556   1.436  1.00  0.00     0.085 A 
ATOM     21  C   UNL     1      -1.124   1.402   1.673  1.00  0.00     0.022 A 
ATOM     22  C   UNL     1       1.050   0.514   2.287  1.00  0.00     0.061 A 
ATOM     23  C   UNL     1      -1.161   2.147   2.853  1.00  0.00     0.004 A 
ATOM     24  C   UNL     1       0.964   1.216   3.457  1.00  0.00     0.124 A 
ATOM     25  C   UNL     1      -0.122   2.025   3.769  1.00  0.00     0.039 A 
ATOM     26  F   UNL     1       1.915   0.963   4.339  1.00  0.00    -0.207 F 
ENDBRANCH  17  20
ENDBRANCH  15  17
ENDBRANCH  10  15
ENDBRANCH   8  10
ENDBRANCH   7   8
ENDBRANCH   6   7
ENDBRANCH   5   6
ENDBRANCH   4   5
ENDBRANCH   3   4
ENDBRANCH   2   3
ENDBRANCH   1   2
BRANCH   1  27
ATOM     27  C   UNL     1       0.517  -1.047   7.017  1.00  0.00     0.188 C 
BRANCH  27  28
ATOM     28  C   UNL     1       0.667   0.382   7.581  1.00  0.00     0.188 C 
BRANCH  28  29
ATOM     29  O   UNL     1       1.001   1.359   6.599  1.00  0.00    -0.376 OA
BRANCH  29  30
ATOM     30  C   UNL     1       2.139   2.186   6.860  1.00  0.00     0.202 C 
BRANCH  30  31
ATOM     31  C   UNL     1       3.474   1.730   6.221  1.00  0.00     0.261 C 
BRANCH  31  32
ATOM     32  O   UNL     1       3.795   0.368   6.511  1.00  0.00    -0.460 OA
BRANCH  32  33
ATOM     33  C   UNL     1       4.147   0.206   7.799  1.00  0.00     0.338 C 
ATOM     34  O   UNL     1       4.297   1.083   8.635  1.00  0.00    -0.246 OA
BRANCH  33  35
ATOM     35  C   UNL     1       4.128  -1.213   8.146  1.00  0.00     0.060 A 
ATOM     36  C   UNL     1       3.331  -1.553   9.240  1.00  0.00     0.016 A 
ATOM     37  C   UNL     1       4.961  -2.146   7.523  1.00  0.00     0.016 A 
ATOM     38  C   UNL     1       3.418  -2.818   9.778  1.00  0.00     0.010 A 
ATOM     39  C   UNL     1       5.081  -3.414   8.091  1.00  0.00     0.010 A 
ATOM     40  C   UNL     1       4.356  -3.716   9.256  1.00  0.00    -0.014 A 
BRANCH  40  41
ATOM     41  C   UNL     1       4.726  -4.830  10.144  1.00  0.00     0.031 A 
ATOM     42  C   UNL     1       5.868  -4.614  11.098  1.00  0.00     0.074 A 
ATOM     43  C   UNL     1       3.919  -5.897  10.235  1.00  0.00     0.049 A 
ATOM     44  N   UNL     1       6.258  -5.355  12.099  1.00  0.00    -0.248 NA
ATOM     45  C   UNL     1       6.657  -3.382  10.917  1.00  0.00     0.031 C 
ATOM     46  C   UNL     1       2.731  -6.126   9.412  1.00  0.00     0.029 A 
ATOM     47  N   UNL     1       3.953  -6.961  11.092  1.00  0.00    -0.354 N 
ATOM     48  C   UNL     1       7.336  -4.683  12.664  1.00  0.00     0.074 A 
ATOM     49  C   UNL     1       7.555  -3.487  11.885  1.00  0.00     0.031 C 
ATOM     50  C   UNL     1       2.137  -7.260   9.818  1.00  0.00     0.029 A 
ATOM     51  C   UNL     1       2.921  -7.845  10.902  1.00  0.00     0.049 A 
ATOM     52  H   UNL     1       4.648  -7.081  11.778  1.00  0.00     0.167 HD
ATOM     53  C   UNL     1       8.074  -5.038  13.741  1.00  0.00     0.031 A 
ATOM     54  C   UNL     1       2.653  -9.003  11.533  1.00  0.00     0.031 A 
ATOM     55  C   UNL     1       7.850  -6.248  14.487  1.00  0.00     0.049 A 
ATOM     56  C   UNL     1       3.543  -9.418  12.672  1.00  0.00     0.074 A 
ATOM     57  C   UNL     1       8.545  -6.728  15.581  1.00  0.00     0.029 A 
ATOM     58  N   UNL     1       6.855  -7.174  14.204  1.00  0.00    -0.354 N 
ATOM     59  N   UNL     1       4.569  -8.784  13.192  1.00  0.00    -0.248 NA
ATOM     60  C   UNL     1       3.227 -10.695  13.321  1.00  0.00     0.031 C 
ATOM     61  C   UNL     1       8.016  -7.979  15.914  1.00  0.00     0.029 A 
ATOM     62  C   UNL     1       6.938  -8.241  15.082  1.00  0.00     0.049 A 
ATOM     63  H   UNL     1       6.189  -7.086  13.484  1.00  0.00     0.167 HD
ATOM     64  C   UNL     1       5.008  -9.574  14.248  1.00  0.00     0.074 A 
ATOM     65  C   UNL     1       4.117 -10.718  14.303  1.00  0.00     0.031 C 
ATOM     66  C   UNL     1       6.048  -9.376  15.098  1.00  0.00     0.031 A 
BRANCH  53  67
ATOM     67  C   UNL     1       9.230  -4.149  14.118  1.00  0.00    -0.014 A 
ATOM     68  C   UNL     1       9.036  -2.866  14.662  1.00  0.00     0.010 A 
ATOM     69  C   UNL     1      10.544  -4.619  13.934  1.00  0.00     0.010 A 
ATOM     70  C   UNL     1      10.133  -2.058  14.982  1.00  0.00     0.020 A 
ATOM     71  C   UNL     1      11.642  -3.828  14.281  1.00  0.00     0.020 A 
ATOM     72  C   UNL     1      11.430  -2.546  14.790  1.00  0.00     0.054 A 
BRANCH  72  73
ATOM     73  S   UNL     1      12.835  -1.490  15.237  1.00  0.00     0.124 S 
ATOM     74  O   UNL     1      12.779  -0.458  14.205  1.00  0.00    -0.237 OA
ATOM     75  O   UNL     1      12.486  -1.050  16.586  1.00  0.00    -0.237 OA
ATOM     76  O   UNL     1      13.985  -2.388  15.156  1.00  0.00    -0.744 OA
ENDBRANCH  72  73
ENDBRANCH  53  67
BRANCH  54  77
ATOM     77  C   UNL     1       1.521  -9.848  11.071  1.00  0.00    -0.014 A 
ATOM     78  C   UNL     1       0.392 -10.068  11.877  1.00  0.00     0.010 A 
ATOM     79  C   UNL     1       1.568 -10.429   9.789  1.00  0.00     0.010 A 
ATOM     80  C   UNL     1      -0.661 -10.864  11.415  1.00  0.00     0.020 A 
ATOM     81  C   UNL     1       0.505 -11.197   9.311  1.00  0.00     0.020 A 
ATOM     82  C   UNL     1      -0.600 -11.419  10.133  1.00  0.00     0.054 A 
BRANCH  82  83
ATOM     83  S   UNL     1      -2.002 -12.399   9.531  1.00  0.00     0.124 S 
ATOM     84  O   UNL     1      -1.890 -13.613  10.332  1.00  0.00    -0.237 OA
ATOM     85  O   UNL     1      -3.140 -11.537   9.838  1.00  0.00    -0.237 OA
ATOM     86  O   UNL     1      -1.720 -12.559   8.106  1.00  0.00    -0.744 OA
ENDBRANCH  82  83
ENDBRANCH  54  77
BRANCH  66  87
ATOM     87  C   UNL     1       6.248 -10.407  16.178  1.00  0.00    -0.014 A 
ATOM     88  C   UNL     1       6.662 -11.717  15.878  1.00  0.00     0.010 A 
ATOM     89  C   UNL     1       6.022 -10.050  17.520  1.00  0.00     0.010 A 
ATOM     90  C   UNL     1       6.779 -12.669  16.893  1.00  0.00     0.020 A 
ATOM     91  C   UNL     1       6.177 -10.988  18.542  1.00  0.00     0.020 A 
ATOM     92  C   UNL     1       6.527 -12.299  18.218  1.00  0.00     0.054 A 
BRANCH  92  93
ATOM     93  S   UNL     1       6.672 -13.555  19.517  1.00  0.00     0.124 S 
ATOM     94  O   UNL     1       5.483 -14.370  19.283  1.00  0.00    -0.237 OA
ATOM     95  O   UNL     1       7.946 -14.196  19.202  1.00  0.00    -0.237 OA
ATOM     96  O   UNL     1       6.660 -12.778  20.754  1.00  0.00    -0.744 OA
ENDBRANCH  92  93
ENDBRANCH  66  87
ENDBRANCH  40  41
ENDBRANCH  33  35
ENDBRANCH  32  33
ENDBRANCH  31  32
ENDBRANCH  30  31
ENDBRANCH  29  30
ENDBRANCH  28  29
ENDBRANCH  27  28
ENDBRANCH   1  27
TORSDOF 29
