REMARK SMILES O=C(OCCOCCOCCOCCOC(=O)c1ccc([C@@H]2CC(O)=Nc3c2ncn3-c2cccc(Cl)c2)cc1)c1ccc(-c2c3nc(c(-c4ccc(S(=O)(=O)[O-])cc4)c4ccc([nH]4)c(-c4ccc(S(=O)(=O)[O-])cc4)c4nc(c(-c5ccc(S(=O)(=O)[O-])cc5)c5ccc2[nH]5)C=C4)C=C3)cc1
REMARK SMILES IDX 8 1 7 2 6 3 5 4 4 5 3 6 2 7 1 8 41 9 42 10 100 11 43 12
REMARK SMILES IDX 99 13 44 14 45 15 46 16 93 17 47 18 98 19 92 20 94 21 48 22
REMARK SMILES IDX 97 23 91 24 90 25 49 27 79 28 60 29 78 30 61 31 64 32 77 33
REMARK SMILES IDX 95 34 62 35 63 36 76 38 96 39 65 40 50 41 51 42 59 43 52 44
REMARK SMILES IDX 58 45 53 46 54 47 55 48 56 49 57 50 80 51 81 52 89 53 82 54
REMARK SMILES IDX 88 55 83 56 84 57 85 58 86 59 87 60 66 61 67 62 75 63 68 64
REMARK SMILES IDX 74 65 69 66 70 67 71 68 72 69 73 70 9 71 10 72 11 73 12 74
REMARK SMILES IDX 13 75 14 76 15 77 16 78 17 79 18 80 19 81 40 82 20 83 39 84
REMARK SMILES IDX 21 85 22 86 23 87 28 88 24 89 27 90 29 91 26 92 31 93 30 94
REMARK SMILES IDX 25 95 32 97 33 98 38 99 34 100 36 101 35 102 37 103
REMARK H PARENT 94 26 64 37 25 96
REMARK Flexibility Score: inf
ROOT
ATOM      1  C   UNL     1       2.188   1.456   1.201  1.00  0.00     0.188 C 
ENDROOT
BRANCH   1   2
ATOM      2  C   UNL     1       2.913   0.137   1.508  1.00  0.00     0.188 C 
BRANCH   2   3
ATOM      3  O   UNL     1       4.192  -0.250   1.028  1.00  0.00    -0.376 OA
BRANCH   3   4
ATOM      4  C   UNL     1       4.931   0.264  -0.055  1.00  0.00     0.202 C 
BRANCH   4   5
ATOM      5  C   UNL     1       4.394   0.404  -1.479  1.00  0.00     0.261 C 
BRANCH   5   6
ATOM      6  O   UNL     1       3.018   0.731  -1.628  1.00  0.00    -0.460 OA
BRANCH   6   7
ATOM      7  C   UNL     1       1.936  -0.071  -1.595  1.00  0.00     0.338 C 
ATOM      8  O   UNL     1       0.832   0.441  -1.782  1.00  0.00    -0.246 OA
BRANCH   7   9
ATOM      9  C   UNL     1       1.978  -1.512  -1.234  1.00  0.00     0.060 A 
ATOM     10  C   UNL     1       3.088  -2.350  -1.340  1.00  0.00     0.016 A 
ATOM     11  C   UNL     1       0.751  -2.057  -0.800  1.00  0.00     0.016 A 
ATOM     12  C   UNL     1       2.947  -3.713  -1.178  1.00  0.00     0.010 A 
ATOM     13  C   UNL     1       0.608  -3.421  -0.616  1.00  0.00     0.010 A 
ATOM     14  C   UNL     1       1.690  -4.242  -0.902  1.00  0.00    -0.014 A 
BRANCH  14  15
ATOM     15  C   UNL     1       1.556  -5.677  -1.049  1.00  0.00     0.031 A 
ATOM     16  C   UNL     1       2.336  -6.505  -0.101  1.00  0.00     0.074 A 
ATOM     17  C   UNL     1       0.791  -6.196  -2.027  1.00  0.00     0.049 A 
ATOM     18  N   UNL     1       3.328  -7.294  -0.359  1.00  0.00    -0.248 NA
ATOM     19  C   UNL     1       2.050  -6.339   1.329  1.00  0.00     0.031 C 
ATOM     20  C   UNL     1      -0.185  -5.498  -2.872  1.00  0.00     0.029 A 
ATOM     21  N   UNL     1       0.646  -7.495  -2.393  1.00  0.00    -0.354 N 
ATOM     22  C   UNL     1       3.663  -7.888   0.854  1.00  0.00     0.074 A 
ATOM     23  C   UNL     1       2.954  -7.154   1.872  1.00  0.00     0.031 C 
ATOM     24  C   UNL     1      -0.991  -6.410  -3.456  1.00  0.00     0.029 A 
ATOM     25  C   UNL     1      -0.494  -7.737  -3.143  1.00  0.00     0.049 A 
ATOM     26  H   UNL     1       1.289  -8.199  -2.148  1.00  0.00     0.167 HD
ATOM     27  C   UNL     1       4.308  -9.086   0.916  1.00  0.00     0.031 A 
ATOM     28  C   UNL     1      -1.043  -8.947  -3.404  1.00  0.00     0.031 A 
ATOM     29  C   UNL     1       4.966  -9.414  -0.321  1.00  0.00     0.049 A 
ATOM     30  C   UNL     1       0.018  -9.966  -3.220  1.00  0.00     0.074 A 
ATOM     31  C   UNL     1       5.965  -8.835  -1.077  1.00  0.00     0.029 A 
ATOM     32  N   UNL     1       4.353 -10.331  -1.143  1.00  0.00    -0.354 N 
ATOM     33  N   UNL     1       1.066 -10.058  -3.992  1.00  0.00    -0.248 NA
ATOM     34  C   UNL     1       0.147 -10.614  -1.924  1.00  0.00     0.031 C 
ATOM     35  C   UNL     1       5.605  -9.095  -2.431  1.00  0.00     0.029 A 
ATOM     36  C   UNL     1       4.433  -9.854  -2.425  1.00  0.00     0.049 A 
ATOM     37  H   UNL     1       3.934 -11.176  -0.861  1.00  0.00     0.167 HD
ATOM     38  C   UNL     1       2.111 -10.396  -3.143  1.00  0.00     0.074 A 
ATOM     39  C   UNL     1       1.465 -10.832  -1.908  1.00  0.00     0.031 C 
ATOM     40  C   UNL     1       3.398 -10.032  -3.424  1.00  0.00     0.031 A 
BRANCH  27  41
ATOM     41  C   UNL     1       3.981 -10.136   1.955  1.00  0.00    -0.014 A 
ATOM     42  C   UNL     1       4.675 -11.364   1.928  1.00  0.00     0.010 A 
ATOM     43  C   UNL     1       2.818 -10.080   2.752  1.00  0.00     0.010 A 
ATOM     44  C   UNL     1       4.167 -12.500   2.572  1.00  0.00     0.020 A 
ATOM     45  C   UNL     1       2.328 -11.193   3.435  1.00  0.00     0.020 A 
ATOM     46  C   UNL     1       2.979 -12.409   3.299  1.00  0.00     0.054 A 
BRANCH  46  47
ATOM     47  S   UNL     1       2.235 -13.909   3.983  1.00  0.00     0.124 S 
ATOM     48  O   UNL     1       1.849 -14.627   2.773  1.00  0.00    -0.237 OA
ATOM     49  O   UNL     1       3.342 -14.488   4.740  1.00  0.00    -0.237 OA
ATOM     50  O   UNL     1       1.130 -13.403   4.793  1.00  0.00    -0.744 OA
ENDBRANCH  46  47
ENDBRANCH  27  41
BRANCH  28  51
ATOM     51  C   UNL     1      -2.493  -9.256  -3.425  1.00  0.00    -0.014 A 
ATOM     52  C   UNL     1      -2.970 -10.476  -3.933  1.00  0.00     0.010 A 
ATOM     53  C   UNL     1      -3.398  -8.444  -2.706  1.00  0.00     0.010 A 
ATOM     54  C   UNL     1      -4.290 -10.890  -3.685  1.00  0.00     0.020 A 
ATOM     55  C   UNL     1      -4.715  -8.844  -2.466  1.00  0.00     0.020 A 
ATOM     56  C   UNL     1      -5.149 -10.078  -2.938  1.00  0.00     0.054 A 
BRANCH  56  57
ATOM     57  S   UNL     1      -6.795 -10.693  -2.480  1.00  0.00     0.124 S 
ATOM     58  O   UNL     1      -7.501 -10.668  -3.757  1.00  0.00    -0.237 OA
ATOM     59  O   UNL     1      -6.501 -12.020  -1.946  1.00  0.00    -0.237 OA
ATOM     60  O   UNL     1      -7.264  -9.722  -1.493  1.00  0.00    -0.744 OA
ENDBRANCH  56  57
ENDBRANCH  28  51
BRANCH  40  61
ATOM     61  C   UNL     1       3.717  -9.520  -4.810  1.00  0.00    -0.014 A 
ATOM     62  C   UNL     1       3.151  -8.349  -5.351  1.00  0.00     0.010 A 
ATOM     63  C   UNL     1       4.750 -10.156  -5.522  1.00  0.00     0.010 A 
ATOM     64  C   UNL     1       3.594  -7.841  -6.582  1.00  0.00     0.020 A 
ATOM     65  C   UNL     1       5.207  -9.645  -6.740  1.00  0.00     0.020 A 
ATOM     66  C   UNL     1       4.623  -8.493  -7.268  1.00  0.00     0.054 A 
BRANCH  66  67
ATOM     67  S   UNL     1       5.238  -7.793  -8.826  1.00  0.00     0.124 S 
ATOM     68  O   UNL     1       4.126  -8.028  -9.742  1.00  0.00    -0.237 OA
ATOM     69  O   UNL     1       5.484  -6.394  -8.479  1.00  0.00    -0.237 OA
ATOM     70  O   UNL     1       6.445  -8.571  -9.105  1.00  0.00    -0.744 OA
ENDBRANCH  66  67
ENDBRANCH  40  61
ENDBRANCH  14  15
ENDBRANCH   7   9
ENDBRANCH   6   7
ENDBRANCH   5   6
ENDBRANCH   4   5
ENDBRANCH   3   4
ENDBRANCH   2   3
ENDBRANCH   1   2
BRANCH   1  71
ATOM     71  O   UNL     1       2.631   2.600   1.909  1.00  0.00    -0.377 OA
BRANCH  71  72
ATOM     72  C   UNL     1       3.942   3.002   1.589  1.00  0.00     0.188 C 
BRANCH  72  73
ATOM     73  C   UNL     1       5.000   2.587   2.630  1.00  0.00     0.188 C 
BRANCH  73  74
ATOM     74  O   UNL     1       4.649   2.014   3.881  1.00  0.00    -0.376 OA
BRANCH  74  75
ATOM     75  C   UNL     1       3.423   2.337   4.514  1.00  0.00     0.202 C 
BRANCH  75  76
ATOM     76  C   UNL     1       3.122   3.796   4.882  1.00  0.00     0.261 C 
BRANCH  76  77
ATOM     77  O   UNL     1       3.409   4.772   3.871  1.00  0.00    -0.460 OA
BRANCH  77  78
ATOM     78  C   UNL     1       4.558   5.469   4.030  1.00  0.00     0.338 C 
ATOM     79  O   UNL     1       5.366   5.383   4.941  1.00  0.00    -0.246 OA
BRANCH  78  80
ATOM     80  C   UNL     1       4.794   6.281   2.822  1.00  0.00     0.060 A 
ATOM     81  C   UNL     1       5.946   6.038   2.068  1.00  0.00     0.016 A 
ATOM     82  C   UNL     1       3.893   7.270   2.432  1.00  0.00     0.016 A 
ATOM     83  C   UNL     1       6.188   6.770   0.910  1.00  0.00     0.005 A 
ATOM     84  C   UNL     1       4.172   8.048   1.304  1.00  0.00     0.005 A 
ATOM     85  C   UNL     1       5.323   7.809   0.528  1.00  0.00    -0.038 A 
BRANCH  85  86
ATOM     86  C   UNL     1       5.789   8.715  -0.602  1.00  0.00     0.081 C 
ATOM     87  C   UNL     1       6.533   9.931  -0.010  1.00  0.00     0.111 C 
ATOM     88  C   UNL     1       4.619   9.150  -1.397  1.00  0.00     0.093 A 
ATOM     89  C   UNL     1       5.671  11.175   0.119  1.00  0.00     0.188 C 
ATOM     90  C   UNL     1       4.174  10.454  -1.357  1.00  0.00     0.164 A 
ATOM     91  N   UNL     1       3.832   8.367  -2.191  1.00  0.00    -0.238 NA
ATOM     92  N   UNL     1       4.611  11.466  -0.565  1.00  0.00    -0.198 NA
ATOM     93  N   UNL     1       3.050  10.475  -2.159  1.00  0.00    -0.283 N 
ATOM     94  C   UNL     1       2.873   9.176  -2.596  1.00  0.00     0.206 A 
BRANCH  89  95
ATOM     95  O   UNL     1       6.129  12.081   1.005  1.00  0.00    -0.496 OA
ATOM     96  H   UNL     1       6.894  11.895   1.512  1.00  0.00     0.294 HD
ENDBRANCH  89  95
BRANCH  93  97
ATOM     97  C   UNL     1       2.232  11.590  -2.450  1.00  0.00     0.050 A 
ATOM     98  C   UNL     1       0.843  11.442  -2.522  1.00  0.00     0.027 A 
ATOM     99  C   UNL     1       2.823  12.846  -2.643  1.00  0.00     0.047 A 
ATOM    100  C   UNL     1       0.044  12.566  -2.745  1.00  0.00     0.004 A 
ATOM    101  C   UNL     1       2.018  13.948  -2.914  1.00  0.00     0.043 A 
ATOM    102  C   UNL     1       0.631  13.817  -2.949  1.00  0.00     0.020 A 
ATOM    103  Cl  UNL     1       2.740  15.480  -3.220  1.00  0.00    -0.084 Cl
ENDBRANCH  93  97
ENDBRANCH  85  86
ENDBRANCH  78  80
ENDBRANCH  77  78
ENDBRANCH  76  77
ENDBRANCH  75  76
ENDBRANCH  74  75
ENDBRANCH  73  74
ENDBRANCH  72  73
ENDBRANCH  71  72
ENDBRANCH   1  71
TORSDOF 26
