REMARK SMILES Cc1ccc(S(=O)(=O)n2cc(C(=O)C(=O)NCC(=O)OCCOCCOCCOCCOC(=O)c3ccc(-c4c5nc(c(-c6ccc(S(=O)(=O)[O-])cc6)c6ccc([nH]6)c(-c6ccc(S(=O)(=O)[O-])cc6)c6nc(c(-c7ccc(S(=O)(=O)[O-])cc7)c7ccc4[nH]7)C=C6)C=C5)cc3)c3ccccc32)cc1
REMARK SMILES IDX 25 1 24 2 23 3 22 4 21 5 20 6 18 7 19 8 17 9 16 10 14 11
REMARK SMILES IDX 15 12 12 14 13 15 11 16 9 17 10 18 100 19 95 20 99 21 96 22
REMARK SMILES IDX 98 23 97 24 6 25 7 26 8 27 5 28 1 29 2 30 3 31 102 32 4 33
REMARK SMILES IDX 101 34 26 35 27 36 28 37 29 38 30 39 31 40 32 41 33 42 34 43
REMARK SMILES IDX 35 44 36 45 94 46 37 47 93 48 38 49 39 50 40 51 87 52 41 53
REMARK SMILES IDX 92 54 86 55 88 56 42 57 91 58 85 59 84 60 43 62 73 63 54 64
REMARK SMILES IDX 72 65 55 66 58 67 71 68 89 69 56 70 57 71 70 73 90 74 59 75
REMARK SMILES IDX 44 76 45 77 53 78 46 79 52 80 47 81 48 82 49 83 50 84 51 85
REMARK SMILES IDX 74 86 75 87 83 88 76 89 82 90 77 91 78 92 79 93 80 94 81 95
REMARK SMILES IDX 60 96 61 97 69 98 62 99 68 100 63 101 64 102 65 103 66 104
REMARK SMILES IDX 67 105
REMARK H PARENT 16 13 88 61 58 72
REMARK Flexibility Score: inf
ROOT
ATOM      1  C   UNL     1      -8.571   4.819   5.521  1.00  0.00     0.188 C 
ENDROOT
BRANCH   1   2
ATOM      2  C   UNL     1      -8.619   6.310   5.899  1.00  0.00     0.188 C 
BRANCH   2   3
ATOM      3  O   UNL     1      -9.822   7.042   5.725  1.00  0.00    -0.376 OA
BRANCH   3   4
ATOM      4  C   UNL     1     -10.132   7.434   4.388  1.00  0.00     0.202 C 
BRANCH   4   5
ATOM      5  C   UNL     1      -9.126   8.343   3.690  1.00  0.00     0.261 C 
BRANCH   5   6
ATOM      6  O   UNL     1      -8.028   7.542   3.239  1.00  0.00    -0.462 OA
BRANCH   6   7
ATOM      7  C   UNL     1      -6.789   8.050   3.411  1.00  0.00     0.325 C 
ATOM      8  O   UNL     1      -6.521   9.201   3.731  1.00  0.00    -0.250 OA
BRANCH   7   9
ATOM      9  C   UNL     1      -5.731   6.969   3.208  1.00  0.00     0.239 C 
BRANCH   9  10
ATOM     10  N   UNL     1      -6.239   5.597   3.273  1.00  0.00    -0.338 N 
ATOM     11  C   UNL     1      -6.121   4.514   2.447  1.00  0.00     0.292 C 
ATOM     12  O   UNL     1      -6.452   3.398   2.833  1.00  0.00    -0.265 OA
ATOM     13  H   UNL     1      -6.777   5.417   4.078  1.00  0.00     0.164 HD
BRANCH  11  14
ATOM     14  C   UNL     1      -5.561   4.700   1.046  1.00  0.00     0.252 C 
ATOM     15  O   UNL     1      -5.649   5.821   0.549  1.00  0.00    -0.283 OA
BRANCH  14  16
ATOM     16  C   UNL     1      -4.927   3.602   0.312  1.00  0.00     0.054 A 
ATOM     17  N   UNL     1      -4.099   1.627  -0.317  1.00  0.00    -0.240 N 
ATOM     18  C   UNL     1      -4.759   2.280   0.695  1.00  0.00     0.117 A 
ATOM     19  C   UNL     1      -3.800   2.487  -1.353  1.00  0.00     0.065 A 
ATOM     20  C   UNL     1      -4.322   3.730  -0.981  1.00  0.00     0.012 A 
ATOM     21  C   UNL     1      -3.099   2.320  -2.561  1.00  0.00     0.028 A 
ATOM     22  C   UNL     1      -4.160   4.828  -1.852  1.00  0.00     0.011 A 
ATOM     23  C   UNL     1      -2.923   3.439  -3.384  1.00  0.00     0.002 A 
ATOM     24  C   UNL     1      -3.452   4.675  -3.040  1.00  0.00     0.001 A 
BRANCH  17  25
ATOM     25  S   UNL     1      -3.551   0.017  -0.196  1.00  0.00     0.268 S 
ATOM     26  O   UNL     1      -3.841  -0.587  -1.495  1.00  0.00    -0.201 OA
ATOM     27  O   UNL     1      -4.078  -0.515   1.033  1.00  0.00    -0.201 OA
BRANCH  25  28
ATOM     28  C   UNL     1      -1.782   0.061  -0.033  1.00  0.00     0.088 A 
ATOM     29  C   UNL     1       2.518  -0.043   0.030  1.00  0.00     0.044 C 
ATOM     30  C   UNL     1       1.018  -0.005   0.038  1.00  0.00    -0.051 A 
ATOM     31  C   UNL     1       0.286  -1.197  -0.040  1.00  0.00     0.005 A 
ATOM     32  C   UNL     1       0.333   1.213   0.119  1.00  0.00     0.005 A 
ATOM     33  C   UNL     1      -1.109  -1.166  -0.081  1.00  0.00     0.022 A 
ATOM     34  C   UNL     1      -1.064   1.250   0.098  1.00  0.00     0.022 A 
ENDBRANCH  25  28
ENDBRANCH  17  25
ENDBRANCH  14  16
ENDBRANCH  11  14
ENDBRANCH   9  10
ENDBRANCH   7   9
ENDBRANCH   6   7
ENDBRANCH   5   6
ENDBRANCH   4   5
ENDBRANCH   3   4
ENDBRANCH   2   3
ENDBRANCH   1   2
BRANCH   1  35
ATOM     35  O   UNL     1      -8.898   4.508   4.180  1.00  0.00    -0.377 OA
BRANCH  35  36
ATOM     36  C   UNL     1     -10.069   3.706   3.927  1.00  0.00     0.188 C 
BRANCH  36  37
ATOM     37  C   UNL     1     -10.838   3.126   5.109  1.00  0.00     0.188 C 
BRANCH  37  38
ATOM     38  O   UNL     1     -11.289   4.224   5.907  1.00  0.00    -0.376 OA
BRANCH  38  39
ATOM     39  C   UNL     1     -11.453   3.986   7.294  1.00  0.00     0.202 C 
BRANCH  39  40
ATOM     40  C   UNL     1     -12.385   2.823   7.613  1.00  0.00     0.261 C 
BRANCH  40  41
ATOM     41  O   UNL     1     -13.780   3.210   7.521  1.00  0.00    -0.460 OA
BRANCH  41  42
ATOM     42  C   UNL     1     -14.498   2.878   6.406  1.00  0.00     0.338 C 
ATOM     43  O   UNL     1     -15.337   1.990   6.406  1.00  0.00    -0.246 OA
BRANCH  42  44
ATOM     44  C   UNL     1     -14.341   3.846   5.282  1.00  0.00     0.060 A 
ATOM     45  C   UNL     1     -14.602   3.492   3.951  1.00  0.00     0.016 A 
ATOM     46  C   UNL     1     -13.849   5.110   5.541  1.00  0.00     0.016 A 
ATOM     47  C   UNL     1     -14.169   4.309   2.880  1.00  0.00     0.010 A 
ATOM     48  C   UNL     1     -13.336   5.856   4.494  1.00  0.00     0.010 A 
ATOM     49  C   UNL     1     -13.448   5.469   3.144  1.00  0.00    -0.014 A 
BRANCH  49  50
ATOM     50  C   UNL     1     -12.685   6.315   2.184  1.00  0.00     0.031 A 
ATOM     51  C   UNL     1     -12.805   7.819   2.330  1.00  0.00     0.074 A 
ATOM     52  C   UNL     1     -11.641   5.785   1.486  1.00  0.00     0.049 A 
ATOM     53  N   UNL     1     -12.012   8.694   1.814  1.00  0.00    -0.248 NA
ATOM     54  C   UNL     1     -13.842   8.469   3.144  1.00  0.00     0.031 C 
ATOM     55  C   UNL     1     -10.369   6.460   1.181  1.00  0.00     0.029 A 
ATOM     56  N   UNL     1     -11.386   4.515   0.998  1.00  0.00    -0.354 N 
ATOM     57  C   UNL     1     -12.246   9.932   2.392  1.00  0.00     0.074 A 
ATOM     58  C   UNL     1     -13.411   9.736   3.214  1.00  0.00     0.031 C 
ATOM     59  C   UNL     1      -9.531   5.649   0.518  1.00  0.00     0.029 A 
ATOM     60  C   UNL     1     -10.329   4.541   0.073  1.00  0.00     0.049 A 
ATOM     61  H   UNL     1     -11.878   3.705   1.263  1.00  0.00     0.167 HD
ATOM     62  C   UNL     1     -11.365  10.953   2.161  1.00  0.00     0.031 A 
ATOM     63  C   UNL     1     -10.541   4.324  -1.265  1.00  0.00     0.031 A 
ATOM     64  C   UNL     1     -10.427  10.591   1.087  1.00  0.00     0.049 A 
ATOM     65  C   UNL     1     -10.437   5.618  -2.086  1.00  0.00     0.074 A 
ATOM     66  C   UNL     1      -9.051  10.488   0.981  1.00  0.00     0.029 A 
ATOM     67  N   UNL     1     -10.945  10.073  -0.097  1.00  0.00    -0.354 N 
ATOM     68  N   UNL     1     -10.573   6.820  -1.573  1.00  0.00    -0.248 NA
ATOM     69  C   UNL     1     -10.056   5.685  -3.498  1.00  0.00     0.031 C 
ATOM     70  C   UNL     1      -8.758   9.791  -0.225  1.00  0.00     0.029 A 
ATOM     71  C   UNL     1      -9.951   9.549  -0.888  1.00  0.00     0.049 A 
ATOM     72  H   UNL     1     -11.900  10.081  -0.336  1.00  0.00     0.167 HD
ATOM     73  C   UNL     1     -10.275   7.778  -2.504  1.00  0.00     0.074 A 
ATOM     74  C   UNL     1      -9.976   7.015  -3.701  1.00  0.00     0.031 C 
ATOM     75  C   UNL     1     -10.259   9.121  -2.244  1.00  0.00     0.031 A 
BRANCH  62  76
ATOM     76  C   UNL     1     -11.211  12.258   2.951  1.00  0.00    -0.014 A 
ATOM     77  C   UNL     1     -10.139  13.122   2.620  1.00  0.00     0.010 A 
ATOM     78  C   UNL     1     -11.996  12.678   4.045  1.00  0.00     0.010 A 
ATOM     79  C   UNL     1      -9.837  14.292   3.336  1.00  0.00     0.020 A 
ATOM     80  C   UNL     1     -11.723  13.873   4.760  1.00  0.00     0.020 A 
ATOM     81  C   UNL     1     -10.636  14.669   4.405  1.00  0.00     0.054 A 
BRANCH  81  82
ATOM     82  S   UNL     1     -10.241  16.214   5.275  1.00  0.00     0.124 S 
ATOM     83  O   UNL     1      -8.939  15.920   5.871  1.00  0.00    -0.237 OA
ATOM     84  O   UNL     1     -10.225  17.195   4.193  1.00  0.00    -0.237 OA
ATOM     85  O   UNL     1     -11.336  16.367   6.230  1.00  0.00    -0.744 OA
ENDBRANCH  81  82
ENDBRANCH  62  76
BRANCH  63  86
ATOM     86  C   UNL     1     -11.355   3.077  -1.469  1.00  0.00    -0.014 A 
ATOM     87  C   UNL     1     -10.667   1.900  -1.071  1.00  0.00     0.010 A 
ATOM     88  C   UNL     1     -12.744   3.144  -1.242  1.00  0.00     0.010 A 
ATOM     89  C   UNL     1     -11.253   1.018  -0.155  1.00  0.00     0.020 A 
ATOM     90  C   UNL     1     -13.342   2.239  -0.344  1.00  0.00     0.020 A 
ATOM     91  C   UNL     1     -12.564   1.245   0.263  1.00  0.00     0.054 A 
BRANCH  91  92
ATOM     92  S   UNL     1     -13.113   0.436   1.801  1.00  0.00     0.124 S 
ATOM     93  O   UNL     1     -13.039  -0.980   1.463  1.00  0.00    -0.237 OA
ATOM     94  O   UNL     1     -12.117   0.914   2.761  1.00  0.00    -0.237 OA
ATOM     95  O   UNL     1     -14.458   0.965   1.997  1.00  0.00    -0.744 OA
ENDBRANCH  91  92
ENDBRANCH  63  86
BRANCH  75  96
ATOM     96  C   UNL     1     -10.509  10.220  -3.260  1.00  0.00    -0.014 A 
ATOM     97  C   UNL     1     -10.914   9.982  -4.578  1.00  0.00     0.010 A 
ATOM     98  C   UNL     1     -10.522  11.576  -2.828  1.00  0.00     0.010 A 
ATOM     99  C   UNL     1     -11.262  11.034  -5.433  1.00  0.00     0.020 A 
ATOM    100  C   UNL     1     -10.923  12.628  -3.654  1.00  0.00     0.020 A 
ATOM    101  C   UNL     1     -11.268  12.348  -4.966  1.00  0.00     0.054 A 
BRANCH 101 102
ATOM    102  S   UNL     1     -11.778  13.667  -6.089  1.00  0.00     0.124 S 
ATOM    103  O   UNL     1     -10.621  13.766  -6.976  1.00  0.00    -0.237 OA
ATOM    104  O   UNL     1     -12.987  13.115  -6.698  1.00  0.00    -0.237 OA
ATOM    105  O   UNL     1     -11.996  14.813  -5.212  1.00  0.00    -0.744 OA
ENDBRANCH 101 102
ENDBRANCH  75  96
ENDBRANCH  49  50
ENDBRANCH  42  44
ENDBRANCH  41  42
ENDBRANCH  40  41
ENDBRANCH  39  40
ENDBRANCH  38  39
ENDBRANCH  37  38
ENDBRANCH  36  37
ENDBRANCH  35  36
ENDBRANCH   1  35
TORSDOF 28
