REMARK SMILES O=C(OCCOCCOCCOCCOC(=O)c1ccc(-c2ccc(Cl)c3ccccc23)o1)c1ccc(-c2c3nc(c(-c4ccc(S(=O)(=O)[O-])cc4)c4ccc([nH]4)c(-c4ccc(S(=O)(=O)[O-])cc4)c4nc(c(-c5ccc(S(=O)(=O)[O-])cc5)c5ccc2[nH]5)C=C4)C=C3)cc1
REMARK SMILES IDX 8 1 7 2 6 3 5 4 4 5 3 6 2 7 1 8 34 9 35 10 93 11 36 12 92 13
REMARK SMILES IDX 37 14 38 15 39 16 86 17 40 18 91 19 85 20 87 21 41 22 90 23
REMARK SMILES IDX 84 24 83 25 42 27 72 28 53 29 71 30 54 31 57 32 70 33 88 34
REMARK SMILES IDX 55 35 56 36 69 38 89 39 58 40 43 41 44 42 52 43 45 44 51 45
REMARK SMILES IDX 46 46 47 47 48 48 49 49 50 50 73 51 74 52 82 53 75 54 81 55
REMARK SMILES IDX 76 56 77 57 78 58 79 59 80 60 59 61 60 62 68 63 61 64 67 65
REMARK SMILES IDX 62 66 63 67 64 68 65 69 66 70 9 71 10 72 11 73 12 74 13 75
REMARK SMILES IDX 14 76 15 77 16 78 17 79 18 80 19 81 33 82 20 83 21 84 22 85
REMARK SMILES IDX 23 86 32 87 24 88 27 89 31 90 25 91 28 92 30 93 26 94 29 95
REMARK H PARENT 87 26 57 37
REMARK Flexibility Score: inf
ROOT
ATOM      1  C   UNL     1       1.972  -2.617  -1.165  1.00  0.00     0.188 C 
ENDROOT
BRANCH   1   2
ATOM      2  C   UNL     1       2.384  -1.794   0.056  1.00  0.00     0.188 C 
BRANCH   2   3
ATOM      3  O   UNL     1       3.680  -1.226  -0.168  1.00  0.00    -0.376 OA
BRANCH   3   4
ATOM      4  C   UNL     1       4.479  -1.049   1.000  1.00  0.00     0.202 C 
BRANCH   4   5
ATOM      5  C   UNL     1       4.328   0.332   1.636  1.00  0.00     0.261 C 
BRANCH   5   6
ATOM      6  O   UNL     1       2.945   0.701   1.726  1.00  0.00    -0.460 OA
BRANCH   6   7
ATOM      7  C   UNL     1       2.229   1.433   0.836  1.00  0.00     0.338 C 
ATOM      8  O   UNL     1       1.024   1.583   1.040  1.00  0.00    -0.246 OA
BRANCH   7   9
ATOM      9  C   UNL     1       2.829   2.124  -0.348  1.00  0.00     0.060 A 
ATOM     10  C   UNL     1       3.914   1.668  -1.105  1.00  0.00     0.016 A 
ATOM     11  C   UNL     1       2.202   3.315  -0.749  1.00  0.00     0.016 A 
ATOM     12  C   UNL     1       4.444   2.427  -2.146  1.00  0.00     0.010 A 
ATOM     13  C   UNL     1       2.703   4.066  -1.813  1.00  0.00     0.010 A 
ATOM     14  C   UNL     1       3.860   3.646  -2.479  1.00  0.00    -0.014 A 
BRANCH  14  15
ATOM     15  C   UNL     1       4.567   4.568  -3.385  1.00  0.00     0.031 A 
ATOM     16  C   UNL     1       5.308   5.715  -2.767  1.00  0.00     0.074 A 
ATOM     17  C   UNL     1       4.578   4.361  -4.712  1.00  0.00     0.049 A 
ATOM     18  N   UNL     1       5.863   6.749  -3.337  1.00  0.00    -0.248 NA
ATOM     19  C   UNL     1       5.437   5.690  -1.299  1.00  0.00     0.031 C 
ATOM     20  C   UNL     1       3.985   3.209  -5.393  1.00  0.00     0.029 A 
ATOM     21  N   UNL     1       5.106   5.118  -5.723  1.00  0.00    -0.354 N 
ATOM     22  C   UNL     1       6.363   7.522  -2.296  1.00  0.00     0.074 A 
ATOM     23  C   UNL     1       6.059   6.834  -1.062  1.00  0.00     0.031 C 
ATOM     24  C   UNL     1       4.176   3.342  -6.716  1.00  0.00     0.029 A 
ATOM     25  C   UNL     1       4.845   4.615  -6.975  1.00  0.00     0.049 A 
ATOM     26  H   UNL     1       5.623   5.942  -5.569  1.00  0.00     0.167 HD
ATOM     27  C   UNL     1       6.997   8.715  -2.369  1.00  0.00     0.031 A 
ATOM     28  C   UNL     1       5.080   5.152  -8.188  1.00  0.00     0.031 A 
ATOM     29  C   UNL     1       7.261   9.386  -3.610  1.00  0.00     0.049 A 
ATOM     30  C   UNL     1       5.731   6.507  -8.253  1.00  0.00     0.074 A 
ATOM     31  C   UNL     1       7.825  10.628  -3.823  1.00  0.00     0.029 A 
ATOM     32  N   UNL     1       6.969   8.851  -4.859  1.00  0.00    -0.354 N 
ATOM     33  N   UNL     1       6.135   7.272  -7.264  1.00  0.00    -0.248 NA
ATOM     34  C   UNL     1       5.948   7.081  -9.587  1.00  0.00     0.031 C 
ATOM     35  C   UNL     1       7.846  10.858  -5.204  1.00  0.00     0.029 A 
ATOM     36  C   UNL     1       7.336   9.740  -5.850  1.00  0.00     0.049 A 
ATOM     37  H   UNL     1       6.562   7.969  -5.014  1.00  0.00     0.167 HD
ATOM     38  C   UNL     1       6.664   8.412  -7.854  1.00  0.00     0.074 A 
ATOM     39  C   UNL     1       6.537   8.233  -9.289  1.00  0.00     0.031 C 
ATOM     40  C   UNL     1       7.202   9.511  -7.268  1.00  0.00     0.031 A 
BRANCH  27  41
ATOM     41  C   UNL     1       7.333   9.378  -1.062  1.00  0.00    -0.014 A 
ATOM     42  C   UNL     1       8.366   8.895  -0.237  1.00  0.00     0.010 A 
ATOM     43  C   UNL     1       6.538  10.446  -0.610  1.00  0.00     0.010 A 
ATOM     44  C   UNL     1       8.546   9.418   1.047  1.00  0.00     0.020 A 
ATOM     45  C   UNL     1       6.731  10.988   0.663  1.00  0.00     0.020 A 
ATOM     46  C   UNL     1       7.712  10.447   1.496  1.00  0.00     0.054 A 
BRANCH  46  47
ATOM     47  S   UNL     1       7.912  11.064   3.191  1.00  0.00     0.124 S 
ATOM     48  O   UNL     1       7.249  10.020   3.969  1.00  0.00    -0.237 OA
ATOM     49  O   UNL     1       9.364  11.132   3.343  1.00  0.00    -0.237 OA
ATOM     50  O   UNL     1       7.231  12.355   3.172  1.00  0.00    -0.744 OA
ENDBRANCH  46  47
ENDBRANCH  27  41
BRANCH  28  51
ATOM     51  C   UNL     1       4.642   4.423  -9.409  1.00  0.00    -0.014 A 
ATOM     52  C   UNL     1       5.579   3.808 -10.257  1.00  0.00     0.010 A 
ATOM     53  C   UNL     1       3.270   4.274  -9.688  1.00  0.00     0.010 A 
ATOM     54  C   UNL     1       5.151   3.047 -11.352  1.00  0.00     0.020 A 
ATOM     55  C   UNL     1       2.838   3.496 -10.766  1.00  0.00     0.020 A 
ATOM     56  C   UNL     1       3.783   2.887 -11.594  1.00  0.00     0.054 A 
BRANCH  56  57
ATOM     57  S   UNL     1       3.247   1.808 -12.953  1.00  0.00     0.124 S 
ATOM     58  O   UNL     1       3.485   2.650 -14.121  1.00  0.00    -0.237 OA
ATOM     59  O   UNL     1       4.133   0.655 -12.811  1.00  0.00    -0.237 OA
ATOM     60  O   UNL     1       1.843   1.544 -12.645  1.00  0.00    -0.744 OA
ENDBRANCH  56  57
ENDBRANCH  28  51
BRANCH  40  61
ATOM     61  C   UNL     1       7.727  10.589  -8.171  1.00  0.00    -0.014 A 
ATOM     62  C   UNL     1       6.858  11.522  -8.761  1.00  0.00     0.010 A 
ATOM     63  C   UNL     1       9.117  10.741  -8.321  1.00  0.00     0.010 A 
ATOM     64  C   UNL     1       7.374  12.597  -9.486  1.00  0.00     0.020 A 
ATOM     65  C   UNL     1       9.636  11.824  -9.032  1.00  0.00     0.020 A 
ATOM     66  C   UNL     1       8.760  12.745  -9.612  1.00  0.00     0.054 A 
BRANCH  66  67
ATOM     67  S   UNL     1       9.411  14.204 -10.470  1.00  0.00     0.124 S 
ATOM     68  O   UNL     1       9.211  13.847 -11.871  1.00  0.00    -0.237 OA
ATOM     69  O   UNL     1       8.560  15.281  -9.968  1.00  0.00    -0.237 OA
ATOM     70  O   UNL     1      10.805  14.268 -10.034  1.00  0.00    -0.744 OA
ENDBRANCH  66  67
ENDBRANCH  40  61
ENDBRANCH  14  15
ENDBRANCH   7   9
ENDBRANCH   6   7
ENDBRANCH   5   6
ENDBRANCH   4   5
ENDBRANCH   3   4
ENDBRANCH   2   3
ENDBRANCH   1   2
BRANCH   1  71
ATOM     71  O   UNL     1       2.682  -3.851  -1.293  1.00  0.00    -0.377 OA
BRANCH  71  72
ATOM     72  C   UNL     1       4.103  -3.754  -1.288  1.00  0.00     0.188 C 
BRANCH  72  73
ATOM     73  C   UNL     1       4.791  -2.971  -2.419  1.00  0.00     0.188 C 
BRANCH  73  74
ATOM     74  O   UNL     1       3.900  -2.489  -3.416  1.00  0.00    -0.376 OA
BRANCH  74  75
ATOM     75  C   UNL     1       4.049  -3.083  -4.702  1.00  0.00     0.202 C 
BRANCH  75  76
ATOM     76  C   UNL     1       3.257  -4.388  -4.854  1.00  0.00     0.261 C 
BRANCH  76  77
ATOM     77  O   UNL     1       3.622  -5.434  -3.935  1.00  0.00    -0.457 OA
BRANCH  77  78
ATOM     78  C   UNL     1       4.887  -5.933  -3.994  1.00  0.00     0.374 C 
ATOM     79  O   UNL     1       5.709  -5.656  -4.857  1.00  0.00    -0.242 OA
BRANCH  78  80
ATOM     80  C   UNL     1       5.120  -6.703  -2.791  1.00  0.00     0.212 A 
ATOM     81  C   UNL     1       4.264  -7.448  -1.996  1.00  0.00     0.059 A 
ATOM     82  O   UNL     1       6.336  -6.589  -2.157  1.00  0.00    -0.449 OA
ATOM     83  C   UNL     1       4.966  -7.752  -0.805  1.00  0.00     0.052 A 
ATOM     84  C   UNL     1       6.213  -7.180  -0.932  1.00  0.00     0.135 A 
BRANCH  84  85
ATOM     85  C   UNL     1       7.372  -7.095  -0.051  1.00  0.00     0.025 A 
ATOM     86  C   UNL     1       8.462  -7.918  -0.363  1.00  0.00     0.014 A 
ATOM     87  C   UNL     1       7.407  -6.266   1.114  1.00  0.00    -0.006 A 
ATOM     88  C   UNL     1       9.570  -7.970   0.473  1.00  0.00     0.022 A 
ATOM     89  C   UNL     1       8.548  -6.312   1.965  1.00  0.00     0.001 A 
ATOM     90  C   UNL     1       6.356  -5.383   1.471  1.00  0.00     0.009 A 
ATOM     91  C   UNL     1       9.611  -7.186   1.627  1.00  0.00     0.048 A 
ATOM     92  C   UNL     1       8.574  -5.484   3.116  1.00  0.00     0.010 A 
ATOM     93  C   UNL     1       6.416  -4.569   2.605  1.00  0.00     0.001 A 
ATOM     94  Cl  UNL     1      11.024  -7.354   2.620  1.00  0.00    -0.084 Cl
ATOM     95  C   UNL     1       7.526  -4.620   3.430  1.00  0.00     0.001 A 
ENDBRANCH  84  85
ENDBRANCH  78  80
ENDBRANCH  77  78
ENDBRANCH  76  77
ENDBRANCH  75  76
ENDBRANCH  74  75
ENDBRANCH  73  74
ENDBRANCH  72  73
ENDBRANCH  71  72
ENDBRANCH   1  71
TORSDOF 24
