REMARK SMILES Cc1ccc(S(=O)(=O)n2cc(C(=O)C(=O)N[C@@H](Cc3c[nH]c4ccccc34)C(=O)OCCOCCOCCOCCOC(=O)c3ccc(-c4c5nc(c(-c6ccc(S(=O)(=O)[O-])cc6)c6ccc([nH]6)c(-c6ccc(S(=O)(=O)[O-])cc6)c6nc(c(-c7ccc(S(=O)(=O)[O-])cc7)c7ccc4[nH]7)C=C6)C=C5)cc3)c3ccccc32)cc1
REMARK SMILES IDX 35 1 34 2 33 3 32 4 31 5 30 6 28 7 29 8 17 9 16 10 14 11
REMARK SMILES IDX 15 12 12 14 13 15 11 16 9 17 10 18 110 19 105 20 109 21
REMARK SMILES IDX 106 22 108 23 107 24 6 25 7 26 8 27 5 28 1 29 2 30 3 31
REMARK SMILES IDX 112 32 4 33 111 34 18 35 19 36 20 37 27 38 21 39 22 40 26 41
REMARK SMILES IDX 23 43 25 44 24 45 36 46 37 47 38 48 39 49 40 50 41 51 42 52
REMARK SMILES IDX 43 53 44 54 45 55 46 56 104 57 47 58 103 59 48 60 49 61
REMARK SMILES IDX 50 62 97 63 51 64 102 65 96 66 98 67 52 68 101 69 95 70
REMARK SMILES IDX 94 71 53 73 83 74 64 75 82 76 65 77 68 78 81 79 99 80 66 81
REMARK SMILES IDX 67 82 80 84 100 85 69 86 54 87 55 88 63 89 56 90 62 91 57 92
REMARK SMILES IDX 58 93 59 94 60 95 61 96 84 97 85 98 93 99 86 100 92 101
REMARK SMILES IDX 87 102 88 103 89 104 90 105 91 106 70 107 71 108 79 109
REMARK SMILES IDX 72 110 78 111 73 112 74 113 75 114 76 115 77 116
REMARK H PARENT 16 13 21 42 98 72 68 83
REMARK Flexibility Score: inf
ROOT
ATOM      1  C   UNL     1      -8.809   0.423  -3.329  1.00  0.00     0.188 C 
ENDROOT
BRANCH   1   2
ATOM      2  C   UNL     1     -10.237  -0.126  -3.142  1.00  0.00     0.188 C 
BRANCH   2   3
ATOM      3  O   UNL     1     -10.745   0.358  -1.900  1.00  0.00    -0.376 OA
BRANCH   3   4
ATOM      4  C   UNL     1     -12.161   0.304  -1.794  1.00  0.00     0.202 C 
BRANCH   4   5
ATOM      5  C   UNL     1     -12.659   0.736  -0.436  1.00  0.00     0.261 C 
BRANCH   5   6
ATOM      6  O   UNL     1     -11.647   1.389   0.294  1.00  0.00    -0.462 OA
BRANCH   6   7
ATOM      7  C   UNL     1     -11.103   0.585   1.237  1.00  0.00     0.329 C 
ATOM      8  O   UNL     1     -11.423  -0.569   1.510  1.00  0.00    -0.250 OA
BRANCH   7   9
ATOM      9  C   UNL     1     -10.226   1.424   2.134  1.00  0.00     0.197 C 
BRANCH   9  10
ATOM     10  N   UNL     1      -9.455   2.500   1.458  1.00  0.00    -0.335 N 
ATOM     11  C   UNL     1      -8.264   2.378   0.740  1.00  0.00     0.293 C 
ATOM     12  O   UNL     1      -7.590   3.349   0.423  1.00  0.00    -0.265 OA
ATOM     13  H   UNL     1      -9.828   3.408   1.525  1.00  0.00     0.164 HD
BRANCH  11  14
ATOM     14  C   UNL     1      -7.866   0.993   0.267  1.00  0.00     0.252 C 
ATOM     15  O   UNL     1      -8.831   0.284  -0.015  1.00  0.00    -0.283 OA
BRANCH  14  16
ATOM     16  C   UNL     1      -6.542   0.362   0.269  1.00  0.00     0.054 A 
ATOM     17  N   UNL     1      -4.479  -0.378   0.737  1.00  0.00    -0.240 N 
ATOM     18  C   UNL     1      -5.218   0.777   0.463  1.00  0.00     0.117 A 
ATOM     19  C   UNL     1      -5.376  -1.456   0.789  1.00  0.00     0.065 A 
ATOM     20  C   UNL     1      -6.457  -1.046   0.036  1.00  0.00     0.012 A 
ATOM     21  C   UNL     1      -5.210  -2.806   1.153  1.00  0.00     0.028 A 
ATOM     22  C   UNL     1      -7.271  -2.024  -0.575  1.00  0.00     0.011 A 
ATOM     23  C   UNL     1      -6.000  -3.757   0.510  1.00  0.00     0.002 A 
ATOM     24  C   UNL     1      -6.983  -3.376  -0.391  1.00  0.00     0.001 A 
BRANCH  17  25
ATOM     25  S   UNL     1      -2.952  -0.907   0.138  1.00  0.00     0.268 S 
ATOM     26  O   UNL     1      -3.251  -1.324  -1.222  1.00  0.00    -0.201 OA
ATOM     27  O   UNL     1      -2.590  -1.886   1.161  1.00  0.00    -0.201 OA
BRANCH  25  28
ATOM     28  C   UNL     1      -1.426  -0.066   0.001  1.00  0.00     0.088 A 
ATOM     29  C   UNL     1       2.780   0.889  -0.050  1.00  0.00     0.044 C 
ATOM     30  C   UNL     1       1.306   0.613  -0.097  1.00  0.00    -0.051 A 
ATOM     31  C   UNL     1       0.926  -0.697  -0.341  1.00  0.00     0.005 A 
ATOM     32  C   UNL     1       0.307   1.585   0.148  1.00  0.00     0.005 A 
ATOM     33  C   UNL     1      -0.414  -1.015  -0.311  1.00  0.00     0.022 A 
ATOM     34  C   UNL     1      -1.074   1.253   0.204  1.00  0.00     0.022 A 
ENDBRANCH  25  28
ENDBRANCH  17  25
ENDBRANCH  14  16
ENDBRANCH  11  14
ENDBRANCH   9  10
BRANCH   9  35
ATOM     35  C   UNL     1     -11.221   1.911   3.231  1.00  0.00     0.074 C 
BRANCH  35  36
ATOM     36  C   UNL     1     -12.184   3.011   2.839  1.00  0.00    -0.020 A 
ATOM     37  C   UNL     1     -13.537   2.896   2.566  1.00  0.00     0.087 A 
ATOM     38  C   UNL     1     -11.861   4.396   2.683  1.00  0.00     0.003 A 
ATOM     39  N   UNL     1     -14.025   4.136   2.238  1.00  0.00    -0.361 N 
ATOM     40  C   UNL     1     -13.020   5.072   2.303  1.00  0.00     0.046 A 
ATOM     41  C   UNL     1     -10.663   5.127   2.805  1.00  0.00     0.010 A 
ATOM     42  H   UNL     1     -14.959   4.328   1.993  1.00  0.00     0.166 HD
ATOM     43  C   UNL     1     -13.035   6.448   2.044  1.00  0.00     0.026 A 
ATOM     44  C   UNL     1     -10.645   6.484   2.489  1.00  0.00     0.001 A 
ATOM     45  C   UNL     1     -11.819   7.137   2.130  1.00  0.00     0.002 A 
ENDBRANCH  35  36
ENDBRANCH   9  35
ENDBRANCH   7   9
ENDBRANCH   6   7
ENDBRANCH   5   6
ENDBRANCH   4   5
ENDBRANCH   3   4
ENDBRANCH   2   3
ENDBRANCH   1   2
BRANCH   1  46
ATOM     46  O   UNL     1      -8.726   1.737  -3.885  1.00  0.00    -0.377 OA
BRANCH  46  47
ATOM     47  C   UNL     1      -9.075   1.863  -5.254  1.00  0.00     0.188 C 
BRANCH  47  48
ATOM     48  C   UNL     1      -7.866   1.847  -6.181  1.00  0.00     0.188 C 
BRANCH  48  49
ATOM     49  O   UNL     1      -6.742   2.644  -5.841  1.00  0.00    -0.376 OA
BRANCH  49  50
ATOM     50  C   UNL     1      -6.931   3.888  -5.165  1.00  0.00     0.202 C 
BRANCH  50  51
ATOM     51  C   UNL     1      -7.941   4.925  -5.716  1.00  0.00     0.261 C 
BRANCH  51  52
ATOM     52  O   UNL     1      -8.201   4.756  -7.124  1.00  0.00    -0.460 OA
BRANCH  52  53
ATOM     53  C   UNL     1      -9.210   5.532  -7.652  1.00  0.00     0.338 C 
ATOM     54  O   UNL     1      -9.050   6.508  -8.332  1.00  0.00    -0.246 OA
BRANCH  53  55
ATOM     55  C   UNL     1     -10.495   4.774  -7.640  1.00  0.00     0.060 A 
ATOM     56  C   UNL     1     -11.700   5.335  -7.227  1.00  0.00     0.016 A 
ATOM     57  C   UNL     1     -10.476   3.439  -8.021  1.00  0.00     0.016 A 
ATOM     58  C   UNL     1     -12.785   4.484  -6.942  1.00  0.00     0.010 A 
ATOM     59  C   UNL     1     -11.499   2.591  -7.609  1.00  0.00     0.010 A 
ATOM     60  C   UNL     1     -12.554   3.096  -6.844  1.00  0.00    -0.014 A 
BRANCH  60  61
ATOM     61  C   UNL     1     -12.805   2.404  -5.514  1.00  0.00     0.031 A 
ATOM     62  C   UNL     1     -13.153   0.936  -5.321  1.00  0.00     0.074 A 
ATOM     63  C   UNL     1     -12.358   3.168  -4.480  1.00  0.00     0.049 A 
ATOM     64  N   UNL     1     -13.885   0.448  -4.348  1.00  0.00    -0.248 NA
ATOM     65  C   UNL     1     -12.825  -0.101  -6.301  1.00  0.00     0.031 C 
ATOM     66  C   UNL     1     -11.626   2.863  -3.275  1.00  0.00     0.029 A 
ATOM     67  N   UNL     1     -12.816   4.457  -4.205  1.00  0.00    -0.354 N 
ATOM     68  C   UNL     1     -13.951  -0.948  -4.479  1.00  0.00     0.074 A 
ATOM     69  C   UNL     1     -13.383  -1.196  -5.778  1.00  0.00     0.031 C 
ATOM     70  C   UNL     1     -11.968   3.678  -2.276  1.00  0.00     0.029 A 
ATOM     71  C   UNL     1     -12.949   4.551  -2.835  1.00  0.00     0.049 A 
ATOM     72  H   UNL     1     -13.008   5.163  -4.863  1.00  0.00     0.167 HD
ATOM     73  C   UNL     1     -14.380  -1.816  -3.497  1.00  0.00     0.031 A 
ATOM     74  C   UNL     1     -13.614   5.432  -2.094  1.00  0.00     0.031 A 
ATOM     75  C   UNL     1     -14.970  -1.156  -2.303  1.00  0.00     0.049 A 
ATOM     76  C   UNL     1     -14.778   4.680  -1.496  1.00  0.00     0.074 A 
ATOM     77  C   UNL     1     -14.967  -1.458  -0.948  1.00  0.00     0.029 A 
ATOM     78  N   UNL     1     -15.608   0.093  -2.395  1.00  0.00    -0.354 N 
ATOM     79  N   UNL     1     -14.924   3.363  -1.466  1.00  0.00    -0.248 NA
ATOM     80  C   UNL     1     -15.916   5.373  -0.915  1.00  0.00     0.031 C 
ATOM     81  C   UNL     1     -15.535  -0.368  -0.235  1.00  0.00     0.029 A 
ATOM     82  C   UNL     1     -15.912   0.609  -1.147  1.00  0.00     0.049 A 
ATOM     83  H   UNL     1     -15.813   0.547  -3.244  1.00  0.00     0.167 HD
ATOM     84  C   UNL     1     -16.195   3.048  -0.996  1.00  0.00     0.074 A 
ATOM     85  C   UNL     1     -16.730   4.349  -0.613  1.00  0.00     0.031 C 
ATOM     86  C   UNL     1     -16.764   1.790  -0.963  1.00  0.00     0.031 A 
BRANCH  73  87
ATOM     87  C   UNL     1     -14.102  -3.372  -3.521  1.00  0.00    -0.014 A 
ATOM     88  C   UNL     1     -14.616  -4.245  -2.526  1.00  0.00     0.010 A 
ATOM     89  C   UNL     1     -13.255  -4.027  -4.447  1.00  0.00     0.010 A 
ATOM     90  C   UNL     1     -14.296  -5.628  -2.449  1.00  0.00     0.020 A 
ATOM     91  C   UNL     1     -12.987  -5.416  -4.434  1.00  0.00     0.020 A 
ATOM     92  C   UNL     1     -13.489  -6.212  -3.418  1.00  0.00     0.054 A 
BRANCH  92  93
ATOM     93  S   UNL     1     -13.130  -7.996  -3.380  1.00  0.00     0.124 S 
ATOM     94  O   UNL     1     -12.131  -8.095  -2.320  1.00  0.00    -0.237 OA
ATOM     95  O   UNL     1     -14.431  -8.587  -3.077  1.00  0.00    -0.237 OA
ATOM     96  O   UNL     1     -12.632  -8.274  -4.726  1.00  0.00    -0.744 OA
ENDBRANCH  92  93
ENDBRANCH  73  87
BRANCH  74  97
ATOM     97  C   UNL     1     -13.082   6.812  -2.299  1.00  0.00    -0.014 A 
ATOM     98  C   UNL     1     -11.925   7.096  -1.529  1.00  0.00     0.010 A 
ATOM     99  C   UNL     1     -13.157   7.421  -3.575  1.00  0.00     0.010 A 
ATOM    100  C   UNL     1     -10.815   7.767  -2.070  1.00  0.00     0.020 A 
ATOM    101  C   UNL     1     -12.038   8.083  -4.129  1.00  0.00     0.020 A 
ATOM    102  C   UNL     1     -10.856   8.204  -3.390  1.00  0.00     0.054 A 
BRANCH 102 103
ATOM    103  S   UNL     1      -9.293   8.639  -4.231  1.00  0.00     0.124 S 
ATOM    104  O   UNL     1      -9.193  10.072  -3.979  1.00  0.00    -0.237 OA
ATOM    105  O   UNL     1      -8.305   7.803  -3.553  1.00  0.00    -0.237 OA
ATOM    106  O   UNL     1      -9.566   8.246  -5.610  1.00  0.00    -0.744 OA
ENDBRANCH 102 103
ENDBRANCH  74  97
BRANCH  86 107
ATOM    107  C   UNL     1     -18.241   1.438  -0.662  1.00  0.00    -0.014 A 
ATOM    108  C   UNL     1     -19.295   2.343  -0.488  1.00  0.00     0.010 A 
ATOM    109  C   UNL     1     -18.625   0.063  -0.651  1.00  0.00     0.010 A 
ATOM    110  C   UNL     1     -20.622   1.911  -0.289  1.00  0.00     0.020 A 
ATOM    111  C   UNL     1     -19.936  -0.383  -0.466  1.00  0.00     0.020 A 
ATOM    112  C   UNL     1     -20.935   0.552  -0.288  1.00  0.00     0.054 A 
BRANCH 112 113
ATOM    113  S   UNL     1     -22.661   0.030  -0.169  1.00  0.00     0.124 S 
ATOM    114  O   UNL     1     -22.975   0.327   1.225  1.00  0.00    -0.237 OA
ATOM    115  O   UNL     1     -23.313   0.887  -1.157  1.00  0.00    -0.237 OA
ATOM    116  O   UNL     1     -22.623  -1.389  -0.513  1.00  0.00    -0.744 OA
ENDBRANCH 112 113
ENDBRANCH  86 107
ENDBRANCH  60  61
ENDBRANCH  53  55
ENDBRANCH  52  53
ENDBRANCH  51  52
ENDBRANCH  50  51
ENDBRANCH  49  50
ENDBRANCH  48  49
ENDBRANCH  47  48
ENDBRANCH  46  47
ENDBRANCH   1  46
TORSDOF 30
