REMARK SMILES CS(=O)(=O)c1ccc(C2=NN(c3ccc(C(=O)OCCOCCOCCOCCOC(=O)c4ccc(-c5c6nc(c(-c7ccc(S(=O)(=O)[O-])cc7)c7ccc([nH]7)c(-c7ccc(S(=O)(=O)[O-])cc7)c7nc(c(-c8ccc(S(=O)(=O)[O-])cc8)c8ccc5[nH]8)C=C7)C=C6)cc4)cc3)[C@H](c3ccc(Cl)cc3)C2)cc1
REMARK SMILES IDX 24 1 23 2 22 3 21 4 20 5 19 6 18 7 16 8 17 9 15 10 12 11
REMARK SMILES IDX 13 12 94 13 14 14 93 15 11 16 9 17 10 18 103 19 95 20 8 21
REMARK SMILES IDX 5 22 6 23 105 24 7 25 104 26 2 27 1 28 3 29 4 30 96 31 97 32
REMARK SMILES IDX 102 33 98 34 101 35 99 36 100 37 25 38 26 39 27 40 28 41
REMARK SMILES IDX 29 42 30 43 31 44 32 45 33 46 34 47 92 48 35 49 91 50 36 51
REMARK SMILES IDX 37 52 38 53 85 54 39 55 90 56 84 57 86 58 40 59 89 60 83 61
REMARK SMILES IDX 82 62 41 64 71 65 52 66 70 67 53 68 56 69 69 70 87 71 54 72
REMARK SMILES IDX 55 73 68 75 88 76 57 77 42 78 43 79 51 80 44 81 50 82 45 83
REMARK SMILES IDX 46 84 47 85 48 86 49 87 72 88 73 89 81 90 74 91 80 92 75 93
REMARK SMILES IDX 76 94 77 95 78 96 79 97 58 98 59 99 67 100 60 101 66 102
REMARK SMILES IDX 61 103 62 104 63 105 64 106 65 107
REMARK H PARENT 86 63 56 74
REMARK Flexibility Score: inf
ROOT
ATOM      1  O   UNL     1       5.293 -13.156   0.028  1.00  0.00    -0.377 OA
ENDROOT
BRANCH   1   2
ATOM      2  C   UNL     1       5.947 -11.904   0.145  1.00  0.00     0.188 C 
BRANCH   2   3
ATOM      3  C   UNL     1       7.395 -11.935   0.671  1.00  0.00     0.188 C 
BRANCH   3   4
ATOM      4  O   UNL     1       7.996 -13.216   0.595  1.00  0.00    -0.376 OA
BRANCH   4   5
ATOM      5  C   UNL     1       8.104 -14.025   1.752  1.00  0.00     0.202 C 
BRANCH   5   6
ATOM      6  C   UNL     1       6.906 -14.283   2.682  1.00  0.00     0.261 C 
BRANCH   6   7
ATOM      7  O   UNL     1       5.987 -13.205   2.860  1.00  0.00    -0.460 OA
BRANCH   7   8
ATOM      8  C   UNL     1       6.345 -12.195   3.677  1.00  0.00     0.338 C 
ATOM      9  O   UNL     1       7.381 -12.099   4.312  1.00  0.00    -0.246 OA
BRANCH   8  10
ATOM     10  C   UNL     1       5.342 -11.108   3.528  1.00  0.00     0.060 A 
ATOM     11  C   UNL     1       3.484  -9.008   3.345  1.00  0.00     0.060 A 
ATOM     12  C   UNL     1       4.846  -8.734   3.517  1.00  0.00     0.029 A 
ATOM     13  C   UNL     1       3.088 -10.336   3.130  1.00  0.00     0.029 A 
ATOM     14  C   UNL     1       5.772  -9.778   3.618  1.00  0.00     0.018 A 
ATOM     15  C   UNL     1       4.001 -11.384   3.241  1.00  0.00     0.018 A 
BRANCH  11  16
ATOM     16  N   UNL     1       2.504  -8.028   3.566  1.00  0.00    -0.257 N 
ATOM     17  C   UNL     1       2.014  -5.950   3.586  1.00  0.00     0.071 C 
ATOM     18  N   UNL     1       2.514  -6.878   2.831  1.00  0.00    -0.176 NA
ATOM     19  C   UNL     1       1.730  -6.337   5.010  1.00  0.00     0.091 C 
ATOM     20  C   UNL     1       2.076  -7.829   4.967  1.00  0.00     0.144 C 
BRANCH  17  21
ATOM     21  C   UNL     1       1.698  -4.596   3.099  1.00  0.00    -0.002 A 
ATOM     22  C   UNL     1       0.912  -2.078   2.209  1.00  0.00     0.067 A 
ATOM     23  C   UNL     1       0.572  -3.210   1.463  1.00  0.00     0.021 A 
ATOM     24  C   UNL     1       1.651  -2.196   3.392  1.00  0.00     0.021 A 
ATOM     25  C   UNL     1       0.983  -4.471   1.902  1.00  0.00     0.011 A 
ATOM     26  C   UNL     1       2.037  -3.462   3.844  1.00  0.00     0.011 A 
BRANCH  22  27
ATOM     27  S   UNL     1       0.341  -0.479   1.676  1.00  0.00     0.175 S 
ATOM     28  C   UNL     1       1.043  -0.262   0.063  1.00  0.00     0.163 C 
ATOM     29  O   UNL     1       0.942   0.514   2.547  1.00  0.00    -0.224 OA
ATOM     30  O   UNL     1      -1.099  -0.575   1.540  1.00  0.00    -0.224 OA
ENDBRANCH  22  27
ENDBRANCH  17  21
BRANCH  20  31
ATOM     31  C   UNL     1       0.994  -8.827   5.365  1.00  0.00    -0.023 A 
ATOM     32  C   UNL     1      -0.381  -8.566   5.280  1.00  0.00     0.007 A 
ATOM     33  C   UNL     1       1.390 -10.119   5.775  1.00  0.00     0.007 A 
ATOM     34  C   UNL     1      -1.320  -9.563   5.577  1.00  0.00     0.021 A 
ATOM     35  C   UNL     1       0.457 -11.129   6.018  1.00  0.00     0.021 A 
ATOM     36  C   UNL     1      -0.898 -10.844   5.920  1.00  0.00     0.041 A 
ATOM     37  Cl  UNL     1      -2.058 -12.079   6.212  1.00  0.00    -0.084 Cl
ENDBRANCH  20  31
ENDBRANCH  11  16
ENDBRANCH   8  10
ENDBRANCH   7   8
ENDBRANCH   6   7
ENDBRANCH   5   6
ENDBRANCH   4   5
ENDBRANCH   3   4
ENDBRANCH   2   3
ENDBRANCH   1   2
BRANCH   1  38
ATOM     38  C   UNL     1       5.788 -14.127  -0.894  1.00  0.00     0.188 C 
BRANCH  38  39
ATOM     39  C   UNL     1       6.953 -13.845  -1.876  1.00  0.00     0.188 C 
BRANCH  39  40
ATOM     40  O   UNL     1       7.202 -12.474  -2.146  1.00  0.00    -0.376 OA
BRANCH  40  41
ATOM     41  C   UNL     1       6.813 -11.965  -3.409  1.00  0.00     0.202 C 
BRANCH  41  42
ATOM     42  C   UNL     1       5.305 -11.922  -3.690  1.00  0.00     0.261 C 
BRANCH  42  43
ATOM     43  O   UNL     1       4.613 -13.174  -3.584  1.00  0.00    -0.460 OA
BRANCH  43  44
ATOM     44  C   UNL     1       4.962 -14.149  -4.451  1.00  0.00     0.338 C 
ATOM     45  O   UNL     1       5.803 -14.082  -5.333  1.00  0.00    -0.246 OA
BRANCH  44  46
ATOM     46  C   UNL     1       4.278 -15.386  -4.028  1.00  0.00     0.060 A 
ATOM     47  C   UNL     1       5.044 -16.503  -3.667  1.00  0.00     0.016 A 
ATOM     48  C   UNL     1       2.884 -15.433  -3.971  1.00  0.00     0.016 A 
ATOM     49  C   UNL     1       4.411 -17.685  -3.281  1.00  0.00     0.010 A 
ATOM     50  C   UNL     1       2.252 -16.623  -3.603  1.00  0.00     0.010 A 
ATOM     51  C   UNL     1       3.012 -17.764  -3.289  1.00  0.00    -0.014 A 
BRANCH  51  52
ATOM     52  C   UNL     1       2.343 -19.081  -3.162  1.00  0.00     0.031 A 
ATOM     53  C   UNL     1       1.901 -19.779  -4.421  1.00  0.00     0.074 A 
ATOM     54  C   UNL     1       2.139 -19.654  -1.962  1.00  0.00     0.049 A 
ATOM     55  N   UNL     1       1.256 -20.907  -4.562  1.00  0.00    -0.248 NA
ATOM     56  C   UNL     1       2.231 -19.110  -5.691  1.00  0.00     0.031 C 
ATOM     57  C   UNL     1       2.560 -19.102  -0.676  1.00  0.00     0.029 A 
ATOM     58  N   UNL     1       1.514 -20.832  -1.635  1.00  0.00    -0.354 N 
ATOM     59  C   UNL     1       1.093 -21.077  -5.932  1.00  0.00     0.074 A 
ATOM     60  C   UNL     1       1.679 -19.924  -6.577  1.00  0.00     0.031 C 
ATOM     61  C   UNL     1       2.173 -19.939   0.304  1.00  0.00     0.029 A 
ATOM     62  C   UNL     1       1.445 -21.064  -0.282  1.00  0.00     0.049 A 
ATOM     63  H   UNL     1       1.150 -21.453  -2.307  1.00  0.00     0.167 HD
ATOM     64  C   UNL     1       0.510 -22.104  -6.595  1.00  0.00     0.031 A 
ATOM     65  C   UNL     1       0.843 -22.056   0.405  1.00  0.00     0.031 A 
ATOM     66  C   UNL     1      -0.089 -23.241  -5.948  1.00  0.00     0.049 A 
ATOM     67  C   UNL     1       0.127 -23.147  -0.352  1.00  0.00     0.074 A 
ATOM     68  C   UNL     1      -0.693 -24.341  -6.531  1.00  0.00     0.029 A 
ATOM     69  N   UNL     1      -0.171 -23.419  -4.575  1.00  0.00    -0.354 N 
ATOM     70  N   UNL     1       0.005 -23.311  -1.648  1.00  0.00    -0.248 NA
ATOM     71  C   UNL     1      -0.527 -24.192   0.449  1.00  0.00     0.031 C 
ATOM     72  C   UNL     1      -1.200 -25.151  -5.510  1.00  0.00     0.029 A 
ATOM     73  C   UNL     1      -0.845 -24.595  -4.291  1.00  0.00     0.049 A 
ATOM     74  H   UNL     1       0.195 -22.801  -3.902  1.00  0.00     0.167 HD
ATOM     75  C   UNL     1      -0.712 -24.493  -1.817  1.00  0.00     0.074 A 
ATOM     76  C   UNL     1      -0.982 -25.009  -0.491  1.00  0.00     0.031 C 
ATOM     77  C   UNL     1      -1.108 -25.098  -2.965  1.00  0.00     0.031 A 
BRANCH  64  78
ATOM     78  C   UNL     1       0.458 -22.022  -8.098  1.00  0.00    -0.014 A 
ATOM     79  C   UNL     1       1.621 -22.145  -8.879  1.00  0.00     0.010 A 
ATOM     80  C   UNL     1      -0.782 -21.854  -8.740  1.00  0.00     0.010 A 
ATOM     81  C   UNL     1       1.550 -22.063 -10.273  1.00  0.00     0.020 A 
ATOM     82  C   UNL     1      -0.862 -21.803 -10.134  1.00  0.00     0.020 A 
ATOM     83  C   UNL     1       0.307 -21.892 -10.891  1.00  0.00     0.054 A 
BRANCH  83  84
ATOM     84  S   UNL     1       0.242 -21.816 -12.702  1.00  0.00     0.124 S 
ATOM     85  O   UNL     1       0.855 -20.518 -12.972  1.00  0.00    -0.237 OA
ATOM     86  O   UNL     1       1.032 -22.978 -13.099  1.00  0.00    -0.237 OA
ATOM     87  O   UNL     1      -1.185 -21.904 -13.003  1.00  0.00    -0.744 OA
ENDBRANCH  83  84
ENDBRANCH  64  78
BRANCH  65  88
ATOM     88  C   UNL     1       0.870 -22.057   1.895  1.00  0.00    -0.014 A 
ATOM     89  C   UNL     1       1.580 -23.043   2.602  1.00  0.00     0.010 A 
ATOM     90  C   UNL     1       0.173 -21.070   2.617  1.00  0.00     0.010 A 
ATOM     91  C   UNL     1       1.580 -23.052   4.001  1.00  0.00     0.020 A 
ATOM     92  C   UNL     1       0.197 -21.057   4.015  1.00  0.00     0.020 A 
ATOM     93  C   UNL     1       0.892 -22.055   4.698  1.00  0.00     0.054 A 
BRANCH  93  94
ATOM     94  S   UNL     1       0.953 -22.057   6.512  1.00  0.00     0.124 S 
ATOM     95  O   UNL     1       0.124 -23.210   6.844  1.00  0.00    -0.237 OA
ATOM     96  O   UNL     1       2.382 -22.206   6.777  1.00  0.00    -0.237 OA
ATOM     97  O   UNL     1       0.394 -20.757   6.875  1.00  0.00    -0.744 OA
ENDBRANCH  93  94
ENDBRANCH  65  88
BRANCH  77  98
ATOM     98  C   UNL     1      -1.842 -26.410  -2.849  1.00  0.00    -0.014 A 
ATOM     99  C   UNL     1      -3.157 -26.475  -2.357  1.00  0.00     0.010 A 
ATOM    100  C   UNL     1      -1.222 -27.591  -3.300  1.00  0.00     0.010 A 
ATOM    101  C   UNL     1      -3.826 -27.701  -2.287  1.00  0.00     0.020 A 
ATOM    102  C   UNL     1      -1.899 -28.812  -3.263  1.00  0.00     0.020 A 
ATOM    103  C   UNL     1      -3.193 -28.862  -2.743  1.00  0.00     0.054 A 
BRANCH 103 104
ATOM    104  S   UNL     1      -4.100 -30.432  -2.682  1.00  0.00     0.124 S 
ATOM    105  O   UNL     1      -4.124 -30.714  -1.250  1.00  0.00    -0.237 OA
ATOM    106  O   UNL     1      -5.387 -30.081  -3.276  1.00  0.00    -0.237 OA
ATOM    107  O   UNL     1      -3.279 -31.339  -3.481  1.00  0.00    -0.744 OA
ENDBRANCH 103 104
ENDBRANCH  77  98
ENDBRANCH  51  52
ENDBRANCH  44  46
ENDBRANCH  43  44
ENDBRANCH  42  43
ENDBRANCH  41  42
ENDBRANCH  40  41
ENDBRANCH  39  40
ENDBRANCH  38  39
ENDBRANCH   1  38
TORSDOF 27
