REMARK SMILES CS(=O)(=O)c1ccc(/C=C(/C(=O)OCCOCCOCCOCCOC(=O)c2ccc(-c3c4nc(c(-c5ccc(S(=O)(=O)[O-])cc5)c5ccc([nH]5)c(-c5ccc(S(=O)(=O)[O-])cc5)c5nc(c(-c6ccc(S(=O)(=O)[O-])cc6)c6ccc3[nH]6)C=C5)C=C4)cc2)c2ccc(-c3ccc(F)cc3F)cc2)cc1
REMARK SMILES IDX 20 1 19 2 18 3 17 4 16 5 15 6 14 7 13 8 11 9 12 10 10 11
REMARK SMILES IDX 9 12 8 13 5 14 6 15 103 16 7 17 102 18 2 19 1 20 3 21 4 22
REMARK SMILES IDX 88 23 89 24 101 25 90 26 100 27 91 28 92 29 93 30 98 31
REMARK SMILES IDX 94 32 97 33 99 34 95 35 96 36 21 37 22 38 23 39 24 40 25 41
REMARK SMILES IDX 26 42 27 43 28 44 29 45 87 46 30 47 86 48 31 49 32 50 33 51
REMARK SMILES IDX 80 52 34 53 85 54 79 55 81 56 35 57 84 58 78 59 77 60 36 62
REMARK SMILES IDX 66 63 47 64 65 65 48 66 51 67 64 68 82 69 49 70 50 71 63 73
REMARK SMILES IDX 83 74 52 75 37 76 38 77 46 78 39 79 45 80 40 81 41 82 42 83
REMARK SMILES IDX 43 84 44 85 67 86 68 87 76 88 69 89 75 90 70 91 71 92 72 93
REMARK SMILES IDX 73 94 74 95 53 96 54 97 62 98 55 99 61 100 56 101 57 102
REMARK SMILES IDX 58 103 59 104 60 105
REMARK H PARENT 81 61 51 72
REMARK Flexibility Score: inf
ROOT
ATOM      1  C   UNL     1       4.254  10.619  -1.092  1.00  0.00     0.188 C 
ENDROOT
BRANCH   1   2
ATOM      2  O   UNL     1       3.889   9.250  -1.201  1.00  0.00    -0.377 OA
BRANCH   2   3
ATOM      3  C   UNL     1       4.803   8.331  -1.773  1.00  0.00     0.188 C 
BRANCH   3   4
ATOM      4  C   UNL     1       5.639   8.736  -3.011  1.00  0.00     0.188 C 
BRANCH   4   5
ATOM      5  O   UNL     1       5.421  10.063  -3.450  1.00  0.00    -0.376 OA
BRANCH   5   6
ATOM      6  C   UNL     1       4.682  10.249  -4.643  1.00  0.00     0.202 C 
BRANCH   6   7
ATOM      7  C   UNL     1       3.242   9.713  -4.703  1.00  0.00     0.261 C 
BRANCH   7   8
ATOM      8  O   UNL     1       3.027   8.408  -4.141  1.00  0.00    -0.460 OA
BRANCH   8   9
ATOM      9  C   UNL     1       3.425   7.341  -4.873  1.00  0.00     0.338 C 
ATOM     10  O   UNL     1       3.934   7.397  -5.983  1.00  0.00    -0.246 OA
BRANCH   9  11
ATOM     11  C   UNL     1       3.319   6.077  -4.064  1.00  0.00     0.067 C 
ATOM     12  C   UNL     1       2.252   5.900  -3.245  1.00  0.00     0.024 C 
BRANCH  12  13
ATOM     13  C   UNL     1       1.829   4.673  -2.521  1.00  0.00    -0.025 A 
ATOM     14  C   UNL     1       0.851   2.167  -1.729  1.00  0.00     0.067 A 
ATOM     15  C   UNL     1       2.224   2.386  -1.785  1.00  0.00     0.021 A 
ATOM     16  C   UNL     1      -0.041   3.219  -1.934  1.00  0.00     0.021 A 
ATOM     17  C   UNL     1       2.701   3.652  -2.122  1.00  0.00     0.009 A 
ATOM     18  C   UNL     1       0.453   4.468  -2.330  1.00  0.00     0.009 A 
BRANCH  14  19
ATOM     19  S   UNL     1       0.264   0.511  -1.499  1.00  0.00     0.175 S 
ATOM     20  C   UNL     1       0.905   0.040   0.083  1.00  0.00     0.163 C 
ATOM     21  O   UNL     1       0.911  -0.309  -2.506  1.00  0.00    -0.224 OA
ATOM     22  O   UNL     1      -1.182   0.556  -1.391  1.00  0.00    -0.224 OA
ENDBRANCH  14  19
ENDBRANCH  12  13
BRANCH  11  23
ATOM     23  C   UNL     1       4.396   5.077  -4.222  1.00  0.00    -0.011 A 
ATOM     24  C   UNL     1       5.578   5.189  -3.473  1.00  0.00     0.009 A 
ATOM     25  C   UNL     1       4.218   3.948  -5.017  1.00  0.00     0.009 A 
ATOM     26  C   UNL     1       6.558   4.197  -3.510  1.00  0.00     0.009 A 
ATOM     27  C   UNL     1       5.191   2.941  -5.032  1.00  0.00     0.009 A 
ATOM     28  C   UNL     1       6.380   3.044  -4.284  1.00  0.00    -0.015 A 
BRANCH  28  29
ATOM     29  C   UNL     1       7.405   1.984  -4.304  1.00  0.00     0.018 A 
ATOM     30  C   UNL     1       8.059   1.575  -3.123  1.00  0.00     0.015 A 
ATOM     31  C   UNL     1       7.782   1.352  -5.502  1.00  0.00     0.133 A 
ATOM     32  C   UNL     1       9.044   0.584  -3.151  1.00  0.00     0.040 A 
ATOM     33  C   UNL     1       8.756   0.360  -5.538  1.00  0.00     0.079 A 
ATOM     34  F   UNL     1       7.214   1.708  -6.664  1.00  0.00    -0.206 F 
ATOM     35  C   UNL     1       9.381  -0.013  -4.359  1.00  0.00     0.126 A 
ATOM     36  F   UNL     1      10.324  -0.964  -4.385  1.00  0.00    -0.207 F 
ENDBRANCH  28  29
ENDBRANCH  11  23
ENDBRANCH   9  11
ENDBRANCH   8   9
ENDBRANCH   7   8
ENDBRANCH   6   7
ENDBRANCH   5   6
ENDBRANCH   4   5
ENDBRANCH   3   4
ENDBRANCH   2   3
ENDBRANCH   1   2
BRANCH   1  37
ATOM     37  C   UNL     1       5.730  11.008  -0.840  1.00  0.00     0.188 C 
BRANCH  37  38
ATOM     38  O   UNL     1       6.605   9.911  -0.622  1.00  0.00    -0.376 OA
BRANCH  38  39
ATOM     39  C   UNL     1       7.034   9.665   0.705  1.00  0.00     0.202 C 
BRANCH  39  40
ATOM     40  C   UNL     1       5.960   9.296   1.738  1.00  0.00     0.261 C 
BRANCH  40  41
ATOM     41  O   UNL     1       4.858  10.206   1.863  1.00  0.00    -0.460 OA
BRANCH  41  42
ATOM     42  C   UNL     1       5.127  11.458   2.290  1.00  0.00     0.338 C 
ATOM     43  O   UNL     1       6.218  11.911   2.597  1.00  0.00    -0.246 OA
BRANCH  42  44
ATOM     44  C   UNL     1       3.893  12.253   2.127  1.00  0.00     0.060 A 
ATOM     45  C   UNL     1       3.894  13.354   1.258  1.00  0.00     0.016 A 
ATOM     46  C   UNL     1       2.727  11.883   2.801  1.00  0.00     0.016 A 
ATOM     47  C   UNL     1       2.732  14.104   1.081  1.00  0.00     0.010 A 
ATOM     48  C   UNL     1       1.573  12.652   2.644  1.00  0.00     0.010 A 
ATOM     49  C   UNL     1       1.580  13.783   1.809  1.00  0.00    -0.014 A 
BRANCH  49  50
ATOM     50  C   UNL     1       0.453  14.743   1.862  1.00  0.00     0.031 A 
ATOM     51  C   UNL     1       0.369  15.672   3.042  1.00  0.00     0.074 A 
ATOM     52  C   UNL     1      -0.471  14.800   0.887  1.00  0.00     0.049 A 
ATOM     53  N   UNL     1      -0.540  16.564   3.335  1.00  0.00    -0.248 NA
ATOM     54  C   UNL     1       1.458  15.573   4.029  1.00  0.00     0.031 C 
ATOM     55  C   UNL     1      -0.474  13.983  -0.325  1.00  0.00     0.029 A 
ATOM     56  N   UNL     1      -1.595  15.580   0.774  1.00  0.00    -0.354 N 
ATOM     57  C   UNL     1      -0.142  17.122   4.544  1.00  0.00     0.074 A 
ATOM     58  C   UNL     1       1.072  16.447   4.945  1.00  0.00     0.031 C 
ATOM     59  C   UNL     1      -1.558  14.298  -1.056  1.00  0.00     0.029 A 
ATOM     60  C   UNL     1      -2.342  15.309  -0.346  1.00  0.00     0.049 A 
ATOM     61  H   UNL     1      -1.841  16.268   1.433  1.00  0.00     0.167 HD
ATOM     62  C   UNL     1      -0.735  18.109   5.258  1.00  0.00     0.031 A 
ATOM     63  C   UNL     1      -3.534  15.801  -0.740  1.00  0.00     0.031 A 
ATOM     64  C   UNL     1      -1.957  18.758   4.865  1.00  0.00     0.049 A 
ATOM     65  C   UNL     1      -4.216  16.846   0.104  1.00  0.00     0.074 A 
ATOM     66  C   UNL     1      -2.629  19.783   5.505  1.00  0.00     0.029 A 
ATOM     67  N   UNL     1      -2.701  18.432   3.740  1.00  0.00    -0.354 N 
ATOM     68  N   UNL     1      -3.813  17.392   1.228  1.00  0.00    -0.248 NA
ATOM     69  C   UNL     1      -5.510  17.350  -0.379  1.00  0.00     0.031 C 
ATOM     70  C   UNL     1      -3.817  20.027   4.808  1.00  0.00     0.029 A 
ATOM     71  C   UNL     1      -3.845  19.210   3.688  1.00  0.00     0.049 A 
ATOM     72  H   UNL     1      -2.452  17.748   3.077  1.00  0.00     0.167 HD
ATOM     73  C   UNL     1      -4.790  18.322   1.572  1.00  0.00     0.074 A 
ATOM     74  C   UNL     1      -5.796  18.273   0.530  1.00  0.00     0.031 C 
ATOM     75  C   UNL     1      -4.846  19.145   2.650  1.00  0.00     0.031 A 
BRANCH  62  76
ATOM     76  C   UNL     1      -0.092  18.498   6.564  1.00  0.00    -0.014 A 
ATOM     77  C   UNL     1       1.161  19.137   6.608  1.00  0.00     0.010 A 
ATOM     78  C   UNL     1      -0.757  18.216   7.771  1.00  0.00     0.010 A 
ATOM     79  C   UNL     1       1.760  19.436   7.835  1.00  0.00     0.020 A 
ATOM     80  C   UNL     1      -0.177  18.545   8.999  1.00  0.00     0.020 A 
ATOM     81  C   UNL     1       1.089  19.132   9.023  1.00  0.00     0.054 A 
BRANCH  81  82
ATOM     82  S   UNL     1       1.893  19.524  10.601  1.00  0.00     0.124 S 
ATOM     83  O   UNL     1       2.966  18.534  10.646  1.00  0.00    -0.237 OA
ATOM     84  O   UNL     1       2.322  20.907  10.406  1.00  0.00    -0.237 OA
ATOM     85  O   UNL     1       0.832  19.337  11.588  1.00  0.00    -0.744 OA
ENDBRANCH  81  82
ENDBRANCH  62  76
BRANCH  63  86
ATOM     86  C   UNL     1      -4.162  15.292  -1.991  1.00  0.00    -0.014 A 
ATOM     87  C   UNL     1      -4.265  16.108  -3.130  1.00  0.00     0.010 A 
ATOM     88  C   UNL     1      -4.631  13.966  -2.056  1.00  0.00     0.010 A 
ATOM     89  C   UNL     1      -4.821  15.608  -4.312  1.00  0.00     0.020 A 
ATOM     90  C   UNL     1      -5.161  13.454  -3.244  1.00  0.00     0.020 A 
ATOM     91  C   UNL     1      -5.254  14.280  -4.364  1.00  0.00     0.054 A 
BRANCH  91  92
ATOM     92  S   UNL     1      -5.884  13.628  -5.936  1.00  0.00     0.124 S 
ATOM     93  O   UNL     1      -7.161  14.322  -6.065  1.00  0.00    -0.237 OA
ATOM     94  O   UNL     1      -4.844  14.031  -6.880  1.00  0.00    -0.237 OA
ATOM     95  O   UNL     1      -5.974  12.189  -5.698  1.00  0.00    -0.744 OA
ENDBRANCH  91  92
ENDBRANCH  63  86
BRANCH  75  96
ATOM     96  C   UNL     1      -6.017  20.090   2.748  1.00  0.00    -0.014 A 
ATOM     97  C   UNL     1      -7.315  19.628   3.025  1.00  0.00     0.010 A 
ATOM     98  C   UNL     1      -5.798  21.476   2.624  1.00  0.00     0.010 A 
ATOM     99  C   UNL     1      -8.378  20.529   3.143  1.00  0.00     0.020 A 
ATOM    100  C   UNL     1      -6.850  22.382   2.774  1.00  0.00     0.020 A 
ATOM    101  C   UNL     1      -8.137  21.902   3.018  1.00  0.00     0.054 A 
BRANCH 101 102
ATOM    102  S   UNL     1      -9.525  23.053   3.219  1.00  0.00     0.124 S 
ATOM    103  O   UNL     1     -10.292  22.820   1.998  1.00  0.00    -0.237 OA
ATOM    104  O   UNL     1     -10.151  22.586   4.453  1.00  0.00    -0.237 OA
ATOM    105  O   UNL     1      -8.882  24.361   3.309  1.00  0.00    -0.744 OA
ENDBRANCH 101 102
ENDBRANCH  75  96
ENDBRANCH  49  50
ENDBRANCH  42  44
ENDBRANCH  41  42
ENDBRANCH  40  41
ENDBRANCH  39  40
ENDBRANCH  38  39
ENDBRANCH  37  38
ENDBRANCH   1  37
TORSDOF 27
