REMARK SMILES Cc1ccc(-n2nc(C(=O)OCCOCCOCCOCCOC(=O)c3ccc(-c4c5nc(c(-c6ccc(S(=O)(=O)[O-])cc6)c6ccc([nH]6)c(-c6ccc(S(=O)(=O)[O-])cc6)c6nc(c(-c7ccc(S(=O)(=O)[O-])cc7)c7ccc4[nH]7)C=C6)C=C5)cc3)c(C)c(C#N)c2=O)cc1Cl
REMARK SMILES IDX 18 1 17 2 16 3 15 4 14 5 13 6 12 7 11 8 9 9 10 10 8 11 6 12
REMARK SMILES IDX 7 13 91 14 88 15 92 16 86 17 87 18 5 19 1 20 2 21 3 22 94 23
REMARK SMILES IDX 4 24 93 25 95 26 89 27 90 28 19 29 20 30 21 31 22 32 23 33
REMARK SMILES IDX 24 34 25 35 26 36 27 37 85 38 28 39 84 40 29 41 30 42 31 43
REMARK SMILES IDX 78 44 32 45 83 46 77 47 79 48 33 49 82 50 76 51 75 52 34 54
REMARK SMILES IDX 64 55 45 56 63 57 46 58 49 59 62 60 80 61 47 62 48 63 61 65
REMARK SMILES IDX 81 66 50 67 35 68 36 69 44 70 37 71 43 72 38 73 39 74 40 75
REMARK SMILES IDX 41 76 42 77 65 78 66 79 74 80 67 81 73 82 68 83 69 84 70 85
REMARK SMILES IDX 71 86 72 87 51 88 52 89 60 90 53 91 59 92 54 93 55 94 56 95
REMARK SMILES IDX 57 96 58 97
REMARK H PARENT 79 53 49 64
REMARK Flexibility Score: inf
ROOT
ATOM      1  C   UNL     1      -2.047  -8.858   1.724  1.00  0.00     0.188 C 
ENDROOT
BRANCH   1   2
ATOM      2  O   UNL     1      -2.373  -7.655   1.035  1.00  0.00    -0.377 OA
BRANCH   2   3
ATOM      3  C   UNL     1      -1.628  -6.473   1.262  1.00  0.00     0.188 C 
BRANCH   3   4
ATOM      4  C   UNL     1      -1.441  -5.934   2.703  1.00  0.00     0.188 C 
BRANCH   4   5
ATOM      5  O   UNL     1      -1.621  -6.847   3.765  1.00  0.00    -0.376 OA
BRANCH   5   6
ATOM      6  C   UNL     1      -2.863  -7.088   4.397  1.00  0.00     0.202 C 
BRANCH   6   7
ATOM      7  C   UNL     1      -4.228  -6.721   3.801  1.00  0.00     0.261 C 
BRANCH   7   8
ATOM      8  O   UNL     1      -4.177  -6.017   2.567  1.00  0.00    -0.458 OA
BRANCH   8   9
ATOM      9  C   UNL     1      -4.395  -4.693   2.607  1.00  0.00     0.359 C 
ATOM     10  O   UNL     1      -4.689  -4.012   3.570  1.00  0.00    -0.244 OA
BRANCH   9  11
ATOM     11  C   UNL     1      -4.084  -4.089   1.231  1.00  0.00     0.173 A 
ATOM     12  N   UNL     1      -2.996  -2.484   0.025  1.00  0.00    -0.195 N 
ATOM     13  N   UNL     1      -3.184  -3.150   1.208  1.00  0.00    -0.157 NA
ATOM     14  C   UNL     1      -3.795  -2.665  -1.103  1.00  0.00     0.289 A 
ATOM     15  C   UNL     1      -4.674  -3.864  -1.075  1.00  0.00     0.125 A 
ATOM     16  O   UNL     1      -3.761  -1.950  -2.103  1.00  0.00    -0.266 OA
ATOM     17  C   UNL     1      -4.807  -4.609   0.035  1.00  0.00     0.007 A 
ATOM     18  C   UNL     1      -5.563  -5.905   0.120  1.00  0.00     0.049 C 
BRANCH  12  19
ATOM     19  C   UNL     1      -2.116  -1.375   0.112  1.00  0.00     0.070 A 
ATOM     20  C   UNL     1       0.500   2.067   0.034  1.00  0.00     0.046 C 
ATOM     21  C   UNL     1      -0.387   0.855   0.091  1.00  0.00    -0.032 A 
ATOM     22  C   UNL     1      -1.774   1.024  -0.015  1.00  0.00     0.007 A 
ATOM     23  C   UNL     1       0.120  -0.450   0.219  1.00  0.00     0.046 A 
ATOM     24  C   UNL     1      -2.626  -0.080  -0.021  1.00  0.00     0.029 A 
ATOM     25  C   UNL     1      -0.738  -1.559   0.259  1.00  0.00     0.049 A 
ATOM     26  Cl  UNL     1       1.825  -0.739   0.286  1.00  0.00    -0.084 Cl
ENDBRANCH  12  19
BRANCH  15  27
ATOM     27  C   UNL     1      -5.332  -4.195  -2.296  1.00  0.00     0.105 C 
ATOM     28  N   UNL     1      -5.890  -4.492  -3.263  1.00  0.00    -0.192 NA
ENDBRANCH  15  27
ENDBRANCH   9  11
ENDBRANCH   8   9
ENDBRANCH   7   8
ENDBRANCH   6   7
ENDBRANCH   5   6
ENDBRANCH   4   5
ENDBRANCH   3   4
ENDBRANCH   2   3
ENDBRANCH   1   2
BRANCH   1  29
ATOM     29  C   UNL     1      -0.675  -9.081   2.405  1.00  0.00     0.188 C 
BRANCH  29  30
ATOM     30  O   UNL     1       0.279  -8.071   2.163  1.00  0.00    -0.376 OA
BRANCH  30  31
ATOM     31  C   UNL     1       1.293  -8.265   1.201  1.00  0.00     0.202 C 
BRANCH  31  32
ATOM     32  C   UNL     1       0.972  -8.825  -0.195  1.00  0.00     0.261 C 
BRANCH  32  33
ATOM     33  O   UNL     1      -0.037  -9.837  -0.288  1.00  0.00    -0.460 OA
BRANCH  33  34
ATOM     34  C   UNL     1       0.307 -11.086   0.102  1.00  0.00     0.338 C 
ATOM     35  O   UNL     1       1.379 -11.441   0.555  1.00  0.00    -0.246 OA
BRANCH  34  36
ATOM     36  C   UNL     1      -0.920 -11.913   0.071  1.00  0.00     0.060 A 
ATOM     37  C   UNL     1      -1.462 -12.382   1.276  1.00  0.00     0.016 A 
ATOM     38  C   UNL     1      -1.543 -12.206  -1.144  1.00  0.00     0.016 A 
ATOM     39  C   UNL     1      -2.618 -13.162   1.269  1.00  0.00     0.010 A 
ATOM     40  C   UNL     1      -2.681 -13.017  -1.153  1.00  0.00     0.010 A 
ATOM     41  C   UNL     1      -3.205 -13.524   0.051  1.00  0.00    -0.014 A 
BRANCH  41  42
ATOM     42  C   UNL     1      -4.223 -14.601   0.024  1.00  0.00     0.031 A 
ATOM     43  C   UNL     1      -3.770 -15.994  -0.320  1.00  0.00     0.074 A 
ATOM     44  C   UNL     1      -5.511 -14.364   0.335  1.00  0.00     0.049 A 
ATOM     45  N   UNL     1      -4.475 -17.088  -0.442  1.00  0.00    -0.248 NA
ATOM     46  C   UNL     1      -2.328 -16.177  -0.556  1.00  0.00     0.031 C 
ATOM     47  C   UNL     1      -6.058 -13.073   0.748  1.00  0.00     0.029 A 
ATOM     48  N   UNL     1      -6.592 -15.210   0.350  1.00  0.00    -0.354 N 
ATOM     49  C   UNL     1      -3.566 -18.084  -0.778  1.00  0.00     0.074 A 
ATOM     50  C   UNL     1      -2.265 -17.460  -0.875  1.00  0.00     0.031 C 
ATOM     51  C   UNL     1      -7.376 -13.213   0.975  1.00  0.00     0.029 A 
ATOM     52  C   UNL     1      -7.773 -14.591   0.684  1.00  0.00     0.049 A 
ATOM     53  H   UNL     1      -6.528 -16.169   0.141  1.00  0.00     0.167 HD
ATOM     54  C   UNL     1      -3.792 -19.403  -0.978  1.00  0.00     0.031 A 
ATOM     55  C   UNL     1      -9.032 -15.075   0.730  1.00  0.00     0.031 A 
ATOM     56  C   UNL     1      -5.090 -20.016  -0.893  1.00  0.00     0.049 A 
ATOM     57  C   UNL     1      -9.275 -16.527   0.404  1.00  0.00     0.074 A 
ATOM     58  C   UNL     1      -5.422 -21.347  -1.074  1.00  0.00     0.029 A 
ATOM     59  N   UNL     1      -6.269 -19.343  -0.612  1.00  0.00    -0.354 N 
ATOM     60  N   UNL     1      -8.404 -17.462   0.104  1.00  0.00    -0.248 NA
ATOM     61  C   UNL     1     -10.670 -16.991   0.429  1.00  0.00     0.031 C 
ATOM     62  C   UNL     1      -6.811 -21.465  -0.977  1.00  0.00     0.029 A 
ATOM     63  C   UNL     1      -7.336 -20.224  -0.652  1.00  0.00     0.049 A 
ATOM     64  H   UNL     1      -6.337 -18.381  -0.413  1.00  0.00     0.167 HD
ATOM     65  C   UNL     1      -9.143 -18.629  -0.071  1.00  0.00     0.074 A 
ATOM     66  C   UNL     1     -10.528 -18.286   0.176  1.00  0.00     0.031 C 
ATOM     67  C   UNL     1      -8.712 -19.871  -0.407  1.00  0.00     0.031 A 
BRANCH  54  68
ATOM     68  C   UNL     1      -2.615 -20.270  -1.339  1.00  0.00    -0.014 A 
ATOM     69  C   UNL     1      -1.605 -20.558  -0.403  1.00  0.00     0.010 A 
ATOM     70  C   UNL     1      -2.549 -20.855  -2.617  1.00  0.00     0.010 A 
ATOM     71  C   UNL     1      -0.538 -21.392  -0.748  1.00  0.00     0.020 A 
ATOM     72  C   UNL     1      -1.502 -21.716  -2.955  1.00  0.00     0.020 A 
ATOM     73  C   UNL     1      -0.496 -21.970  -2.020  1.00  0.00     0.054 A 
BRANCH  73  74
ATOM     74  S   UNL     1       0.882 -23.077  -2.421  1.00  0.00     0.124 S 
ATOM     75  O   UNL     1       2.019 -22.160  -2.411  1.00  0.00    -0.237 OA
ATOM     76  O   UNL     1       0.842 -24.041  -1.325  1.00  0.00    -0.237 OA
ATOM     77  O   UNL     1       0.528 -23.613  -3.734  1.00  0.00    -0.744 OA
ENDBRANCH  73  74
ENDBRANCH  54  68
BRANCH  55  78
ATOM     78  C   UNL     1     -10.161 -14.172   1.093  1.00  0.00    -0.014 A 
ATOM     79  C   UNL     1     -10.865 -14.351   2.296  1.00  0.00     0.010 A 
ATOM     80  C   UNL     1     -10.527 -13.112   0.241  1.00  0.00     0.010 A 
ATOM     81  C   UNL     1     -11.911 -13.489   2.642  1.00  0.00     0.020 A 
ATOM     82  C   UNL     1     -11.550 -12.228   0.598  1.00  0.00     0.020 A 
ATOM     83  C   UNL     1     -12.238 -12.425   1.796  1.00  0.00     0.054 A 
BRANCH  83  84
ATOM     84  S   UNL     1     -13.544 -11.275   2.308  1.00  0.00     0.124 S 
ATOM     85  O   UNL     1     -14.732 -12.123   2.266  1.00  0.00    -0.237 OA
ATOM     86  O   UNL     1     -13.098 -10.874   3.640  1.00  0.00    -0.237 OA
ATOM     87  O   UNL     1     -13.490 -10.222   1.297  1.00  0.00    -0.744 OA
ENDBRANCH  83  84
ENDBRANCH  55  78
BRANCH  67  88
ATOM     88  C   UNL     1      -9.738 -20.971  -0.513  1.00  0.00    -0.014 A 
ATOM     89  C   UNL     1     -10.672 -20.999  -1.564  1.00  0.00     0.010 A 
ATOM     90  C   UNL     1      -9.707 -22.042   0.401  1.00  0.00     0.010 A 
ATOM     91  C   UNL     1     -11.571 -22.062  -1.683  1.00  0.00     0.020 A 
ATOM     92  C   UNL     1     -10.579 -23.125   0.264  1.00  0.00     0.020 A 
ATOM     93  C   UNL     1     -11.514 -23.122  -0.772  1.00  0.00     0.054 A 
BRANCH  93  94
ATOM     94  S   UNL     1     -12.661 -24.511  -0.985  1.00  0.00     0.124 S 
ATOM     95  O   UNL     1     -13.951 -23.889  -0.700  1.00  0.00    -0.237 OA
ATOM     96  O   UNL     1     -12.441 -24.894  -2.377  1.00  0.00    -0.237 OA
ATOM     97  O   UNL     1     -12.211 -25.489   0.004  1.00  0.00    -0.744 OA
ENDBRANCH  93  94
ENDBRANCH  67  88
ENDBRANCH  41  42
ENDBRANCH  34  36
ENDBRANCH  33  34
ENDBRANCH  32  33
ENDBRANCH  31  32
ENDBRANCH  30  31
ENDBRANCH  29  30
ENDBRANCH   1  29
TORSDOF 25
