REMARK SMILES C[C@@H](C(=O)OCCOCCOCCOCCOC(=O)c1ccc(-c2c3nc(c(-c4ccc(S(=O)(=O)[O-])cc4)c4ccc([nH]4)c(-c4ccc(S(=O)(=O)[O-])cc4)c4nc(c(-c5ccc(S(=O)(=O)[O-])cc5)c5ccc2[nH]5)C=C4)C=C3)cc1)c1ccc(C[C@H]2CCC[C@H]2O)cc1
REMARK SMILES IDX 10 1 9 2 8 3 7 4 6 5 5 6 3 7 4 8 2 9 1 10 80 11 81 12 92 13
REMARK SMILES IDX 82 14 91 15 83 16 84 17 85 18 86 19 89 20 87 21 88 22 90 23
REMARK SMILES IDX 11 25 12 26 13 27 14 28 15 29 16 30 17 31 18 32 19 33 20 34
REMARK SMILES IDX 21 35 79 36 22 37 78 38 23 39 24 40 25 41 72 42 26 43 77 44
REMARK SMILES IDX 71 45 73 46 27 47 76 48 70 49 69 50 28 52 58 53 39 54 57 55
REMARK SMILES IDX 40 56 43 57 56 58 74 59 41 60 42 61 55 63 75 64 44 65 29 66
REMARK SMILES IDX 30 67 38 68 31 69 37 70 32 71 33 72 34 73 35 74 36 75 59 76
REMARK SMILES IDX 60 77 68 78 61 79 67 80 62 81 63 82 64 83 65 84 66 85 45 86
REMARK SMILES IDX 46 87 54 88 47 89 53 90 48 91 49 92 50 93 51 94 52 95
REMARK H PARENT 90 24 73 51 43 62
REMARK Flexibility Score: inf
ROOT
ATOM      1  C   UNL     1       1.029   2.844   0.415  1.00  0.00     0.188 C 
ENDROOT
BRANCH   1   2
ATOM      2  C   UNL     1       0.257   3.430   1.613  1.00  0.00     0.188 C 
BRANCH   2   3
ATOM      3  O   UNL     1       0.960   4.159   2.603  1.00  0.00    -0.376 OA
BRANCH   3   4
ATOM      4  C   UNL     1       2.145   3.618   3.169  1.00  0.00     0.202 C 
BRANCH   4   5
ATOM      5  C   UNL     1       2.328   2.114   3.472  1.00  0.00     0.261 C 
BRANCH   5   6
ATOM      6  O   UNL     1       1.869   1.156   2.497  1.00  0.00    -0.463 OA
BRANCH   6   7
ATOM      7  C   UNL     1       0.768   0.423   2.816  1.00  0.00     0.313 C 
ATOM      8  O   UNL     1       0.144   0.561   3.865  1.00  0.00    -0.252 OA
BRANCH   7   9
ATOM      9  C   UNL     1       0.366  -0.617   1.742  1.00  0.00     0.126 C 
ATOM     10  C   UNL     1       1.197  -0.712   0.460  1.00  0.00     0.025 C 
BRANCH   9  11
ATOM     11  C   UNL     1      -1.135  -0.551   1.444  1.00  0.00    -0.034 A 
ATOM     12  C   UNL     1      -1.740   0.579   0.877  1.00  0.00     0.005 A 
ATOM     13  C   UNL     1      -1.968  -1.606   1.828  1.00  0.00     0.005 A 
ATOM     14  C   UNL     1      -3.125   0.730   0.851  1.00  0.00     0.004 A 
ATOM     15  C   UNL     1      -3.359  -1.462   1.792  1.00  0.00     0.004 A 
ATOM     16  C   UNL     1      -3.945  -0.256   1.389  1.00  0.00    -0.048 A 
BRANCH  16  17
ATOM     17  C   UNL     1      -5.411   0.017   1.611  1.00  0.00     0.041 C 
BRANCH  17  18
ATOM     18  C   UNL     1      -5.793   0.685   2.949  1.00  0.00     0.022 C 
ATOM     19  C   UNL     1      -5.228   0.029   4.221  1.00  0.00     0.007 C 
ATOM     20  C   UNL     1      -5.507   2.186   3.132  1.00  0.00     0.117 C 
ATOM     21  C   UNL     1      -5.092   1.146   5.259  1.00  0.00     0.003 C 
ATOM     22  C   UNL     1      -5.717   2.386   4.630  1.00  0.00     0.032 C 
BRANCH  20  23
ATOM     23  O   UNL     1      -4.194   2.590   2.791  1.00  0.00    -0.393 OA
ATOM     24  H   UNL     1      -3.555   2.107   3.338  1.00  0.00     0.210 HD
ENDBRANCH  20  23
ENDBRANCH  17  18
ENDBRANCH  16  17
ENDBRANCH   9  11
ENDBRANCH   7   9
ENDBRANCH   6   7
ENDBRANCH   5   6
ENDBRANCH   4   5
ENDBRANCH   3   4
ENDBRANCH   2   3
ENDBRANCH   1   2
BRANCH   1  25
ATOM     25  O   UNL     1       2.427   3.001   0.473  1.00  0.00    -0.377 OA
BRANCH  25  26
ATOM     26  C   UNL     1       2.966   4.178  -0.105  1.00  0.00     0.188 C 
BRANCH  26  27
ATOM     27  C   UNL     1       2.092   5.446  -0.173  1.00  0.00     0.188 C 
BRANCH  27  28
ATOM     28  O   UNL     1       0.778   5.235  -0.681  1.00  0.00    -0.376 OA
BRANCH  28  29
ATOM     29  C   UNL     1       0.515   5.508  -2.049  1.00  0.00     0.202 C 
BRANCH  29  30
ATOM     30  C   UNL     1       1.169   4.591  -3.095  1.00  0.00     0.261 C 
BRANCH  30  31
ATOM     31  O   UNL     1       2.602   4.534  -3.090  1.00  0.00    -0.460 OA
BRANCH  31  32
ATOM     32  C   UNL     1       3.284   5.691  -3.232  1.00  0.00     0.338 C 
ATOM     33  O   UNL     1       2.816   6.798  -3.437  1.00  0.00    -0.246 OA
BRANCH  32  34
ATOM     34  C   UNL     1       4.694   5.422  -2.882  1.00  0.00     0.060 A 
ATOM     35  C   UNL     1       5.274   6.123  -1.816  1.00  0.00     0.016 A 
ATOM     36  C   UNL     1       5.428   4.460  -3.579  1.00  0.00     0.016 A 
ATOM     37  C   UNL     1       6.603   5.888  -1.466  1.00  0.00     0.010 A 
ATOM     38  C   UNL     1       6.768   4.246  -3.246  1.00  0.00     0.010 A 
ATOM     39  C   UNL     1       7.370   4.984  -2.212  1.00  0.00    -0.014 A 
BRANCH  39  40
ATOM     40  C   UNL     1       8.845   4.978  -2.062  1.00  0.00     0.031 A 
ATOM     41  C   UNL     1       9.655   5.783  -3.042  1.00  0.00     0.074 A 
ATOM     42  C   UNL     1       9.452   4.298  -1.073  1.00  0.00     0.049 A 
ATOM     43  N   UNL     1      10.952   5.901  -3.148  1.00  0.00    -0.248 NA
ATOM     44  C   UNL     1       8.896   6.559  -4.039  1.00  0.00     0.031 C 
ATOM     45  C   UNL     1       8.774   3.530  -0.030  1.00  0.00     0.029 A 
ATOM     46  N   UNL     1      10.787   4.144  -0.792  1.00  0.00    -0.354 N 
ATOM     47  C   UNL     1      11.165   6.748  -4.229  1.00  0.00     0.074 A 
ATOM     48  C   UNL     1       9.867   7.095  -4.762  1.00  0.00     0.031 C 
ATOM     49  C   UNL     1       9.701   2.980   0.776  1.00  0.00     0.029 A 
ATOM     50  C   UNL     1      11.034   3.323   0.283  1.00  0.00     0.049 A 
ATOM     51  H   UNL     1      11.501   4.580  -1.311  1.00  0.00     0.167 HD
ATOM     52  C   UNL     1      12.338   7.199  -4.734  1.00  0.00     0.031 A 
ATOM     53  C   UNL     1      12.202   2.882   0.793  1.00  0.00     0.031 A 
ATOM     54  C   UNL     1      13.627   6.839  -4.208  1.00  0.00     0.049 A 
ATOM     55  C   UNL     1      13.497   3.330   0.160  1.00  0.00     0.074 A 
ATOM     56  C   UNL     1      14.875   7.255  -4.636  1.00  0.00     0.029 A 
ATOM     57  N   UNL     1      13.835   5.971  -3.147  1.00  0.00    -0.354 N 
ATOM     58  N   UNL     1      13.685   4.151  -0.847  1.00  0.00    -0.248 NA
ATOM     59  C   UNL     1      14.739   2.795   0.737  1.00  0.00     0.031 C 
ATOM     60  C   UNL     1      15.840   6.583  -3.880  1.00  0.00     0.029 A 
ATOM     61  C   UNL     1      15.193   5.810  -2.929  1.00  0.00     0.049 A 
ATOM     62  H   UNL     1      13.124   5.533  -2.626  1.00  0.00     0.167 HD
ATOM     63  C   UNL     1      15.065   4.258  -0.999  1.00  0.00     0.074 A 
ATOM     64  C   UNL     1      15.662   3.428   0.027  1.00  0.00     0.031 C 
ATOM     65  C   UNL     1      15.774   4.982  -1.901  1.00  0.00     0.031 A 
BRANCH  52  66
ATOM     66  C   UNL     1      12.280   8.091  -5.945  1.00  0.00    -0.014 A 
ATOM     67  C   UNL     1      11.787   9.406  -5.867  1.00  0.00     0.010 A 
ATOM     68  C   UNL     1      12.766   7.615  -7.177  1.00  0.00     0.010 A 
ATOM     69  C   UNL     1      11.749  10.216  -7.006  1.00  0.00     0.020 A 
ATOM     70  C   UNL     1      12.759   8.432  -8.311  1.00  0.00     0.020 A 
ATOM     71  C   UNL     1      12.237   9.723  -8.221  1.00  0.00     0.054 A 
BRANCH  71  72
ATOM     72  S   UNL     1      12.206  10.807  -9.674  1.00  0.00     0.124 S 
ATOM     73  O   UNL     1      10.776  10.881  -9.965  1.00  0.00    -0.237 OA
ATOM     74  O   UNL     1      12.808  12.037  -9.167  1.00  0.00    -0.237 OA
ATOM     75  O   UNL     1      13.005  10.087 -10.663  1.00  0.00    -0.744 OA
ENDBRANCH  71  72
ENDBRANCH  52  66
BRANCH  53  76
ATOM     76  C   UNL     1      12.209   1.948   1.955  1.00  0.00    -0.014 A 
ATOM     77  C   UNL     1      12.721   2.354   3.200  1.00  0.00     0.010 A 
ATOM     78  C   UNL     1      11.717   0.637   1.815  1.00  0.00     0.010 A 
ATOM     79  C   UNL     1      12.757   1.462   4.277  1.00  0.00     0.020 A 
ATOM     80  C   UNL     1      11.722  -0.247   2.898  1.00  0.00     0.020 A 
ATOM     81  C   UNL     1      12.254   0.168   4.120  1.00  0.00     0.054 A 
BRANCH  81  82
ATOM     82  S   UNL     1      12.268  -0.956   5.545  1.00  0.00     0.124 S 
ATOM     83  O   UNL     1      13.691  -1.248   5.688  1.00  0.00    -0.237 OA
ATOM     84  O   UNL     1      11.682  -0.132   6.599  1.00  0.00    -0.237 OA
ATOM     85  O   UNL     1      11.439  -2.076   5.106  1.00  0.00    -0.744 OA
ENDBRANCH  81  82
ENDBRANCH  53  76
BRANCH  65  86
ATOM     86  C   UNL     1      17.277   4.951  -1.798  1.00  0.00    -0.014 A 
ATOM     87  C   UNL     1      18.016   3.802  -2.131  1.00  0.00     0.010 A 
ATOM     88  C   UNL     1      17.966   6.120  -1.420  1.00  0.00     0.010 A 
ATOM     89  C   UNL     1      19.412   3.813  -2.055  1.00  0.00     0.020 A 
ATOM     90  C   UNL     1      19.362   6.145  -1.377  1.00  0.00     0.020 A 
ATOM     91  C   UNL     1      20.076   4.985  -1.681  1.00  0.00     0.054 A 
BRANCH  91  92
ATOM     92  S   UNL     1      21.889   4.984  -1.634  1.00  0.00     0.124 S 
ATOM     93  O   UNL     1      22.163   4.157  -0.462  1.00  0.00    -0.237 OA
ATOM     94  O   UNL     1      22.241   4.387  -2.920  1.00  0.00    -0.237 OA
ATOM     95  O   UNL     1      22.234   6.397  -1.493  1.00  0.00    -0.744 OA
ENDBRANCH  91  92
ENDBRANCH  65  86
ENDBRANCH  39  40
ENDBRANCH  32  34
ENDBRANCH  31  32
ENDBRANCH  30  31
ENDBRANCH  29  30
ENDBRANCH  28  29
ENDBRANCH  27  28
ENDBRANCH  26  27
ENDBRANCH  25  26
ENDBRANCH   1  25
TORSDOF 27
