REMARK SMILES CC(C)[NH2+][C@@]1(C(=O)OCCOCCOCCOCCOC(=O)c2ccc(-c3c4nc(c(-c5ccc(S(=O)(=O)[O-])cc5)c5ccc([nH]5)c(-c5ccc(S(=O)(=O)[O-])cc5)c5nc(c(-c6ccc(S(=O)(=O)[O-])cc6)c6ccc3[nH]6)C=C5)C=C4)cc2)CC[C@@H](Sc2ccncc2)C1
REMARK SMILES IDX 15 1 14 2 13 3 12 4 11 5 10 6 9 7 8 8 6 9 7 10 5 11 83 12
REMARK SMILES IDX 93 13 84 14 85 15 4 16 2 19 1 20 3 21 86 22 87 23 88 24
REMARK SMILES IDX 92 25 89 26 91 27 90 28 16 29 17 30 18 31 19 32 20 33 21 34
REMARK SMILES IDX 22 35 23 36 24 37 82 38 25 39 81 40 26 41 27 42 28 43 75 44
REMARK SMILES IDX 29 45 80 46 74 47 76 48 30 49 79 50 73 51 72 52 31 54 61 55
REMARK SMILES IDX 42 56 60 57 43 58 46 59 59 60 77 61 44 62 45 63 58 65 78 66
REMARK SMILES IDX 47 67 32 68 33 69 41 70 34 71 40 72 35 73 36 74 37 75 38 76
REMARK SMILES IDX 39 77 62 78 63 79 71 80 64 81 70 82 65 83 66 84 67 85 68 86
REMARK SMILES IDX 69 87 48 88 49 89 57 90 50 91 56 92 51 93 52 94 53 95 54 96
REMARK SMILES IDX 55 97
REMARK H PARENT 4 17 4 18 76 53 46 64
REMARK Flexibility Score: inf
ROOT
ATOM      1  C   UNL     1       1.523  -3.678   6.017  1.00  0.00     0.188 C 
ENDROOT
BRANCH   1   2
ATOM      2  O   UNL     1       0.387  -3.309   5.260  1.00  0.00    -0.377 OA
BRANCH   2   3
ATOM      3  C   UNL     1       0.625  -2.439   4.182  1.00  0.00     0.188 C 
BRANCH   3   4
ATOM      4  C   UNL     1       0.497  -0.943   4.519  1.00  0.00     0.188 C 
BRANCH   4   5
ATOM      5  O   UNL     1      -0.156  -0.557   5.717  1.00  0.00    -0.376 OA
BRANCH   5   6
ATOM      6  C   UNL     1      -1.269  -1.316   6.166  1.00  0.00     0.202 C 
BRANCH   6   7
ATOM      7  C   UNL     1      -2.454  -1.595   5.215  1.00  0.00     0.261 C 
BRANCH   7   8
ATOM      8  O   UNL     1      -2.181  -2.195   3.922  1.00  0.00    -0.459 OA
BRANCH   8   9
ATOM      9  C   UNL     1      -2.186  -1.359   2.849  1.00  0.00     0.368 C 
ATOM     10  O   UNL     1      -2.403  -0.149   2.934  1.00  0.00    -0.245 OA
BRANCH   9  11
ATOM     11  C   UNL     1      -1.961  -2.041   1.442  1.00  0.00     0.195 C 
ATOM     12  C   UNL     1      -3.377  -2.487   1.003  1.00  0.00     0.082 C 
ATOM     13  C   UNL     1      -1.197  -3.364   1.256  1.00  0.00     0.096 C 
ATOM     14  C   UNL     1      -3.553  -3.885   1.607  1.00  0.00     0.022 C 
ATOM     15  C   UNL     1      -2.154  -4.501   1.615  1.00  0.00     0.059 C 
BRANCH  11  16
ATOM     16  N   UNL     1      -1.481  -0.968   0.509  1.00  0.00    -0.330 N 
ATOM     17  H   UNL     1      -2.007  -1.078  -0.357  1.00  0.00     0.347 HD
ATOM     18  H   UNL     1      -1.624  -0.115   1.050  1.00  0.00     0.347 HD
BRANCH  16  19
ATOM     19  C   UNL     1      -0.061  -0.884   0.131  1.00  0.00     0.176 C 
ATOM     20  C   UNL     1       0.058   0.163  -0.982  1.00  0.00     0.075 C 
ATOM     21  C   UNL     1       0.915  -0.490   1.233  1.00  0.00     0.075 C 
ENDBRANCH  16  19
ENDBRANCH  11  16
BRANCH  15  22
ATOM     22  S   UNL     1      -1.934  -5.997   0.546  1.00  0.00    -0.122 SA
BRANCH  22  23
ATOM     23  C   UNL     1      -2.553  -5.477  -1.048  1.00  0.00     0.011 A 
ATOM     24  C   UNL     1      -1.798  -4.679  -1.906  1.00  0.00     0.035 A 
ATOM     25  C   UNL     1      -3.790  -5.943  -1.489  1.00  0.00     0.035 A 
ATOM     26  C   UNL     1      -2.347  -4.304  -3.120  1.00  0.00     0.112 A 
ATOM     27  C   UNL     1      -4.242  -5.537  -2.734  1.00  0.00     0.112 A 
ATOM     28  N   UNL     1      -3.557  -4.712  -3.554  1.00  0.00    -0.265 NA
ENDBRANCH  22  23
ENDBRANCH  15  22
ENDBRANCH   9  11
ENDBRANCH   8   9
ENDBRANCH   7   8
ENDBRANCH   6   7
ENDBRANCH   5   6
ENDBRANCH   4   5
ENDBRANCH   3   4
ENDBRANCH   2   3
ENDBRANCH   1   2
BRANCH   1  29
ATOM     29  C   UNL     1       2.673  -2.659   6.139  1.00  0.00     0.188 C 
BRANCH  29  30
ATOM     30  O   UNL     1       3.120  -2.125   4.894  1.00  0.00    -0.376 OA
BRANCH  30  31
ATOM     31  C   UNL     1       4.274  -2.653   4.262  1.00  0.00     0.202 C 
BRANCH  31  32
ATOM     32  C   UNL     1       4.186  -4.062   3.654  1.00  0.00     0.261 C 
BRANCH  32  33
ATOM     33  O   UNL     1       3.770  -5.110   4.536  1.00  0.00    -0.460 OA
BRANCH  33  34
ATOM     34  C   UNL     1       4.519  -5.318   5.639  1.00  0.00     0.338 C 
ATOM     35  O   UNL     1       5.559  -4.753   5.934  1.00  0.00    -0.246 OA
BRANCH  34  36
ATOM     36  C   UNL     1       3.735  -6.173   6.553  1.00  0.00     0.060 A 
ATOM     37  C   UNL     1       3.474  -5.695   7.844  1.00  0.00     0.016 A 
ATOM     38  C   UNL     1       3.221  -7.404   6.131  1.00  0.00     0.016 A 
ATOM     39  C   UNL     1       2.739  -6.467   8.734  1.00  0.00     0.010 A 
ATOM     40  C   UNL     1       2.517  -8.197   7.040  1.00  0.00     0.010 A 
ATOM     41  C   UNL     1       2.321  -7.749   8.357  1.00  0.00    -0.014 A 
BRANCH  41  42
ATOM     42  C   UNL     1       1.978  -8.700   9.436  1.00  0.00     0.031 A 
ATOM     43  C   UNL     1       3.093  -9.554   9.979  1.00  0.00     0.074 A 
ATOM     44  C   UNL     1       0.753  -8.730   9.989  1.00  0.00     0.049 A 
ATOM     45  N   UNL     1       3.081 -10.403  10.972  1.00  0.00    -0.248 NA
ATOM     46  C   UNL     1       4.404  -9.422   9.316  1.00  0.00     0.031 C 
ATOM     47  C   UNL     1      -0.382  -7.904   9.582  1.00  0.00     0.029 A 
ATOM     48  N   UNL     1       0.272  -9.482  11.029  1.00  0.00    -0.354 N 
ATOM     49  C   UNL     1       4.376 -10.903  11.050  1.00  0.00     0.074 A 
ATOM     50  C   UNL     1       5.138 -10.295   9.985  1.00  0.00     0.031 C 
ATOM     51  C   UNL     1      -1.433  -8.194  10.371  1.00  0.00     0.029 A 
ATOM     52  C   UNL     1      -1.050  -9.240  11.318  1.00  0.00     0.049 A 
ATOM     53  H   UNL     1       0.821 -10.133  11.523  1.00  0.00     0.167 HD
ATOM     54  C   UNL     1       4.890 -11.784  11.939  1.00  0.00     0.031 A 
ATOM     55  C   UNL     1      -1.854  -9.810  12.237  1.00  0.00     0.031 A 
ATOM     56  C   UNL     1       4.121 -12.402  12.984  1.00  0.00     0.049 A 
ATOM     57  C   UNL     1      -1.279 -10.851  13.164  1.00  0.00     0.074 A 
ATOM     58  C   UNL     1       4.538 -13.310  13.938  1.00  0.00     0.029 A 
ATOM     59  N   UNL     1       2.769 -12.180  13.203  1.00  0.00    -0.354 N 
ATOM     60  N   UNL     1      -0.047 -11.300  13.242  1.00  0.00    -0.248 NA
ATOM     61  C   UNL     1      -2.201 -11.450  14.138  1.00  0.00     0.031 C 
ATOM     62  C   UNL     1       3.424 -13.688  14.694  1.00  0.00     0.029 A 
ATOM     63  C   UNL     1       2.328 -12.958  14.259  1.00  0.00     0.049 A 
ATOM     64  H   UNL     1       2.206 -11.560  12.684  1.00  0.00     0.167 HD
ATOM     65  C   UNL     1      -0.042 -12.214  14.292  1.00  0.00     0.074 A 
ATOM     66  C   UNL     1      -1.386 -12.233  14.832  1.00  0.00     0.031 C 
ATOM     67  C   UNL     1       0.980 -12.970  14.770  1.00  0.00     0.031 A 
BRANCH  54  68
ATOM     68  C   UNL     1       6.339 -12.162  11.780  1.00  0.00    -0.014 A 
ATOM     69  C   UNL     1       7.372 -11.245  12.048  1.00  0.00     0.010 A 
ATOM     70  C   UNL     1       6.673 -13.465  11.369  1.00  0.00     0.010 A 
ATOM     71  C   UNL     1       8.709 -11.613  11.872  1.00  0.00     0.020 A 
ATOM     72  C   UNL     1       8.009 -13.847  11.222  1.00  0.00     0.020 A 
ATOM     73  C   UNL     1       9.018 -12.912  11.461  1.00  0.00     0.054 A 
BRANCH  73  74
ATOM     74  S   UNL     1      10.762 -13.371  11.269  1.00  0.00     0.124 S 
ATOM     75  O   UNL     1      11.143 -12.618  10.076  1.00  0.00    -0.237 OA
ATOM     76  O   UNL     1      11.353 -12.907  12.521  1.00  0.00    -0.237 OA
ATOM     77  O   UNL     1      10.723 -14.822  11.101  1.00  0.00    -0.744 OA
ENDBRANCH  73  74
ENDBRANCH  54  68
BRANCH  55  78
ATOM     78  C   UNL     1      -3.290  -9.422  12.318  1.00  0.00    -0.014 A 
ATOM     79  C   UNL     1      -3.797  -8.745  13.441  1.00  0.00     0.010 A 
ATOM     80  C   UNL     1      -4.166  -9.743  11.264  1.00  0.00     0.010 A 
ATOM     81  C   UNL     1      -5.154  -8.414  13.517  1.00  0.00     0.020 A 
ATOM     82  C   UNL     1      -5.516  -9.387  11.322  1.00  0.00     0.020 A 
ATOM     83  C   UNL     1      -6.004  -8.734  12.454  1.00  0.00     0.054 A 
BRANCH  83  84
ATOM     84  S   UNL     1      -7.750  -8.251  12.552  1.00  0.00     0.124 S 
ATOM     85  O   UNL     1      -8.263  -9.165  13.567  1.00  0.00    -0.237 OA
ATOM     86  O   UNL     1      -7.664  -6.847  12.948  1.00  0.00    -0.237 OA
ATOM     87  O   UNL     1      -8.245  -8.478  11.196  1.00  0.00    -0.744 OA
ENDBRANCH  83  84
ENDBRANCH  55  78
BRANCH  67  88
ATOM     88  C   UNL     1       0.688 -13.855  15.955  1.00  0.00    -0.014 A 
ATOM     89  C   UNL     1      -0.152 -14.978  15.843  1.00  0.00     0.010 A 
ATOM     90  C   UNL     1       1.287 -13.570  17.196  1.00  0.00     0.010 A 
ATOM     91  C   UNL     1      -0.433 -15.764  16.964  1.00  0.00     0.020 A 
ATOM     92  C   UNL     1       1.038 -14.375  18.310  1.00  0.00     0.020 A 
ATOM     93  C   UNL     1       0.160 -15.454  18.191  1.00  0.00     0.054 A 
BRANCH  93  94
ATOM     94  S   UNL     1      -0.218 -16.491  19.630  1.00  0.00     0.124 S 
ATOM     95  O   UNL     1      -1.591 -16.098  19.934  1.00  0.00    -0.237 OA
ATOM     96  O   UNL     1      -0.053 -17.843  19.101  1.00  0.00    -0.237 OA
ATOM     97  O   UNL     1       0.779 -16.089  20.619  1.00  0.00    -0.744 OA
ENDBRANCH  93  94
ENDBRANCH  67  88
ENDBRANCH  41  42
ENDBRANCH  34  36
ENDBRANCH  33  34
ENDBRANCH  32  33
ENDBRANCH  31  32
ENDBRANCH  30  31
ENDBRANCH  29  30
ENDBRANCH   1  29
TORSDOF 27
