REMARK SMILES Cc1cc(C)c(C(=O)N[C@H](C(=O)OCCOCCOCCOCCOC(=O)c2ccc(-c3c4nc(c(-c5ccc(S(=O)(=O)[O-])cc5)c5ccc([nH]5)c(-c5ccc(S(=O)(=O)[O-])cc5)c5nc(c(-c6ccc(S(=O)(=O)[O-])cc6)c6ccc3[nH]6)C=C5)C=C4)cc2)C(C)C)c(=O)[nH]1
REMARK SMILES IDX 20 1 19 2 18 3 17 4 16 5 15 6 14 7 13 8 11 9 12 10 10 11
REMARK SMILES IDX 9 12 7 13 8 14 6 16 1 17 2 18 3 19 93 20 4 21 91 22 5 24
REMARK SMILES IDX 92 25 88 26 89 27 90 28 21 29 22 30 23 31 24 32 25 33 26 34
REMARK SMILES IDX 27 35 28 36 29 37 87 38 30 39 86 40 31 41 32 42 33 43 80 44
REMARK SMILES IDX 34 45 85 46 79 47 81 48 35 49 84 50 78 51 77 52 36 54 66 55
REMARK SMILES IDX 47 56 65 57 48 58 51 59 64 60 82 61 49 62 50 63 63 65 83 66
REMARK SMILES IDX 52 67 37 68 38 69 46 70 39 71 45 72 40 73 41 74 42 75 43 76
REMARK SMILES IDX 44 77 67 78 68 79 76 80 69 81 75 82 70 83 71 84 72 85 73 86
REMARK SMILES IDX 74 87 53 88 54 89 62 90 55 91 61 92 56 93 57 94 58 95 59 96
REMARK SMILES IDX 60 97
REMARK H PARENT 9 15 93 23 81 53 51 64
REMARK Flexibility Score: inf
ROOT
ATOM      1  C   UNL     1       1.996  -4.526   0.064  1.00  0.00     0.188 C 
ENDROOT
BRANCH   1   2
ATOM      2  O   UNL     1       1.247  -3.749   0.984  1.00  0.00    -0.377 OA
BRANCH   2   3
ATOM      3  C   UNL     1       0.475  -4.448   1.950  1.00  0.00     0.188 C 
BRANCH   3   4
ATOM      4  C   UNL     1       0.840  -5.889   2.347  1.00  0.00     0.188 C 
BRANCH   4   5
ATOM      5  O   UNL     1       1.051  -6.775   1.254  1.00  0.00    -0.376 OA
BRANCH   5   6
ATOM      6  C   UNL     1      -0.042  -7.502   0.717  1.00  0.00     0.202 C 
BRANCH   6   7
ATOM      7  C   UNL     1      -1.050  -6.717  -0.140  1.00  0.00     0.261 C 
BRANCH   7   8
ATOM      8  O   UNL     1      -1.999  -5.824   0.479  1.00  0.00    -0.462 OA
BRANCH   8   9
ATOM      9  C   UNL     1      -2.400  -6.016   1.756  1.00  0.00     0.328 C 
ATOM     10  O   UNL     1      -1.954  -6.862   2.513  1.00  0.00    -0.250 OA
BRANCH   9  11
ATOM     11  C   UNL     1      -3.513  -5.054   2.142  1.00  0.00     0.195 C 
BRANCH  11  12
ATOM     12  N   UNL     1      -4.832  -5.445   1.587  1.00  0.00    -0.338 N 
ATOM     13  C   UNL     1      -5.456  -6.652   1.379  1.00  0.00     0.257 C 
ATOM     14  O   UNL     1      -6.673  -6.649   1.197  1.00  0.00    -0.269 OA
ATOM     15  H   UNL     1      -5.377  -4.675   1.307  1.00  0.00     0.164 HD
BRANCH  13  16
ATOM     16  C   UNL     1      -4.661  -7.890   1.165  1.00  0.00     0.107 A 
ATOM     17  C   UNL     1      -1.554 -10.781   0.437  1.00  0.00     0.064 C 
ATOM     18  C   UNL     1      -2.756  -9.918   0.682  1.00  0.00     0.015 A 
ATOM     19  C   UNL     1      -3.558  -9.491  -0.304  1.00  0.00     0.025 A 
ATOM     20  N   UNL     1      -2.999  -9.485   1.963  1.00  0.00    -0.326 N 
ATOM     21  C   UNL     1      -4.564  -8.460  -0.061  1.00  0.00    -0.031 A 
ATOM     22  C   UNL     1      -3.972  -8.566   2.303  1.00  0.00     0.261 A 
ATOM     23  H   UNL     1      -2.443  -9.855   2.686  1.00  0.00     0.169 HD
ATOM     24  C   UNL     1      -5.355  -8.084  -1.286  1.00  0.00     0.045 C 
ATOM     25  O   UNL     1      -4.217  -8.284   3.473  1.00  0.00    -0.269 OA
ENDBRANCH  13  16
ENDBRANCH  11  12
BRANCH  11  26
ATOM     26  C   UNL     1      -3.561  -4.754   3.674  1.00  0.00     0.017 C 
ATOM     27  C   UNL     1      -2.187  -4.487   4.316  1.00  0.00     0.010 C 
ATOM     28  C   UNL     1      -4.416  -3.510   3.955  1.00  0.00     0.010 C 
ENDBRANCH  11  26
ENDBRANCH   9  11
ENDBRANCH   8   9
ENDBRANCH   7   8
ENDBRANCH   6   7
ENDBRANCH   5   6
ENDBRANCH   4   5
ENDBRANCH   3   4
ENDBRANCH   2   3
ENDBRANCH   1   2
BRANCH   1  29
ATOM     29  C   UNL     1       3.313  -5.060   0.650  1.00  0.00     0.188 C 
BRANCH  29  30
ATOM     30  O   UNL     1       3.586  -4.722   1.995  1.00  0.00    -0.376 OA
BRANCH  30  31
ATOM     31  C   UNL     1       3.808  -3.389   2.415  1.00  0.00     0.202 C 
BRANCH  31  32
ATOM     32  C   UNL     1       3.708  -2.107   1.562  1.00  0.00     0.261 C 
BRANCH  32  33
ATOM     33  O   UNL     1       3.613  -2.198   0.143  1.00  0.00    -0.460 OA
BRANCH  33  34
ATOM     34  C   UNL     1       4.728  -2.516  -0.554  1.00  0.00     0.338 C 
ATOM     35  O   UNL     1       5.833  -2.724  -0.113  1.00  0.00    -0.246 OA
BRANCH  34  36
ATOM     36  C   UNL     1       4.270  -2.799  -1.941  1.00  0.00     0.060 A 
ATOM     37  C   UNL     1       4.495  -4.074  -2.480  1.00  0.00     0.016 A 
ATOM     38  C   UNL     1       3.541  -1.847  -2.661  1.00  0.00     0.016 A 
ATOM     39  C   UNL     1       4.010  -4.395  -3.746  1.00  0.00     0.010 A 
ATOM     40  C   UNL     1       3.104  -2.149  -3.953  1.00  0.00     0.010 A 
ATOM     41  C   UNL     1       3.372  -3.411  -4.511  1.00  0.00    -0.014 A 
BRANCH  41  42
ATOM     42  C   UNL     1       3.308  -3.589  -5.980  1.00  0.00     0.031 A 
ATOM     43  C   UNL     1       4.518  -3.157  -6.766  1.00  0.00     0.074 A 
ATOM     44  C   UNL     1       2.253  -4.146  -6.598  1.00  0.00     0.049 A 
ATOM     45  N   UNL     1       4.722  -3.178  -8.055  1.00  0.00    -0.248 NA
ATOM     46  C   UNL     1       5.656  -2.639  -5.983  1.00  0.00     0.031 C 
ATOM     47  C   UNL     1       1.061  -4.678  -5.941  1.00  0.00     0.029 A 
ATOM     48  N   UNL     1       2.027  -4.362  -7.935  1.00  0.00    -0.354 N 
ATOM     49  C   UNL     1       6.010  -2.688  -8.235  1.00  0.00     0.074 A 
ATOM     50  C   UNL     1       6.530  -2.349  -6.931  1.00  0.00     0.031 C 
ATOM     51  C   UNL     1       0.225  -5.158  -6.881  1.00  0.00     0.029 A 
ATOM     52  C   UNL     1       0.808  -4.936  -8.205  1.00  0.00     0.049 A 
ATOM     53  H   UNL     1       2.677  -4.126  -8.636  1.00  0.00     0.167 HD
ATOM     54  C   UNL     1       6.706  -2.538  -9.384  1.00  0.00     0.031 A 
ATOM     55  C   UNL     1       0.230  -5.232  -9.387  1.00  0.00     0.031 A 
ATOM     56  C   UNL     1       6.174  -2.832 -10.683  1.00  0.00     0.049 A 
ATOM     57  C   UNL     1       0.972  -4.930 -10.666  1.00  0.00     0.074 A 
ATOM     58  C   UNL     1       6.782  -2.679 -11.915  1.00  0.00     0.029 A 
ATOM     59  N   UNL     1       4.902  -3.331 -10.918  1.00  0.00    -0.354 N 
ATOM     60  N   UNL     1       2.184  -4.452 -10.825  1.00  0.00    -0.248 NA
ATOM     61  C   UNL     1       0.266  -5.206 -11.926  1.00  0.00     0.031 C 
ATOM     62  C   UNL     1       5.856  -3.035 -12.900  1.00  0.00     0.029 A 
ATOM     63  C   UNL     1       4.696  -3.470 -12.278  1.00  0.00     0.049 A 
ATOM     64  H   UNL     1       4.244  -3.554 -10.220  1.00  0.00     0.167 HD
ATOM     65  C   UNL     1       2.394  -4.394 -12.200  1.00  0.00     0.074 A 
ATOM     66  C   UNL     1       1.189  -4.897 -12.827  1.00  0.00     0.031 C 
ATOM     67  C   UNL     1       3.486  -3.967 -12.883  1.00  0.00     0.031 A 
BRANCH  54  68
ATOM     68  C   UNL     1       8.103  -1.996  -9.275  1.00  0.00    -0.014 A 
ATOM     69  C   UNL     1       9.144  -2.781  -8.747  1.00  0.00     0.010 A 
ATOM     70  C   UNL     1       8.382  -0.691  -9.719  1.00  0.00     0.010 A 
ATOM     71  C   UNL     1      10.435  -2.260  -8.640  1.00  0.00     0.020 A 
ATOM     72  C   UNL     1       9.679  -0.177  -9.639  1.00  0.00     0.020 A 
ATOM     73  C   UNL     1      10.694  -0.962  -9.089  1.00  0.00     0.054 A 
BRANCH  73  74
ATOM     74  S   UNL     1      12.388  -0.326  -8.967  1.00  0.00     0.124 S 
ATOM     75  O   UNL     1      12.548  -0.168  -7.523  1.00  0.00    -0.237 OA
ATOM     76  O   UNL     1      13.174  -1.397  -9.572  1.00  0.00    -0.237 OA
ATOM     77  O   UNL     1      12.347   0.921  -9.728  1.00  0.00    -0.744 OA
ENDBRANCH  73  74
ENDBRANCH  54  68
BRANCH  55  78
ATOM     78  C   UNL     1      -1.130  -5.839  -9.424  1.00  0.00    -0.014 A 
ATOM     79  C   UNL     1      -1.307  -7.167  -9.852  1.00  0.00     0.010 A 
ATOM     80  C   UNL     1      -2.257  -5.093  -9.032  1.00  0.00     0.010 A 
ATOM     81  C   UNL     1      -2.583  -7.737  -9.886  1.00  0.00     0.020 A 
ATOM     82  C   UNL     1      -3.531  -5.667  -9.041  1.00  0.00     0.020 A 
ATOM     83  C   UNL     1      -3.687  -6.986  -9.472  1.00  0.00     0.054 A 
BRANCH  83  84
ATOM     84  S   UNL     1      -5.322  -7.774  -9.456  1.00  0.00     0.124 S 
ATOM     85  O   UNL     1      -5.600  -7.931 -10.880  1.00  0.00    -0.237 OA
ATOM     86  O   UNL     1      -5.062  -9.010  -8.720  1.00  0.00    -0.237 OA
ATOM     87  O   UNL     1      -6.162  -6.806  -8.755  1.00  0.00    -0.744 OA
ENDBRANCH  83  84
ENDBRANCH  55  78
BRANCH  67  88
ATOM     88  C   UNL     1       3.448  -4.040 -14.386  1.00  0.00    -0.014 A 
ATOM     89  C   UNL     1       2.668  -3.145 -15.138  1.00  0.00     0.010 A 
ATOM     90  C   UNL     1       4.274  -4.962 -15.057  1.00  0.00     0.010 A 
ATOM     91  C   UNL     1       2.698  -3.185 -16.535  1.00  0.00     0.020 A 
ATOM     92  C   UNL     1       4.328  -4.986 -16.453  1.00  0.00     0.020 A 
ATOM     93  C   UNL     1       3.530  -4.104 -17.183  1.00  0.00     0.054 A 
BRANCH  93  94
ATOM     94  S   UNL     1       3.588  -4.097 -18.996  1.00  0.00     0.124 S 
ATOM     95  O   UNL     1       2.278  -4.640 -19.344  1.00  0.00    -0.237 OA
ATOM     96  O   UNL     1       3.784  -2.682 -19.303  1.00  0.00    -0.237 OA
ATOM     97  O   UNL     1       4.724  -4.960 -19.311  1.00  0.00    -0.744 OA
ENDBRANCH  93  94
ENDBRANCH  67  88
ENDBRANCH  41  42
ENDBRANCH  34  36
ENDBRANCH  33  34
ENDBRANCH  32  33
ENDBRANCH  31  32
ENDBRANCH  30  31
ENDBRANCH  29  30
ENDBRANCH   1  29
TORSDOF 26
