REMARK SMILES O=C(OCCOCCOCCOCCOC(=O)[C@H]1CN(C(=O)N[C@H]2CCOC2)c2ccccc2O1)c1ccc(-c2c3nc(c(-c4ccc(S(=O)(=O)[O-])cc4)c4ccc([nH]4)c(-c4ccc(S(=O)(=O)[O-])cc4)c4nc(c(-c5ccc(S(=O)(=O)[O-])cc5)c5ccc2[nH]5)C=C4)C=C3)cc1
REMARK SMILES IDX 8 1 7 2 6 3 5 4 4 5 3 6 2 7 1 8 36 9 37 10 95 11 38 12 94 13
REMARK SMILES IDX 39 14 40 15 41 16 88 17 42 18 93 19 87 20 89 21 43 22 92 23
REMARK SMILES IDX 86 24 85 25 44 27 74 28 55 29 73 30 56 31 59 32 72 33 90 34
REMARK SMILES IDX 57 35 58 36 71 38 91 39 60 40 45 41 46 42 54 43 47 44 53 45
REMARK SMILES IDX 48 46 49 47 50 48 51 49 52 50 75 51 76 52 84 53 77 54 83 55
REMARK SMILES IDX 78 56 79 57 80 58 81 59 82 60 61 61 62 62 70 63 63 64 69 65
REMARK SMILES IDX 64 66 65 67 66 68 67 69 68 70 9 71 10 72 11 73 12 74 13 75
REMARK SMILES IDX 14 76 15 77 16 78 17 79 18 80 19 81 35 82 20 83 34 84 29 85
REMARK SMILES IDX 33 86 30 87 32 88 31 89 21 90 22 91 23 92 24 94 25 95 28 96
REMARK SMILES IDX 26 97 27 98
REMARK H PARENT 89 26 59 37 23 93
REMARK Flexibility Score: inf
ROOT
ATOM      1  C   UNL     1       3.506   0.989  -2.323  1.00  0.00     0.188 C 
ENDROOT
BRANCH   1   2
ATOM      2  C   UNL     1       4.910   0.725  -1.778  1.00  0.00     0.188 C 
BRANCH   2   3
ATOM      3  O   UNL     1       5.038  -0.564  -1.168  1.00  0.00    -0.376 OA
BRANCH   3   4
ATOM      4  C   UNL     1       5.700  -0.603   0.099  1.00  0.00     0.202 C 
BRANCH   4   5
ATOM      5  C   UNL     1       7.223  -0.458   0.059  1.00  0.00     0.261 C 
BRANCH   5   6
ATOM      6  O   UNL     1       7.676   0.413  -0.982  1.00  0.00    -0.460 OA
BRANCH   6   7
ATOM      7  C   UNL     1       7.940   0.102  -2.275  1.00  0.00     0.338 C 
ATOM      8  O   UNL     1       8.344   1.007  -3.006  1.00  0.00    -0.246 OA
BRANCH   7   9
ATOM      9  C   UNL     1       7.728  -1.252  -2.892  1.00  0.00     0.060 A 
ATOM     10  C   UNL     1       6.987  -2.300  -2.342  1.00  0.00     0.016 A 
ATOM     11  C   UNL     1       8.280  -1.453  -4.170  1.00  0.00     0.016 A 
ATOM     12  C   UNL     1       6.805  -3.502  -3.001  1.00  0.00     0.010 A 
ATOM     13  C   UNL     1       8.127  -2.670  -4.840  1.00  0.00     0.010 A 
ATOM     14  C   UNL     1       7.408  -3.703  -4.233  1.00  0.00    -0.014 A 
BRANCH  14  15
ATOM     15  C   UNL     1       7.476  -5.091  -4.701  1.00  0.00     0.031 A 
ATOM     16  C   UNL     1       8.733  -5.845  -4.395  1.00  0.00     0.074 A 
ATOM     17  C   UNL     1       6.380  -5.688  -5.197  1.00  0.00     0.049 A 
ATOM     18  N   UNL     1       9.067  -7.063  -4.715  1.00  0.00    -0.248 NA
ATOM     19  C   UNL     1       9.748  -5.131  -3.596  1.00  0.00     0.031 C 
ATOM     20  C   UNL     1       5.066  -5.055  -5.342  1.00  0.00     0.029 A 
ATOM     21  N   UNL     1       6.189  -6.966  -5.640  1.00  0.00    -0.354 N 
ATOM     22  C   UNL     1      10.343  -7.244  -4.196  1.00  0.00     0.074 A 
ATOM     23  C   UNL     1      10.724  -6.021  -3.533  1.00  0.00     0.031 C 
ATOM     24  C   UNL     1       4.204  -5.953  -5.848  1.00  0.00     0.029 A 
ATOM     25  C   UNL     1       4.923  -7.191  -6.125  1.00  0.00     0.049 A 
ATOM     26  H   UNL     1       6.888  -7.659  -5.613  1.00  0.00     0.167 HD
ATOM     27  C   UNL     1      11.129  -8.339  -4.291  1.00  0.00     0.031 A 
ATOM     28  C   UNL     1       4.434  -8.266  -6.771  1.00  0.00     0.031 A 
ATOM     29  C   UNL     1      10.712  -9.524  -4.985  1.00  0.00     0.049 A 
ATOM     30  C   UNL     1       5.367  -9.429  -6.980  1.00  0.00     0.074 A 
ATOM     31  C   UNL     1      11.424 -10.680  -5.232  1.00  0.00     0.029 A 
ATOM     32  N   UNL     1       9.453  -9.691  -5.552  1.00  0.00    -0.354 N 
ATOM     33  N   UNL     1       6.606  -9.573  -6.564  1.00  0.00    -0.248 NA
ATOM     34  C   UNL     1       4.851 -10.566  -7.748  1.00  0.00     0.031 C 
ATOM     35  C   UNL     1      10.615 -11.521  -6.005  1.00  0.00     0.029 A 
ATOM     36  C   UNL     1       9.373 -10.920  -6.174  1.00  0.00     0.049 A 
ATOM     37  H   UNL     1       8.725  -9.029  -5.515  1.00  0.00     0.167 HD
ATOM     38  C   UNL     1       7.015 -10.823  -7.006  1.00  0.00     0.074 A 
ATOM     39  C   UNL     1       5.881 -11.401  -7.705  1.00  0.00     0.031 C 
ATOM     40  C   UNL     1       8.213 -11.443  -6.857  1.00  0.00     0.031 A 
BRANCH  27  41
ATOM     41  C   UNL     1      12.525  -8.229  -3.741  1.00  0.00    -0.014 A 
ATOM     42  C   UNL     1      12.778  -8.150  -2.359  1.00  0.00     0.010 A 
ATOM     43  C   UNL     1      13.604  -8.139  -4.639  1.00  0.00     0.010 A 
ATOM     44  C   UNL     1      14.078  -7.931  -1.890  1.00  0.00     0.020 A 
ATOM     45  C   UNL     1      14.908  -7.950  -4.173  1.00  0.00     0.020 A 
ATOM     46  C   UNL     1      15.133  -7.825  -2.802  1.00  0.00     0.054 A 
BRANCH  46  47
ATOM     47  S   UNL     1      16.807  -7.528  -2.169  1.00  0.00     0.124 S 
ATOM     48  O   UNL     1      16.720  -6.138  -1.727  1.00  0.00    -0.237 OA
ATOM     49  O   UNL     1      16.925  -8.519  -1.102  1.00  0.00    -0.237 OA
ATOM     50  O   UNL     1      17.664  -7.759  -3.329  1.00  0.00    -0.744 OA
ENDBRANCH  46  47
ENDBRANCH  27  41
BRANCH  28  51
ATOM     51  C   UNL     1       3.053  -8.241  -7.328  1.00  0.00    -0.014 A 
ATOM     52  C   UNL     1       2.053  -9.108  -6.857  1.00  0.00     0.010 A 
ATOM     53  C   UNL     1       2.725  -7.316  -8.341  1.00  0.00     0.010 A 
ATOM     54  C   UNL     1       0.759  -9.058  -7.394  1.00  0.00     0.020 A 
ATOM     55  C   UNL     1       1.429  -7.241  -8.857  1.00  0.00     0.020 A 
ATOM     56  C   UNL     1       0.455  -8.122  -8.387  1.00  0.00     0.054 A 
BRANCH  56  57
ATOM     57  S   UNL     1      -1.239  -8.044  -9.035  1.00  0.00     0.124 S 
ATOM     58  O   UNL     1      -1.325  -9.275  -9.813  1.00  0.00    -0.237 OA
ATOM     59  O   UNL     1      -2.041  -8.008  -7.815  1.00  0.00    -0.237 OA
ATOM     60  O   UNL     1      -1.251  -6.808  -9.816  1.00  0.00    -0.744 OA
ENDBRANCH  56  57
ENDBRANCH  28  51
BRANCH  40  61
ATOM     61  C   UNL     1       8.338 -12.827  -7.427  1.00  0.00    -0.014 A 
ATOM     62  C   UNL     1       8.431 -13.038  -8.813  1.00  0.00     0.010 A 
ATOM     63  C   UNL     1       8.449 -13.920  -6.548  1.00  0.00     0.010 A 
ATOM     64  C   UNL     1       8.610 -14.328  -9.313  1.00  0.00     0.020 A 
ATOM     65  C   UNL     1       8.661 -15.206  -7.044  1.00  0.00     0.020 A 
ATOM     66  C   UNL     1       8.729 -15.402  -8.424  1.00  0.00     0.054 A 
BRANCH  66  67
ATOM     67  S   UNL     1       9.026 -17.058  -9.097  1.00  0.00     0.124 S 
ATOM     68  O   UNL     1       7.725 -17.390  -9.670  1.00  0.00    -0.237 OA
ATOM     69  O   UNL     1      10.098 -16.823 -10.061  1.00  0.00    -0.237 OA
ATOM     70  O   UNL     1       9.411 -17.843  -7.926  1.00  0.00    -0.744 OA
ENDBRANCH  66  67
ENDBRANCH  40  61
ENDBRANCH  14  15
ENDBRANCH   7   9
ENDBRANCH   6   7
ENDBRANCH   5   6
ENDBRANCH   4   5
ENDBRANCH   3   4
ENDBRANCH   2   3
ENDBRANCH   1   2
BRANCH   1  71
ATOM     71  O   UNL     1       2.479   1.074  -1.342  1.00  0.00    -0.377 OA
BRANCH  71  72
ATOM     72  C   UNL     1       2.472   0.052  -0.355  1.00  0.00     0.188 C 
BRANCH  72  73
ATOM     73  C   UNL     1       2.349  -1.421  -0.806  1.00  0.00     0.188 C 
BRANCH  73  74
ATOM     74  O   UNL     1       2.341  -1.590  -2.209  1.00  0.00    -0.376 OA
BRANCH  74  75
ATOM     75  C   UNL     1       1.062  -1.827  -2.785  1.00  0.00     0.202 C 
BRANCH  75  76
ATOM     76  C   UNL     1      -0.030  -0.757  -2.583  1.00  0.00     0.261 C 
BRANCH  76  77
ATOM     77  O   UNL     1      -0.215  -0.249  -1.241  1.00  0.00    -0.460 OA
BRANCH  77  78
ATOM     78  C   UNL     1      -0.910  -0.961  -0.321  1.00  0.00     0.349 C 
ATOM     79  O   UNL     1      -1.425  -2.055  -0.545  1.00  0.00    -0.248 OA
BRANCH  78  80
ATOM     80  C   UNL     1      -0.866  -0.316   1.085  1.00  0.00     0.302 C 
ATOM     81  C   UNL     1       0.002  -1.223   1.956  1.00  0.00     0.185 C 
ATOM     82  O   UNL     1      -0.391   1.026   1.066  1.00  0.00    -0.475 OA
ATOM     83  N   UNL     1       0.287  -0.726   3.292  1.00  0.00    -0.286 N 
ATOM     84  C   UNL     1      -0.003   1.509   2.291  1.00  0.00     0.144 A 
ATOM     85  C   UNL     1       0.293   0.710   3.413  1.00  0.00     0.088 A 
ATOM     86  C   UNL     1       0.116   2.905   2.342  1.00  0.00     0.049 A 
ATOM     87  C   UNL     1       0.654   1.374   4.597  1.00  0.00     0.030 A 
ATOM     88  C   UNL     1       0.470   3.539   3.529  1.00  0.00     0.004 A 
ATOM     89  C   UNL     1       0.725   2.773   4.660  1.00  0.00     0.002 A 
BRANCH  83  90
ATOM     90  C   UNL     1       0.478  -1.588   4.353  1.00  0.00     0.322 C 
ATOM     91  O   UNL     1       0.251  -1.302   5.531  1.00  0.00    -0.248 OA
ATOM     92  N   UNL     1       0.913  -2.863   4.151  1.00  0.00    -0.333 N 
ATOM     93  H   UNL     1       0.632  -3.480   4.866  1.00  0.00     0.165 HD
BRANCH  92  94
ATOM     94  C   UNL     1       1.706  -3.524   3.108  1.00  0.00     0.112 C 
ATOM     95  C   UNL     1       2.619  -4.588   3.706  1.00  0.00     0.056 C 
ATOM     96  C   UNL     1       0.912  -4.367   2.105  1.00  0.00     0.185 C 
ATOM     97  C   UNL     1       2.908  -5.483   2.524  1.00  0.00     0.162 C 
ATOM     98  O   UNL     1       1.704  -5.511   1.756  1.00  0.00    -0.379 OA
ENDBRANCH  92  94
ENDBRANCH  83  90
ENDBRANCH  78  80
ENDBRANCH  77  78
ENDBRANCH  76  77
ENDBRANCH  75  76
ENDBRANCH  74  75
ENDBRANCH  73  74
ENDBRANCH  72  73
ENDBRANCH  71  72
ENDBRANCH   1  71
TORSDOF 25
