REMARK SMILES O=C(OCCOCCOCCOCCOC(=O)c1cc(Cl)cc(Cl)c1NC(=S)NC(=O)c1cccc2ccccc12)c1ccc(-c2c3nc(c(-c4ccc(S(=O)(=O)[O-])cc4)c4ccc([nH]4)c(-c4ccc(S(=O)(=O)[O-])cc4)c4nc(c(-c5ccc(S(=O)(=O)[O-])cc5)c5ccc2[nH]5)C=C4)C=C3)cc1
REMARK SMILES IDX 10 1 9 2 8 3 7 4 6 5 5 6 4 7 3 8 2 9 1 10 42 11 43 12 101 13
REMARK SMILES IDX 44 14 100 15 45 16 46 17 47 18 94 19 48 20 99 21 93 22 95 23
REMARK SMILES IDX 49 24 98 25 92 26 91 27 50 29 80 30 61 31 79 32 62 33 65 34
REMARK SMILES IDX 78 35 96 36 63 37 64 38 77 40 97 41 66 42 51 43 52 44 60 45
REMARK SMILES IDX 53 46 59 47 54 48 55 49 56 50 57 51 58 52 81 53 82 54 90 55
REMARK SMILES IDX 83 56 89 57 84 58 85 59 86 60 87 61 88 62 67 63 68 64 76 65
REMARK SMILES IDX 69 66 75 67 70 68 71 69 72 70 73 71 74 72 11 73 12 74 13 75
REMARK SMILES IDX 14 76 15 77 16 78 17 79 18 80 19 81 25 82 20 83 23 84 21 85
REMARK SMILES IDX 22 86 24 87 26 88 27 90 28 91 29 92 30 93 31 95 32 96 33 97
REMARK SMILES IDX 41 98 34 99 36 100 40 101 35 102 37 103 39 104 38 105
REMARK H PARENT 95 28 65 39 26 89 29 94
REMARK Flexibility Score: inf
ROOT
ATOM      1  C   UNL     1       3.030   2.525   2.179  1.00  0.00     0.188 C 
ENDROOT
BRANCH   1   2
ATOM      2  O   UNL     1       1.618   2.377   2.046  1.00  0.00    -0.377 OA
BRANCH   2   3
ATOM      3  C   UNL     1       1.202   1.228   1.307  1.00  0.00     0.188 C 
BRANCH   3   4
ATOM      4  C   UNL     1       1.712   1.250  -0.137  1.00  0.00     0.188 C 
BRANCH   4   5
ATOM      5  O   UNL     1       3.085   0.828  -0.160  1.00  0.00    -0.376 OA
BRANCH   5   6
ATOM      6  C   UNL     1       3.722   0.986  -1.427  1.00  0.00     0.202 C 
BRANCH   6   7
ATOM      7  C   UNL     1       3.834  -0.341  -2.184  1.00  0.00     0.261 C 
BRANCH   7   8
ATOM      8  O   UNL     1       2.562  -1.013  -2.216  1.00  0.00    -0.460 OA
BRANCH   8   9
ATOM      9  C   UNL     1       2.054  -1.877  -1.301  1.00  0.00     0.338 C 
ATOM     10  O   UNL     1       0.857  -2.157  -1.360  1.00  0.00    -0.246 OA
BRANCH   9  11
ATOM     11  C   UNL     1       2.890  -2.598  -0.291  1.00  0.00     0.060 A 
ATOM     12  C   UNL     1       3.998  -2.071   0.376  1.00  0.00     0.016 A 
ATOM     13  C   UNL     1       2.482  -3.903   0.039  1.00  0.00     0.016 A 
ATOM     14  C   UNL     1       4.762  -2.858   1.236  1.00  0.00     0.010 A 
ATOM     15  C   UNL     1       3.215  -4.683   0.940  1.00  0.00     0.010 A 
ATOM     16  C   UNL     1       4.392  -4.177   1.501  1.00  0.00    -0.014 A 
BRANCH  16  17
ATOM     17  C   UNL     1       5.331  -5.053   2.236  1.00  0.00     0.031 A 
ATOM     18  C   UNL     1       6.140  -6.049   1.452  1.00  0.00     0.074 A 
ATOM     19  C   UNL     1       5.539  -4.879   3.554  1.00  0.00     0.049 A 
ATOM     20  N   UNL     1       7.003  -6.933   1.877  1.00  0.00    -0.248 NA
ATOM     21  C   UNL     1       5.960  -6.040  -0.011  1.00  0.00     0.031 C 
ATOM     22  C   UNL     1       4.875  -3.878   4.392  1.00  0.00     0.029 A 
ATOM     23  N   UNL     1       6.393  -5.520   4.413  1.00  0.00    -0.354 N 
ATOM     24  C   UNL     1       7.455  -7.593   0.741  1.00  0.00     0.074 A 
ATOM     25  C   UNL     1       6.767  -7.017  -0.393  1.00  0.00     0.031 C 
ATOM     26  C   UNL     1       5.372  -3.952   5.638  1.00  0.00     0.029 A 
ATOM     27  C   UNL     1       6.350  -5.034   5.699  1.00  0.00     0.049 A 
ATOM     28  H   UNL     1       6.982  -6.259   4.136  1.00  0.00     0.167 HD
ATOM     29  C   UNL     1       8.360  -8.595   0.649  1.00  0.00     0.031 A 
ATOM     30  C   UNL     1       7.016  -5.434   6.800  1.00  0.00     0.031 A 
ATOM     31  C   UNL     1       9.023  -9.174   1.783  1.00  0.00     0.049 A 
ATOM     32  C   UNL     1       7.971  -6.593   6.683  1.00  0.00     0.074 A 
ATOM     33  C   UNL     1       9.872 -10.264   1.829  1.00  0.00     0.029 A 
ATOM     34  N   UNL     1       8.914  -8.691   3.079  1.00  0.00    -0.354 N 
ATOM     35  N   UNL     1       8.317  -7.270   5.612  1.00  0.00    -0.248 NA
ATOM     36  C   UNL     1       8.613  -7.051   7.922  1.00  0.00     0.031 C 
ATOM     37  C   UNL     1      10.262 -10.453   3.161  1.00  0.00     0.029 A 
ATOM     38  C   UNL     1       9.681  -9.459   3.935  1.00  0.00     0.049 A 
ATOM     39  H   UNL     1       8.370  -7.917   3.349  1.00  0.00     0.167 HD
ATOM     40  C   UNL     1       9.209  -8.241   6.051  1.00  0.00     0.074 A 
ATOM     41  C   UNL     1       9.379  -8.039   7.477  1.00  0.00     0.031 C 
ATOM     42  C   UNL     1       9.820  -9.227   5.348  1.00  0.00     0.031 A 
BRANCH  29  43
ATOM     43  C   UNL     1       8.623  -9.148  -0.723  1.00  0.00    -0.014 A 
ATOM     44  C   UNL     1       9.435  -8.455  -1.639  1.00  0.00     0.010 A 
ATOM     45  C   UNL     1       8.016 -10.354  -1.116  1.00  0.00     0.010 A 
ATOM     46  C   UNL     1       9.600  -8.938  -2.940  1.00  0.00     0.020 A 
ATOM     47  C   UNL     1       8.192 -10.848  -2.411  1.00  0.00     0.020 A 
ATOM     48  C   UNL     1       8.966 -10.124  -3.322  1.00  0.00     0.054 A 
BRANCH  48  49
ATOM     49  S   UNL     1       9.171 -10.720  -5.024  1.00  0.00     0.124 S 
ATOM     50  O   UNL     1       8.276  -9.832  -5.762  1.00  0.00    -0.237 OA
ATOM     51  O   UNL     1      10.597 -10.517  -5.268  1.00  0.00    -0.237 OA
ATOM     52  O   UNL     1       8.747 -12.116  -4.955  1.00  0.00    -0.744 OA
ENDBRANCH  48  49
ENDBRANCH  29  43
BRANCH  30  53
ATOM     53  C   UNL     1       6.766  -4.778   8.114  1.00  0.00    -0.014 A 
ATOM     54  C   UNL     1       7.763  -4.009   8.739  1.00  0.00     0.010 A 
ATOM     55  C   UNL     1       5.525  -4.937   8.758  1.00  0.00     0.010 A 
ATOM     56  C   UNL     1       7.532  -3.430   9.992  1.00  0.00     0.020 A 
ATOM     57  C   UNL     1       5.281  -4.339   9.998  1.00  0.00     0.020 A 
ATOM     58  C   UNL     1       6.293  -3.602  10.616  1.00  0.00     0.054 A 
BRANCH  58  59
ATOM     59  S   UNL     1       5.987  -2.813  12.222  1.00  0.00     0.124 S 
ATOM     60  O   UNL     1       6.593  -3.765  13.147  1.00  0.00    -0.237 OA
ATOM     61  O   UNL     1       6.678  -1.532  12.090  1.00  0.00    -0.237 OA
ATOM     62  O   UNL     1       4.530  -2.719  12.280  1.00  0.00    -0.744 OA
ENDBRANCH  58  59
ENDBRANCH  30  53
BRANCH  42  63
ATOM     63  C   UNL     1      10.719 -10.151   6.117  1.00  0.00    -0.014 A 
ATOM     64  C   UNL     1      10.177 -11.176   6.912  1.00  0.00     0.010 A 
ATOM     65  C   UNL     1      12.114 -10.022   6.008  1.00  0.00     0.010 A 
ATOM     66  C   UNL     1      11.019 -12.044   7.609  1.00  0.00     0.020 A 
ATOM     67  C   UNL     1      12.959 -10.899   6.691  1.00  0.00     0.020 A 
ATOM     68  C   UNL     1      12.405 -11.896   7.499  1.00  0.00     0.054 A 
BRANCH  68  69
ATOM     69  S   UNL     1      13.486 -13.057   8.379  1.00  0.00     0.124 S 
ATOM     70  O   UNL     1      13.500 -12.494   9.726  1.00  0.00    -0.237 OA
ATOM     71  O   UNL     1      12.782 -14.330   8.236  1.00  0.00    -0.237 OA
ATOM     72  O   UNL     1      14.749 -12.967   7.650  1.00  0.00    -0.744 OA
ENDBRANCH  68  69
ENDBRANCH  42  63
ENDBRANCH  16  17
ENDBRANCH   9  11
ENDBRANCH   8   9
ENDBRANCH   7   8
ENDBRANCH   6   7
ENDBRANCH   5   6
ENDBRANCH   4   5
ENDBRANCH   3   4
ENDBRANCH   2   3
ENDBRANCH   1   2
BRANCH   1  73
ATOM     73  C   UNL     1       3.736   1.453   3.005  1.00  0.00     0.188 C 
BRANCH  73  74
ATOM     74  O   UNL     1       3.150   1.313   4.296  1.00  0.00    -0.376 OA
BRANCH  74  75
ATOM     75  C   UNL     1       3.850   1.984   5.345  1.00  0.00     0.202 C 
BRANCH  75  76
ATOM     76  C   UNL     1       3.435   3.449   5.501  1.00  0.00     0.261 C 
BRANCH  76  77
ATOM     77  O   UNL     1       3.917   4.354   4.484  1.00  0.00    -0.460 OA
BRANCH  77  78
ATOM     78  C   UNL     1       5.245   4.622   4.443  1.00  0.00     0.340 C 
ATOM     79  O   UNL     1       6.101   3.990   5.047  1.00  0.00    -0.246 OA
BRANCH  78  80
ATOM     80  C   UNL     1       5.627   5.936   3.354  1.00  0.00     0.086 A 
ATOM     81  C   UNL     1       5.589   7.956   3.659  1.00  0.00     0.038 A 
ATOM     82  C   UNL     1       6.217   5.219   2.510  1.00  0.00     0.074 A 
ATOM     83  C   UNL     1       5.969   9.133   3.275  1.00  0.00     0.043 A 
ATOM     84  C   UNL     1       5.442   6.189   2.214  1.00  0.00     0.066 A 
ATOM     85  Cl  UNL     1       5.415  10.671   3.688  1.00  0.00    -0.084 Cl
ATOM     86  C   UNL     1       5.389   8.179   2.638  1.00  0.00     0.043 A 
ATOM     87  Cl  UNL     1       4.345   5.132   0.742  1.00  0.00    -0.082 Cl
BRANCH  82  88
ATOM     88  N   UNL     1       6.717   4.143   1.875  1.00  0.00    -0.330 N 
ATOM     89  H   UNL     1       6.428   3.241   2.144  1.00  0.00     0.169 HD
BRANCH  88  90
ATOM     90  C   UNL     1       7.622   4.290   0.860  1.00  0.00     0.177 C 
ATOM     91  S   UNL     1       8.202   2.931   0.081  1.00  0.00    -0.040 S 
BRANCH  90  92
ATOM     92  N   UNL     1       8.132   5.543   0.495  1.00  0.00    -0.299 N 
ATOM     93  C   UNL     1       8.027   6.922   0.813  1.00  0.00     0.258 C 
ATOM     94  H   UNL     1       8.788   5.428  -0.230  1.00  0.00     0.172 HD
ATOM     95  O   UNL     1       8.735   7.767   0.278  1.00  0.00    -0.269 OA
BRANCH  93  96
ATOM     96  C   UNL     1       6.990   7.362   1.768  1.00  0.00     0.048 A 
ATOM     97  C   UNL     1       7.324   7.013   3.675  1.00  0.00     0.014 A 
ATOM     98  C   UNL     1       5.191   7.529   0.929  1.00  0.00    -0.006 A 
ATOM     99  C   UNL     1       5.886   6.760   5.007  1.00  0.00     0.001 A 
ATOM    100  C   UNL     1       3.727   7.231   2.256  1.00  0.00    -0.018 A 
ATOM    101  C   UNL     1       4.768   7.883  -0.371  1.00  0.00     0.009 A 
ATOM    102  C   UNL     1       4.072   6.865   4.163  1.00  0.00     0.009 A 
ATOM    103  C   UNL     1       2.458   7.407   1.707  1.00  0.00     0.009 A 
ATOM    104  C   UNL     1       3.382   8.008  -0.612  1.00  0.00     0.001 A 
ATOM    105  C   UNL     1       2.321   7.782   0.344  1.00  0.00     0.001 A 
ENDBRANCH  93  96
ENDBRANCH  90  92
ENDBRANCH  88  90
ENDBRANCH  82  88
ENDBRANCH  78  80
ENDBRANCH  77  78
ENDBRANCH  76  77
ENDBRANCH  75  76
ENDBRANCH  74  75
ENDBRANCH  73  74
ENDBRANCH   1  73
TORSDOF 27
