REMARK SMILES COCc1cc(OCC(=O)OCCOCCOCCOCCOC(=O)c2ccc(-c3c4nc(c(-c5ccc(S(=O)(=O)[O-])cc5)c5ccc([nH]5)c(-c5ccc(S(=O)(=O)[O-])cc5)c5nc(c(-c6ccc(S(=O)(=O)[O-])cc6)c6ccc3[nH]6)C=C5)C=C4)cc2)nc(Nc2cccc(C)c2C)n1
REMARK SMILES IDX 16 1 15 2 14 3 13 4 12 5 11 6 9 7 10 8 8 9 7 10 6 11 4 12
REMARK SMILES IDX 5 13 97 14 87 15 86 16 3 17 2 18 1 19 88 20 89 22 90 23
REMARK SMILES IDX 95 24 91 25 93 26 96 27 92 28 94 29 17 30 18 31 19 32 20 33
REMARK SMILES IDX 21 34 22 35 23 36 24 37 25 38 26 39 27 40 85 41 28 42 84 43
REMARK SMILES IDX 29 44 30 45 31 46 78 47 32 48 83 49 77 50 79 51 33 52 82 53
REMARK SMILES IDX 76 54 75 55 34 57 64 58 45 59 63 60 46 61 49 62 62 63 80 64
REMARK SMILES IDX 47 65 48 66 61 68 81 69 50 70 35 71 36 72 44 73 37 74 43 75
REMARK SMILES IDX 38 76 39 77 40 78 41 79 42 80 65 81 66 82 74 83 67 84 73 85
REMARK SMILES IDX 68 86 69 87 70 88 71 89 72 90 51 91 52 92 60 93 53 94 59 95
REMARK SMILES IDX 54 96 55 97 56 98 57 99 58 100
REMARK H PARENT 88 21 79 56 49 67
REMARK Flexibility Score: inf
ROOT
ATOM      1  C   UNL     1       1.360  -0.924  -5.363  1.00  0.00     0.188 C 
ENDROOT
BRANCH   1   2
ATOM      2  C   UNL     1       0.858  -2.345  -5.022  1.00  0.00     0.188 C 
BRANCH   2   3
ATOM      3  O   UNL     1       1.291  -3.482  -5.734  1.00  0.00    -0.376 OA
BRANCH   3   4
ATOM      4  C   UNL     1       1.290  -3.534  -7.143  1.00  0.00     0.202 C 
BRANCH   4   5
ATOM      5  C   UNL     1       0.261  -2.789  -8.016  1.00  0.00     0.261 C 
BRANCH   5   6
ATOM      6  O   UNL     1      -0.402  -1.648  -7.432  1.00  0.00    -0.461 OA
BRANCH   6   7
ATOM      7  C   UNL     1      -1.641  -1.831  -6.907  1.00  0.00     0.344 C 
ATOM      8  O   UNL     1      -2.270  -2.881  -7.002  1.00  0.00    -0.248 OA
BRANCH   7   9
ATOM      9  C   UNL     1      -2.200  -0.595  -6.130  1.00  0.00     0.353 C 
BRANCH   9  10
ATOM     10  O   UNL     1      -1.409   0.477  -5.628  1.00  0.00    -0.466 OA
BRANCH  10  11
ATOM     11  C   UNL     1      -1.211   0.703  -4.276  1.00  0.00     0.219 A 
ATOM     12  C   UNL     1      -0.718  -0.024  -2.095  1.00  0.00     0.076 A 
ATOM     13  C   UNL     1      -1.336  -0.277  -3.311  1.00  0.00     0.095 A 
ATOM     14  N   UNL     1      -0.092   1.142  -1.844  1.00  0.00    -0.215 NA
ATOM     15  C   UNL     1      -0.062   2.086  -2.789  1.00  0.00     0.230 A 
ATOM     16  N   UNL     1      -0.599   1.890  -4.013  1.00  0.00    -0.177 NA
BRANCH  12  17
ATOM     17  C   UNL     1      -0.497  -1.145  -1.092  1.00  0.00     0.216 C 
BRANCH  17  18
ATOM     18  O   UNL     1      -0.586  -0.773   0.287  1.00  0.00    -0.378 OA
ATOM     19  C   UNL     1       0.577  -0.106   0.774  1.00  0.00     0.195 C 
ENDBRANCH  17  18
ENDBRANCH  12  17
BRANCH  15  20
ATOM     20  N   UNL     1       0.603   3.292  -2.507  1.00  0.00    -0.324 N 
ATOM     21  H   UNL     1       0.531   3.999  -3.188  1.00  0.00     0.170 HD
BRANCH  20  22
ATOM     22  C   UNL     1       1.363   3.605  -1.358  1.00  0.00     0.044 A 
ATOM     23  C   UNL     1       0.766   4.291  -0.296  1.00  0.00     0.026 A 
ATOM     24  C   UNL     1       2.750   3.350  -1.268  1.00  0.00    -0.025 A 
ATOM     25  C   UNL     1       1.490   4.611   0.860  1.00  0.00     0.002 A 
ATOM     26  C   UNL     1       3.448   3.520  -0.042  1.00  0.00    -0.046 A 
ATOM     27  C   UNL     1       3.540   3.089  -2.510  1.00  0.00     0.047 C 
ATOM     28  C   UNL     1       2.808   4.187   1.004  1.00  0.00     0.004 A 
ATOM     29  C   UNL     1       4.873   3.067   0.172  1.00  0.00     0.044 C 
ENDBRANCH  20  22
ENDBRANCH  15  20
ENDBRANCH  10  11
ENDBRANCH   9  10
ENDBRANCH   7   9
ENDBRANCH   6   7
ENDBRANCH   5   6
ENDBRANCH   4   5
ENDBRANCH   3   4
ENDBRANCH   2   3
ENDBRANCH   1   2
BRANCH   1  30
ATOM     30  O   UNL     1       2.697  -0.539  -5.209  1.00  0.00    -0.377 OA
BRANCH  30  31
ATOM     31  C   UNL     1       3.652  -1.312  -5.876  1.00  0.00     0.188 C 
BRANCH  31  32
ATOM     32  C   UNL     1       4.382  -2.225  -4.893  1.00  0.00     0.188 C 
BRANCH  32  33
ATOM     33  O   UNL     1       3.671  -2.652  -3.743  1.00  0.00    -0.376 OA
BRANCH  33  34
ATOM     34  C   UNL     1       3.308  -1.761  -2.693  1.00  0.00     0.202 C 
BRANCH  34  35
ATOM     35  C   UNL     1       3.725  -0.295  -2.504  1.00  0.00     0.261 C 
BRANCH  35  36
ATOM     36  O   UNL     1       4.387   0.342  -3.585  1.00  0.00    -0.460 OA
BRANCH  36  37
ATOM     37  C   UNL     1       5.714   0.502  -3.496  1.00  0.00     0.338 C 
ATOM     38  O   UNL     1       6.457   0.132  -2.602  1.00  0.00    -0.246 OA
BRANCH  37  39
ATOM     39  C   UNL     1       6.132   1.092  -4.773  1.00  0.00     0.060 A 
ATOM     40  C   UNL     1       6.896   0.301  -5.633  1.00  0.00     0.016 A 
ATOM     41  C   UNL     1       5.744   2.386  -5.135  1.00  0.00     0.016 A 
ATOM     42  C   UNL     1       7.309   0.822  -6.848  1.00  0.00     0.010 A 
ATOM     43  C   UNL     1       6.176   2.920  -6.340  1.00  0.00     0.010 A 
ATOM     44  C   UNL     1       6.996   2.148  -7.170  1.00  0.00    -0.014 A 
BRANCH  44  45
ATOM     45  C   UNL     1       7.741   2.801  -8.253  1.00  0.00     0.031 A 
ATOM     46  C   UNL     1       8.987   3.546  -7.878  1.00  0.00     0.074 A 
ATOM     47  C   UNL     1       7.321   2.690  -9.521  1.00  0.00     0.049 A 
ATOM     48  N   UNL     1       9.829   4.181  -8.645  1.00  0.00    -0.248 NA
ATOM     49  C   UNL     1       9.331   3.579  -6.444  1.00  0.00     0.031 C 
ATOM     50  C   UNL     1       6.133   1.955  -9.955  1.00  0.00     0.029 A 
ATOM     51  N   UNL     1       7.850   3.198 -10.674  1.00  0.00    -0.354 N 
ATOM     52  C   UNL     1      10.799   4.689  -7.789  1.00  0.00     0.074 A 
ATOM     53  C   UNL     1      10.426   4.321  -6.443  1.00  0.00     0.031 C 
ATOM     54  C   UNL     1       6.021   2.064 -11.290  1.00  0.00     0.029 A 
ATOM     55  C   UNL     1       7.109   2.901 -11.791  1.00  0.00     0.049 A 
ATOM     56  H   UNL     1       8.681   3.724 -10.702  1.00  0.00     0.167 HD
ATOM     57  C   UNL     1      11.903   5.399  -8.108  1.00  0.00     0.031 A 
ATOM     58  C   UNL     1       7.290   3.288 -13.067  1.00  0.00     0.031 A 
ATOM     59  C   UNL     1      12.223   5.779  -9.456  1.00  0.00     0.049 A 
ATOM     60  C   UNL     1       8.488   4.139 -13.390  1.00  0.00     0.074 A 
ATOM     61  C   UNL     1      13.314   6.492  -9.914  1.00  0.00     0.029 A 
ATOM     62  N   UNL     1      11.433   5.489 -10.561  1.00  0.00    -0.354 N 
ATOM     63  N   UNL     1       9.425   4.581 -12.582  1.00  0.00    -0.248 NA
ATOM     64  C   UNL     1       8.665   4.534 -14.793  1.00  0.00     0.031 C 
ATOM     65  C   UNL     1      13.148   6.693 -11.287  1.00  0.00     0.029 A 
ATOM     66  C   UNL     1      11.996   6.035 -11.698  1.00  0.00     0.049 A 
ATOM     67  H   UNL     1      10.596   4.972 -10.537  1.00  0.00     0.167 HD
ATOM     68  C   UNL     1      10.321   5.278 -13.383  1.00  0.00     0.074 A 
ATOM     69  C   UNL     1       9.815   5.194 -14.740  1.00  0.00     0.031 C 
ATOM     70  C   UNL     1      11.463   5.923 -13.035  1.00  0.00     0.031 A 
BRANCH  57  71
ATOM     71  C   UNL     1      12.795   5.845  -6.980  1.00  0.00    -0.014 A 
ATOM     72  C   UNL     1      13.541   4.924  -6.222  1.00  0.00     0.010 A 
ATOM     73  C   UNL     1      12.892   7.215  -6.676  1.00  0.00     0.010 A 
ATOM     74  C   UNL     1      14.333   5.360  -5.156  1.00  0.00     0.020 A 
ATOM     75  C   UNL     1      13.708   7.659  -5.632  1.00  0.00     0.020 A 
ATOM     76  C   UNL     1      14.410   6.725  -4.867  1.00  0.00     0.054 A 
BRANCH  76  77
ATOM     77  S   UNL     1      15.459   7.265  -3.490  1.00  0.00     0.124 S 
ATOM     78  O   UNL     1      14.709   6.783  -2.332  1.00  0.00    -0.237 OA
ATOM     79  O   UNL     1      16.716   6.570  -3.756  1.00  0.00    -0.237 OA
ATOM     80  O   UNL     1      15.509   8.717  -3.638  1.00  0.00    -0.744 OA
ENDBRANCH  76  77
ENDBRANCH  57  71
BRANCH  58  81
ATOM     81  C   UNL     1       6.309   2.877 -14.106  1.00  0.00    -0.014 A 
ATOM     82  C   UNL     1       6.661   1.958 -15.109  1.00  0.00     0.010 A 
ATOM     83  C   UNL     1       4.993   3.376 -14.069  1.00  0.00     0.010 A 
ATOM     84  C   UNL     1       5.718   1.552 -16.059  1.00  0.00     0.020 A 
ATOM     85  C   UNL     1       4.040   2.951 -14.998  1.00  0.00     0.020 A 
ATOM     86  C   UNL     1       4.411   2.045 -15.992  1.00  0.00     0.054 A 
BRANCH  86  87
ATOM     87  S   UNL     1       3.191   1.451 -17.196  1.00  0.00     0.124 S 
ATOM     88  O   UNL     1       3.655   2.072 -18.432  1.00  0.00    -0.237 OA
ATOM     89  O   UNL     1       3.352   0.001 -17.114  1.00  0.00    -0.237 OA
ATOM     90  O   UNL     1       1.922   1.959 -16.677  1.00  0.00    -0.744 OA
ENDBRANCH  86  87
ENDBRANCH  58  81
BRANCH  70  91
ATOM     91  C   UNL     1      12.273   6.548 -14.138  1.00  0.00    -0.014 A 
ATOM     92  C   UNL     1      11.850   7.723 -14.781  1.00  0.00     0.010 A 
ATOM     93  C   UNL     1      13.530   6.000 -14.454  1.00  0.00     0.010 A 
ATOM     94  C   UNL     1      12.670   8.334 -15.733  1.00  0.00     0.020 A 
ATOM     95  C   UNL     1      14.365   6.626 -15.381  1.00  0.00     0.020 A 
ATOM     96  C   UNL     1      13.925   7.787 -16.020  1.00  0.00     0.054 A 
BRANCH  96  97
ATOM     97  S   UNL     1      15.002   8.648 -17.196  1.00  0.00     0.124 S 
ATOM     98  O   UNL     1      14.324   8.401 -18.466  1.00  0.00    -0.237 OA
ATOM     99  O   UNL     1      14.958  10.027 -16.717  1.00  0.00    -0.237 OA
ATOM    100  O   UNL     1      16.292   7.980 -17.040  1.00  0.00    -0.744 OA
ENDBRANCH  96  97
ENDBRANCH  70  91
ENDBRANCH  44  45
ENDBRANCH  37  39
ENDBRANCH  36  37
ENDBRANCH  35  36
ENDBRANCH  34  35
ENDBRANCH  33  34
ENDBRANCH  32  33
ENDBRANCH  31  32
ENDBRANCH  30  31
ENDBRANCH   1  30
TORSDOF 29
