REMARK SMILES Cc1c(NC(=O)c2cccc(-c3cc4ccccc4oc3=O)c2)cccc1C(=O)OCCOCCOCCOCCOC(=O)c1ccc(-c2c3nc(c(-c4ccc(S(=O)(=O)[O-])cc4)c4ccc([nH]4)c(-c4ccc(S(=O)(=O)[O-])cc4)c4nc(c(-c5ccc(S(=O)(=O)[O-])cc5)c5ccc2[nH]5)C=C4)C=C3)cc1
REMARK SMILES IDX 36 1 35 2 34 3 33 4 32 5 31 6 30 7 28 8 29 9 27 10 1 11 2 12
REMARK SMILES IDX 3 13 24 14 26 15 25 16 4 17 5 18 6 20 7 21 8 22 23 23 9 24
REMARK SMILES IDX 11 25 10 26 12 27 13 28 21 29 14 30 20 31 22 32 15 33 19 34
REMARK SMILES IDX 16 35 18 36 17 37 37 38 38 39 39 40 40 41 41 42 42 43 43 44
REMARK SMILES IDX 44 45 45 46 46 47 104 48 47 49 103 50 48 51 49 52 50 53
REMARK SMILES IDX 97 54 51 55 102 56 96 57 98 58 52 59 101 60 95 61 94 62
REMARK SMILES IDX 53 64 83 65 64 66 82 67 65 68 68 69 81 70 99 71 66 72 67 73
REMARK SMILES IDX 80 75 100 76 69 77 54 78 55 79 63 80 56 81 62 82 57 83 58 84
REMARK SMILES IDX 59 85 60 86 61 87 84 88 85 89 93 90 86 91 92 92 87 93 88 94
REMARK SMILES IDX 89 95 90 96 91 97 70 98 71 99 79 100 72 101 78 102 73 103
REMARK SMILES IDX 74 104 75 105 76 106 77 107
REMARK H PARENT 4 19 98 63 68 74
REMARK Flexibility Score: inf
ROOT
ATOM      1  O   UNL     1       1.222   2.139  -2.446  1.00  0.00    -0.377 OA
ENDROOT
BRANCH   1   2
ATOM      2  C   UNL     1      -0.065   2.364  -3.000  1.00  0.00     0.188 C 
BRANCH   2   3
ATOM      3  C   UNL     1      -1.126   2.697  -1.962  1.00  0.00     0.188 C 
BRANCH   3   4
ATOM      4  O   UNL     1      -1.038   4.051  -1.523  1.00  0.00    -0.376 OA
BRANCH   4   5
ATOM      5  C   UNL     1       0.024   4.259  -0.597  1.00  0.00     0.202 C 
BRANCH   5   6
ATOM      6  C   UNL     1      -0.313   3.747   0.792  1.00  0.00     0.261 C 
BRANCH   6   7
ATOM      7  O   UNL     1      -0.257   2.314   0.876  1.00  0.00    -0.460 OA
BRANCH   7   8
ATOM      8  C   UNL     1      -1.122   1.806   1.786  1.00  0.00     0.338 C 
ATOM      9  O   UNL     1      -1.807   2.410   2.570  1.00  0.00    -0.246 OA
BRANCH   8  10
ATOM     10  C   UNL     1      -1.415   0.389   1.467  1.00  0.00     0.065 A 
ATOM     11  C   UNL     1       0.970  -0.462   1.656  1.00  0.00     0.047 C 
ATOM     12  C   UNL     1      -0.501  -0.693   1.418  1.00  0.00    -0.013 A 
ATOM     13  C   UNL     1      -1.023  -1.981   1.119  1.00  0.00     0.045 A 
ATOM     14  C   UNL     1      -2.410  -2.139   0.963  1.00  0.00     0.026 A 
ATOM     15  C   UNL     1      -2.778   0.206   1.194  1.00  0.00     0.016 A 
ATOM     16  C   UNL     1      -3.278  -1.055   0.951  1.00  0.00     0.003 A 
BRANCH  13  17
ATOM     17  N   UNL     1      -0.166  -3.104   0.980  1.00  0.00    -0.322 N 
ATOM     18  C   UNL     1      -0.356  -4.340   0.370  1.00  0.00     0.255 C 
ATOM     19  H   UNL     1       0.722  -2.987   1.388  1.00  0.00     0.170 HD
ATOM     20  O   UNL     1       0.430  -5.260   0.601  1.00  0.00    -0.269 OA
BRANCH  18  21
ATOM     21  C   UNL     1      -1.423  -4.580  -0.647  1.00  0.00     0.040 A 
ATOM     22  C   UNL     1      -2.127  -5.776  -0.702  1.00  0.00     0.014 A 
ATOM     23  C   UNL     1      -1.672  -3.626  -1.630  1.00  0.00     0.022 A 
ATOM     24  C   UNL     1      -3.122  -5.949  -1.675  1.00  0.00     0.001 A 
ATOM     25  C   UNL     1      -2.660  -3.764  -2.622  1.00  0.00    -0.010 A 
ATOM     26  C   UNL     1      -3.397  -4.946  -2.616  1.00  0.00     0.009 A 
BRANCH  25  27
ATOM     27  C   UNL     1      -2.915  -2.759  -3.705  1.00  0.00     0.068 A 
ATOM     28  C   UNL     1      -2.811  -1.421  -3.525  1.00  0.00     0.028 A 
ATOM     29  C   UNL     1      -2.275  -3.055  -5.037  1.00  0.00     0.344 A 
ATOM     30  C   UNL     1      -1.391  -1.112  -3.288  1.00  0.00     0.018 A 
ATOM     31  O   UNL     1      -0.943  -2.611  -5.136  1.00  0.00    -0.422 OA
ATOM     32  O   UNL     1      -2.859  -3.648  -5.934  1.00  0.00    -0.246 OA
ATOM     33  C   UNL     1      -0.976  -0.461  -2.143  1.00  0.00     0.012 A 
ATOM     34  C   UNL     1      -0.457  -1.789  -4.090  1.00  0.00     0.138 A 
ATOM     35  C   UNL     1       0.381  -0.485  -1.813  1.00  0.00     0.001 A 
ATOM     36  C   UNL     1       0.894  -1.807  -3.772  1.00  0.00     0.048 A 
ATOM     37  C   UNL     1       1.311  -1.152  -2.615  1.00  0.00     0.004 A 
ENDBRANCH  25  27
ENDBRANCH  18  21
ENDBRANCH  13  17
ENDBRANCH   8  10
ENDBRANCH   7   8
ENDBRANCH   6   7
ENDBRANCH   5   6
ENDBRANCH   4   5
ENDBRANCH   3   4
ENDBRANCH   2   3
ENDBRANCH   1   2
BRANCH   1  38
ATOM     38  C   UNL     1       2.370   2.447  -3.250  1.00  0.00     0.188 C 
BRANCH  38  39
ATOM     39  C   UNL     1       2.150   2.848  -4.698  1.00  0.00     0.188 C 
BRANCH  39  40
ATOM     40  O   UNL     1       1.390   4.054  -4.668  1.00  0.00    -0.376 OA
BRANCH  40  41
ATOM     41  C   UNL     1       0.513   4.279  -5.749  1.00  0.00     0.202 C 
BRANCH  41  42
ATOM     42  C   UNL     1       1.317   4.566  -6.993  1.00  0.00     0.261 C 
BRANCH  42  43
ATOM     43  O   UNL     1       1.865   5.917  -6.962  1.00  0.00    -0.460 OA
BRANCH  43  44
ATOM     44  C   UNL     1       3.102   6.221  -6.458  1.00  0.00     0.338 C 
ATOM     45  O   UNL     1       3.969   6.723  -7.163  1.00  0.00    -0.246 OA
BRANCH  44  46
ATOM     46  C   UNL     1       3.251   6.249  -4.971  1.00  0.00     0.060 A 
ATOM     47  C   UNL     1       4.490   6.008  -4.354  1.00  0.00     0.016 A 
ATOM     48  C   UNL     1       2.162   6.527  -4.161  1.00  0.00     0.016 A 
ATOM     49  C   UNL     1       4.597   5.852  -2.953  1.00  0.00     0.010 A 
ATOM     50  C   UNL     1       2.247   6.270  -2.796  1.00  0.00     0.010 A 
ATOM     51  C   UNL     1       3.452   5.908  -2.162  1.00  0.00    -0.014 A 
BRANCH  51  52
ATOM     52  C   UNL     1       3.330   5.476  -0.739  1.00  0.00     0.031 A 
ATOM     53  C   UNL     1       2.511   6.334   0.206  1.00  0.00     0.074 A 
ATOM     54  C   UNL     1       3.608   4.177  -0.435  1.00  0.00     0.049 A 
ATOM     55  N   UNL     1       2.099   5.988   1.379  1.00  0.00    -0.248 NA
ATOM     56  C   UNL     1       2.022   7.675  -0.141  1.00  0.00     0.031 C 
ATOM     57  C   UNL     1       2.978   3.347   0.598  1.00  0.00     0.029 A 
ATOM     58  N   UNL     1       4.452   3.254  -1.032  1.00  0.00    -0.354 N 
ATOM     59  C   UNL     1       1.100   6.861   1.795  1.00  0.00     0.074 A 
ATOM     60  C   UNL     1       1.115   7.917   0.817  1.00  0.00     0.031 C 
ATOM     61  C   UNL     1       3.494   2.109   0.607  1.00  0.00     0.029 A 
ATOM     62  C   UNL     1       4.688   2.173  -0.184  1.00  0.00     0.049 A 
ATOM     63  H   UNL     1       4.833   3.349  -1.935  1.00  0.00     0.167 HD
ATOM     64  C   UNL     1       0.306   6.526   2.862  1.00  0.00     0.031 A 
ATOM     65  C   UNL     1       5.908   1.962   0.394  1.00  0.00     0.031 A 
ATOM     66  C   UNL     1       0.851   5.356   3.582  1.00  0.00     0.049 A 
ATOM     67  C   UNL     1       5.853   2.339   1.887  1.00  0.00     0.074 A 
ATOM     68  C   UNL     1       0.334   4.153   4.028  1.00  0.00     0.029 A 
ATOM     69  N   UNL     1       2.229   5.260   3.783  1.00  0.00    -0.354 N 
ATOM     70  N   UNL     1       5.041   3.265   2.364  1.00  0.00    -0.248 NA
ATOM     71  C   UNL     1       6.466   1.562   2.968  1.00  0.00     0.031 C 
ATOM     72  C   UNL     1       1.427   3.262   4.249  1.00  0.00     0.029 A 
ATOM     73  C   UNL     1       2.612   3.971   4.090  1.00  0.00     0.049 A 
ATOM     74  H   UNL     1       2.852   6.020   3.715  1.00  0.00     0.167 HD
ATOM     75  C   UNL     1       4.906   3.119   3.720  1.00  0.00     0.074 A 
ATOM     76  C   UNL     1       5.864   2.077   4.059  1.00  0.00     0.031 C 
ATOM     77  C   UNL     1       3.973   3.708   4.532  1.00  0.00     0.031 A 
BRANCH  64  78
ATOM     78  C   UNL     1      -1.075   7.126   3.196  1.00  0.00    -0.014 A 
ATOM     79  C   UNL     1      -1.758   6.687   4.356  1.00  0.00     0.010 A 
ATOM     80  C   UNL     1      -1.805   8.029   2.390  1.00  0.00     0.010 A 
ATOM     81  C   UNL     1      -3.064   7.098   4.690  1.00  0.00     0.020 A 
ATOM     82  C   UNL     1      -3.105   8.483   2.732  1.00  0.00     0.020 A 
ATOM     83  C   UNL     1      -3.733   8.007   3.880  1.00  0.00     0.054 A 
BRANCH  83  84
ATOM     84  S   UNL     1      -5.394   8.568   4.372  1.00  0.00     0.124 S 
ATOM     85  O   UNL     1      -6.197   7.356   4.229  1.00  0.00    -0.237 OA
ATOM     86  O   UNL     1      -5.186   9.022   5.744  1.00  0.00    -0.237 OA
ATOM     87  O   UNL     1      -5.702   9.629   3.414  1.00  0.00    -0.744 OA
ENDBRANCH  83  84
ENDBRANCH  64  78
BRANCH  65  88
ATOM     88  C   UNL     1       6.975   1.864  -0.662  1.00  0.00    -0.014 A 
ATOM     89  C   UNL     1       6.834   0.693  -1.457  1.00  0.00     0.010 A 
ATOM     90  C   UNL     1       7.403   3.040  -1.316  1.00  0.00     0.010 A 
ATOM     91  C   UNL     1       6.756   0.780  -2.856  1.00  0.00     0.020 A 
ATOM     92  C   UNL     1       7.352   3.121  -2.728  1.00  0.00     0.020 A 
ATOM     93  C   UNL     1       6.946   2.011  -3.479  1.00  0.00     0.054 A 
BRANCH  93  94
ATOM     94  S   UNL     1       6.357   2.195  -5.201  1.00  0.00     0.124 S 
ATOM     95  O   UNL     1       7.450   1.616  -5.972  1.00  0.00    -0.237 OA
ATOM     96  O   UNL     1       5.109   1.432  -5.197  1.00  0.00    -0.237 OA
ATOM     97  O   UNL     1       6.179   3.635  -5.338  1.00  0.00    -0.744 OA
ENDBRANCH  93  94
ENDBRANCH  65  88
BRANCH  77  98
ATOM     98  C   UNL     1       4.306   4.159   5.937  1.00  0.00    -0.014 A 
ATOM     99  C   UNL     1       5.625   4.250   6.395  1.00  0.00     0.010 A 
ATOM    100  C   UNL     1       3.296   4.747   6.746  1.00  0.00     0.010 A 
ATOM    101  C   UNL     1       5.920   4.843   7.622  1.00  0.00     0.020 A 
ATOM    102  C   UNL     1       3.586   5.388   7.949  1.00  0.00     0.020 A 
ATOM    103  C   UNL     1       4.900   5.406   8.391  1.00  0.00     0.054 A 
BRANCH 103 104
ATOM    104  S   UNL     1       5.330   6.193   9.955  1.00  0.00     0.124 S 
ATOM    105  O   UNL     1       5.526   5.034  10.822  1.00  0.00    -0.237 OA
ATOM    106  O   UNL     1       6.542   6.935   9.617  1.00  0.00    -0.237 OA
ATOM    107  O   UNL     1       4.166   7.018  10.264  1.00  0.00    -0.744 OA
ENDBRANCH 103 104
ENDBRANCH  77  98
ENDBRANCH  51  52
ENDBRANCH  44  46
ENDBRANCH  43  44
ENDBRANCH  42  43
ENDBRANCH  41  42
ENDBRANCH  40  41
ENDBRANCH  39  40
ENDBRANCH  38  39
ENDBRANCH   1  38
TORSDOF 26
