REMARK SMILES COc1ccc(OC)c(N2C(=O)c3ccc(C(=O)OCCOCCOCCOCCOC(=O)c4ccc(-c5c6nc(c(-c7ccc(S(=O)(=O)[O-])cc7)c7ccc([nH]7)c(-c7ccc(S(=O)(=O)[O-])cc7)c7nc(c(-c8ccc(S(=O)(=O)[O-])cc8)c8ccc5[nH]8)C=C7)C=C6)cc4)cc3C2=O)c1
REMARK SMILES IDX 26 1 25 2 24 3 23 4 22 5 21 6 20 7 19 8 17 9 18 10 16 11
REMARK SMILES IDX 10 12 11 13 96 14 12 15 13 16 95 17 97 18 14 19 94 20 15 21
REMARK SMILES IDX 9 22 3 23 4 24 98 25 5 26 6 27 2 28 1 29 7 30 8 31 27 32
REMARK SMILES IDX 28 33 29 34 30 35 31 36 32 37 33 38 34 39 35 40 93 41 36 42
REMARK SMILES IDX 92 43 37 44 38 45 39 46 86 47 40 48 91 49 85 50 87 51 41 52
REMARK SMILES IDX 90 53 84 54 83 55 42 57 72 58 53 59 71 60 54 61 57 62 70 63
REMARK SMILES IDX 88 64 55 65 56 66 69 68 89 69 58 70 43 71 44 72 52 73 45 74
REMARK SMILES IDX 51 75 46 76 47 77 48 78 49 79 50 80 73 81 74 82 82 83 75 84
REMARK SMILES IDX 81 85 76 86 77 87 78 88 79 89 80 90 59 91 60 92 68 93 61 94
REMARK SMILES IDX 67 95 62 96 63 97 64 98 65 99 66 100
REMARK H PARENT 87 56 57 67
REMARK Flexibility Score: inf
ROOT
ATOM      1  C   UNL     1      12.120   2.671  -5.383  1.00  0.00     0.188 C 
ENDROOT
BRANCH   1   2
ATOM      2  O   UNL     1      10.870   2.063  -5.084  1.00  0.00    -0.377 OA
BRANCH   2   3
ATOM      3  C   UNL     1      10.756   1.178  -3.984  1.00  0.00     0.188 C 
BRANCH   3   4
ATOM      4  C   UNL     1      11.863   0.139  -3.735  1.00  0.00     0.188 C 
BRANCH   4   5
ATOM      5  O   UNL     1      12.843   0.048  -4.761  1.00  0.00    -0.376 OA
BRANCH   5   6
ATOM      6  C   UNL     1      12.770  -1.103  -5.594  1.00  0.00     0.202 C 
BRANCH   6   7
ATOM      7  C   UNL     1      11.647  -1.045  -6.636  1.00  0.00     0.261 C 
BRANCH   7   8
ATOM      8  O   UNL     1      10.325  -1.081  -6.068  1.00  0.00    -0.460 OA
BRANCH   8   9
ATOM      9  C   UNL     1       9.986  -2.219  -5.431  1.00  0.00     0.338 C 
ATOM     10  O   UNL     1      10.648  -3.233  -5.304  1.00  0.00    -0.246 OA
BRANCH   9  11
ATOM     11  C   UNL     1       8.741  -1.969  -4.686  1.00  0.00     0.060 A 
ATOM     12  N   UNL     1       4.302  -1.397  -3.737  1.00  0.00    -0.238 N 
ATOM     13  C   UNL     1       5.140  -1.502  -2.652  1.00  0.00     0.266 C 
ATOM     14  C   UNL     1       5.029  -1.270  -4.903  1.00  0.00     0.266 C 
ATOM     15  O   UNL     1       4.919  -1.563  -1.454  1.00  0.00    -0.268 OA
ATOM     16  C   UNL     1       6.490  -1.617  -3.177  1.00  0.00     0.053 A 
ATOM     17  C   UNL     1       6.428  -1.504  -4.553  1.00  0.00     0.054 A 
ATOM     18  O   UNL     1       4.710  -0.915  -6.021  1.00  0.00    -0.268 OA
ATOM     19  C   UNL     1       7.662  -1.885  -2.500  1.00  0.00     0.015 A 
ATOM     20  C   UNL     1       7.550  -1.648  -5.348  1.00  0.00     0.030 A 
ATOM     21  C   UNL     1       8.800  -2.086  -3.276  1.00  0.00     0.016 A 
BRANCH  12  22
ATOM     22  C   UNL     1       2.886  -1.449  -3.630  1.00  0.00     0.098 A 
ATOM     23  C   UNL     1       0.903  -1.114  -2.234  1.00  0.00     0.121 A 
ATOM     24  C   UNL     1       0.128  -1.775  -3.186  1.00  0.00     0.050 A 
ATOM     25  C   UNL     1       2.267  -0.941  -2.472  1.00  0.00     0.077 A 
ATOM     26  C   UNL     1       0.710  -2.263  -4.359  1.00  0.00     0.052 A 
ATOM     27  C   UNL     1       2.084  -2.105  -4.581  1.00  0.00     0.143 A 
BRANCH  23  28
ATOM     28  O   UNL     1       0.239  -0.728  -1.101  1.00  0.00    -0.497 OA
ATOM     29  C   UNL     1       0.958   0.094  -0.184  1.00  0.00     0.278 C 
ENDBRANCH  23  28
BRANCH  27  30
ATOM     30  O   UNL     1       2.666  -2.828  -5.593  1.00  0.00    -0.495 OA
ATOM     31  C   UNL     1       2.394  -2.270  -6.880  1.00  0.00     0.278 C 
ENDBRANCH  27  30
ENDBRANCH  12  22
ENDBRANCH   9  11
ENDBRANCH   8   9
ENDBRANCH   7   8
ENDBRANCH   6   7
ENDBRANCH   5   6
ENDBRANCH   4   5
ENDBRANCH   3   4
ENDBRANCH   2   3
ENDBRANCH   1   2
BRANCH   1  32
ATOM     32  C   UNL     1      13.147   2.951  -4.269  1.00  0.00     0.188 C 
BRANCH  32  33
ATOM     33  O   UNL     1      12.604   2.966  -2.952  1.00  0.00    -0.376 OA
BRANCH  33  34
ATOM     34  C   UNL     1      12.555   4.239  -2.322  1.00  0.00     0.202 C 
BRANCH  34  35
ATOM     35  C   UNL     1      11.375   5.096  -2.791  1.00  0.00     0.261 C 
BRANCH  35  36
ATOM     36  O   UNL     1      11.431   5.489  -4.170  1.00  0.00    -0.460 OA
BRANCH  36  37
ATOM     37  C   UNL     1      12.488   6.241  -4.551  1.00  0.00     0.338 C 
ATOM     38  O   UNL     1      13.394   6.651  -3.849  1.00  0.00    -0.246 OA
BRANCH  37  39
ATOM     39  C   UNL     1      12.453   6.345  -6.021  1.00  0.00     0.060 A 
ATOM     40  C   UNL     1      13.573   5.938  -6.756  1.00  0.00     0.016 A 
ATOM     41  C   UNL     1      11.314   6.835  -6.663  1.00  0.00     0.016 A 
ATOM     42  C   UNL     1      13.566   6.054  -8.146  1.00  0.00     0.010 A 
ATOM     43  C   UNL     1      11.315   6.965  -8.050  1.00  0.00     0.010 A 
ATOM     44  C   UNL     1      12.453   6.606  -8.794  1.00  0.00    -0.014 A 
BRANCH  44  45
ATOM     45  C   UNL     1      12.537   6.996 -10.219  1.00  0.00     0.031 A 
ATOM     46  C   UNL     1      12.909   8.416 -10.544  1.00  0.00     0.074 A 
ATOM     47  C   UNL     1      12.260   6.122 -11.201  1.00  0.00     0.049 A 
ATOM     48  N   UNL     1      12.995   9.004 -11.708  1.00  0.00    -0.248 NA
ATOM     49  C   UNL     1      13.214   9.291  -9.399  1.00  0.00     0.031 C 
ATOM     50  C   UNL     1      11.898   4.719 -11.011  1.00  0.00     0.029 A 
ATOM     51  N   UNL     1      12.221   6.302 -12.561  1.00  0.00    -0.354 N 
ATOM     52  C   UNL     1      13.355  10.318 -11.437  1.00  0.00     0.074 A 
ATOM     53  C   UNL     1      13.446  10.448  -9.999  1.00  0.00     0.031 C 
ATOM     54  C   UNL     1      11.650   4.169 -12.213  1.00  0.00     0.029 A 
ATOM     55  C   UNL     1      11.812   5.186 -13.251  1.00  0.00     0.049 A 
ATOM     56  H   UNL     1      12.463   7.149 -13.000  1.00  0.00     0.167 HD
ATOM     57  C   UNL     1      13.589  11.329 -12.307  1.00  0.00     0.031 A 
ATOM     58  C   UNL     1      11.572   5.015 -14.566  1.00  0.00     0.031 A 
ATOM     59  C   UNL     1      13.470  11.206 -13.733  1.00  0.00     0.049 A 
ATOM     60  C   UNL     1      11.794   6.164 -15.515  1.00  0.00     0.074 A 
ATOM     61  C   UNL     1      13.712  12.163 -14.703  1.00  0.00     0.029 A 
ATOM     62  N   UNL     1      13.056  10.060 -14.394  1.00  0.00    -0.354 N 
ATOM     63  N   UNL     1      12.191   7.386 -15.251  1.00  0.00    -0.248 NA
ATOM     64  C   UNL     1      11.545   5.907 -16.941  1.00  0.00     0.031 C 
ATOM     65  C   UNL     1      13.393  11.610 -15.948  1.00  0.00     0.029 A 
ATOM     66  C   UNL     1      13.007  10.292 -15.758  1.00  0.00     0.049 A 
ATOM     67  H   UNL     1      12.830   9.207 -13.958  1.00  0.00     0.167 HD
ATOM     68  C   UNL     1      12.261   8.038 -16.479  1.00  0.00     0.074 A 
ATOM     69  C   UNL     1      11.876   7.070 -17.486  1.00  0.00     0.031 C 
ATOM     70  C   UNL     1      12.616   9.319 -16.747  1.00  0.00     0.031 A 
BRANCH  57  71
ATOM     71  C   UNL     1      13.954  12.665 -11.720  1.00  0.00    -0.014 A 
ATOM     72  C   UNL     1      15.207  12.878 -11.116  1.00  0.00     0.010 A 
ATOM     73  C   UNL     1      13.025  13.720 -11.765  1.00  0.00     0.010 A 
ATOM     74  C   UNL     1      15.504  14.107 -10.523  1.00  0.00     0.020 A 
ATOM     75  C   UNL     1      13.329  14.959 -11.195  1.00  0.00     0.020 A 
ATOM     76  C   UNL     1      14.558  15.137 -10.557  1.00  0.00     0.054 A 
BRANCH  76  77
ATOM     77  S   UNL     1      14.963  16.720  -9.771  1.00  0.00     0.124 S 
ATOM     78  O   UNL     1      14.820  16.396  -8.354  1.00  0.00    -0.237 OA
ATOM     79  O   UNL     1      16.330  16.965 -10.224  1.00  0.00    -0.237 OA
ATOM     80  O   UNL     1      13.960  17.638 -10.304  1.00  0.00    -0.744 OA
ENDBRANCH  76  77
ENDBRANCH  57  71
BRANCH  58  81
ATOM     81  C   UNL     1      11.076   3.701 -15.057  1.00  0.00    -0.014 A 
ATOM     82  C   UNL     1      11.912   2.845 -15.793  1.00  0.00     0.010 A 
ATOM     83  C   UNL     1       9.762   3.290 -14.763  1.00  0.00     0.010 A 
ATOM     84  C   UNL     1      11.444   1.601 -16.228  1.00  0.00     0.020 A 
ATOM     85  C   UNL     1       9.298   2.038 -15.177  1.00  0.00     0.020 A 
ATOM     86  C   UNL     1      10.141   1.203 -15.912  1.00  0.00     0.054 A 
BRANCH  86  87
ATOM     87  S   UNL     1       9.582  -0.448 -16.417  1.00  0.00     0.124 S 
ATOM     88  O   UNL     1       9.359  -0.270 -17.848  1.00  0.00    -0.237 OA
ATOM     89  O   UNL     1      10.719  -1.291 -16.053  1.00  0.00    -0.237 OA
ATOM     90  O   UNL     1       8.379  -0.661 -15.615  1.00  0.00    -0.744 OA
ENDBRANCH  86  87
ENDBRANCH  58  81
BRANCH  70  91
ATOM     91  C   UNL     1      12.634   9.750 -18.190  1.00  0.00    -0.014 A 
ATOM     92  C   UNL     1      11.442   9.982 -18.898  1.00  0.00     0.010 A 
ATOM     93  C   UNL     1      13.867   9.994 -18.825  1.00  0.00     0.010 A 
ATOM     94  C   UNL     1      11.482  10.426 -20.223  1.00  0.00     0.020 A 
ATOM     95  C   UNL     1      13.911  10.461 -20.140  1.00  0.00     0.020 A 
ATOM     96  C   UNL     1      12.717  10.662 -20.836  1.00  0.00     0.054 A 
BRANCH  96  97
ATOM     97  S   UNL     1      12.744  11.287 -22.539  1.00  0.00     0.124 S 
ATOM     98  O   UNL     1      12.410  10.090 -23.306  1.00  0.00    -0.237 OA
ATOM     99  O   UNL     1      11.718  12.327 -22.518  1.00  0.00    -0.237 OA
ATOM    100  O   UNL     1      14.112  11.773 -22.708  1.00  0.00    -0.744 OA
ENDBRANCH  96  97
ENDBRANCH  70  91
ENDBRANCH  44  45
ENDBRANCH  37  39
ENDBRANCH  36  37
ENDBRANCH  35  36
ENDBRANCH  34  35
ENDBRANCH  33  34
ENDBRANCH  32  33
ENDBRANCH   1  32
TORSDOF 26
