REMARK SMILES O=C(OCCOCCOCCOCCOC(=O)c1ccc(-c2c3nc(c(-c4ccc(S(=O)(=O)[O-])cc4)c4ccc([nH]4)c(-c4ccc(S(=O)(=O)[O-])cc4)c4nc(c(-c5ccc(S(=O)(=O)[O-])cc5)c5ccc2[nH]5)C=C4)C=C3)cc1)C1=Cc2cc(OC(F)(F)F)ccc2O[C@@H]1C(F)(F)F
REMARK SMILES IDX 10 1 9 2 8 3 7 4 6 5 5 6 4 7 3 8 2 9 1 10 78 11 79 12 92 13
REMARK SMILES IDX 80 14 91 15 81 16 90 17 82 18 89 19 88 20 93 21 94 22 95 23
REMARK SMILES IDX 96 24 83 25 84 26 85 27 86 28 87 29 11 30 12 31 13 32 14 33
REMARK SMILES IDX 15 34 16 35 17 36 18 37 19 38 77 39 20 40 76 41 21 42 22 43
REMARK SMILES IDX 23 44 70 45 24 46 75 47 69 48 71 49 25 50 74 51 68 52 67 53
REMARK SMILES IDX 26 55 56 56 37 57 55 58 38 59 41 60 54 61 72 62 39 63 40 64
REMARK SMILES IDX 53 66 73 67 42 68 27 69 28 70 36 71 29 72 35 73 30 74 31 75
REMARK SMILES IDX 32 76 33 77 34 78 57 79 58 80 66 81 59 82 65 83 60 84 61 85
REMARK SMILES IDX 62 86 63 87 64 88 43 89 44 90 52 91 45 92 51 93 46 94 47 95
REMARK SMILES IDX 48 96 49 97 50 98
REMARK H PARENT 71 54 41 65
REMARK Flexibility Score: inf
ROOT
ATOM      1  C   UNL     1       4.040  -1.677   3.219  1.00  0.00     0.188 C 
ENDROOT
BRANCH   1   2
ATOM      2  O   UNL     1       2.701  -2.055   3.430  1.00  0.00    -0.377 OA
BRANCH   2   3
ATOM      3  C   UNL     1       1.854  -1.571   2.415  1.00  0.00     0.188 C 
BRANCH   3   4
ATOM      4  C   UNL     1       2.172  -2.059   0.992  1.00  0.00     0.188 C 
BRANCH   4   5
ATOM      5  O   UNL     1       3.487  -1.962   0.340  1.00  0.00    -0.376 OA
BRANCH   5   6
ATOM      6  C   UNL     1       4.238  -0.764  -0.543  1.00  0.00     0.202 C 
BRANCH   6   7
ATOM      7  C   UNL     1       3.511   1.270  -0.870  1.00  0.00     0.261 C 
BRANCH   7   8
ATOM      8  O   UNL     1       2.578   1.724  -1.976  1.00  0.00    -0.460 OA
BRANCH   8   9
ATOM      9  C   UNL     1       2.764   1.036  -3.109  1.00  0.00     0.338 C 
ATOM     10  O   UNL     1       2.090   1.048  -4.110  1.00  0.00    -0.246 OA
BRANCH   9  11
ATOM     11  C   UNL     1       3.635   0.010  -2.558  1.00  0.00     0.087 C 
ATOM     12  C   UNL     1       5.017   0.451  -2.339  1.00  0.00     0.027 C 
ATOM     13  C   UNL     1       2.396  -0.435  -1.158  1.00  0.00     0.316 C 
ATOM     14  C   UNL     1       5.710   0.859  -0.731  1.00  0.00     0.021 A 
ATOM     15  O   UNL     1       3.065   0.137   0.584  1.00  0.00    -0.475 OA
ATOM     16  C   UNL     1       7.020   1.236  -0.639  1.00  0.00     0.058 A 
ATOM     17  C   UNL     1       4.769   0.822   0.713  1.00  0.00     0.128 A 
ATOM     18  C   UNL     1       7.506   1.527   0.654  1.00  0.00     0.130 A 
ATOM     19  C   UNL     1       5.300   1.156   1.933  1.00  0.00     0.051 A 
ATOM     20  C   UNL     1       6.690   1.491   1.864  1.00  0.00     0.050 A 
BRANCH  13  21
ATOM     21  C   UNL     1       2.084  -1.950  -1.797  1.00  0.00     0.430 C 
ATOM     22  F   UNL     1       1.194  -2.738  -1.166  1.00  0.00    -0.167 F 
ATOM     23  F   UNL     1       1.517  -1.741  -3.027  1.00  0.00    -0.167 F 
ATOM     24  F   UNL     1       3.179  -2.704  -2.066  1.00  0.00    -0.167 F 
ENDBRANCH  13  21
BRANCH  18  25
ATOM     25  O   UNL     1       8.845   1.842   0.591  1.00  0.00    -0.406 OA
BRANCH  25  26
ATOM     26  C   UNL     1       9.584   2.074   1.775  1.00  0.00     0.573 C 
ATOM     27  F   UNL     1       9.122   3.160   2.421  1.00  0.00    -0.132 F 
ATOM     28  F   UNL     1       9.539   0.998   2.586  1.00  0.00    -0.132 F 
ATOM     29  F   UNL     1      10.873   2.291   1.431  1.00  0.00    -0.132 F 
ENDBRANCH  25  26
ENDBRANCH  18  25
ENDBRANCH   9  11
ENDBRANCH   8   9
ENDBRANCH   7   8
ENDBRANCH   6   7
ENDBRANCH   5   6
ENDBRANCH   4   5
ENDBRANCH   3   4
ENDBRANCH   2   3
ENDBRANCH   1   2
BRANCH   1  30
ATOM     30  C   UNL     1       5.014  -2.797   2.835  1.00  0.00     0.188 C 
BRANCH  30  31
ATOM     31  O   UNL     1       4.592  -4.088   2.428  1.00  0.00    -0.376 OA
BRANCH  31  32
ATOM     32  C   UNL     1       3.389  -4.668   2.897  1.00  0.00     0.202 C 
BRANCH  32  33
ATOM     33  C   UNL     1       3.116  -4.903   4.390  1.00  0.00     0.261 C 
BRANCH  33  34
ATOM     34  O   UNL     1       3.397  -3.808   5.266  1.00  0.00    -0.460 OA
BRANCH  34  35
ATOM     35  C   UNL     1       4.655  -3.793   5.754  1.00  0.00     0.338 C 
ATOM     36  O   UNL     1       5.510  -4.649   5.591  1.00  0.00    -0.246 OA
BRANCH  35  37
ATOM     37  C   UNL     1       4.946  -2.487   6.381  1.00  0.00     0.060 A 
ATOM     38  C   UNL     1       6.178  -1.890   6.075  1.00  0.00     0.016 A 
ATOM     39  C   UNL     1       4.078  -1.890   7.298  1.00  0.00     0.016 A 
ATOM     40  C   UNL     1       6.598  -0.760   6.758  1.00  0.00     0.010 A 
ATOM     41  C   UNL     1       4.518  -0.775   8.018  1.00  0.00     0.010 A 
ATOM     42  C   UNL     1       5.812  -0.266   7.802  1.00  0.00    -0.014 A 
BRANCH  42  43
ATOM     43  C   UNL     1       6.498   0.530   8.844  1.00  0.00     0.031 A 
ATOM     44  C   UNL     1       6.956  -0.191  10.088  1.00  0.00     0.074 A 
ATOM     45  C   UNL     1       6.816   1.819   8.640  1.00  0.00     0.049 A 
ATOM     46  N   UNL     1       7.611   0.271  11.120  1.00  0.00    -0.248 NA
ATOM     47  C   UNL     1       6.632  -1.626  10.178  1.00  0.00     0.031 C 
ATOM     48  C   UNL     1       6.502   2.589   7.437  1.00  0.00     0.029 A 
ATOM     49  N   UNL     1       7.493   2.701   9.441  1.00  0.00    -0.354 N 
ATOM     50  C   UNL     1       7.753  -0.808  11.988  1.00  0.00     0.074 A 
ATOM     51  C   UNL     1       7.090  -1.937  11.379  1.00  0.00     0.031 C 
ATOM     52  C   UNL     1       6.990   3.833   7.580  1.00  0.00     0.029 A 
ATOM     53  C   UNL     1       7.614   3.955   8.897  1.00  0.00     0.049 A 
ATOM     54  H   UNL     1       7.858   2.458  10.323  1.00  0.00     0.167 HD
ATOM     55  C   UNL     1       8.384  -0.855  13.184  1.00  0.00     0.031 A 
ATOM     56  C   UNL     1       8.152   5.077   9.415  1.00  0.00     0.031 A 
ATOM     57  C   UNL     1       9.037   0.279  13.782  1.00  0.00     0.049 A 
ATOM     58  C   UNL     1       8.774   5.021  10.786  1.00  0.00     0.074 A 
ATOM     59  C   UNL     1       9.720   0.341  14.983  1.00  0.00     0.029 A 
ATOM     60  N   UNL     1       9.080   1.550  13.229  1.00  0.00    -0.354 N 
ATOM     61  N   UNL     1       8.909   3.994  11.594  1.00  0.00    -0.248 NA
ATOM     62  C   UNL     1       9.333   6.275  11.308  1.00  0.00     0.031 C 
ATOM     63  C   UNL     1      10.101   1.669  15.196  1.00  0.00     0.029 A 
ATOM     64  C   UNL     1       9.746   2.413  14.082  1.00  0.00     0.049 A 
ATOM     65  H   UNL     1       8.695   1.801  12.358  1.00  0.00     0.167 HD
ATOM     66  C   UNL     1       9.609   4.470  12.699  1.00  0.00     0.074 A 
ATOM     67  C   UNL     1       9.879   5.871  12.446  1.00  0.00     0.031 C 
ATOM     68  C   UNL     1      10.003   3.808  13.816  1.00  0.00     0.031 A 
BRANCH  55  69
ATOM     69  C   UNL     1       8.341  -2.153  13.951  1.00  0.00    -0.014 A 
ATOM     70  C   UNL     1       9.009  -3.307  13.501  1.00  0.00     0.010 A 
ATOM     71  C   UNL     1       7.640  -2.205  15.170  1.00  0.00     0.010 A 
ATOM     72  C   UNL     1       8.943  -4.495  14.236  1.00  0.00     0.020 A 
ATOM     73  C   UNL     1       7.603  -3.379  15.926  1.00  0.00     0.020 A 
ATOM     74  C   UNL     1       8.243  -4.522  15.446  1.00  0.00     0.054 A 
BRANCH  74  75
ATOM     75  S   UNL     1       8.204  -6.066  16.396  1.00  0.00     0.124 S 
ATOM     76  O   UNL     1       7.382  -6.924  15.546  1.00  0.00    -0.237 OA
ATOM     77  O   UNL     1       9.617  -6.427  16.473  1.00  0.00    -0.237 OA
ATOM     78  O   UNL     1       7.592  -5.680  17.665  1.00  0.00    -0.744 OA
ENDBRANCH  74  75
ENDBRANCH  55  69
BRANCH  56  79
ATOM     79  C   UNL     1       8.118   6.348   8.639  1.00  0.00    -0.014 A 
ATOM     80  C   UNL     1       9.306   6.948   8.186  1.00  0.00     0.010 A 
ATOM     81  C   UNL     1       6.888   6.972   8.359  1.00  0.00     0.010 A 
ATOM     82  C   UNL     1       9.266   8.157   7.486  1.00  0.00     0.020 A 
ATOM     83  C   UNL     1       6.842   8.161   7.628  1.00  0.00     0.020 A 
ATOM     84  C   UNL     1       8.033   8.753   7.206  1.00  0.00     0.054 A 
BRANCH  84  85
ATOM     85  S   UNL     1       8.005  10.295   6.252  1.00  0.00     0.124 S 
ATOM     86  O   UNL     1       8.595  11.245   7.190  1.00  0.00    -0.237 OA
ATOM     87  O   UNL     1       8.825   9.956   5.091  1.00  0.00    -0.237 OA
ATOM     88  O   UNL     1       6.586  10.495   5.966  1.00  0.00    -0.744 OA
ENDBRANCH  84  85
ENDBRANCH  56  79
BRANCH  68  89
ATOM     89  C   UNL     1      10.829   4.571  14.822  1.00  0.00    -0.014 A 
ATOM     90  C   UNL     1      10.299   5.641  15.565  1.00  0.00     0.010 A 
ATOM     91  C   UNL     1      12.165   4.183  15.044  1.00  0.00     0.010 A 
ATOM     92  C   UNL     1      11.106   6.345  16.463  1.00  0.00     0.020 A 
ATOM     93  C   UNL     1      12.961   4.855  15.973  1.00  0.00     0.020 A 
ATOM     94  C   UNL     1      12.432   5.948  16.660  1.00  0.00     0.054 A 
BRANCH  94  95
ATOM     95  S   UNL     1      13.454   6.872  17.838  1.00  0.00     0.124 S 
ATOM     96  O   UNL     1      13.639   8.145  17.148  1.00  0.00    -0.237 OA
ATOM     97  O   UNL     1      12.607   6.917  19.027  1.00  0.00    -0.237 OA
ATOM     98  O   UNL     1      14.659   6.055  17.969  1.00  0.00    -0.744 OA
ENDBRANCH  94  95
ENDBRANCH  68  89
ENDBRANCH  42  43
ENDBRANCH  35  37
ENDBRANCH  34  35
ENDBRANCH  33  34
ENDBRANCH  32  33
ENDBRANCH  31  32
ENDBRANCH  30  31
ENDBRANCH   1  30
TORSDOF 26
