REMARK SMILES Cc1cccc(NC(=O)CSc2nnc(CCC(=O)OCCOCCOCCOCCOC(=O)c3ccc(-c4c5nc(c(-c6ccc(S(=O)(=O)[O-])cc6)c6ccc([nH]6)c(-c6ccc(S(=O)(=O)[O-])cc6)c6nc(c(-c7ccc(S(=O)(=O)[O-])cc7)c7ccc4[nH]7)C=C6)C=C5)cc3)c(O)n2)c1
REMARK SMILES IDX 24 1 23 2 22 3 21 4 20 5 18 6 19 7 17 8 16 9 15 10 12 11
REMARK SMILES IDX 13 12 97 13 14 14 95 15 11 16 10 17 8 18 7 19 9 21 6 22 1 23
REMARK SMILES IDX 2 24 3 25 98 26 4 27 5 28 96 29 25 31 26 32 27 33 28 34
REMARK SMILES IDX 29 35 30 36 31 37 32 38 33 39 34 40 35 41 36 42 94 43 37 44
REMARK SMILES IDX 93 45 38 46 39 47 40 48 87 49 41 50 92 51 86 52 88 53 42 54
REMARK SMILES IDX 91 55 85 56 84 57 43 59 73 60 54 61 72 62 55 63 58 64 71 65
REMARK SMILES IDX 89 66 56 67 57 68 70 70 90 71 59 72 44 73 45 74 53 75 46 76
REMARK SMILES IDX 52 77 47 78 48 79 49 80 50 81 51 82 74 83 75 84 83 85 76 86
REMARK SMILES IDX 82 87 77 88 78 89 79 90 80 91 81 92 60 93 61 94 69 95 62 96
REMARK SMILES IDX 68 97 63 98 64 99 65 100 66 101 67 102
REMARK H PARENT 7 20 96 30 88 58 58 69
REMARK Flexibility Score: inf
ROOT
ATOM      1  C   UNL     1      -6.582   1.389  -7.332  1.00  0.00     0.188 C 
ENDROOT
BRANCH   1   2
ATOM      2  O   UNL     1      -6.282  -0.132  -6.614  1.00  0.00    -0.376 OA
BRANCH   2   3
ATOM      3  C   UNL     1      -4.822  -1.175  -6.737  1.00  0.00     0.202 C 
BRANCH   3   4
ATOM      4  C   UNL     1      -3.378  -1.192  -7.915  1.00  0.00     0.261 C 
BRANCH   4   5
ATOM      5  O   UNL     1      -2.675   0.214  -8.880  1.00  0.00    -0.463 OA
BRANCH   5   6
ATOM      6  C   UNL     1      -2.953   1.637  -9.472  1.00  0.00     0.306 C 
ATOM      7  O   UNL     1      -3.209   1.767 -10.678  1.00  0.00    -0.252 OA
BRANCH   6   8
ATOM      8  C   UNL     1      -2.753   3.166  -8.617  1.00  0.00     0.129 C 
BRANCH   8   9
ATOM      9  C   UNL     1      -3.773   4.075  -7.666  1.00  0.00     0.076 C 
BRANCH   9  10
ATOM     10  C   UNL     1      -3.805   4.230  -6.115  1.00  0.00     0.126 A 
ATOM     11  C   UNL     1      -3.643   4.048  -3.323  1.00  0.00     0.212 A 
ATOM     12  N   UNL     1      -4.723   3.588  -3.969  1.00  0.00    -0.123 NA
ATOM     13  N   UNL     1      -2.807   4.883  -3.958  1.00  0.00    -0.184 NA
ATOM     14  N   UNL     1      -4.822   3.725  -5.391  1.00  0.00    -0.147 NA
ATOM     15  C   UNL     1      -2.910   4.921  -5.320  1.00  0.00     0.237 A 
BRANCH  11  16
ATOM     16  S   UNL     1      -2.741   2.981  -2.174  1.00  0.00    -0.074 SA
BRANCH  16  17
ATOM     17  C   UNL     1      -3.731   2.759  -0.641  1.00  0.00     0.178 C 
BRANCH  17  18
ATOM     18  C   UNL     1      -2.838   3.192   0.522  1.00  0.00     0.234 C 
ATOM     19  N   UNL     1      -1.630   2.596   0.780  1.00  0.00    -0.325 N 
ATOM     20  H   UNL     1      -1.029   3.159   1.320  1.00  0.00     0.169 HD
ATOM     21  O   UNL     1      -3.131   4.191   1.193  1.00  0.00    -0.274 OA
BRANCH  19  22
ATOM     22  C   UNL     1      -1.065   1.353   0.439  1.00  0.00     0.041 A 
ATOM     23  C   UNL     1       2.507   0.065  -0.059  1.00  0.00     0.044 C 
ATOM     24  C   UNL     1       1.013   0.099   0.086  1.00  0.00    -0.049 A 
ATOM     25  C   UNL     1       0.272  -1.080  -0.010  1.00  0.00     0.003 A 
ATOM     26  C   UNL     1       0.337   1.302   0.342  1.00  0.00     0.029 A 
ATOM     27  C   UNL     1      -1.120  -1.043   0.107  1.00  0.00     0.002 A 
ATOM     28  C   UNL     1      -1.791   0.172   0.312  1.00  0.00     0.026 A 
ENDBRANCH  19  22
ENDBRANCH  17  18
ENDBRANCH  16  17
ENDBRANCH  11  16
BRANCH  15  29
ATOM     29  O   UNL     1      -2.023   5.815  -5.818  1.00  0.00    -0.492 OA
ATOM     30  H   UNL     1      -1.971   5.957  -6.742  1.00  0.00     0.295 HD
ENDBRANCH  15  29
ENDBRANCH   9  10
ENDBRANCH   8   9
ENDBRANCH   6   8
ENDBRANCH   5   6
ENDBRANCH   4   5
ENDBRANCH   3   4
ENDBRANCH   2   3
ENDBRANCH   1   2
BRANCH   1  31
ATOM     31  C   UNL     1      -7.468   2.421  -6.661  1.00  0.00     0.188 C 
BRANCH  31  32
ATOM     32  O   UNL     1      -8.815   2.363  -7.036  1.00  0.00    -0.377 OA
BRANCH  32  33
ATOM     33  C   UNL     1      -9.154   1.123  -7.589  1.00  0.00     0.188 C 
BRANCH  33  34
ATOM     34  C   UNL     1     -10.100   1.343  -8.754  1.00  0.00     0.188 C 
BRANCH  34  35
ATOM     35  O   UNL     1     -11.296   1.999  -8.407  1.00  0.00    -0.376 OA
BRANCH  35  36
ATOM     36  C   UNL     1     -11.699   1.725  -7.061  1.00  0.00     0.202 C 
BRANCH  36  37
ATOM     37  C   UNL     1     -11.576   0.235  -6.493  1.00  0.00     0.261 C 
BRANCH  37  38
ATOM     38  O   UNL     1     -11.127  -0.766  -7.516  1.00  0.00    -0.460 OA
BRANCH  38  39
ATOM     39  C   UNL     1     -10.386  -1.905  -7.220  1.00  0.00     0.338 C 
ATOM     40  O   UNL     1     -10.715  -2.741  -6.415  1.00  0.00    -0.246 OA
BRANCH  39  41
ATOM     41  C   UNL     1      -9.079  -2.009  -8.057  1.00  0.00     0.060 A 
ATOM     42  C   UNL     1      -7.921  -2.600  -7.585  1.00  0.00     0.016 A 
ATOM     43  C   UNL     1      -8.897  -1.427  -9.308  1.00  0.00     0.016 A 
ATOM     44  C   UNL     1      -6.668  -2.258  -8.191  1.00  0.00     0.010 A 
ATOM     45  C   UNL     1      -7.628  -0.837  -9.660  1.00  0.00     0.010 A 
ATOM     46  C   UNL     1      -6.492  -1.021  -8.863  1.00  0.00    -0.014 A 
BRANCH  46  47
ATOM     47  C   UNL     1      -5.055   0.091  -8.771  1.00  0.00     0.031 A 
ATOM     48  C   UNL     1      -4.493  -0.435 -10.271  1.00  0.00     0.074 A 
ATOM     49  C   UNL     1      -4.253   0.867  -7.466  1.00  0.00     0.049 A 
ATOM     50  N   UNL     1      -3.509  -1.284 -10.432  1.00  0.00    -0.248 NA
ATOM     51  C   UNL     1      -5.175  -0.228 -11.558  1.00  0.00     0.031 C 
ATOM     52  C   UNL     1      -2.736   1.368  -7.024  1.00  0.00     0.029 A 
ATOM     53  N   UNL     1      -4.604   1.080  -5.968  1.00  0.00    -0.354 N 
ATOM     54  C   UNL     1      -3.143  -1.254 -11.728  1.00  0.00     0.074 A 
ATOM     55  C   UNL     1      -4.371  -0.895 -12.404  1.00  0.00     0.031 C 
ATOM     56  C   UNL     1      -2.483   1.607  -5.735  1.00  0.00     0.029 A 
ATOM     57  C   UNL     1      -3.547   1.000  -5.049  1.00  0.00     0.049 A 
ATOM     58  H   UNL     1      -5.527   1.264  -5.677  1.00  0.00     0.167 HD
ATOM     59  C   UNL     1      -1.827  -1.173 -12.100  1.00  0.00     0.031 A 
ATOM     60  C   UNL     1      -3.352  -0.008  -4.137  1.00  0.00     0.031 A 
ATOM     61  C   UNL     1      -0.892  -0.828 -10.960  1.00  0.00     0.049 A 
ATOM     62  C   UNL     1      -2.039  -0.771  -4.665  1.00  0.00     0.074 A 
ATOM     63  C   UNL     1      -0.211   0.350 -10.668  1.00  0.00     0.029 A 
ATOM     64  N   UNL     1      -0.778  -1.591  -9.764  1.00  0.00    -0.354 N 
ATOM     65  N   UNL     1      -1.673  -0.838  -5.937  1.00  0.00    -0.248 NA
ATOM     66  C   UNL     1      -0.939  -1.241  -3.837  1.00  0.00     0.031 C 
ATOM     67  C   UNL     1       0.204   0.338  -9.293  1.00  0.00     0.029 A 
ATOM     68  C   UNL     1      -0.182  -0.864  -8.690  1.00  0.00     0.049 A 
ATOM     69  H   UNL     1      -1.080  -2.525  -9.685  1.00  0.00     0.167 HD
ATOM     70  C   UNL     1      -0.389  -1.306  -6.147  1.00  0.00     0.074 A 
ATOM     71  C   UNL     1       0.024  -1.514  -4.751  1.00  0.00     0.031 C 
ATOM     72  C   UNL     1       0.257  -1.493  -7.381  1.00  0.00     0.031 A 
BRANCH  59  73
ATOM     73  C   UNL     1      -1.584  -0.962 -13.598  1.00  0.00    -0.014 A 
ATOM     74  C   UNL     1      -0.632  -0.067 -14.113  1.00  0.00     0.010 A 
ATOM     75  C   UNL     1      -2.381  -1.635 -14.562  1.00  0.00     0.010 A 
ATOM     76  C   UNL     1      -0.560   0.223 -15.495  1.00  0.00     0.020 A 
ATOM     77  C   UNL     1      -2.366  -1.309 -15.928  1.00  0.00     0.020 A 
ATOM     78  C   UNL     1      -1.448  -0.376 -16.392  1.00  0.00     0.054 A 
BRANCH  78  79
ATOM     79  S   UNL     1      -1.387   0.052 -18.158  1.00  0.00     0.124 S 
ATOM     80  O   UNL     1      -1.464   1.511 -18.142  1.00  0.00    -0.237 OA
ATOM     81  O   UNL     1      -0.102  -0.506 -18.568  1.00  0.00    -0.237 OA
ATOM     82  O   UNL     1      -2.559  -0.616 -18.721  1.00  0.00    -0.744 OA
ENDBRANCH  78  79
ENDBRANCH  59  73
BRANCH  60  83
ATOM     83  C   UNL     1      -4.693  -0.460  -3.489  1.00  0.00    -0.014 A 
ATOM     84  C   UNL     1      -5.463   0.588  -2.912  1.00  0.00     0.010 A 
ATOM     85  C   UNL     1      -5.421  -1.653  -3.682  1.00  0.00     0.010 A 
ATOM     86  C   UNL     1      -6.844   0.540  -2.666  1.00  0.00     0.020 A 
ATOM     87  C   UNL     1      -6.838  -1.720  -3.453  1.00  0.00     0.020 A 
ATOM     88  C   UNL     1      -7.540  -0.615  -2.957  1.00  0.00     0.054 A 
BRANCH  88  89
ATOM     89  S   UNL     1      -9.352  -0.586  -2.740  1.00  0.00     0.124 S 
ATOM     90  O   UNL     1      -9.483  -0.744  -1.293  1.00  0.00    -0.237 OA
ATOM     91  O   UNL     1      -9.732   0.732  -3.253  1.00  0.00    -0.237 OA
ATOM     92  O   UNL     1      -9.812  -1.710  -3.539  1.00  0.00    -0.744 OA
ENDBRANCH  88  89
ENDBRANCH  60  83
BRANCH  72  93
ATOM     93  C   UNL     1       1.553  -2.304  -7.543  1.00  0.00    -0.014 A 
ATOM     94  C   UNL     1       2.063  -3.183  -6.582  1.00  0.00     0.010 A 
ATOM     95  C   UNL     1       2.216  -2.316  -8.805  1.00  0.00     0.010 A 
ATOM     96  C   UNL     1       3.177  -3.993  -6.845  1.00  0.00     0.020 A 
ATOM     97  C   UNL     1       3.285  -3.161  -9.102  1.00  0.00     0.020 A 
ATOM     98  C   UNL     1       3.773  -3.987  -8.106  1.00  0.00     0.054 A 
BRANCH  98  99
ATOM     99  S   UNL     1       5.133  -5.124  -8.448  1.00  0.00     0.124 S 
ATOM    100  O   UNL     1       6.259  -4.436  -7.824  1.00  0.00    -0.237 OA
ATOM    101  O   UNL     1       4.697  -6.349  -7.780  1.00  0.00    -0.237 OA
ATOM    102  O   UNL     1       5.169  -5.196  -9.906  1.00  0.00    -0.744 OA
ENDBRANCH  98  99
ENDBRANCH  72  93
ENDBRANCH  46  47
ENDBRANCH  39  41
ENDBRANCH  38  39
ENDBRANCH  37  38
ENDBRANCH  36  37
ENDBRANCH  35  36
ENDBRANCH  34  35
ENDBRANCH  33  34
ENDBRANCH  32  33
ENDBRANCH  31  32
ENDBRANCH   1  31
TORSDOF 30
