REMARK SMILES O=C(OCCOCCOCCOCCOC(=O)[C@]1(NC(=O)C2CCN(C(=O)C3CC3)CC2)CCCc2ccccc21)c1ccc(-c2c3nc(c(-c4ccc(S(=O)(=O)[O-])cc4)c4ccc([nH]4)c(-c4ccc(S(=O)(=O)[O-])cc4)c4nc(c(-c5ccc(S(=O)(=O)[O-])cc5)c5ccc2[nH]5)C=C4)C=C3)cc1
REMARK SMILES IDX 9 1 8 2 7 3 6 4 5 5 4 6 3 7 2 8 1 9 42 10 43 11 101 12 44 13
REMARK SMILES IDX 100 14 45 15 46 16 47 17 94 18 48 19 99 20 93 21 95 22 49 23
REMARK SMILES IDX 98 24 92 25 91 26 50 28 80 29 61 30 79 31 62 32 65 33 78 34
REMARK SMILES IDX 96 35 63 36 64 37 77 39 97 40 66 41 51 42 52 43 60 44 53 45
REMARK SMILES IDX 59 46 54 47 55 48 56 49 57 50 58 51 81 52 82 53 90 54 83 55
REMARK SMILES IDX 89 56 84 57 85 58 86 59 87 60 88 61 67 62 68 63 76 64 69 65
REMARK SMILES IDX 75 66 70 67 71 68 72 69 73 70 74 71 10 72 11 73 12 74 13 75
REMARK SMILES IDX 14 76 15 77 16 78 17 79 18 80 33 81 41 82 34 83 36 84 40 85
REMARK SMILES IDX 35 86 37 87 39 88 38 89 19 90 20 91 21 93 22 94 23 95 32 96
REMARK SMILES IDX 24 97 31 98 25 99 26 100 27 101 28 102 29 103 30 104
REMARK H PARENT 95 27 65 38 19 92
REMARK Flexibility Score: inf
ROOT
ATOM      1  O   UNL     1       3.187   2.747   2.053  1.00  0.00    -0.377 OA
ENDROOT
BRANCH   1   2
ATOM      2  C   UNL     1       2.498   1.518   2.057  1.00  0.00     0.188 C 
BRANCH   2   3
ATOM      3  C   UNL     1       2.811   0.614   0.883  1.00  0.00     0.188 C 
BRANCH   3   4
ATOM      4  O   UNL     1       4.209   0.363   0.790  1.00  0.00    -0.376 OA
BRANCH   4   5
ATOM      5  C   UNL     1       4.804   0.449  -0.508  1.00  0.00     0.202 C 
BRANCH   5   6
ATOM      6  C   UNL     1       4.434  -0.655  -1.510  1.00  0.00     0.261 C 
BRANCH   6   7
ATOM      7  O   UNL     1       3.080  -1.125  -1.405  1.00  0.00    -0.460 OA
BRANCH   7   8
ATOM      8  C   UNL     1       2.560  -2.091  -0.605  1.00  0.00     0.338 C 
ATOM      9  O   UNL     1       1.383  -2.416  -0.754  1.00  0.00    -0.246 OA
BRANCH   8  10
ATOM     10  C   UNL     1       3.293  -2.679   0.564  1.00  0.00     0.060 A 
ATOM     11  C   UNL     1       4.565  -2.287   0.963  1.00  0.00     0.016 A 
ATOM     12  C   UNL     1       2.616  -3.606   1.381  1.00  0.00     0.016 A 
ATOM     13  C   UNL     1       5.118  -2.673   2.152  1.00  0.00     0.010 A 
ATOM     14  C   UNL     1       3.214  -4.108   2.543  1.00  0.00     0.010 A 
ATOM     15  C   UNL     1       4.471  -3.630   2.913  1.00  0.00    -0.014 A 
BRANCH  15  16
ATOM     16  C   UNL     1       5.384  -4.278   3.852  1.00  0.00     0.031 A 
ATOM     17  C   UNL     1       6.180  -5.420   3.289  1.00  0.00     0.074 A 
ATOM     18  C   UNL     1       5.746  -3.590   4.950  1.00  0.00     0.049 A 
ATOM     19  N   UNL     1       7.155  -6.089   3.827  1.00  0.00    -0.248 NA
ATOM     20  C   UNL     1       5.876  -5.819   1.896  1.00  0.00     0.031 C 
ATOM     21  C   UNL     1       5.178  -2.296   5.358  1.00  0.00     0.029 A 
ATOM     22  N   UNL     1       6.725  -3.824   5.867  1.00  0.00    -0.354 N 
ATOM     23  C   UNL     1       7.561  -6.997   2.855  1.00  0.00     0.074 A 
ATOM     24  C   UNL     1       6.750  -6.787   1.684  1.00  0.00     0.031 C 
ATOM     25  C   UNL     1       5.825  -1.857   6.450  1.00  0.00     0.029 A 
ATOM     26  C   UNL     1       6.791  -2.869   6.853  1.00  0.00     0.049 A 
ATOM     27  H   UNL     1       7.328  -4.602   5.827  1.00  0.00     0.167 HD
ATOM     28  C   UNL     1       8.521  -7.939   2.962  1.00  0.00     0.031 A 
ATOM     29  C   UNL     1       7.521  -2.870   7.983  1.00  0.00     0.031 A 
ATOM     30  C   UNL     1       9.255  -8.119   4.180  1.00  0.00     0.049 A 
ATOM     31  C   UNL     1       8.439  -4.049   8.170  1.00  0.00     0.074 A 
ATOM     32  C   UNL     1      10.123  -9.129   4.537  1.00  0.00     0.029 A 
ATOM     33  N   UNL     1       9.183  -7.239   5.255  1.00  0.00    -0.354 N 
ATOM     34  N   UNL     1       8.707  -5.021   7.323  1.00  0.00    -0.248 NA
ATOM     35  C   UNL     1       9.137  -4.152   9.452  1.00  0.00     0.031 C 
ATOM     36  C   UNL     1      10.530  -8.886   5.855  1.00  0.00     0.029 A 
ATOM     37  C   UNL     1       9.974  -7.688   6.289  1.00  0.00     0.049 A 
ATOM     38  H   UNL     1       8.645  -6.414   5.274  1.00  0.00     0.167 HD
ATOM     39  C   UNL     1       9.609  -5.853   7.967  1.00  0.00     0.074 A 
ATOM     40  C   UNL     1       9.868  -5.241   9.261  1.00  0.00     0.031 C 
ATOM     41  C   UNL     1      10.169  -7.018   7.552  1.00  0.00     0.031 A 
BRANCH  28  42
ATOM     42  C   UNL     1       8.690  -8.879   1.802  1.00  0.00    -0.014 A 
ATOM     43  C   UNL     1       9.290  -8.471   0.596  1.00  0.00     0.010 A 
ATOM     44  C   UNL     1       8.172 -10.184   1.898  1.00  0.00     0.010 A 
ATOM     45  C   UNL     1       9.350  -9.343  -0.496  1.00  0.00     0.020 A 
ATOM     46  C   UNL     1       8.250 -11.066   0.816  1.00  0.00     0.020 A 
ATOM     47  C   UNL     1       8.830 -10.636  -0.379  1.00  0.00     0.054 A 
BRANCH  47  48
ATOM     48  S   UNL     1       8.951 -11.759  -1.799  1.00  0.00     0.124 S 
ATOM     49  O   UNL     1       7.996 -11.170  -2.735  1.00  0.00    -0.237 OA
ATOM     50  O   UNL     1      10.357 -11.639  -2.179  1.00  0.00    -0.237 OA
ATOM     51  O   UNL     1       8.566 -13.057  -1.251  1.00  0.00    -0.744 OA
ENDBRANCH  47  48
ENDBRANCH  28  42
BRANCH  29  52
ATOM     52  C   UNL     1       7.301  -1.840   9.040  1.00  0.00    -0.014 A 
ATOM     53  C   UNL     1       8.336  -1.013   9.507  1.00  0.00     0.010 A 
ATOM     54  C   UNL     1       6.023  -1.708   9.624  1.00  0.00     0.010 A 
ATOM     55  C   UNL     1       8.108  -0.107  10.553  1.00  0.00     0.020 A 
ATOM     56  C   UNL     1       5.781  -0.783  10.643  1.00  0.00     0.020 A 
ATOM     57  C   UNL     1       6.832  -0.002  11.118  1.00  0.00     0.054 A 
BRANCH  57  58
ATOM     58  S   UNL     1       6.557   1.167  12.479  1.00  0.00     0.124 S 
ATOM     59  O   UNL     1       7.260   0.519  13.582  1.00  0.00    -0.237 OA
ATOM     60  O   UNL     1       7.168   2.393  11.971  1.00  0.00    -0.237 OA
ATOM     61  O   UNL     1       5.102   1.210  12.605  1.00  0.00    -0.744 OA
ENDBRANCH  57  58
ENDBRANCH  29  52
BRANCH  41  62
ATOM     62  C   UNL     1      11.129  -7.661   8.505  1.00  0.00    -0.014 A 
ATOM     63  C   UNL     1      10.676  -8.286   9.678  1.00  0.00     0.010 A 
ATOM     64  C   UNL     1      12.498  -7.676   8.185  1.00  0.00     0.010 A 
ATOM     65  C   UNL     1      11.591  -8.876  10.547  1.00  0.00     0.020 A 
ATOM     66  C   UNL     1      13.409  -8.300   9.032  1.00  0.00     0.020 A 
ATOM     67  C   UNL     1      12.950  -8.877  10.218  1.00  0.00     0.054 A 
BRANCH  67  68
ATOM     68  S   UNL     1      14.116  -9.674  11.350  1.00  0.00     0.124 S 
ATOM     69  O   UNL     1      14.179  -8.710  12.444  1.00  0.00    -0.237 OA
ATOM     70  O   UNL     1      13.448 -10.936  11.659  1.00  0.00    -0.237 OA
ATOM     71  O   UNL     1      15.336  -9.800  10.556  1.00  0.00    -0.744 OA
ENDBRANCH  67  68
ENDBRANCH  41  62
ENDBRANCH  15  16
ENDBRANCH   8  10
ENDBRANCH   7   8
ENDBRANCH   6   7
ENDBRANCH   5   6
ENDBRANCH   4   5
ENDBRANCH   3   4
ENDBRANCH   2   3
ENDBRANCH   1   2
BRANCH   1  72
ATOM     72  C   UNL     1       4.605   2.794   2.069  1.00  0.00     0.188 C 
BRANCH  72  73
ATOM     73  C   UNL     1       5.307   2.480   3.380  1.00  0.00     0.188 C 
BRANCH  73  74
ATOM     74  O   UNL     1       4.952   3.347   4.456  1.00  0.00    -0.376 OA
BRANCH  74  75
ATOM     75  C   UNL     1       3.577   3.332   4.820  1.00  0.00     0.202 C 
BRANCH  75  76
ATOM     76  C   UNL     1       2.814   4.615   4.412  1.00  0.00     0.261 C 
BRANCH  76  77
ATOM     77  O   UNL     1       3.075   5.125   3.071  1.00  0.00    -0.461 OA
BRANCH  77  78
ATOM     78  C   UNL     1       4.234   5.825   2.976  1.00  0.00     0.336 C 
ATOM     79  O   UNL     1       4.904   6.090   3.977  1.00  0.00    -0.249 OA
BRANCH  78  80
ATOM     80  C   UNL     1       4.629   6.416   1.513  1.00  0.00     0.164 C 
ATOM     81  C   UNL     1       6.137   6.035   1.240  1.00  0.00     0.046 C 
ATOM     82  C   UNL     1       4.545   7.923   1.818  1.00  0.00    -0.008 A 
ATOM     83  C   UNL     1       7.145   6.534   2.260  1.00  0.00     0.008 C 
ATOM     84  C   UNL     1       5.639   8.626   2.359  1.00  0.00    -0.042 A 
ATOM     85  C   UNL     1       3.276   8.534   1.752  1.00  0.00     0.007 A 
ATOM     86  C   UNL     1       7.028   8.038   2.473  1.00  0.00     0.036 C 
ATOM     87  C   UNL     1       5.426   9.927   2.829  1.00  0.00     0.004 A 
ATOM     88  C   UNL     1       3.087   9.824   2.223  1.00  0.00     0.000 A 
ATOM     89  C   UNL     1       4.160  10.515   2.771  1.00  0.00     0.000 A 
BRANCH  80  90
ATOM     90  N   UNL     1       4.037   6.273   0.110  1.00  0.00    -0.336 N 
ATOM     91  C   UNL     1       2.904   5.883  -0.530  1.00  0.00     0.224 C 
ATOM     92  H   UNL     1       4.703   6.561  -0.555  1.00  0.00     0.164 HD
ATOM     93  O   UNL     1       2.568   6.512  -1.538  1.00  0.00    -0.275 OA
BRANCH  91  94
ATOM     94  C   UNL     1       2.263   4.560  -0.223  1.00  0.00     0.082 C 
ATOM     95  C   UNL     1       2.995   3.508  -1.082  1.00  0.00     0.035 C 
ATOM     96  C   UNL     1       0.731   4.547  -0.319  1.00  0.00     0.035 C 
ATOM     97  C   UNL     1       2.203   2.725  -2.133  1.00  0.00     0.120 C 
ATOM     98  C   UNL     1       0.167   3.861  -1.554  1.00  0.00     0.120 C 
ATOM     99  N   UNL     1       0.807   2.582  -1.769  1.00  0.00    -0.342 N 
ATOM    100  C   UNL     1       0.200   1.338  -1.960  1.00  0.00     0.225 C 
ATOM    101  O   UNL     1       0.734   0.482  -2.651  1.00  0.00    -0.275 OA
BRANCH 100 102
ATOM    102  C   UNL     1      -1.075   0.933  -1.290  1.00  0.00     0.079 C 
ATOM    103  C   UNL     1      -2.070   1.700  -0.470  1.00  0.00     0.014 C 
ATOM    104  C   UNL     1      -2.385   1.372  -1.902  1.00  0.00     0.014 C 
ENDBRANCH 100 102
ENDBRANCH  91  94
ENDBRANCH  80  90
ENDBRANCH  78  80
ENDBRANCH  77  78
ENDBRANCH  76  77
ENDBRANCH  75  76
ENDBRANCH  74  75
ENDBRANCH  73  74
ENDBRANCH  72  73
ENDBRANCH   1  72
TORSDOF 26
