REMARK SMILES Cc1c(C(=O)OCCOCCOCCOCCOC(=O)c2ccc(-c3c4nc(c(-c5ccc(S(=O)(=O)[O-])cc5)c5ccc([nH]5)c(-c5ccc(S(=O)(=O)[O-])cc5)c5nc(c(-c6ccc(S(=O)(=O)[O-])cc6)c6ccc3[nH]6)C=C5)C=C4)cc2)oc2c1/C(=N/NC(=O)C(c1ccccc1)c1ccccc1)CCC2
REMARK SMILES IDX 12 1 11 2 10 3 9 4 8 5 7 6 6 7 4 8 5 9 3 10 1 11 2 12 83 13
REMARK SMILES IDX 81 14 82 15 84 16 104 17 85 18 102 19 103 20 86 21 87 22
REMARK SMILES IDX 88 24 89 25 90 26 91 27 95 28 92 29 94 30 93 31 96 32 97 33
REMARK SMILES IDX 101 34 98 35 100 36 99 37 13 38 14 39 15 40 16 41 17 42
REMARK SMILES IDX 18 43 19 44 20 45 21 46 22 47 80 48 23 49 79 50 24 51 25 52
REMARK SMILES IDX 26 53 73 54 27 55 78 56 72 57 74 58 28 59 77 60 71 61 70 62
REMARK SMILES IDX 29 64 59 65 40 66 58 67 41 68 44 69 57 70 75 71 42 72 43 73
REMARK SMILES IDX 56 75 76 76 45 77 30 78 31 79 39 80 32 81 38 82 33 83 34 84
REMARK SMILES IDX 35 85 36 86 37 87 60 88 61 89 69 90 62 91 68 92 63 93 64 94
REMARK SMILES IDX 65 95 66 96 67 97 46 98 47 99 55 100 48 101 54 102 49 103
REMARK SMILES IDX 50 104 51 105 52 106 53 107
REMARK H PARENT 86 23 74 63 44 74
REMARK Flexibility Score: inf
ROOT
ATOM      1  O   UNL     1       4.536  -4.454  -0.258  1.00  0.00    -0.377 OA
ENDROOT
BRANCH   1   2
ATOM      2  C   UNL     1       3.588  -3.467   0.151  1.00  0.00     0.188 C 
BRANCH   2   3
ATOM      3  C   UNL     1       3.628  -2.839   1.562  1.00  0.00     0.188 C 
BRANCH   3   4
ATOM      4  O   UNL     1       3.888  -3.807   2.567  1.00  0.00    -0.376 OA
BRANCH   4   5
ATOM      5  C   UNL     1       3.058  -3.881   3.705  1.00  0.00     0.202 C 
BRANCH   5   6
ATOM      6  C   UNL     1       1.815  -4.722   3.438  1.00  0.00     0.261 C 
BRANCH   6   7
ATOM      7  O   UNL     1       0.947  -4.196   2.435  1.00  0.00    -0.457 OA
BRANCH   7   8
ATOM      8  C   UNL     1       0.574  -2.889   2.434  1.00  0.00     0.374 C 
ATOM      9  O   UNL     1       0.673  -2.117   3.383  1.00  0.00    -0.242 OA
BRANCH   8  10
ATOM     10  C   UNL     1       0.222  -2.566   1.074  1.00  0.00     0.215 A 
ATOM     11  C   UNL     1       0.647  -0.044   0.685  1.00  0.00     0.049 C 
ATOM     12  C   UNL     1       0.213  -1.408   0.286  1.00  0.00     0.012 A 
ATOM     13  C   UNL     1      -0.240  -1.838  -1.002  1.00  0.00     0.043 A 
ATOM     14  O   UNL     1      -0.038  -3.655   0.299  1.00  0.00    -0.453 OA
ATOM     15  C   UNL     1      -0.222  -3.220  -0.939  1.00  0.00     0.114 A 
ATOM     16  C   UNL     1      -0.698  -1.228  -2.250  1.00  0.00     0.072 C 
ATOM     17  C   UNL     1      -0.447  -4.251  -1.971  1.00  0.00     0.076 C 
ATOM     18  N   UNL     1      -0.681   0.060  -2.405  1.00  0.00    -0.177 NA
ATOM     19  C   UNL     1      -1.278  -2.262  -3.154  1.00  0.00     0.059 C 
ATOM     20  C   UNL     1      -0.502  -3.555  -3.315  1.00  0.00     0.014 C 
BRANCH  18  21
ATOM     21  N   UNL     1      -1.170   0.873  -3.413  1.00  0.00    -0.246 N 
ATOM     22  C   UNL     1      -2.024   0.906  -4.497  1.00  0.00     0.252 C 
ATOM     23  H   UNL     1      -0.753   1.760  -3.322  1.00  0.00     0.193 HD
ATOM     24  O   UNL     1      -2.178   2.041  -4.993  1.00  0.00    -0.272 OA
BRANCH  22  25
ATOM     25  C   UNL     1      -2.807  -0.276  -5.173  1.00  0.00     0.140 C 
BRANCH  25  26
ATOM     26  C   UNL     1      -1.784  -1.110  -6.032  1.00  0.00    -0.031 A 
ATOM     27  C   UNL     1      -2.008  -2.418  -6.491  1.00  0.00     0.005 A 
ATOM     28  C   UNL     1      -0.472  -0.599  -6.230  1.00  0.00     0.005 A 
ATOM     29  C   UNL     1      -0.931  -3.238  -6.881  1.00  0.00     0.000 A 
ATOM     30  C   UNL     1       0.596  -1.413  -6.614  1.00  0.00     0.000 A 
ATOM     31  C   UNL     1       0.373  -2.750  -6.896  1.00  0.00     0.000 A 
ENDBRANCH  25  26
BRANCH  25  32
ATOM     32  C   UNL     1      -3.784  -0.869  -4.103  1.00  0.00    -0.031 A 
ATOM     33  C   UNL     1      -4.199  -0.021  -3.045  1.00  0.00     0.005 A 
ATOM     34  C   UNL     1      -4.234  -2.196  -4.029  1.00  0.00     0.005 A 
ATOM     35  C   UNL     1      -4.762  -0.517  -1.866  1.00  0.00     0.000 A 
ATOM     36  C   UNL     1      -4.817  -2.698  -2.848  1.00  0.00     0.000 A 
ATOM     37  C   UNL     1      -5.024  -1.871  -1.748  1.00  0.00     0.000 A 
ENDBRANCH  25  32
ENDBRANCH  22  25
ENDBRANCH  18  21
ENDBRANCH   8  10
ENDBRANCH   7   8
ENDBRANCH   6   7
ENDBRANCH   5   6
ENDBRANCH   4   5
ENDBRANCH   3   4
ENDBRANCH   2   3
ENDBRANCH   1   2
BRANCH   1  38
ATOM     38  C   UNL     1       5.208  -5.206   0.743  1.00  0.00     0.188 C 
BRANCH  38  39
ATOM     39  C   UNL     1       6.366  -4.447   1.437  1.00  0.00     0.188 C 
BRANCH  39  40
ATOM     40  O   UNL     1       6.290  -3.031   1.356  1.00  0.00    -0.376 OA
BRANCH  40  41
ATOM     41  C   UNL     1       6.939  -2.248   0.370  1.00  0.00     0.202 C 
BRANCH  41  42
ATOM     42  C   UNL     1       6.951  -2.597  -1.115  1.00  0.00     0.261 C 
BRANCH  42  43
ATOM     43  O   UNL     1       6.903  -3.970  -1.409  1.00  0.00    -0.460 OA
BRANCH  43  44
ATOM     44  C   UNL     1       7.998  -4.663  -1.072  1.00  0.00     0.338 C 
ATOM     45  O   UNL     1       8.962  -4.267  -0.442  1.00  0.00    -0.246 OA
BRANCH  44  46
ATOM     46  C   UNL     1       7.878  -5.981  -1.696  1.00  0.00     0.060 A 
ATOM     47  C   UNL     1       8.919  -6.863  -1.423  1.00  0.00     0.016 A 
ATOM     48  C   UNL     1       7.041  -6.106  -2.819  1.00  0.00     0.016 A 
ATOM     49  C   UNL     1       9.340  -7.660  -2.453  1.00  0.00     0.010 A 
ATOM     50  C   UNL     1       7.481  -6.878  -3.857  1.00  0.00     0.010 A 
ATOM     51  C   UNL     1       8.685  -7.548  -3.685  1.00  0.00    -0.014 A 
BRANCH  51  52
ATOM     52  C   UNL     1       9.318  -8.171  -4.814  1.00  0.00     0.031 A 
ATOM     53  C   UNL     1       9.110  -9.622  -4.853  1.00  0.00     0.074 A 
ATOM     54  C   UNL     1       9.985  -7.473  -5.745  1.00  0.00     0.049 A 
ATOM     55  N   UNL     1       9.971 -10.539  -4.577  1.00  0.00    -0.248 NA
ATOM     56  C   UNL     1       7.730 -10.095  -5.027  1.00  0.00     0.031 C 
ATOM     57  C   UNL     1      10.004  -6.027  -5.974  1.00  0.00     0.029 A 
ATOM     58  N   UNL     1      10.709  -7.964  -6.779  1.00  0.00    -0.354 N 
ATOM     59  C   UNL     1       9.289 -11.732  -4.747  1.00  0.00     0.074 A 
ATOM     60  C   UNL     1       7.887 -11.399  -4.813  1.00  0.00     0.031 C 
ATOM     61  C   UNL     1      10.495  -5.792  -7.213  1.00  0.00     0.029 A 
ATOM     62  C   UNL     1      10.937  -7.052  -7.793  1.00  0.00     0.049 A 
ATOM     63  H   UNL     1      11.044  -8.889  -6.806  1.00  0.00     0.167 HD
ATOM     64  C   UNL     1       9.934 -12.877  -5.091  1.00  0.00     0.031 A 
ATOM     65  C   UNL     1      11.346  -7.361  -9.049  1.00  0.00     0.031 A 
ATOM     66  C   UNL     1      11.357 -12.783  -4.889  1.00  0.00     0.049 A 
ATOM     67  C   UNL     1      11.970  -8.713  -8.990  1.00  0.00     0.074 A 
ATOM     68  C   UNL     1      12.154 -12.519  -3.792  1.00  0.00     0.029 A 
ATOM     69  N   UNL     1      12.143 -12.549  -5.995  1.00  0.00    -0.354 N 
ATOM     70  N   UNL     1      13.080  -8.964  -8.351  1.00  0.00    -0.248 NA
ATOM     71  C   UNL     1      11.130  -9.877  -9.241  1.00  0.00     0.031 C 
ATOM     72  C   UNL     1      13.206 -11.696  -4.287  1.00  0.00     0.029 A 
ATOM     73  C   UNL     1      13.029 -11.552  -5.665  1.00  0.00     0.049 A 
ATOM     74  H   UNL     1      12.082 -13.011  -6.862  1.00  0.00     0.167 HD
ATOM     75  C   UNL     1      12.886 -10.205  -7.756  1.00  0.00     0.074 A 
ATOM     76  C   UNL     1      11.710 -10.761  -8.422  1.00  0.00     0.031 C 
ATOM     77  C   UNL     1      13.517 -10.547  -6.592  1.00  0.00     0.031 A 
BRANCH  64  78
ATOM     78  C   UNL     1       9.293 -13.913  -5.966  1.00  0.00    -0.014 A 
ATOM     79  C   UNL     1       9.918 -15.158  -6.136  1.00  0.00     0.010 A 
ATOM     80  C   UNL     1       8.210 -13.609  -6.822  1.00  0.00     0.010 A 
ATOM     81  C   UNL     1       9.497 -16.041  -7.138  1.00  0.00     0.020 A 
ATOM     82  C   UNL     1       7.749 -14.500  -7.785  1.00  0.00     0.020 A 
ATOM     83  C   UNL     1       8.419 -15.700  -7.959  1.00  0.00     0.054 A 
BRANCH  83  84
ATOM     84  S   UNL     1       7.937 -16.804  -9.306  1.00  0.00     0.124 S 
ATOM     85  O   UNL     1       9.077 -16.685 -10.210  1.00  0.00    -0.237 OA
ATOM     86  O   UNL     1       7.798 -18.086  -8.621  1.00  0.00    -0.237 OA
ATOM     87  O   UNL     1       6.687 -16.224  -9.792  1.00  0.00    -0.744 OA
ENDBRANCH  83  84
ENDBRANCH  64  78
BRANCH  65  88
ATOM     88  C   UNL     1      10.881  -6.726 -10.308  1.00  0.00    -0.014 A 
ATOM     89  C   UNL     1      11.499  -7.013 -11.537  1.00  0.00     0.010 A 
ATOM     90  C   UNL     1       9.654  -6.027 -10.342  1.00  0.00     0.010 A 
ATOM     91  C   UNL     1      10.885  -6.666 -12.753  1.00  0.00     0.020 A 
ATOM     92  C   UNL     1       9.043  -5.667 -11.546  1.00  0.00     0.020 A 
ATOM     93  C   UNL     1       9.650  -6.011 -12.749  1.00  0.00     0.054 A 
BRANCH  93  94
ATOM     94  S   UNL     1       8.778  -5.724 -14.316  1.00  0.00     0.124 S 
ATOM     95  O   UNL     1       9.588  -4.679 -14.935  1.00  0.00    -0.237 OA
ATOM     96  O   UNL     1       8.838  -7.035 -14.956  1.00  0.00    -0.237 OA
ATOM     97  O   UNL     1       7.442  -5.305 -13.895  1.00  0.00    -0.744 OA
ENDBRANCH  93  94
ENDBRANCH  65  88
BRANCH  77  98
ATOM     98  C   UNL     1      14.642  -9.665  -6.090  1.00  0.00    -0.014 A 
ATOM     99  C   UNL     1      14.486  -8.296  -5.791  1.00  0.00     0.010 A 
ATOM    100  C   UNL     1      15.861 -10.282  -5.757  1.00  0.00     0.010 A 
ATOM    101  C   UNL     1      15.529  -7.563  -5.205  1.00  0.00     0.020 A 
ATOM    102  C   UNL     1      16.897  -9.563  -5.154  1.00  0.00     0.020 A 
ATOM    103  C   UNL     1      16.730  -8.203  -4.889  1.00  0.00     0.054 A 
BRANCH 103 104
ATOM    104  S   UNL     1      18.059  -7.263  -4.085  1.00  0.00     0.124 S 
ATOM    105  O   UNL     1      18.499  -6.363  -5.148  1.00  0.00    -0.237 OA
ATOM    106  O   UNL     1      17.373  -6.625  -2.963  1.00  0.00    -0.237 OA
ATOM    107  O   UNL     1      19.029  -8.288  -3.703  1.00  0.00    -0.744 OA
ENDBRANCH 103 104
ENDBRANCH  77  98
ENDBRANCH  51  52
ENDBRANCH  44  46
ENDBRANCH  43  44
ENDBRANCH  42  43
ENDBRANCH  41  42
ENDBRANCH  40  41
ENDBRANCH  39  40
ENDBRANCH  38  39
ENDBRANCH   1  38
TORSDOF 27
