REMARK SMILES CCc1ccc(-c2cc(Cl)cc3c2O[C@@H](C(F)(F)F)C(C(=O)OCCOCCOCCOCCOC(=O)c2ccc(-c4c5nc(c(-c6ccc(S(=O)(=O)[O-])cc6)c6ccc([nH]6)c(-c6ccc(S(=O)(=O)[O-])cc6)c6nc(c(-c7ccc(S(=O)(=O)[O-])cc7)c7ccc4[nH]7)C=C6)C=C5)cc2)=C3)cc1
REMARK SMILES IDX 30 1 29 2 28 3 27 4 26 5 25 6 24 7 23 8 21 9 22 10 20 11
REMARK SMILES IDX 7 12 8 13 13 14 9 15 12 16 14 17 10 18 11 19 98 20 15 21
REMARK SMILES IDX 6 22 3 23 4 24 100 25 5 26 99 27 2 28 1 29 16 30 17 31 18 32
REMARK SMILES IDX 19 33 31 34 32 35 33 36 34 37 35 38 36 39 37 40 38 41 39 42
REMARK SMILES IDX 97 43 40 44 96 45 41 46 42 47 43 48 90 49 44 50 95 51 89 52
REMARK SMILES IDX 91 53 45 54 94 55 88 56 87 57 46 59 76 60 57 61 75 62 58 63
REMARK SMILES IDX 61 64 74 65 92 66 59 67 60 68 73 70 93 71 62 72 47 73 48 74
REMARK SMILES IDX 56 75 49 76 55 77 50 78 51 79 52 80 53 81 54 82 77 83 78 84
REMARK SMILES IDX 86 85 79 86 85 87 80 88 81 89 82 90 83 91 84 92 63 93 64 94
REMARK SMILES IDX 72 95 65 96 71 97 66 98 67 99 68 100 69 101 70 102
REMARK H PARENT 91 58 61 69
REMARK Flexibility Score: inf
ROOT
ATOM      1  C   UNL     1       4.419  11.414   7.637  1.00  0.00     0.188 C 
ENDROOT
BRANCH   1   2
ATOM      2  O   UNL     1       3.289  11.374   6.770  1.00  0.00    -0.377 OA
BRANCH   2   3
ATOM      3  C   UNL     1       2.833  10.105   6.348  1.00  0.00     0.188 C 
BRANCH   3   4
ATOM      4  C   UNL     1       3.623   9.552   5.155  1.00  0.00     0.188 C 
BRANCH   4   5
ATOM      5  O   UNL     1       4.809  10.279   4.853  1.00  0.00    -0.376 OA
BRANCH   5   6
ATOM      6  C   UNL     1       4.732  11.317   3.877  1.00  0.00     0.202 C 
BRANCH   6   7
ATOM      7  C   UNL     1       3.562  12.308   3.958  1.00  0.00     0.261 C 
BRANCH   7   8
ATOM      8  O   UNL     1       2.305  11.641   3.703  1.00  0.00    -0.460 OA
BRANCH   8   9
ATOM      9  C   UNL     1       1.962  11.516   2.412  1.00  0.00     0.338 C 
ATOM     10  O   UNL     1       2.555  12.041   1.478  1.00  0.00    -0.246 OA
BRANCH   9  11
ATOM     11  C   UNL     1       0.883  10.517   2.199  1.00  0.00     0.087 C 
ATOM     12  C   UNL     1       1.900   6.611   3.173  1.00  0.00     0.026 A 
ATOM     13  C   UNL     1       3.306   6.528   3.045  1.00  0.00     0.033 A 
ATOM     14  C   UNL     1       1.325   7.837   2.777  1.00  0.00     0.135 A 
ATOM     15  C   UNL     1       4.009   7.434   2.252  1.00  0.00     0.042 A 
ATOM     16  C   UNL     1       1.974   8.599   1.793  1.00  0.00     0.019 A 
ATOM     17  O   UNL     1       0.338   8.445   3.555  1.00  0.00    -0.475 OA
ATOM     18  Cl  UNL     1       5.711   7.279   2.088  1.00  0.00    -0.084 Cl
ATOM     19  C   UNL     1       3.327   8.407   1.535  1.00  0.00     0.032 A 
ATOM     20  C   UNL     1       1.228   9.716   1.175  1.00  0.00     0.027 C 
ATOM     21  C   UNL     1      -0.029   9.860   3.220  1.00  0.00     0.316 C 
BRANCH  12  22
ATOM     22  C   UNL     1       1.206   5.278   3.051  1.00  0.00    -0.015 A 
ATOM     23  C   UNL     1       0.579   2.607   2.186  1.00  0.00    -0.048 A 
ATOM     24  C   UNL     1       1.358   2.834   3.325  1.00  0.00     0.004 A 
ATOM     25  C   UNL     1       0.048   3.721   1.529  1.00  0.00     0.004 A 
ATOM     26  C   UNL     1       1.652   4.143   3.758  1.00  0.00     0.009 A 
ATOM     27  C   UNL     1       0.351   5.029   1.957  1.00  0.00     0.009 A 
BRANCH  23  28
ATOM     28  C   UNL     1       0.321   1.202   1.687  1.00  0.00     0.032 C 
ATOM     29  C   UNL     1       0.990   0.871   0.355  1.00  0.00     0.009 C 
ENDBRANCH  23  28
ENDBRANCH  12  22
BRANCH  21  30
ATOM     30  C   UNL     1      -0.549  10.720   4.402  1.00  0.00     0.430 C 
ATOM     31  F   UNL     1      -1.461  11.617   3.937  1.00  0.00    -0.167 F 
ATOM     32  F   UNL     1      -1.198   9.957   5.315  1.00  0.00    -0.167 F 
ATOM     33  F   UNL     1       0.370  11.432   5.068  1.00  0.00    -0.167 F 
ENDBRANCH  21  30
ENDBRANCH   9  11
ENDBRANCH   8   9
ENDBRANCH   7   8
ENDBRANCH   6   7
ENDBRANCH   5   6
ENDBRANCH   4   5
ENDBRANCH   3   4
ENDBRANCH   2   3
ENDBRANCH   1   2
BRANCH   1  34
ATOM     34  C   UNL     1       5.439  10.254   7.691  1.00  0.00     0.188 C 
BRANCH  34  35
ATOM     35  O   UNL     1       4.860   8.950   7.728  1.00  0.00    -0.376 OA
BRANCH  35  36
ATOM     36  C   UNL     1       4.894   8.261   8.970  1.00  0.00     0.202 C 
BRANCH  36  37
ATOM     37  C   UNL     1       3.821   8.713   9.970  1.00  0.00     0.261 C 
BRANCH  37  38
ATOM     38  O   UNL     1       3.935  10.078  10.398  1.00  0.00    -0.460 OA
BRANCH  38  39
ATOM     39  C   UNL     1       5.085  10.426  11.015  1.00  0.00     0.338 C 
ATOM     40  O   UNL     1       6.005   9.687  11.323  1.00  0.00    -0.246 OA
BRANCH  39  41
ATOM     41  C   UNL     1       5.144  11.899  11.074  1.00  0.00     0.060 A 
ATOM     42  C   UNL     1       6.282  12.541  10.569  1.00  0.00     0.016 A 
ATOM     43  C   UNL     1       4.086  12.639  11.609  1.00  0.00     0.016 A 
ATOM     44  C   UNL     1       6.389  13.928  10.655  1.00  0.00     0.010 A 
ATOM     45  C   UNL     1       4.201  14.026  11.709  1.00  0.00     0.010 A 
ATOM     46  C   UNL     1       5.374  14.668  11.276  1.00  0.00    -0.014 A 
BRANCH  46  47
ATOM     47  C   UNL     1       5.658  16.059  11.698  1.00  0.00     0.031 A 
ATOM     48  C   UNL     1       6.184  16.276  13.091  1.00  0.00     0.074 A 
ATOM     49  C   UNL     1       5.502  17.099  10.861  1.00  0.00     0.049 A 
ATOM     50  N   UNL     1       6.567  17.383  13.672  1.00  0.00    -0.248 NA
ATOM     51  C   UNL     1       6.295  15.078  13.941  1.00  0.00     0.031 C 
ATOM     52  C   UNL     1       5.038  17.013   9.478  1.00  0.00     0.029 A 
ATOM     53  N   UNL     1       5.733  18.436  11.060  1.00  0.00    -0.354 N 
ATOM     54  C   UNL     1       6.968  17.014  14.951  1.00  0.00     0.074 A 
ATOM     55  C   UNL     1       6.743  15.591  15.075  1.00  0.00     0.031 C 
ATOM     56  C   UNL     1       5.027  18.249   8.947  1.00  0.00     0.029 A 
ATOM     57  C   UNL     1       5.463  19.212   9.959  1.00  0.00     0.049 A 
ATOM     58  H   UNL     1       6.061  18.805  11.912  1.00  0.00     0.167 HD
ATOM     59  C   UNL     1       7.488  17.785  15.935  1.00  0.00     0.031 A 
ATOM     60  C   UNL     1       5.560  20.546   9.790  1.00  0.00     0.031 A 
ATOM     61  C   UNL     1       7.675  19.206  15.826  1.00  0.00     0.049 A 
ATOM     62  C   UNL     1       6.066  21.400  10.924  1.00  0.00     0.074 A 
ATOM     63  C   UNL     1       8.191  20.082  16.764  1.00  0.00     0.029 A 
ATOM     64  N   UNL     1       7.336  19.962  14.714  1.00  0.00    -0.354 N 
ATOM     65  N   UNL     1       6.471  21.035  12.118  1.00  0.00    -0.248 NA
ATOM     66  C   UNL     1       6.141  22.847  10.679  1.00  0.00     0.031 C 
ATOM     67  C   UNL     1       8.112  21.377  16.239  1.00  0.00     0.029 A 
ATOM     68  C   UNL     1       7.607  21.299  14.950  1.00  0.00     0.049 A 
ATOM     69  H   UNL     1       6.958  19.601  13.880  1.00  0.00     0.167 HD
ATOM     70  C   UNL     1       6.882  22.203  12.754  1.00  0.00     0.074 A 
ATOM     71  C   UNL     1       6.681  23.283  11.809  1.00  0.00     0.031 C 
ATOM     72  C   UNL     1       7.391  22.365  14.002  1.00  0.00     0.031 A 
BRANCH  59  73
ATOM     73  C   UNL     1       7.837  17.094  17.227  1.00  0.00    -0.014 A 
ATOM     74  C   UNL     1       8.912  16.189  17.303  1.00  0.00     0.010 A 
ATOM     75  C   UNL     1       7.055  17.327  18.372  1.00  0.00     0.010 A 
ATOM     76  C   UNL     1       9.158  15.482  18.483  1.00  0.00     0.020 A 
ATOM     77  C   UNL     1       7.317  16.645  19.563  1.00  0.00     0.020 A 
ATOM     78  C   UNL     1       8.350  15.706  19.602  1.00  0.00     0.054 A 
BRANCH  78  79
ATOM     79  S   UNL     1       8.670  14.755  21.113  1.00  0.00     0.124 S 
ATOM     80  O   UNL     1       8.143  13.440  20.757  1.00  0.00    -0.237 OA
ATOM     81  O   UNL     1      10.123  14.835  21.243  1.00  0.00    -0.237 OA
ATOM     82  O   UNL     1       7.915  15.471  22.139  1.00  0.00    -0.744 OA
ENDBRANCH  78  79
ENDBRANCH  59  73
BRANCH  60  83
ATOM     83  C   UNL     1       5.191  21.153   8.482  1.00  0.00    -0.014 A 
ATOM     84  C   UNL     1       6.182  21.669   7.630  1.00  0.00     0.010 A 
ATOM     85  C   UNL     1       3.845  21.199   8.073  1.00  0.00     0.010 A 
ATOM     86  C   UNL     1       5.836  22.220   6.392  1.00  0.00     0.020 A 
ATOM     87  C   UNL     1       3.498  21.728   6.827  1.00  0.00     0.020 A 
ATOM     88  C   UNL     1       4.496  22.240   5.996  1.00  0.00     0.054 A 
BRANCH  88  89
ATOM     89  S   UNL     1       4.080  22.889   4.352  1.00  0.00     0.124 S 
ATOM     90  O   UNL     1       4.282  24.323   4.531  1.00  0.00    -0.237 OA
ATOM     91  O   UNL     1       5.051  22.215   3.494  1.00  0.00    -0.237 OA
ATOM     92  O   UNL     1       2.694  22.470   4.159  1.00  0.00    -0.744 OA
ENDBRANCH  88  89
ENDBRANCH  60  83
BRANCH  72  93
ATOM     93  C   UNL     1       7.805  23.757  14.407  1.00  0.00    -0.014 A 
ATOM     94  C   UNL     1       6.855  24.761  14.665  1.00  0.00     0.010 A 
ATOM     95  C   UNL     1       9.172  24.050  14.569  1.00  0.00     0.010 A 
ATOM     96  C   UNL     1       7.268  26.045  15.034  1.00  0.00     0.020 A 
ATOM     97  C   UNL     1       9.587  25.323  14.967  1.00  0.00     0.020 A 
ATOM     98  C   UNL     1       8.632  26.319  15.178  1.00  0.00     0.054 A 
BRANCH  98  99
ATOM     99  S   UNL     1       9.144  27.987  15.677  1.00  0.00     0.124 S 
ATOM    100  O   UNL     1       8.941  28.747  14.447  1.00  0.00    -0.237 OA
ATOM    101  O   UNL     1       8.220  28.295  16.766  1.00  0.00    -0.237 OA
ATOM    102  O   UNL     1      10.538  27.815  16.081  1.00  0.00    -0.744 OA
ENDBRANCH  98  99
ENDBRANCH  72  93
ENDBRANCH  46  47
ENDBRANCH  39  41
ENDBRANCH  38  39
ENDBRANCH  37  38
ENDBRANCH  36  37
ENDBRANCH  35  36
ENDBRANCH  34  35
ENDBRANCH   1  34
TORSDOF 26
