REMARK SMILES COC(=O)c1ccc([C@H]2CC(=O)Nc3c(C(=O)OCCOCCOCCOCCOC(=O)c4ccc(-c5c6nc(c(-c7ccc(S(=O)(=O)[O-])cc7)c7ccc([nH]7)c(-c7ccc(S(=O)(=O)[O-])cc7)c7nc(c(-c8ccc(S(=O)(=O)[O-])cc8)c8ccc5[nH]8)C=C7)C=C6)cc4)cn(-c4ccccc4)c32)cc1
REMARK SMILES IDX 24 1 23 2 22 3 21 4 20 5 19 6 18 7 16 8 17 9 15 10 9 11
REMARK SMILES IDX 10 12 101 13 11 14 14 15 94 16 12 17 13 18 93 19 8 21 5 22
REMARK SMILES IDX 6 23 103 24 7 25 102 26 3 27 4 28 2 29 1 30 95 31 96 32
REMARK SMILES IDX 100 33 97 34 99 35 98 36 25 37 26 38 27 39 28 40 29 41 30 42
REMARK SMILES IDX 31 43 32 44 33 45 34 46 92 47 35 48 91 49 36 50 37 51 38 52
REMARK SMILES IDX 85 53 39 54 90 55 84 56 86 57 40 58 89 59 83 60 82 61 41 63
REMARK SMILES IDX 71 64 52 65 70 66 53 67 56 68 69 69 87 70 54 71 55 72 68 74
REMARK SMILES IDX 88 75 57 76 42 77 43 78 51 79 44 80 50 81 45 82 46 83 47 84
REMARK SMILES IDX 48 85 49 86 72 87 73 88 81 89 74 90 80 91 75 92 76 93 77 94
REMARK SMILES IDX 78 95 79 96 58 97 59 98 67 99 60 100 66 101 61 102 62 103
REMARK SMILES IDX 63 104 64 105 65 106
REMARK H PARENT 13 20 86 62 56 73
REMARK Flexibility Score: inf
ROOT
ATOM      1  O   UNL     1      -6.270  -7.806  -6.517  1.00  0.00    -0.377 OA
ENDROOT
BRANCH   1   2
ATOM      2  C   UNL     1      -4.965  -8.355  -6.505  1.00  0.00     0.188 C 
BRANCH   2   3
ATOM      3  C   UNL     1      -4.677  -9.253  -5.280  1.00  0.00     0.188 C 
BRANCH   3   4
ATOM      4  O   UNL     1      -5.699  -9.652  -4.377  1.00  0.00    -0.376 OA
BRANCH   4   5
ATOM      5  C   UNL     1      -6.741  -8.795  -3.946  1.00  0.00     0.202 C 
BRANCH   5   6
ATOM      6  C   UNL     1      -6.536  -7.321  -3.552  1.00  0.00     0.261 C 
BRANCH   6   7
ATOM      7  O   UNL     1      -5.404  -6.643  -4.088  1.00  0.00    -0.460 OA
BRANCH   7   8
ATOM      8  C   UNL     1      -4.240  -6.825  -3.405  1.00  0.00     0.341 C 
ATOM      9  O   UNL     1      -4.135  -7.416  -2.345  1.00  0.00    -0.246 OA
BRANCH   8  10
ATOM     10  C   UNL     1      -3.102  -6.345  -4.177  1.00  0.00     0.102 A 
ATOM     11  C   UNL     1      -1.233  -4.158  -6.540  1.00  0.00     0.078 C 
ATOM     12  C   UNL     1      -2.431  -3.446  -7.193  1.00  0.00     0.115 C 
ATOM     13  C   UNL     1      -1.716  -5.205  -5.569  1.00  0.00     0.055 A 
ATOM     14  C   UNL     1      -3.669  -3.313  -6.323  1.00  0.00     0.225 C 
ATOM     15  C   UNL     1      -2.999  -5.258  -5.075  1.00  0.00     0.078 A 
ATOM     16  N   UNL     1      -0.999  -6.230  -4.977  1.00  0.00    -0.317 N 
ATOM     17  O   UNL     1      -4.469  -2.391  -6.478  1.00  0.00    -0.275 OA
ATOM     18  N   UNL     1      -3.932  -4.316  -5.428  1.00  0.00    -0.324 N 
ATOM     19  C   UNL     1      -1.867  -6.976  -4.212  1.00  0.00     0.109 A 
ATOM     20  H   UNL     1      -4.827  -4.363  -5.022  1.00  0.00     0.170 HD
BRANCH  11  21
ATOM     21  C   UNL     1      -0.282  -4.622  -7.644  1.00  0.00    -0.038 A 
ATOM     22  C   UNL     1       1.631  -5.454  -9.548  1.00  0.00     0.060 A 
ATOM     23  C   UNL     1       1.622  -4.133  -9.089  1.00  0.00     0.016 A 
ATOM     24  C   UNL     1       0.642  -6.338  -9.105  1.00  0.00     0.016 A 
ATOM     25  C   UNL     1       0.674  -3.722  -8.146  1.00  0.00     0.005 A 
ATOM     26  C   UNL     1      -0.326  -5.914  -8.189  1.00  0.00     0.005 A 
BRANCH  22  27
ATOM     27  C   UNL     1       2.720  -5.882 -10.468  1.00  0.00     0.337 C 
ATOM     28  O   UNL     1       3.735  -5.240 -10.661  1.00  0.00    -0.246 OA
BRANCH  27  29
ATOM     29  O   UNL     1       2.408  -7.078 -11.031  1.00  0.00    -0.465 OA
ATOM     30  C   UNL     1       3.382  -7.572 -11.950  1.00  0.00     0.282 C 
ENDBRANCH  27  29
ENDBRANCH  22  27
ENDBRANCH  11  21
BRANCH  16  31
ATOM     31  C   UNL     1       0.380  -6.496  -5.093  1.00  0.00     0.045 A 
ATOM     32  C   UNL     1       1.292  -5.478  -4.809  1.00  0.00     0.026 A 
ATOM     33  C   UNL     1       0.810  -7.743  -5.562  1.00  0.00     0.026 A 
ATOM     34  C   UNL     1       2.648  -5.695  -5.034  1.00  0.00     0.002 A 
ATOM     35  C   UNL     1       2.166  -7.933  -5.827  1.00  0.00     0.002 A 
ATOM     36  C   UNL     1       3.081  -6.911  -5.565  1.00  0.00     0.000 A 
ENDBRANCH  16  31
ENDBRANCH   8  10
ENDBRANCH   7   8
ENDBRANCH   6   7
ENDBRANCH   5   6
ENDBRANCH   4   5
ENDBRANCH   3   4
ENDBRANCH   2   3
ENDBRANCH   1   2
BRANCH   1  37
ATOM     37  C   UNL     1      -7.248  -8.527  -7.266  1.00  0.00     0.188 C 
BRANCH  37  38
ATOM     38  C   UNL     1      -7.290 -10.076  -7.161  1.00  0.00     0.188 C 
BRANCH  38  39
ATOM     39  O   UNL     1      -6.015 -10.699  -7.084  1.00  0.00    -0.376 OA
BRANCH  39  40
ATOM     40  C   UNL     1      -5.464 -11.468  -8.137  1.00  0.00     0.202 C 
BRANCH  40  41
ATOM     41  C   UNL     1      -5.078 -10.741  -9.420  1.00  0.00     0.261 C 
BRANCH  41  42
ATOM     42  O   UNL     1      -5.999  -9.738  -9.785  1.00  0.00    -0.460 OA
BRANCH  42  43
ATOM     43  C   UNL     1      -7.193 -10.208 -10.204  1.00  0.00     0.338 C 
ATOM     44  O   UNL     1      -7.593 -11.348 -10.151  1.00  0.00    -0.246 OA
BRANCH  43  45
ATOM     45  C   UNL     1      -7.896  -9.094 -10.848  1.00  0.00     0.060 A 
ATOM     46  C   UNL     1      -9.152  -9.403 -11.363  1.00  0.00     0.016 A 
ATOM     47  C   UNL     1      -7.132  -8.003 -11.294  1.00  0.00     0.016 A 
ATOM     48  C   UNL     1      -9.481  -8.840 -12.568  1.00  0.00     0.010 A 
ATOM     49  C   UNL     1      -7.448  -7.464 -12.506  1.00  0.00     0.010 A 
ATOM     50  C   UNL     1      -8.550  -7.988 -13.170  1.00  0.00    -0.014 A 
BRANCH  50  51
ATOM     51  C   UNL     1      -8.768  -7.617 -14.541  1.00  0.00     0.031 A 
ATOM     52  C   UNL     1      -9.772  -6.550 -14.660  1.00  0.00     0.074 A 
ATOM     53  C   UNL     1      -8.056  -8.151 -15.548  1.00  0.00     0.049 A 
ATOM     54  N   UNL     1     -11.004  -6.685 -15.015  1.00  0.00    -0.248 NA
ATOM     55  C   UNL     1      -9.444  -5.241 -14.073  1.00  0.00     0.031 C 
ATOM     56  C   UNL     1      -6.860  -8.996 -15.487  1.00  0.00     0.029 A 
ATOM     57  N   UNL     1      -8.207  -7.939 -16.876  1.00  0.00    -0.354 N 
ATOM     58  C   UNL     1     -11.540  -5.411 -14.929  1.00  0.00     0.074 A 
ATOM     59  C   UNL     1     -10.634  -4.643 -14.115  1.00  0.00     0.031 C 
ATOM     60  C   UNL     1      -6.259  -8.995 -16.703  1.00  0.00     0.029 A 
ATOM     61  C   UNL     1      -7.099  -8.268 -17.642  1.00  0.00     0.049 A 
ATOM     62  H   UNL     1      -9.036  -7.580 -17.266  1.00  0.00     0.167 HD
ATOM     63  C   UNL     1     -12.513  -4.999 -15.784  1.00  0.00     0.031 A 
ATOM     64  C   UNL     1      -6.876  -7.869 -18.922  1.00  0.00     0.031 A 
ATOM     65  C   UNL     1     -13.095  -6.106 -16.500  1.00  0.00     0.049 A 
ATOM     66  C   UNL     1      -8.192  -7.448 -19.480  1.00  0.00     0.074 A 
ATOM     67  C   UNL     1     -13.776  -7.247 -16.127  1.00  0.00     0.029 A 
ATOM     68  N   UNL     1     -12.629  -6.332 -17.776  1.00  0.00    -0.354 N 
ATOM     69  N   UNL     1      -9.179  -8.277 -19.682  1.00  0.00    -0.248 NA
ATOM     70  C   UNL     1      -8.580  -6.050 -19.336  1.00  0.00     0.031 C 
ATOM     71  C   UNL     1     -13.302  -8.263 -17.006  1.00  0.00     0.029 A 
ATOM     72  C   UNL     1     -12.415  -7.680 -17.914  1.00  0.00     0.049 A 
ATOM     73  H   UNL     1     -12.477  -5.647 -18.467  1.00  0.00     0.167 HD
ATOM     74  C   UNL     1     -10.316  -7.595 -19.264  1.00  0.00     0.074 A 
ATOM     75  C   UNL     1      -9.896  -6.199 -19.145  1.00  0.00     0.031 C 
ATOM     76  C   UNL     1     -11.403  -8.262 -18.773  1.00  0.00     0.031 A 
BRANCH  63  77
ATOM     77  C   UNL     1     -12.612  -3.582 -16.279  1.00  0.00    -0.014 A 
ATOM     78  C   UNL     1     -13.703  -3.229 -17.092  1.00  0.00     0.010 A 
ATOM     79  C   UNL     1     -11.543  -2.664 -16.200  1.00  0.00     0.010 A 
ATOM     80  C   UNL     1     -13.691  -2.046 -17.839  1.00  0.00     0.020 A 
ATOM     81  C   UNL     1     -11.541  -1.462 -16.900  1.00  0.00     0.020 A 
ATOM     82  C   UNL     1     -12.602  -1.177 -17.745  1.00  0.00     0.054 A 
BRANCH  82  83
ATOM     83  S   UNL     1     -12.549   0.296 -18.790  1.00  0.00     0.124 S 
ATOM     84  O   UNL     1     -12.444  -0.289 -20.123  1.00  0.00    -0.237 OA
ATOM     85  O   UNL     1     -13.821   0.941 -18.475  1.00  0.00    -0.237 OA
ATOM     86  O   UNL     1     -11.362   1.006 -18.320  1.00  0.00    -0.744 OA
ENDBRANCH  82  83
ENDBRANCH  63  77
BRANCH  64  87
ATOM     87  C   UNL     1      -5.578  -7.468 -19.529  1.00  0.00    -0.014 A 
ATOM     88  C   UNL     1      -5.450  -7.274 -20.918  1.00  0.00     0.010 A 
ATOM     89  C   UNL     1      -4.529  -7.004 -18.708  1.00  0.00     0.010 A 
ATOM     90  C   UNL     1      -4.344  -6.588 -21.456  1.00  0.00     0.020 A 
ATOM     91  C   UNL     1      -3.423  -6.326 -19.237  1.00  0.00     0.020 A 
ATOM     92  C   UNL     1      -3.347  -6.100 -20.608  1.00  0.00     0.054 A 
BRANCH  92  93
ATOM     93  S   UNL     1      -2.016  -5.061 -21.285  1.00  0.00     0.124 S 
ATOM     94  O   UNL     1      -1.228  -6.024 -22.049  1.00  0.00    -0.237 OA
ATOM     95  O   UNL     1      -2.751  -4.077 -22.074  1.00  0.00    -0.237 OA
ATOM     96  O   UNL     1      -1.357  -4.527 -20.094  1.00  0.00    -0.744 OA
ENDBRANCH  92  93
ENDBRANCH  64  87
BRANCH  76  97
ATOM     97  C   UNL     1     -11.464  -9.764 -18.943  1.00  0.00    -0.014 A 
ATOM     98  C   UNL     1     -10.546 -10.662 -18.364  1.00  0.00     0.010 A 
ATOM     99  C   UNL     1     -12.604 -10.288 -19.578  1.00  0.00     0.010 A 
ATOM    100  C   UNL     1     -10.756 -12.049 -18.440  1.00  0.00     0.020 A 
ATOM    101  C   UNL     1     -12.827 -11.664 -19.642  1.00  0.00     0.020 A 
ATOM    102  C   UNL     1     -11.899 -12.540 -19.080  1.00  0.00     0.054 A 
BRANCH 102 103
ATOM    103  S   UNL     1     -12.195 -14.330 -19.140  1.00  0.00     0.124 S 
ATOM    104  O   UNL     1     -11.142 -14.796 -20.038  1.00  0.00    -0.237 OA
ATOM    105  O   UNL     1     -12.054 -14.730 -17.742  1.00  0.00    -0.237 OA
ATOM    106  O   UNL     1     -13.554 -14.440 -19.672  1.00  0.00    -0.744 OA
ENDBRANCH 102 103
ENDBRANCH  76  97
ENDBRANCH  50  51
ENDBRANCH  43  45
ENDBRANCH  42  43
ENDBRANCH  41  42
ENDBRANCH  40  41
ENDBRANCH  39  40
ENDBRANCH  38  39
ENDBRANCH  37  38
ENDBRANCH   1  37
TORSDOF 27
