REMARK SMILES CS(=O)(=O)c1ccc(/C=C(/C(=O)OCCOCCOCCOCCOC(=O)c2ccc(-c3c4nc(c(-c5ccc(S(=O)(=O)[O-])cc5)c5ccc([nH]5)c(-c5ccc(S(=O)(=O)[O-])cc5)c5nc(c(-c6ccc(S(=O)(=O)[O-])cc6)c6ccc3[nH]6)C=C5)C=C4)cc2)c2ccc(-c3ccc(S(C)(=O)=O)cc3)cc2)cc1
REMARK SMILES IDX 19 1 18 2 17 3 16 4 15 5 14 6 13 7 11 8 12 9 10 10 9 11 8 12
REMARK SMILES IDX 5 13 6 14 105 15 7 16 104 17 2 18 1 19 3 20 4 21 88 22 89 23
REMARK SMILES IDX 103 24 90 25 102 26 91 27 92 28 93 29 101 30 94 31 100 32
REMARK SMILES IDX 95 33 96 34 97 35 98 36 99 37 20 38 21 39 22 40 23 41 24 42
REMARK SMILES IDX 25 43 26 44 27 45 28 46 29 47 87 48 30 49 86 50 31 51 32 52
REMARK SMILES IDX 33 53 80 54 34 55 85 56 79 57 81 58 35 59 84 60 78 61 77 62
REMARK SMILES IDX 36 64 66 65 47 66 65 67 48 68 51 69 64 70 82 71 49 72 50 73
REMARK SMILES IDX 63 75 83 76 52 77 37 78 38 79 46 80 39 81 45 82 40 83 41 84
REMARK SMILES IDX 42 85 43 86 44 87 67 88 68 89 76 90 69 91 75 92 70 93 71 94
REMARK SMILES IDX 72 95 73 96 74 97 53 98 54 99 62 100 55 101 61 102 56 103
REMARK SMILES IDX 57 104 58 105 59 106 60 107
REMARK H PARENT 81 63 51 74
REMARK Flexibility Score: inf
ROOT
ATOM      1  O   UNL     1       4.513   6.683  -6.258  1.00  0.00    -0.377 OA
ENDROOT
BRANCH   1   2
ATOM      2  C   UNL     1       4.901   5.413  -6.751  1.00  0.00     0.188 C 
BRANCH   2   3
ATOM      3  C   UNL     1       4.982   5.169  -8.277  1.00  0.00     0.188 C 
BRANCH   3   4
ATOM      4  O   UNL     1       4.685   6.309  -9.062  1.00  0.00    -0.376 OA
BRANCH   4   5
ATOM      5  C   UNL     1       3.442   6.338  -9.740  1.00  0.00     0.202 C 
BRANCH   5   6
ATOM      6  C   UNL     1       2.151   6.244  -8.911  1.00  0.00     0.261 C 
BRANCH   6   7
ATOM      7  O   UNL     1       2.153   5.286  -7.841  1.00  0.00    -0.460 OA
BRANCH   7   8
ATOM      8  C   UNL     1       2.010   3.981  -8.172  1.00  0.00     0.338 C 
ATOM      9  O   UNL     1       1.855   3.552  -9.305  1.00  0.00    -0.246 OA
BRANCH   8  10
ATOM     10  C   UNL     1       2.239   3.106  -6.969  1.00  0.00     0.067 C 
ATOM     11  C   UNL     1       1.759   3.500  -5.763  1.00  0.00     0.024 C 
BRANCH  11  12
ATOM     12  C   UNL     1       1.655   2.720  -4.504  1.00  0.00    -0.025 A 
ATOM     13  C   UNL     1       0.951   0.953  -2.445  1.00  0.00     0.067 A 
ATOM     14  C   UNL     1       2.120   0.737  -3.169  1.00  0.00     0.021 A 
ATOM     15  C   UNL     1       0.200   2.110  -2.646  1.00  0.00     0.021 A 
ATOM     16  C   UNL     1       2.491   1.651  -4.157  1.00  0.00     0.009 A 
ATOM     17  C   UNL     1       0.559   2.992  -3.669  1.00  0.00     0.009 A 
BRANCH  13  18
ATOM     18  S   UNL     1       0.337  -0.328  -1.383  1.00  0.00     0.175 S 
ATOM     19  C   UNL     1       1.007   0.084   0.200  1.00  0.00     0.163 C 
ATOM     20  O   UNL     1       0.936  -1.579  -1.810  1.00  0.00    -0.224 OA
ATOM     21  O   UNL     1      -1.105  -0.189  -1.315  1.00  0.00    -0.224 OA
ENDBRANCH  13  18
ENDBRANCH  11  12
BRANCH  10  22
ATOM     22  C   UNL     1       2.964   1.837  -7.180  1.00  0.00    -0.011 A 
ATOM     23  C   UNL     1       4.369   1.815  -7.172  1.00  0.00     0.009 A 
ATOM     24  C   UNL     1       2.278   0.629  -7.274  1.00  0.00     0.009 A 
ATOM     25  C   UNL     1       5.077   0.615  -7.257  1.00  0.00     0.009 A 
ATOM     26  C   UNL     1       2.990  -0.574  -7.330  1.00  0.00     0.009 A 
ATOM     27  C   UNL     1       4.399  -0.605  -7.330  1.00  0.00    -0.018 A 
BRANCH  27  28
ATOM     28  C   UNL     1       5.130  -1.881  -7.405  1.00  0.00    -0.018 A 
ATOM     29  C   UNL     1       6.242  -2.150  -6.584  1.00  0.00     0.010 A 
ATOM     30  C   UNL     1       4.713  -2.880  -8.301  1.00  0.00     0.010 A 
ATOM     31  C   UNL     1       6.899  -3.383  -6.640  1.00  0.00     0.021 A 
ATOM     32  C   UNL     1       5.358  -4.114  -8.364  1.00  0.00     0.021 A 
ATOM     33  C   UNL     1       6.449  -4.359  -7.532  1.00  0.00     0.067 A 
BRANCH  33  34
ATOM     34  S   UNL     1       7.239  -5.946  -7.566  1.00  0.00     0.175 S 
ATOM     35  C   UNL     1       8.848  -5.606  -8.227  1.00  0.00     0.163 C 
ATOM     36  O   UNL     1       7.394  -6.378  -6.191  1.00  0.00    -0.224 OA
ATOM     37  O   UNL     1       6.539  -6.772  -8.533  1.00  0.00    -0.224 OA
ENDBRANCH  33  34
ENDBRANCH  27  28
ENDBRANCH  10  22
ENDBRANCH   8  10
ENDBRANCH   7   8
ENDBRANCH   6   7
ENDBRANCH   5   6
ENDBRANCH   4   5
ENDBRANCH   3   4
ENDBRANCH   2   3
ENDBRANCH   1   2
BRANCH   1  38
ATOM     38  C   UNL     1       5.017   7.856  -6.883  1.00  0.00     0.188 C 
BRANCH  38  39
ATOM     39  C   UNL     1       6.428   7.853  -7.517  1.00  0.00     0.188 C 
BRANCH  39  40
ATOM     40  O   UNL     1       7.179   6.668  -7.297  1.00  0.00    -0.376 OA
BRANCH  40  41
ATOM     41  C   UNL     1       8.222   6.718  -6.340  1.00  0.00     0.202 C 
BRANCH  41  42
ATOM     42  C   UNL     1       7.827   7.000  -4.883  1.00  0.00     0.261 C 
BRANCH  42  43
ATOM     43  O   UNL     1       7.059   8.190  -4.651  1.00  0.00    -0.460 OA
BRANCH  43  44
ATOM     44  C   UNL     1       7.641   9.374  -4.942  1.00  0.00     0.338 C 
ATOM     45  O   UNL     1       8.769   9.551  -5.373  1.00  0.00    -0.246 OA
BRANCH  44  46
ATOM     46  C   UNL     1       6.598  10.415  -4.841  1.00  0.00     0.060 A 
ATOM     47  C   UNL     1       6.256  11.155  -5.982  1.00  0.00     0.016 A 
ATOM     48  C   UNL     1       5.936  10.632  -3.631  1.00  0.00     0.016 A 
ATOM     49  C   UNL     1       5.263  12.131  -5.907  1.00  0.00     0.010 A 
ATOM     50  C   UNL     1       4.961  11.629  -3.552  1.00  0.00     0.010 A 
ATOM     51  C   UNL     1       4.642  12.403  -4.682  1.00  0.00    -0.014 A 
BRANCH  51  52
ATOM     52  C   UNL     1       3.805  13.618  -4.536  1.00  0.00     0.031 A 
ATOM     53  C   UNL     1       4.436  14.848  -3.944  1.00  0.00     0.074 A 
ATOM     54  C   UNL     1       2.522  13.638  -4.937  1.00  0.00     0.049 A 
ATOM     55  N   UNL     1       3.902  16.014  -3.691  1.00  0.00    -0.248 NA
ATOM     56  C   UNL     1       5.862  14.747  -3.586  1.00  0.00     0.031 C 
ATOM     57  C   UNL     1       1.812  12.525  -5.564  1.00  0.00     0.029 A 
ATOM     58  N   UNL     1       1.586  14.640  -4.867  1.00  0.00    -0.354 N 
ATOM     59  C   UNL     1       4.920  16.781  -3.135  1.00  0.00     0.074 A 
ATOM     60  C   UNL     1       6.094  15.940  -3.060  1.00  0.00     0.031 C 
ATOM     61  C   UNL     1       0.545  12.903  -5.813  1.00  0.00     0.029 A 
ATOM     62  C   UNL     1       0.346  14.269  -5.332  1.00  0.00     0.049 A 
ATOM     63  H   UNL     1       1.783  15.539  -4.518  1.00  0.00     0.167 HD
ATOM     64  C   UNL     1       4.881  18.071  -2.725  1.00  0.00     0.031 A 
ATOM     65  C   UNL     1      -0.820  14.947  -5.345  1.00  0.00     0.031 A 
ATOM     66  C   UNL     1       3.704  18.897  -2.784  1.00  0.00     0.049 A 
ATOM     67  C   UNL     1      -0.859  16.358  -4.814  1.00  0.00     0.074 A 
ATOM     68  C   UNL     1       3.567  20.223  -2.413  1.00  0.00     0.029 A 
ATOM     69  N   UNL     1       2.460  18.474  -3.227  1.00  0.00    -0.354 N 
ATOM     70  N   UNL     1       0.119  17.083  -4.324  1.00  0.00    -0.248 NA
ATOM     71  C   UNL     1      -2.157  17.045  -4.848  1.00  0.00     0.031 C 
ATOM     72  C   UNL     1       2.223  20.580  -2.565  1.00  0.00     0.029 A 
ATOM     73  C   UNL     1       1.540  19.502  -3.105  1.00  0.00     0.049 A 
ATOM     74  H   UNL     1       2.260  17.576  -3.578  1.00  0.00     0.167 HD
ATOM     75  C   UNL     1      -0.441  18.320  -4.017  1.00  0.00     0.074 A 
ATOM     76  C   UNL     1      -1.837  18.249  -4.394  1.00  0.00     0.031 C 
ATOM     77  C   UNL     1       0.149  19.416  -3.477  1.00  0.00     0.031 A 
BRANCH  64  78
ATOM     78  C   UNL     1       6.138  18.650  -2.131  1.00  0.00    -0.014 A 
ATOM     79  C   UNL     1       7.276  18.902  -2.919  1.00  0.00     0.010 A 
ATOM     80  C   UNL     1       6.169  18.977  -0.763  1.00  0.00     0.010 A 
ATOM     81  C   UNL     1       8.434  19.431  -2.342  1.00  0.00     0.020 A 
ATOM     82  C   UNL     1       7.313  19.536  -0.188  1.00  0.00     0.020 A 
ATOM     83  C   UNL     1       8.445  19.744  -0.979  1.00  0.00     0.054 A 
BRANCH  83  84
ATOM     84  S   UNL     1       9.954  20.449  -0.261  1.00  0.00     0.124 S 
ATOM     85  O   UNL     1      10.861  19.304  -0.284  1.00  0.00    -0.237 OA
ATOM     86  O   UNL     1      10.277  21.525  -1.194  1.00  0.00    -0.237 OA
ATOM     87  O   UNL     1       9.536  20.884   1.069  1.00  0.00    -0.744 OA
ENDBRANCH  83  84
ENDBRANCH  64  78
BRANCH  65  88
ATOM     88  C   UNL     1      -2.054  14.290  -5.857  1.00  0.00    -0.014 A 
ATOM     89  C   UNL     1      -2.666  14.726  -7.046  1.00  0.00     0.010 A 
ATOM     90  C   UNL     1      -2.624  13.212  -5.154  1.00  0.00     0.010 A 
ATOM     91  C   UNL     1      -3.826  14.104  -7.516  1.00  0.00     0.020 A 
ATOM     92  C   UNL     1      -3.766  12.567  -5.637  1.00  0.00     0.020 A 
ATOM     93  C   UNL     1      -4.365  13.023  -6.812  1.00  0.00     0.054 A 
BRANCH  93  94
ATOM     94  S   UNL     1      -5.832  12.188  -7.478  1.00  0.00     0.124 S 
ATOM     95  O   UNL     1      -6.876  13.181  -7.254  1.00  0.00    -0.237 OA
ATOM     96  O   UNL     1      -5.457  11.964  -8.872  1.00  0.00    -0.237 OA
ATOM     97  O   UNL     1      -5.934  10.976  -6.667  1.00  0.00    -0.744 OA
ENDBRANCH  93  94
ENDBRANCH  65  88
BRANCH  77  98
ATOM     98  C   UNL     1      -0.702  20.647  -3.290  1.00  0.00    -0.014 A 
ATOM     99  C   UNL     1      -1.717  20.698  -2.319  1.00  0.00     0.010 A 
ATOM    100  C   UNL     1      -0.439  21.794  -4.064  1.00  0.00     0.010 A 
ATOM    101  C   UNL     1      -2.477  21.860  -2.150  1.00  0.00     0.020 A 
ATOM    102  C   UNL     1      -1.173  22.967  -3.875  1.00  0.00     0.020 A 
ATOM    103  C   UNL     1      -2.199  22.987  -2.929  1.00  0.00     0.054 A 
BRANCH 103 104
ATOM    104  S   UNL     1      -3.175  24.494  -2.663  1.00  0.00     0.124 S 
ATOM    105  O   UNL     1      -4.471  24.119  -3.221  1.00  0.00    -0.237 OA
ATOM    106  O   UNL     1      -3.135  24.647  -1.211  1.00  0.00    -0.237 OA
ATOM    107  O   UNL     1      -2.447  25.515  -3.413  1.00  0.00    -0.744 OA
ENDBRANCH 103 104
ENDBRANCH  77  98
ENDBRANCH  51  52
ENDBRANCH  44  46
ENDBRANCH  43  44
ENDBRANCH  42  43
ENDBRANCH  41  42
ENDBRANCH  40  41
ENDBRANCH  39  40
ENDBRANCH  38  39
ENDBRANCH   1  38
TORSDOF 28
