REMARK SMILES CC(C)C[C@H](NC(=O)CNC(=O)[C@@H](NC(=O)OCc1ccccc1)C(C)C)C(=O)OCCOCCOCCOCCOC(=O)c1ccc(-c2c3nc(c(-c4ccc(S(=O)(=O)[O-])cc4)c4ccc([nH]4)c(-c4ccc(S(=O)(=O)[O-])cc4)c4nc(c(-c5ccc(S(=O)(=O)[O-])cc5)c5ccc2[nH]5)C=C4)C=C3)cc1
REMARK SMILES IDX 34 1 33 2 32 3 31 4 30 5 28 6 29 7 5 8 4 9 2 10 1 11 3 12
REMARK SMILES IDX 6 13 7 14 8 16 9 17 10 18 11 19 12 21 13 22 14 23 15 24
REMARK SMILES IDX 16 26 17 27 18 28 19 29 20 30 24 31 21 32 23 33 22 34 25 35
REMARK SMILES IDX 26 36 27 37 35 38 36 39 37 40 38 41 39 42 40 43 41 44 42 45
REMARK SMILES IDX 43 46 44 47 45 48 46 49 104 50 47 51 103 52 48 53 49 54
REMARK SMILES IDX 50 55 97 56 51 57 102 58 96 59 98 60 52 61 101 62 95 63
REMARK SMILES IDX 94 64 53 66 83 67 64 68 82 69 65 70 68 71 81 72 99 73 66 74
REMARK SMILES IDX 67 75 80 77 100 78 69 79 54 80 55 81 63 82 56 83 62 84 57 85
REMARK SMILES IDX 58 86 59 87 60 88 61 89 84 90 85 91 93 92 86 93 92 94 87 95
REMARK SMILES IDX 88 96 89 97 90 98 91 99 70 100 71 101 79 102 72 103 78 104
REMARK SMILES IDX 73 105 74 106 75 107 76 108 77 109
REMARK H PARENT 6 15 10 20 14 25 98 65 68 76
REMARK Flexibility Score: inf
ROOT
ATOM      1  C   UNL     1      -5.136  -0.061  -0.367  1.00  0.00     0.188 C 
ENDROOT
BRANCH   1   2
ATOM      2  O   UNL     1      -6.131   0.353  -1.297  1.00  0.00    -0.376 OA
BRANCH   2   3
ATOM      3  C   UNL     1      -6.015   0.024  -2.673  1.00  0.00     0.202 C 
BRANCH   3   4
ATOM      4  C   UNL     1      -4.931   0.752  -3.473  1.00  0.00     0.261 C 
BRANCH   4   5
ATOM      5  O   UNL     1      -3.596   0.597  -2.956  1.00  0.00    -0.462 OA
BRANCH   5   6
ATOM      6  C   UNL     1      -3.047   1.705  -2.387  1.00  0.00     0.328 C 
ATOM      7  O   UNL     1      -3.621   2.781  -2.259  1.00  0.00    -0.250 OA
BRANCH   6   8
ATOM      8  C   UNL     1      -1.550   1.525  -2.039  1.00  0.00     0.192 C 
BRANCH   8   9
ATOM      9  C   UNL     1      -0.725   1.916  -3.276  1.00  0.00     0.040 C 
BRANCH   9  10
ATOM     10  C   UNL     1      -0.645   3.439  -3.486  1.00  0.00    -0.015 C 
ATOM     11  C   UNL     1       0.388   4.066  -2.549  1.00  0.00     0.007 C 
ATOM     12  C   UNL     1      -0.303   3.756  -4.939  1.00  0.00     0.007 C 
ENDBRANCH   9  10
ENDBRANCH   8   9
BRANCH   8  13
ATOM     13  N   UNL     1      -1.162   0.171  -1.629  1.00  0.00    -0.341 N 
ATOM     14  C   UNL     1      -0.484  -0.320  -0.558  1.00  0.00     0.240 C 
ATOM     15  H   UNL     1      -1.453  -0.526  -2.260  1.00  0.00     0.164 HD
ATOM     16  O   UNL     1      -0.257  -1.536  -0.565  1.00  0.00    -0.273 OA
BRANCH  14  17
ATOM     17  C   UNL     1       0.063   0.527   0.616  1.00  0.00     0.216 C 
BRANCH  17  18
ATOM     18  N   UNL     1      -0.188   1.954   0.735  1.00  0.00    -0.345 N 
ATOM     19  C   UNL     1      -1.088   2.729   1.395  1.00  0.00     0.243 C 
ATOM     20  H   UNL     1       0.451   2.490   0.211  1.00  0.00     0.164 HD
ATOM     21  O   UNL     1      -0.893   3.946   1.274  1.00  0.00    -0.273 OA
BRANCH  19  22
ATOM     22  C   UNL     1      -2.299   2.208   2.238  1.00  0.00     0.177 C 
BRANCH  22  23
ATOM     23  N   UNL     1      -2.547   0.790   1.977  1.00  0.00    -0.309 N 
ATOM     24  C   UNL     1      -2.509  -0.325   2.756  1.00  0.00     0.408 C 
ATOM     25  H   UNL     1      -2.792   0.603   1.042  1.00  0.00     0.167 HD
ATOM     26  O   UNL     1      -2.276  -1.399   2.227  1.00  0.00    -0.225 OA
BRANCH  24  27
ATOM     27  O   UNL     1      -2.756  -0.143   4.069  1.00  0.00    -0.445 OA
BRANCH  27  28
ATOM     28  C   UNL     1      -2.857  -1.351   4.846  1.00  0.00     0.270 C 
BRANCH  28  29
ATOM     29  C   UNL     1      -4.238  -1.974   4.844  1.00  0.00    -0.011 A 
ATOM     30  C   UNL     1      -5.387  -1.259   4.479  1.00  0.00     0.007 A 
ATOM     31  C   UNL     1      -4.388  -3.313   5.243  1.00  0.00     0.007 A 
ATOM     32  C   UNL     1      -6.641  -1.875   4.465  1.00  0.00     0.000 A 
ATOM     33  C   UNL     1      -5.644  -3.926   5.236  1.00  0.00     0.000 A 
ATOM     34  C   UNL     1      -6.768  -3.211   4.835  1.00  0.00     0.000 A 
ENDBRANCH  28  29
ENDBRANCH  27  28
ENDBRANCH  24  27
ENDBRANCH  22  23
BRANCH  22  35
ATOM     35  C   UNL     1      -2.272   2.644   3.730  1.00  0.00     0.015 C 
ATOM     36  C   UNL     1      -1.720   4.051   3.989  1.00  0.00     0.010 C 
ATOM     37  C   UNL     1      -3.689   2.604   4.333  1.00  0.00     0.010 C 
ENDBRANCH  22  35
ENDBRANCH  19  22
ENDBRANCH  17  18
ENDBRANCH  14  17
ENDBRANCH   8  13
ENDBRANCH   6   8
ENDBRANCH   5   6
ENDBRANCH   4   5
ENDBRANCH   3   4
ENDBRANCH   2   3
ENDBRANCH   1   2
BRANCH   1  38
ATOM     38  C   UNL     1      -4.174  -1.220  -0.673  1.00  0.00     0.188 C 
BRANCH  38  39
ATOM     39  O   UNL     1      -4.643  -2.220  -1.545  1.00  0.00    -0.377 OA
BRANCH  39  40
ATOM     40  C   UNL     1      -5.355  -3.322  -1.010  1.00  0.00     0.188 C 
BRANCH  40  41
ATOM     41  C   UNL     1      -5.891  -3.233   0.423  1.00  0.00     0.188 C 
BRANCH  41  42
ATOM     42  O   UNL     1      -4.935  -3.149   1.476  1.00  0.00    -0.376 OA
BRANCH  42  43
ATOM     43  C   UNL     1      -3.805  -4.023   1.470  1.00  0.00     0.202 C 
BRANCH  43  44
ATOM     44  C   UNL     1      -4.024  -5.364   2.165  1.00  0.00     0.261 C 
BRANCH  44  45
ATOM     45  O   UNL     1      -4.399  -6.327   1.183  1.00  0.00    -0.460 OA
BRANCH  45  46
ATOM     46  C   UNL     1      -5.727  -6.485   1.009  1.00  0.00     0.338 C 
ATOM     47  O   UNL     1      -6.616  -6.240   1.807  1.00  0.00    -0.246 OA
BRANCH  46  48
ATOM     48  C   UNL     1      -5.937  -6.746  -0.429  1.00  0.00     0.060 A 
ATOM     49  C   UNL     1      -7.137  -6.312  -1.012  1.00  0.00     0.016 A 
ATOM     50  C   UNL     1      -4.932  -7.330  -1.210  1.00  0.00     0.016 A 
ATOM     51  C   UNL     1      -7.360  -6.514  -2.369  1.00  0.00     0.010 A 
ATOM     52  C   UNL     1      -5.157  -7.547  -2.560  1.00  0.00     0.010 A 
ATOM     53  C   UNL     1      -6.394  -7.192  -3.120  1.00  0.00    -0.014 A 
BRANCH  53  54
ATOM     54  C   UNL     1      -6.776  -7.868  -4.370  1.00  0.00     0.031 A 
ATOM     55  C   UNL     1      -7.303  -9.268  -4.232  1.00  0.00     0.074 A 
ATOM     56  C   UNL     1      -6.536  -7.305  -5.562  1.00  0.00     0.049 A 
ATOM     57  N   UNL     1      -7.533 -10.162  -5.152  1.00  0.00    -0.248 NA
ATOM     58  C   UNL     1      -7.576  -9.731  -2.857  1.00  0.00     0.031 C 
ATOM     59  C   UNL     1      -6.019  -5.954  -5.773  1.00  0.00     0.029 A 
ATOM     60  N   UNL     1      -6.653  -7.829  -6.820  1.00  0.00    -0.354 N 
ATOM     61  C   UNL     1      -7.950 -11.297  -4.465  1.00  0.00     0.074 A 
ATOM     62  C   UNL     1      -7.930 -10.987  -3.057  1.00  0.00     0.031 C 
ATOM     63  C   UNL     1      -5.821  -5.769  -7.090  1.00  0.00     0.029 A 
ATOM     64  C   UNL     1      -6.166  -7.000  -7.800  1.00  0.00     0.049 A 
ATOM     65  H   UNL     1      -7.047  -8.713  -7.005  1.00  0.00     0.167 HD
ATOM     66  C   UNL     1      -8.305 -12.500  -4.970  1.00  0.00     0.031 A 
ATOM     67  C   UNL     1      -5.984  -7.236  -9.113  1.00  0.00     0.031 A 
ATOM     68  C   UNL     1      -8.267 -12.797  -6.371  1.00  0.00     0.049 A 
ATOM     69  C   UNL     1      -6.373  -8.583  -9.661  1.00  0.00     0.074 A 
ATOM     70  C   UNL     1      -8.617 -13.966  -7.018  1.00  0.00     0.029 A 
ATOM     71  N   UNL     1      -7.831 -11.906  -7.344  1.00  0.00    -0.354 N 
ATOM     72  N   UNL     1      -6.825  -9.633  -9.014  1.00  0.00    -0.248 NA
ATOM     73  C   UNL     1      -6.240  -8.776 -11.110  1.00  0.00     0.031 C 
ATOM     74  C   UNL     1      -8.353 -13.794  -8.381  1.00  0.00     0.029 A 
ATOM     75  C   UNL     1      -7.887 -12.503  -8.587  1.00  0.00     0.049 A 
ATOM     76  H   UNL     1      -7.528 -10.986  -7.171  1.00  0.00     0.167 HD
ATOM     77  C   UNL     1      -7.052 -10.607  -9.979  1.00  0.00     0.074 A 
ATOM     78  C   UNL     1      -6.691 -10.016 -11.255  1.00  0.00     0.031 C 
ATOM     79  C   UNL     1      -7.521 -11.871  -9.832  1.00  0.00     0.031 A 
BRANCH  66  80
ATOM     80  C   UNL     1      -8.691 -13.564  -3.980  1.00  0.00    -0.014 A 
ATOM     81  C   UNL     1      -9.885 -13.471  -3.239  1.00  0.00     0.010 A 
ATOM     82  C   UNL     1      -7.817 -14.638  -3.737  1.00  0.00     0.010 A 
ATOM     83  C   UNL     1     -10.165 -14.396  -2.230  1.00  0.00     0.020 A 
ATOM     84  C   UNL     1      -8.107 -15.581  -2.748  1.00  0.00     0.020 A 
ATOM     85  C   UNL     1      -9.267 -15.438  -1.982  1.00  0.00     0.054 A 
BRANCH  85  86
ATOM     86  S   UNL     1      -9.634 -16.611  -0.647  1.00  0.00     0.124 S 
ATOM     87  O   UNL     1      -9.273 -15.838   0.538  1.00  0.00    -0.237 OA
ATOM     88  O   UNL     1     -11.063 -16.861  -0.821  1.00  0.00    -0.237 OA
ATOM     89  O   UNL     1      -8.766 -17.749  -0.939  1.00  0.00    -0.744 OA
ENDBRANCH  85  86
ENDBRANCH  66  80
BRANCH  67  90
ATOM     90  C   UNL     1      -5.397  -6.172  -9.969  1.00  0.00    -0.014 A 
ATOM     91  C   UNL     1      -6.212  -5.419 -10.831  1.00  0.00     0.010 A 
ATOM     92  C   UNL     1      -4.032  -5.847  -9.859  1.00  0.00     0.010 A 
ATOM     93  C   UNL     1      -5.675  -4.351 -11.557  1.00  0.00     0.020 A 
ATOM     94  C   UNL     1      -3.497  -4.768 -10.569  1.00  0.00     0.020 A 
ATOM     95  C   UNL     1      -4.323  -4.025 -11.414  1.00  0.00     0.054 A 
BRANCH  95  96
ATOM     96  S   UNL     1      -3.677  -2.564 -12.276  1.00  0.00     0.124 S 
ATOM     97  O   UNL     1      -3.577  -3.041 -13.652  1.00  0.00    -0.237 OA
ATOM     98  O   UNL     1      -4.713  -1.565 -12.026  1.00  0.00    -0.237 OA
ATOM     99  O   UNL     1      -2.404  -2.307 -11.606  1.00  0.00    -0.744 OA
ENDBRANCH  95  96
ENDBRANCH  67  90
BRANCH  79 100
ATOM    100  C   UNL     1      -7.708 -12.690 -11.077  1.00  0.00    -0.014 A 
ATOM    101  C   UNL     1      -6.614 -13.297 -11.714  1.00  0.00     0.010 A 
ATOM    102  C   UNL     1      -9.011 -12.944 -11.541  1.00  0.00     0.010 A 
ATOM    103  C   UNL     1      -6.821 -14.142 -12.806  1.00  0.00     0.020 A 
ATOM    104  C   UNL     1      -9.223 -13.804 -12.618  1.00  0.00     0.020 A 
ATOM    105  C   UNL     1      -8.125 -14.394 -13.248  1.00  0.00     0.054 A 
BRANCH 105 106
ATOM    106  S   UNL     1      -8.376 -15.560 -14.614  1.00  0.00     0.124 S 
ATOM    107  O   UNL     1      -7.994 -14.756 -15.771  1.00  0.00    -0.237 OA
ATOM    108  O   UNL     1      -7.465 -16.651 -14.277  1.00  0.00    -0.237 OA
ATOM    109  O   UNL     1      -9.796 -15.893 -14.527  1.00  0.00    -0.744 OA
ENDBRANCH 105 106
ENDBRANCH  79 100
ENDBRANCH  53  54
ENDBRANCH  46  48
ENDBRANCH  45  46
ENDBRANCH  44  45
ENDBRANCH  43  44
ENDBRANCH  42  43
ENDBRANCH  41  42
ENDBRANCH  40  41
ENDBRANCH  39  40
ENDBRANCH  38  39
ENDBRANCH   1  38
TORSDOF 34
