REMARK SMILES NC(=O)C[C@@H](NC(=O)c1ccc(F)cc1)C(=O)OCCOCCOCCOCCOC(=O)c1ccc(-c2c3nc(c(-c4ccc(S(=O)(=O)[O-])cc4)c4ccc([nH]4)c(-c4ccc(S(=O)(=O)[O-])cc4)c4nc(c(-c5ccc(S(=O)(=O)[O-])cc5)c5ccc2[nH]5)C=C4)C=C3)cc1
REMARK SMILES IDX 25 1 24 2 23 3 22 4 21 5 20 6 19 7 18 8 16 9 17 10 5 11 4 12
REMARK SMILES IDX 2 13 1 14 3 17 6 18 7 19 8 21 9 22 10 23 15 24 11 25 14 26
REMARK SMILES IDX 12 27 13 28 26 29 27 30 28 31 29 32 30 33 31 34 32 35 33 36
REMARK SMILES IDX 34 37 92 38 35 39 91 40 36 41 37 42 38 43 85 44 39 45 90 46
REMARK SMILES IDX 84 47 86 48 40 49 89 50 83 51 82 52 41 54 71 55 52 56 70 57
REMARK SMILES IDX 53 58 56 59 69 60 87 61 54 62 55 63 68 65 88 66 57 67 42 68
REMARK SMILES IDX 43 69 51 70 44 71 50 72 45 73 46 74 47 75 48 76 49 77 72 78
REMARK SMILES IDX 73 79 81 80 74 81 80 82 75 83 76 84 77 85 78 86 79 87 58 88
REMARK SMILES IDX 59 89 67 90 60 91 66 92 61 93 62 94 63 95 64 96 65 97
REMARK H PARENT 1 15 1 16 6 20 86 53 56 64
REMARK Flexibility Score: inf
ROOT
ATOM      1  C   UNL     1       1.562   6.141   3.339  1.00  0.00     0.188 C 
ENDROOT
BRANCH   1   2
ATOM      2  O   UNL     1       1.304   4.760   3.086  1.00  0.00    -0.377 OA
BRANCH   2   3
ATOM      3  C   UNL     1       0.630   3.965   4.049  1.00  0.00     0.188 C 
BRANCH   3   4
ATOM      4  C   UNL     1       1.304   3.820   5.422  1.00  0.00     0.188 C 
BRANCH   4   5
ATOM      5  O   UNL     1       2.432   4.657   5.616  1.00  0.00    -0.376 OA
BRANCH   5   6
ATOM      6  C   UNL     1       3.711   4.138   5.309  1.00  0.00     0.202 C 
BRANCH   6   7
ATOM      7  C   UNL     1       4.067   3.913   3.839  1.00  0.00     0.261 C 
BRANCH   7   8
ATOM      8  O   UNL     1       3.357   2.958   3.037  1.00  0.00    -0.462 OA
BRANCH   8   9
ATOM      9  C   UNL     1       2.951   1.764   3.521  1.00  0.00     0.329 C 
ATOM     10  O   UNL     1       2.991   1.406   4.690  1.00  0.00    -0.250 OA
BRANCH   9  11
ATOM     11  C   UNL     1       2.607   0.824   2.374  1.00  0.00     0.201 C 
BRANCH  11  12
ATOM     12  C   UNL     1       1.948   1.536   1.184  1.00  0.00     0.136 C 
BRANCH  12  13
ATOM     13  C   UNL     1       0.877   0.647   0.600  1.00  0.00     0.220 C 
ATOM     14  N   UNL     1       1.273  -0.145  -0.433  1.00  0.00    -0.370 N 
ATOM     15  H   UNL     1       0.628  -0.752  -0.864  1.00  0.00     0.159 HD
ATOM     16  H   UNL     1       2.205  -0.113  -0.750  1.00  0.00     0.159 HD
ATOM     17  O   UNL     1      -0.261   0.579   1.052  1.00  0.00    -0.275 OA
ENDBRANCH  12  13
ENDBRANCH  11  12
BRANCH  11  18
ATOM     18  N   UNL     1       3.690  -0.110   1.985  1.00  0.00    -0.338 N 
ATOM     19  C   UNL     1       5.061   0.014   2.000  1.00  0.00     0.251 C 
ATOM     20  H   UNL     1       3.369  -0.980   1.655  1.00  0.00     0.164 HD
ATOM     21  O   UNL     1       5.721  -0.612   1.175  1.00  0.00    -0.269 OA
BRANCH  19  22
ATOM     22  C   UNL     1       5.778   0.779   3.048  1.00  0.00     0.040 A 
ATOM     23  C   UNL     1       5.575   0.491   4.405  1.00  0.00     0.017 A 
ATOM     24  C   UNL     1       6.723   1.746   2.682  1.00  0.00     0.017 A 
ATOM     25  C   UNL     1       6.200   1.262   5.391  1.00  0.00     0.040 A 
ATOM     26  C   UNL     1       7.381   2.490   3.672  1.00  0.00     0.040 A 
ATOM     27  C   UNL     1       7.089   2.262   5.016  1.00  0.00     0.123 A 
ATOM     28  F   UNL     1       7.625   3.052   5.955  1.00  0.00    -0.207 F 
ENDBRANCH  19  22
ENDBRANCH  11  18
ENDBRANCH   9  11
ENDBRANCH   8   9
ENDBRANCH   7   8
ENDBRANCH   6   7
ENDBRANCH   5   6
ENDBRANCH   4   5
ENDBRANCH   3   4
ENDBRANCH   2   3
ENDBRANCH   1   2
BRANCH   1  29
ATOM     29  C   UNL     1       1.054   6.853   4.608  1.00  0.00     0.188 C 
BRANCH  29  30
ATOM     30  O   UNL     1      -0.122   6.293   5.158  1.00  0.00    -0.376 OA
BRANCH  30  31
ATOM     31  C   UNL     1      -1.369   6.851   4.788  1.00  0.00     0.202 C 
BRANCH  31  32
ATOM     32  C   UNL     1      -1.730   6.924   3.297  1.00  0.00     0.261 C 
BRANCH  32  33
ATOM     33  O   UNL     1      -0.830   7.620   2.420  1.00  0.00    -0.460 OA
BRANCH  33  34
ATOM     34  C   UNL     1      -0.465   8.887   2.706  1.00  0.00     0.338 C 
ATOM     35  O   UNL     1      -0.860   9.574   3.633  1.00  0.00    -0.246 OA
BRANCH  34  36
ATOM     36  C   UNL     1       0.668   9.228   1.814  1.00  0.00     0.060 A 
ATOM     37  C   UNL     1       1.910   9.590   2.361  1.00  0.00     0.016 A 
ATOM     38  C   UNL     1       0.502   9.165   0.429  1.00  0.00     0.016 A 
ATOM     39  C   UNL     1       2.973   9.942   1.523  1.00  0.00     0.010 A 
ATOM     40  C   UNL     1       1.554   9.543  -0.406  1.00  0.00     0.010 A 
ATOM     41  C   UNL     1       2.777   9.978   0.137  1.00  0.00    -0.014 A 
BRANCH  41  42
ATOM     42  C   UNL     1       3.709  10.729  -0.739  1.00  0.00     0.031 A 
ATOM     43  C   UNL     1       3.338  12.150  -1.073  1.00  0.00     0.074 A 
ATOM     44  C   UNL     1       4.817  10.175  -1.260  1.00  0.00     0.049 A 
ATOM     45  N   UNL     1       3.866  12.964  -1.948  1.00  0.00    -0.248 NA
ATOM     46  C   UNL     1       2.204  12.722  -0.325  1.00  0.00     0.031 C 
ATOM     47  C   UNL     1       5.321   8.837  -0.960  1.00  0.00     0.029 A 
ATOM     48  N   UNL     1       5.707  10.673  -2.180  1.00  0.00    -0.354 N 
ATOM     49  C   UNL     1       3.112  14.130  -1.876  1.00  0.00     0.074 A 
ATOM     50  C   UNL     1       2.080  13.913  -0.888  1.00  0.00     0.031 C 
ATOM     51  C   UNL     1       6.420   8.610  -1.704  1.00  0.00     0.029 A 
ATOM     52  C   UNL     1       6.665   9.766  -2.567  1.00  0.00     0.049 A 
ATOM     53  H   UNL     1       5.663  11.593  -2.529  1.00  0.00     0.167 HD
ATOM     54  C   UNL     1       3.262  15.278  -2.575  1.00  0.00     0.031 A 
ATOM     55  C   UNL     1       7.602   9.847  -3.535  1.00  0.00     0.031 A 
ATOM     56  C   UNL     1       4.280  15.479  -3.568  1.00  0.00     0.049 A 
ATOM     57  C   UNL     1       7.697  11.102  -4.369  1.00  0.00     0.074 A 
ATOM     58  C   UNL     1       4.524  16.607  -4.331  1.00  0.00     0.029 A 
ATOM     59  N   UNL     1       5.217  14.528  -3.942  1.00  0.00    -0.354 N 
ATOM     60  N   UNL     1       6.982  12.200  -4.290  1.00  0.00    -0.248 NA
ATOM     61  C   UNL     1       8.725  11.132  -5.421  1.00  0.00     0.031 C 
ATOM     62  C   UNL     1       5.568  16.314  -5.212  1.00  0.00     0.029 A 
ATOM     63  C   UNL     1       6.026  15.034  -4.942  1.00  0.00     0.049 A 
ATOM     64  H   UNL     1       5.294  13.627  -3.553  1.00  0.00     0.167 HD
ATOM     65  C   UNL     1       7.503  13.064  -5.251  1.00  0.00     0.074 A 
ATOM     66  C   UNL     1       8.590  12.362  -5.899  1.00  0.00     0.031 C 
ATOM     67  C   UNL     1       7.121  14.328  -5.560  1.00  0.00     0.031 A 
BRANCH  54  68
ATOM     68  C   UNL     1       2.272  16.384  -2.321  1.00  0.00    -0.014 A 
ATOM     69  C   UNL     1       2.255  17.089  -1.105  1.00  0.00     0.010 A 
ATOM     70  C   UNL     1       1.360  16.741  -3.331  1.00  0.00     0.010 A 
ATOM     71  C   UNL     1       1.320  18.105  -0.889  1.00  0.00     0.020 A 
ATOM     72  C   UNL     1       0.445  17.778  -3.132  1.00  0.00     0.020 A 
ATOM     73  C   UNL     1       0.421  18.442  -1.905  1.00  0.00     0.054 A 
BRANCH  73  74
ATOM     74  S   UNL     1      -0.764  19.782  -1.606  1.00  0.00     0.124 S 
ATOM     75  O   UNL     1      -1.670  19.171  -0.636  1.00  0.00    -0.237 OA
ATOM     76  O   UNL     1       0.086  20.849  -1.085  1.00  0.00    -0.237 OA
ATOM     77  O   UNL     1      -1.343  20.036  -2.923  1.00  0.00    -0.744 OA
ENDBRANCH  73  74
ENDBRANCH  54  68
BRANCH  55  78
ATOM     78  C   UNL     1       8.512   8.695  -3.793  1.00  0.00    -0.014 A 
ATOM     79  C   UNL     1       9.888   8.792  -3.522  1.00  0.00     0.010 A 
ATOM     80  C   UNL     1       8.006   7.491  -4.320  1.00  0.00     0.010 A 
ATOM     81  C   UNL     1      10.742   7.716  -3.785  1.00  0.00     0.020 A 
ATOM     82  C   UNL     1       8.851   6.402  -4.555  1.00  0.00     0.020 A 
ATOM     83  C   UNL     1      10.216   6.526  -4.295  1.00  0.00     0.054 A 
BRANCH  83  84
ATOM     84  S   UNL     1      11.336   5.125  -4.574  1.00  0.00     0.124 S 
ATOM     85  O   UNL     1      12.113   5.581  -5.723  1.00  0.00    -0.237 OA
ATOM     86  O   UNL     1      12.061   5.048  -3.308  1.00  0.00    -0.237 OA
ATOM     87  O   UNL     1      10.429   4.009  -4.834  1.00  0.00    -0.744 OA
ENDBRANCH  83  84
ENDBRANCH  55  78
BRANCH  67  88
ATOM     88  C   UNL     1       7.917  15.080  -6.596  1.00  0.00    -0.014 A 
ATOM     89  C   UNL     1       7.812  14.784  -7.965  1.00  0.00     0.010 A 
ATOM     90  C   UNL     1       8.689  16.185  -6.189  1.00  0.00     0.010 A 
ATOM     91  C   UNL     1       8.472  15.578  -8.909  1.00  0.00     0.020 A 
ATOM     92  C   UNL     1       9.324  16.998  -7.131  1.00  0.00     0.020 A 
ATOM     93  C   UNL     1       9.214  16.686  -8.486  1.00  0.00     0.054 A 
BRANCH  93  94
ATOM     94  S   UNL     1       9.980  17.753  -9.738  1.00  0.00     0.124 S 
ATOM     95  O   UNL     1      11.057  16.906 -10.243  1.00  0.00    -0.237 OA
ATOM     96  O   UNL     1       8.880  17.993 -10.668  1.00  0.00    -0.237 OA
ATOM     97  O   UNL     1      10.414  18.924  -8.979  1.00  0.00    -0.744 OA
ENDBRANCH  93  94
ENDBRANCH  67  88
ENDBRANCH  41  42
ENDBRANCH  34  36
ENDBRANCH  33  34
ENDBRANCH  32  33
ENDBRANCH  31  32
ENDBRANCH  30  31
ENDBRANCH  29  30
ENDBRANCH   1  29
TORSDOF 27
