REMARK SMILES C[N@@H+]1CCC[C@@H](NC(=O)N(CC(=O)OCCOCCOCCOCCOC(=O)c2ccc(-c3c4nc(c(-c5ccc(S(=O)(=O)[O-])cc5)c5ccc([nH]5)c(-c5ccc(S(=O)(=O)[O-])cc5)c5nc(c(-c6ccc(S(=O)(=O)[O-])cc6)c6ccc3[nH]6)C=C5)C=C4)cc2)C(C)(C)C)C1
REMARK SMILES IDX 20 1 19 2 18 3 17 4 16 5 15 6 14 7 12 8 13 9 11 10 10 11
REMARK SMILES IDX 8 12 7 13 9 15 6 16 1 17 2 18 3 19 93 20 4 22 5 23 89 24
REMARK SMILES IDX 90 25 91 26 92 27 21 28 22 29 23 30 24 31 25 32 26 33 27 34
REMARK SMILES IDX 28 35 29 36 30 37 88 38 31 39 87 40 32 41 33 42 34 43 81 44
REMARK SMILES IDX 35 45 86 46 80 47 82 48 36 49 85 50 79 51 78 52 37 54 67 55
REMARK SMILES IDX 48 56 66 57 49 58 52 59 65 60 83 61 50 62 51 63 64 65 84 66
REMARK SMILES IDX 53 67 38 68 39 69 47 70 40 71 46 72 41 73 42 74 43 75 44 76
REMARK SMILES IDX 45 77 68 78 69 79 77 80 70 81 76 82 71 83 72 84 73 85 74 86
REMARK SMILES IDX 75 87 54 88 55 89 63 90 56 91 62 92 57 93 58 94 59 95 60 96
REMARK SMILES IDX 61 97
REMARK H PARENT 7 14 2 21 82 53 52 64
REMARK Flexibility Score: inf
ROOT
ATOM      1  O   UNL     1       6.665  -3.537   0.635  1.00  0.00    -0.377 OA
ENDROOT
BRANCH   1   2
ATOM      2  C   UNL     1       5.545  -4.392   0.548  1.00  0.00     0.188 C 
BRANCH   2   3
ATOM      3  C   UNL     1       5.407  -5.088  -0.822  1.00  0.00     0.188 C 
BRANCH   3   4
ATOM      4  O   UNL     1       5.833  -4.440  -2.018  1.00  0.00    -0.376 OA
BRANCH   4   5
ATOM      5  C   UNL     1       6.140  -3.056  -1.983  1.00  0.00     0.202 C 
BRANCH   5   6
ATOM      6  C   UNL     1       4.961  -2.090  -1.754  1.00  0.00     0.261 C 
BRANCH   6   7
ATOM      7  O   UNL     1       3.986  -2.476  -0.753  1.00  0.00    -0.462 OA
BRANCH   7   8
ATOM      8  C   UNL     1       2.915  -3.197  -1.173  1.00  0.00     0.325 C 
ATOM      9  O   UNL     1       2.670  -3.426  -2.356  1.00  0.00    -0.250 OA
BRANCH   8  10
ATOM     10  C   UNL     1       1.980  -3.746  -0.045  1.00  0.00     0.244 C 
BRANCH  10  11
ATOM     11  N   UNL     1       2.095  -3.488   1.415  1.00  0.00    -0.309 N 
BRANCH  11  12
ATOM     12  C   UNL     1       1.736  -2.290   1.999  1.00  0.00     0.318 C 
ATOM     13  N   UNL     1       1.329  -1.210   1.323  1.00  0.00    -0.330 N 
ATOM     14  H   UNL     1       1.145  -0.468   1.943  1.00  0.00     0.165 HD
ATOM     15  O   UNL     1       1.736  -2.123   3.223  1.00  0.00    -0.249 OA
BRANCH  13  16
ATOM     16  C   UNL     1       1.073  -0.795  -0.051  1.00  0.00     0.139 C 
ATOM     17  C   UNL     1      -2.571   0.265  -0.086  1.00  0.00     0.332 C 
ATOM     18  N   UNL     1      -1.151   0.329   0.255  1.00  0.00    -0.336 N 
ATOM     19  C   UNL     1      -0.570   1.605  -0.186  1.00  0.00     0.262 C 
ATOM     20  C   UNL     1      -0.437  -0.804  -0.358  1.00  0.00     0.287 C 
ATOM     21  H   UNL     1      -1.054   0.270   1.268  1.00  0.00     0.347 HD
ATOM     22  C   UNL     1       0.894   1.712   0.241  1.00  0.00     0.064 C 
ATOM     23  C   UNL     1       1.719   0.564  -0.326  1.00  0.00     0.037 C 
ENDBRANCH  13  16
ENDBRANCH  11  12
BRANCH  11  24
ATOM     24  C   UNL     1       2.378  -4.646   2.385  1.00  0.00     0.037 C 
ATOM     25  C   UNL     1       3.538  -4.282   3.353  1.00  0.00     0.034 C 
ATOM     26  C   UNL     1       1.131  -4.981   3.251  1.00  0.00     0.034 C 
ATOM     27  C   UNL     1       2.717  -6.001   1.709  1.00  0.00     0.034 C 
ENDBRANCH  11  24
ENDBRANCH  10  11
ENDBRANCH   8  10
ENDBRANCH   7   8
ENDBRANCH   6   7
ENDBRANCH   5   6
ENDBRANCH   4   5
ENDBRANCH   3   4
ENDBRANCH   2   3
ENDBRANCH   1   2
BRANCH   1  28
ATOM     28  C   UNL     1       7.690  -3.985   1.497  1.00  0.00     0.188 C 
BRANCH  28  29
ATOM     29  C   UNL     1       8.239  -5.380   1.154  1.00  0.00     0.188 C 
BRANCH  29  30
ATOM     30  O   UNL     1       7.217  -6.367   1.104  1.00  0.00    -0.376 OA
BRANCH  30  31
ATOM     31  C   UNL     1       7.022  -7.278   2.167  1.00  0.00     0.202 C 
BRANCH  31  32
ATOM     32  C   UNL     1       6.701  -6.807   3.597  1.00  0.00     0.261 C 
BRANCH  32  33
ATOM     33  O   UNL     1       7.241  -5.555   4.021  1.00  0.00    -0.460 OA
BRANCH  33  34
ATOM     34  C   UNL     1       8.538  -5.560   4.392  1.00  0.00     0.338 C 
ATOM     35  O   UNL     1       9.291  -6.522   4.380  1.00  0.00    -0.246 OA
BRANCH  34  36
ATOM     36  C   UNL     1       8.968  -4.163   4.608  1.00  0.00     0.060 A 
ATOM     37  C   UNL     1       9.998  -3.661   3.802  1.00  0.00     0.016 A 
ATOM     38  C   UNL     1       8.372  -3.355   5.581  1.00  0.00     0.016 A 
ATOM     39  C   UNL     1      10.466  -2.364   3.990  1.00  0.00     0.010 A 
ATOM     40  C   UNL     1       8.871  -2.066   5.799  1.00  0.00     0.010 A 
ATOM     41  C   UNL     1       9.951  -1.588   5.034  1.00  0.00    -0.014 A 
BRANCH  41  42
ATOM     42  C   UNL     1      10.744  -0.426   5.497  1.00  0.00     0.031 A 
ATOM     43  C   UNL     1      11.748  -0.666   6.594  1.00  0.00     0.074 A 
ATOM     44  C   UNL     1      10.645   0.781   4.916  1.00  0.00     0.049 A 
ATOM     45  N   UNL     1      12.592   0.164   7.147  1.00  0.00    -0.248 NA
ATOM     46  C   UNL     1      11.807  -2.036   7.132  1.00  0.00     0.031 C 
ATOM     47  C   UNL     1       9.770   1.113   3.794  1.00  0.00     0.029 A 
ATOM     48  N   UNL     1      11.307   1.951   5.189  1.00  0.00    -0.354 N 
ATOM     49  C   UNL     1      13.280  -0.582   8.098  1.00  0.00     0.074 A 
ATOM     50  C   UNL     1      12.725  -1.917   8.076  1.00  0.00     0.031 C 
ATOM     51  C   UNL     1       9.955   2.405   3.467  1.00  0.00     0.029 A 
ATOM     52  C   UNL     1      10.937   2.996   4.377  1.00  0.00     0.049 A 
ATOM     53  H   UNL     1      11.983   2.034   5.899  1.00  0.00     0.167 HD
ATOM     54  C   UNL     1      14.289  -0.196   8.914  1.00  0.00     0.031 A 
ATOM     55  C   UNL     1      11.342   4.281   4.378  1.00  0.00     0.031 A 
ATOM     56  C   UNL     1      14.807   1.144   8.961  1.00  0.00     0.049 A 
ATOM     57  C   UNL     1      12.384   4.723   5.374  1.00  0.00     0.074 A 
ATOM     58  C   UNL     1      15.812   1.653   9.763  1.00  0.00     0.029 A 
ATOM     59  N   UNL     1      14.345   2.195   8.180  1.00  0.00    -0.354 N 
ATOM     60  N   UNL     1      13.029   4.010   6.268  1.00  0.00    -0.248 NA
ATOM     61  C   UNL     1      12.761   6.143   5.351  1.00  0.00     0.031 C 
ATOM     62  C   UNL     1      15.913   3.026   9.513  1.00  0.00     0.029 A 
ATOM     63  C   UNL     1      15.026   3.357   8.499  1.00  0.00     0.049 A 
ATOM     64  H   UNL     1      13.637   2.124   7.500  1.00  0.00     0.167 HD
ATOM     65  C   UNL     1      13.918   4.886   6.885  1.00  0.00     0.074 A 
ATOM     66  C   UNL     1      13.727   6.179   6.259  1.00  0.00     0.031 C 
ATOM     67  C   UNL     1      14.821   4.639   7.869  1.00  0.00     0.031 A 
BRANCH  54  68
ATOM     68  C   UNL     1      14.839  -1.236   9.857  1.00  0.00    -0.014 A 
ATOM     69  C   UNL     1      15.544  -2.359   9.382  1.00  0.00     0.010 A 
ATOM     70  C   UNL     1      14.611  -1.108  11.239  1.00  0.00     0.010 A 
ATOM     71  C   UNL     1      15.944  -3.368  10.262  1.00  0.00     0.020 A 
ATOM     72  C   UNL     1      15.042  -2.097  12.127  1.00  0.00     0.020 A 
ATOM     73  C   UNL     1      15.680  -3.235  11.629  1.00  0.00     0.054 A 
BRANCH  73  74
ATOM     74  S   UNL     1      16.178  -4.574  12.745  1.00  0.00     0.124 S 
ATOM     75  O   UNL     1      15.210  -5.617  12.414  1.00  0.00    -0.237 OA
ATOM     76  O   UNL     1      17.553  -4.841  12.333  1.00  0.00    -0.237 OA
ATOM     77  O   UNL     1      16.032  -3.990  14.076  1.00  0.00    -0.744 OA
ENDBRANCH  73  74
ENDBRANCH  54  68
BRANCH  55  78
ATOM     78  C   UNL     1      10.776   5.237   3.386  1.00  0.00    -0.014 A 
ATOM     79  C   UNL     1      11.575   5.741   2.345  1.00  0.00     0.010 A 
ATOM     80  C   UNL     1       9.427   5.631   3.463  1.00  0.00     0.010 A 
ATOM     81  C   UNL     1      11.038   6.620   1.400  1.00  0.00     0.020 A 
ATOM     82  C   UNL     1       8.879   6.489   2.504  1.00  0.00     0.020 A 
ATOM     83  C   UNL     1       9.690   6.980   1.480  1.00  0.00     0.054 A 
BRANCH  83  84
ATOM     84  S   UNL     1       8.998   8.057   0.193  1.00  0.00     0.124 S 
ATOM     85  O   UNL     1       9.644   9.333   0.481  1.00  0.00    -0.237 OA
ATOM     86  O   UNL     1       9.428   7.392  -1.035  1.00  0.00    -0.237 OA
ATOM     87  O   UNL     1       7.559   8.012   0.445  1.00  0.00    -0.744 OA
ENDBRANCH  83  84
ENDBRANCH  55  78
BRANCH  67  88
ATOM     88  C   UNL     1      15.715   5.775   8.297  1.00  0.00    -0.014 A 
ATOM     89  C   UNL     1      15.221   6.877   9.016  1.00  0.00     0.010 A 
ATOM     90  C   UNL     1      17.093   5.705   8.017  1.00  0.00     0.010 A 
ATOM     91  C   UNL     1      16.081   7.905   9.414  1.00  0.00     0.020 A 
ATOM     92  C   UNL     1      17.962   6.713   8.441  1.00  0.00     0.020 A 
ATOM     93  C   UNL     1      17.447   7.816   9.124  1.00  0.00     0.054 A 
BRANCH  93  94
ATOM     94  S   UNL     1      18.548   9.145   9.682  1.00  0.00     0.124 S 
ATOM     95  O   UNL     1      18.186  10.238   8.785  1.00  0.00    -0.237 OA
ATOM     96  O   UNL     1      18.154   9.320  11.078  1.00  0.00    -0.237 OA
ATOM     97  O   UNL     1      19.887   8.593   9.483  1.00  0.00    -0.744 OA
ENDBRANCH  93  94
ENDBRANCH  67  88
ENDBRANCH  41  42
ENDBRANCH  34  36
ENDBRANCH  33  34
ENDBRANCH  32  33
ENDBRANCH  31  32
ENDBRANCH  30  31
ENDBRANCH  29  30
ENDBRANCH  28  29
ENDBRANCH   1  28
TORSDOF 27
