REMARK SMILES Cc1nn(C(C)C)c(C)c1S(=O)(=O)Nc1cccc(C(=O)OCCOCCOCCOCCOC(=O)c2ccc(-c3c4nc(c(-c5ccc(S(=O)(=O)[O-])cc5)c5ccc([nH]5)c(-c5ccc(S(=O)(=O)[O-])cc5)c5nc(c(-c6ccc(S(=O)(=O)[O-])cc6)c6ccc3[nH]6)C=C5)C=C4)cc2)c1C
REMARK SMILES IDX 27 1 26 2 25 3 24 4 23 5 22 6 20 7 21 8 19 9 15 10 16 11
REMARK SMILES IDX 97 12 17 13 98 14 18 15 14 16 11 18 12 19 13 20 10 21 1 22
REMARK SMILES IDX 2 23 3 24 4 25 8 26 9 27 5 28 6 29 7 30 28 31 29 32 30 33
REMARK SMILES IDX 31 34 32 35 33 36 34 37 35 38 36 39 37 40 38 41 96 42 39 43
REMARK SMILES IDX 95 44 40 45 41 46 42 47 89 48 43 49 94 50 88 51 90 52 44 53
REMARK SMILES IDX 93 54 87 55 86 56 45 58 75 59 56 60 74 61 57 62 60 63 73 64
REMARK SMILES IDX 91 65 58 66 59 67 72 69 92 70 61 71 46 72 47 73 55 74 48 75
REMARK SMILES IDX 54 76 49 77 50 78 51 79 52 80 53 81 76 82 77 83 85 84 78 85
REMARK SMILES IDX 84 86 79 87 80 88 81 89 82 90 83 91 62 92 63 93 71 94 64 95
REMARK SMILES IDX 70 96 65 97 66 98 67 99 68 100 69 101
REMARK H PARENT 14 17 90 57 60 68
REMARK Flexibility Score: inf
ROOT
ATOM      1  C   UNL     1       3.553   1.906   3.758  1.00  0.00     0.188 C 
ENDROOT
BRANCH   1   2
ATOM      2  C   UNL     1       2.353   2.863   3.880  1.00  0.00     0.188 C 
BRANCH   2   3
ATOM      3  O   UNL     1       1.656   3.063   5.098  1.00  0.00    -0.376 OA
BRANCH   3   4
ATOM      4  C   UNL     1       0.744   2.036   5.495  1.00  0.00     0.202 C 
BRANCH   4   5
ATOM      5  C   UNL     1      -0.305   1.568   4.498  1.00  0.00     0.261 C 
BRANCH   5   6
ATOM      6  O   UNL     1       0.370   0.655   3.641  1.00  0.00    -0.460 OA
BRANCH   6   7
ATOM      7  C   UNL     1      -0.180   0.494   2.438  1.00  0.00     0.338 C 
ATOM      8  O   UNL     1      -1.341   0.571   2.095  1.00  0.00    -0.246 OA
BRANCH   7   9
ATOM      9  C   UNL     1       0.958   0.691   1.539  1.00  0.00     0.065 A 
ATOM     10  C   UNL     1       1.910   1.933  -0.247  1.00  0.00     0.053 A 
ATOM     11  C   UNL     1       2.950   0.997  -0.333  1.00  0.00     0.027 A 
ATOM     12  C   UNL     1       0.965   1.869   0.768  1.00  0.00    -0.012 A 
ATOM     13  C   UNL     1       3.010  -0.082   0.550  1.00  0.00     0.003 A 
ATOM     14  C   UNL     1      -0.024   2.979   1.038  1.00  0.00     0.047 C 
ATOM     15  C   UNL     1       1.983  -0.262   1.471  1.00  0.00     0.016 A 
BRANCH  10  16
ATOM     16  N   UNL     1       1.849   2.911  -1.271  1.00  0.00    -0.279 N 
ATOM     17  H   UNL     1       2.530   3.619  -1.337  1.00  0.00     0.180 HD
BRANCH  16  18
ATOM     18  S   UNL     1       0.568   2.825  -2.383  1.00  0.00     0.265 S 
ATOM     19  O   UNL     1       1.056   3.610  -3.503  1.00  0.00    -0.201 OA
ATOM     20  O   UNL     1      -0.665   3.212  -1.739  1.00  0.00    -0.201 OA
BRANCH  18  21
ATOM     21  C   UNL     1       0.219   1.278  -3.069  1.00  0.00     0.131 A 
ATOM     22  C   UNL     1      -0.196  -0.492  -1.107  1.00  0.00     0.070 C 
ATOM     23  C   UNL     1       0.018   0.002  -2.477  1.00  0.00     0.080 A 
ATOM     24  N   UNL     1      -0.091  -0.942  -3.414  1.00  0.00    -0.176 NA
ATOM     25  N   UNL     1      -0.353  -0.264  -4.529  1.00  0.00    -0.266 N 
ATOM     26  C   UNL     1      -0.233   1.088  -4.375  1.00  0.00     0.056 A 
ATOM     27  C   UNL     1      -0.636   2.070  -5.411  1.00  0.00     0.068 C 
BRANCH  25  28
ATOM     28  C   UNL     1      -0.807  -1.034  -5.679  1.00  0.00     0.101 C 
ATOM     29  C   UNL     1       0.321  -1.933  -6.178  1.00  0.00     0.033 C 
ATOM     30  C   UNL     1      -2.058  -1.844  -5.322  1.00  0.00     0.033 C 
ENDBRANCH  25  28
ENDBRANCH  18  21
ENDBRANCH  16  18
ENDBRANCH  10  16
ENDBRANCH   7   9
ENDBRANCH   6   7
ENDBRANCH   5   6
ENDBRANCH   4   5
ENDBRANCH   3   4
ENDBRANCH   2   3
ENDBRANCH   1   2
BRANCH   1  31
ATOM     31  O   UNL     1       3.413   0.581   4.230  1.00  0.00    -0.377 OA
BRANCH  31  32
ATOM     32  C   UNL     1       4.048   0.223   5.469  1.00  0.00     0.188 C 
BRANCH  32  33
ATOM     33  C   UNL     1       5.013   1.215   6.114  1.00  0.00     0.188 C 
BRANCH  33  34
ATOM     34  O   UNL     1       4.245   2.361   6.495  1.00  0.00    -0.376 OA
BRANCH  34  35
ATOM     35  C   UNL     1       4.955   3.583   6.596  1.00  0.00     0.202 C 
BRANCH  35  36
ATOM     36  C   UNL     1       5.931   3.607   7.770  1.00  0.00     0.261 C 
BRANCH  36  37
ATOM     37  O   UNL     1       5.203   3.648   9.012  1.00  0.00    -0.460 OA
BRANCH  37  38
ATOM     38  C   UNL     1       5.239   2.484   9.721  1.00  0.00     0.338 C 
ATOM     39  O   UNL     1       6.194   2.131  10.389  1.00  0.00    -0.246 OA
BRANCH  38  40
ATOM     40  C   UNL     1       3.957   1.741   9.571  1.00  0.00     0.060 A 
ATOM     41  C   UNL     1       3.889   0.356   9.768  1.00  0.00     0.016 A 
ATOM     42  C   UNL     1       2.842   2.406   9.086  1.00  0.00     0.016 A 
ATOM     43  C   UNL     1       2.757  -0.378   9.347  1.00  0.00     0.010 A 
ATOM     44  C   UNL     1       1.754   1.672   8.645  1.00  0.00     0.010 A 
ATOM     45  C   UNL     1       1.695   0.268   8.711  1.00  0.00    -0.014 A 
BRANCH  45  46
ATOM     46  C   UNL     1       0.596  -0.385   7.942  1.00  0.00     0.031 A 
ATOM     47  C   UNL     1      -0.818   0.163   8.018  1.00  0.00     0.074 A 
ATOM     48  C   UNL     1       0.896  -1.209   6.894  1.00  0.00     0.049 A 
ATOM     49  N   UNL     1      -1.811  -0.259   7.305  1.00  0.00    -0.248 NA
ATOM     50  C   UNL     1      -1.244   1.262   8.890  1.00  0.00     0.031 C 
ATOM     51  C   UNL     1       0.070  -1.413   5.699  1.00  0.00     0.029 A 
ATOM     52  N   UNL     1       1.992  -2.022   6.606  1.00  0.00    -0.354 N 
ATOM     53  C   UNL     1      -2.808   0.695   7.307  1.00  0.00     0.074 A 
ATOM     54  C   UNL     1      -2.449   1.572   8.392  1.00  0.00     0.031 C 
ATOM     55  C   UNL     1       0.596  -2.346   4.898  1.00  0.00     0.029 A 
ATOM     56  C   UNL     1       1.596  -3.008   5.690  1.00  0.00     0.049 A 
ATOM     57  H   UNL     1       2.895  -1.921   6.984  1.00  0.00     0.167 HD
ATOM     58  C   UNL     1      -3.743   0.691   6.306  1.00  0.00     0.031 A 
ATOM     59  C   UNL     1       1.538  -4.346   5.966  1.00  0.00     0.031 A 
ATOM     60  C   UNL     1      -3.631  -0.506   5.457  1.00  0.00     0.049 A 
ATOM     61  C   UNL     1       0.111  -4.875   5.883  1.00  0.00     0.074 A 
ATOM     62  C   UNL     1      -3.422  -0.727   4.106  1.00  0.00     0.029 A 
ATOM     63  N   UNL     1      -3.581  -1.761   6.060  1.00  0.00    -0.354 N 
ATOM     64  N   UNL     1      -0.930  -4.085   5.961  1.00  0.00    -0.248 NA
ATOM     65  C   UNL     1      -0.294  -6.260   5.644  1.00  0.00     0.031 C 
ATOM     66  C   UNL     1      -3.153  -2.112   3.919  1.00  0.00     0.029 A 
ATOM     67  C   UNL     1      -3.256  -2.741   5.149  1.00  0.00     0.049 A 
ATOM     68  H   UNL     1      -3.756  -1.926   7.015  1.00  0.00     0.167 HD
ATOM     69  C   UNL     1      -2.075  -4.769   5.684  1.00  0.00     0.074 A 
ATOM     70  C   UNL     1      -1.638  -6.147   5.562  1.00  0.00     0.031 C 
ATOM     71  C   UNL     1      -3.280  -4.143   5.541  1.00  0.00     0.031 A 
BRANCH  58  72
ATOM     72  C   UNL     1      -4.699   1.832   5.952  1.00  0.00    -0.014 A 
ATOM     73  C   UNL     1      -5.536   1.720   4.814  1.00  0.00     0.010 A 
ATOM     74  C   UNL     1      -4.804   3.050   6.651  1.00  0.00     0.010 A 
ATOM     75  C   UNL     1      -6.408   2.743   4.400  1.00  0.00     0.020 A 
ATOM     76  C   UNL     1      -5.691   4.076   6.264  1.00  0.00     0.020 A 
ATOM     77  C   UNL     1      -6.488   3.918   5.136  1.00  0.00     0.054 A 
BRANCH  77  78
ATOM     78  S   UNL     1      -7.657   5.210   4.628  1.00  0.00     0.124 S 
ATOM     79  O   UNL     1      -7.112   5.642   3.344  1.00  0.00    -0.237 OA
ATOM     80  O   UNL     1      -8.925   4.488   4.565  1.00  0.00    -0.237 OA
ATOM     81  O   UNL     1      -7.566   6.200   5.700  1.00  0.00    -0.744 OA
ENDBRANCH  77  78
ENDBRANCH  58  72
BRANCH  59  82
ATOM     82  C   UNL     1       2.704  -4.824   6.760  1.00  0.00    -0.014 A 
ATOM     83  C   UNL     1       3.907  -4.908   6.020  1.00  0.00     0.010 A 
ATOM     84  C   UNL     1       2.775  -4.513   8.132  1.00  0.00     0.010 A 
ATOM     85  C   UNL     1       5.097  -4.402   6.549  1.00  0.00     0.020 A 
ATOM     86  C   UNL     1       3.976  -4.014   8.668  1.00  0.00     0.020 A 
ATOM     87  C   UNL     1       5.097  -3.878   7.841  1.00  0.00     0.054 A 
BRANCH  87  88
ATOM     88  S   UNL     1       6.462  -2.758   8.298  1.00  0.00     0.124 S 
ATOM     89  O   UNL     1       7.608  -3.659   8.337  1.00  0.00    -0.237 OA
ATOM     90  O   UNL     1       6.447  -1.796   7.196  1.00  0.00    -0.237 OA
ATOM     91  O   UNL     1       6.034  -2.221   9.585  1.00  0.00    -0.744 OA
ENDBRANCH  87  88
ENDBRANCH  59  82
BRANCH  71  92
ATOM     92  C   UNL     1      -4.636  -4.779   5.715  1.00  0.00    -0.014 A 
ATOM     93  C   UNL     1      -4.832  -5.983   6.403  1.00  0.00     0.010 A 
ATOM     94  C   UNL     1      -5.794  -4.027   5.385  1.00  0.00     0.010 A 
ATOM     95  C   UNL     1      -6.120  -6.424   6.731  1.00  0.00     0.020 A 
ATOM     96  C   UNL     1      -7.078  -4.434   5.746  1.00  0.00     0.020 A 
ATOM     97  C   UNL     1      -7.233  -5.644   6.408  1.00  0.00     0.054 A 
BRANCH  97  98
ATOM     98  S   UNL     1      -8.875  -6.187   6.937  1.00  0.00     0.124 S 
ATOM     99  O   UNL     1      -9.206  -7.175   5.913  1.00  0.00    -0.237 OA
ATOM    100  O   UNL     1      -8.621  -6.729   8.270  1.00  0.00    -0.237 OA
ATOM    101  O   UNL     1      -9.673  -4.965   6.912  1.00  0.00    -0.744 OA
ENDBRANCH  97  98
ENDBRANCH  71  92
ENDBRANCH  45  46
ENDBRANCH  38  40
ENDBRANCH  37  38
ENDBRANCH  36  37
ENDBRANCH  35  36
ENDBRANCH  34  35
ENDBRANCH  33  34
ENDBRANCH  32  33
ENDBRANCH  31  32
ENDBRANCH   1  31
TORSDOF 27
