REMARK SMILES C[C@H]1CCC[C@H](C)N1C(=O)[C@H]1[C@@H](C(=O)OCCOCCOCCOCCOC(=O)c2ccc(-c3c4nc(c(-c5ccc(S(=O)(=O)[O-])cc5)c5ccc([nH]5)c(-c5ccc(S(=O)(=O)[O-])cc5)c5nc(c(-c6ccc(S(=O)(=O)[O-])cc6)c6ccc3[nH]6)C=C5)C=C4)cc2)[C@H]2CC[C@@H]1O2
REMARK SMILES IDX 22 1 21 2 20 3 19 4 18 5 17 6 16 7 15 8 13 9 14 10 12 11
REMARK SMILES IDX 11 12 93 13 90 14 92 15 94 16 91 17 9 18 1 19 2 20 3 21 8 22
REMARK SMILES IDX 4 23 6 24 5 25 7 26 10 27 23 28 24 29 25 30 26 31 27 32
REMARK SMILES IDX 28 33 29 34 30 35 31 36 89 37 32 38 88 39 33 40 34 41 35 42
REMARK SMILES IDX 82 43 36 44 87 45 81 46 83 47 37 48 86 49 80 50 79 51 38 53
REMARK SMILES IDX 68 54 49 55 67 56 50 57 53 58 66 59 84 60 51 61 52 62 65 64
REMARK SMILES IDX 85 65 54 66 39 67 40 68 48 69 41 70 47 71 42 72 43 73 44 74
REMARK SMILES IDX 45 75 46 76 69 77 70 78 78 79 71 80 77 81 72 82 73 83 74 84
REMARK SMILES IDX 75 85 76 86 55 87 56 88 64 89 57 90 63 91 58 92 59 93 60 94
REMARK SMILES IDX 61 95 62 96
REMARK H PARENT 83 52 53 63
REMARK Flexibility Score: inf
ROOT
ATOM      1  C   UNL     1       6.460   2.644   3.353  1.00  0.00     0.188 C 
ENDROOT
BRANCH   1   2
ATOM      2  O   UNL     1       5.194   2.566   4.012  1.00  0.00    -0.377 OA
BRANCH   2   3
ATOM      3  C   UNL     1       5.092   3.011   5.359  1.00  0.00     0.188 C 
BRANCH   3   4
ATOM      4  C   UNL     1       4.279   2.032   6.199  1.00  0.00     0.188 C 
BRANCH   4   5
ATOM      5  O   UNL     1       4.881   0.758   6.436  1.00  0.00    -0.376 OA
BRANCH   5   6
ATOM      6  C   UNL     1       5.101  -0.097   5.315  1.00  0.00     0.202 C 
BRANCH   6   7
ATOM      7  C   UNL     1       3.860  -0.758   4.705  1.00  0.00     0.261 C 
BRANCH   7   8
ATOM      8  O   UNL     1       2.943   0.198   4.141  1.00  0.00    -0.463 OA
BRANCH   8   9
ATOM      9  C   UNL     1       1.790   0.454   4.772  1.00  0.00     0.312 C 
ATOM     10  O   UNL     1       1.457  -0.150   5.792  1.00  0.00    -0.252 OA
BRANCH   9  11
ATOM     11  C   UNL     1       0.858   1.520   4.133  1.00  0.00     0.143 C 
ATOM     12  C   UNL     1       0.886   2.772   3.158  1.00  0.00     0.124 C 
ATOM     13  C   UNL     1      -0.328   3.558   3.771  1.00  0.00     0.132 C 
ATOM     14  C   UNL     1       0.054   2.066   5.397  1.00  0.00     0.133 C 
ATOM     15  C   UNL     1      -0.151   4.458   4.988  1.00  0.00     0.035 C 
ATOM     16  O   UNL     1      -0.996   2.484   4.470  1.00  0.00    -0.373 OA
ATOM     17  C   UNL     1      -0.096   3.449   6.120  1.00  0.00     0.036 C 
BRANCH  12  18
ATOM     18  C   UNL     1       1.958   3.831   2.671  1.00  0.00     0.229 C 
ATOM     19  C   UNL     1       3.080   1.253   1.747  1.00  0.00     0.031 C 
ATOM     20  C   UNL     1       3.345   2.493   0.978  1.00  0.00     0.082 C 
ATOM     21  C   UNL     1       3.168   2.264  -0.511  1.00  0.00     0.025 C 
ATOM     22  N   UNL     1       2.633   3.693   1.433  1.00  0.00    -0.337 N 
ATOM     23  C   UNL     1       3.859   3.405  -1.234  1.00  0.00     0.004 C 
ATOM     24  C   UNL     1       3.101   4.929   0.734  1.00  0.00     0.082 C 
ATOM     25  C   UNL     1       3.251   4.739  -0.802  1.00  0.00     0.025 C 
ATOM     26  C   UNL     1       4.408   5.482   1.321  1.00  0.00     0.031 C 
ATOM     27  O   UNL     1       2.031   4.925   3.245  1.00  0.00    -0.274 OA
ENDBRANCH  12  18
ENDBRANCH   9  11
ENDBRANCH   8   9
ENDBRANCH   7   8
ENDBRANCH   6   7
ENDBRANCH   5   6
ENDBRANCH   4   5
ENDBRANCH   3   4
ENDBRANCH   2   3
ENDBRANCH   1   2
BRANCH   1  28
ATOM     28  C   UNL     1       7.690   3.073   4.160  1.00  0.00     0.188 C 
BRANCH  28  29
ATOM     29  O   UNL     1       7.678   4.382   4.738  1.00  0.00    -0.376 OA
BRANCH  29  30
ATOM     30  C   UNL     1       6.983   5.425   4.060  1.00  0.00     0.202 C 
BRANCH  30  31
ATOM     31  C   UNL     1       7.781   6.130   2.966  1.00  0.00     0.261 C 
BRANCH  31  32
ATOM     32  O   UNL     1       7.947   5.287   1.816  1.00  0.00    -0.460 OA
BRANCH  32  33
ATOM     33  C   UNL     1       9.155   4.680   1.727  1.00  0.00     0.338 C 
ATOM     34  O   UNL     1      10.102   4.806   2.478  1.00  0.00    -0.246 OA
BRANCH  33  35
ATOM     35  C   UNL     1       9.110   3.676   0.648  1.00  0.00     0.060 A 
ATOM     36  C   UNL     1       9.622   2.402   0.922  1.00  0.00     0.016 A 
ATOM     37  C   UNL     1       8.656   4.005  -0.631  1.00  0.00     0.016 A 
ATOM     38  C   UNL     1       9.742   1.467  -0.100  1.00  0.00     0.010 A 
ATOM     39  C   UNL     1       8.790   3.071  -1.660  1.00  0.00     0.010 A 
ATOM     40  C   UNL     1       9.380   1.820  -1.405  1.00  0.00    -0.014 A 
BRANCH  40  41
ATOM     41  C   UNL     1       9.829   0.971  -2.531  1.00  0.00     0.031 A 
ATOM     42  C   UNL     1      11.079   1.370  -3.267  1.00  0.00     0.074 A 
ATOM     43  C   UNL     1       9.164  -0.149  -2.864  1.00  0.00     0.049 A 
ATOM     44  N   UNL     1      11.639   0.814  -4.308  1.00  0.00    -0.248 NA
ATOM     45  C   UNL     1      11.792   2.556  -2.760  1.00  0.00     0.031 C 
ATOM     46  C   UNL     1       7.983  -0.669  -2.176  1.00  0.00     0.029 A 
ATOM     47  N   UNL     1       9.395  -1.049  -3.872  1.00  0.00    -0.354 N 
ATOM     48  C   UNL     1      12.760   1.588  -4.590  1.00  0.00     0.074 A 
ATOM     49  C   UNL     1      12.786   2.667  -3.628  1.00  0.00     0.031 C 
ATOM     50  C   UNL     1       7.586  -1.796  -2.792  1.00  0.00     0.029 A 
ATOM     51  C   UNL     1       8.459  -2.052  -3.937  1.00  0.00     0.049 A 
ATOM     52  H   UNL     1      10.158  -0.983  -4.490  1.00  0.00     0.167 HD
ATOM     53  C   UNL     1      13.685   1.412  -5.561  1.00  0.00     0.031 A 
ATOM     54  C   UNL     1       8.310  -3.045  -4.836  1.00  0.00     0.031 A 
ATOM     55  C   UNL     1      13.644   0.341  -6.520  1.00  0.00     0.049 A 
ATOM     56  C   UNL     1       9.301  -3.166  -5.965  1.00  0.00     0.074 A 
ATOM     57  C   UNL     1      14.537   0.067  -7.540  1.00  0.00     0.029 A 
ATOM     58  N   UNL     1      12.653  -0.626  -6.583  1.00  0.00    -0.354 N 
ATOM     59  N   UNL     1      10.363  -2.436  -6.214  1.00  0.00    -0.248 NA
ATOM     60  C   UNL     1       9.076  -4.250  -6.932  1.00  0.00     0.031 C 
ATOM     61  C   UNL     1      14.049  -1.025  -8.263  1.00  0.00     0.029 A 
ATOM     62  C   UNL     1      12.893  -1.479  -7.646  1.00  0.00     0.049 A 
ATOM     63  H   UNL     1      11.890  -0.696  -5.964  1.00  0.00     0.167 HD
ATOM     64  C   UNL     1      10.951  -2.993  -7.345  1.00  0.00     0.074 A 
ATOM     65  C   UNL     1      10.132  -4.126  -7.725  1.00  0.00     0.031 C 
ATOM     66  C   UNL     1      12.069  -2.606  -8.008  1.00  0.00     0.031 A 
BRANCH  53  67
ATOM     67  C   UNL     1      14.793   2.426  -5.663  1.00  0.00    -0.014 A 
ATOM     68  C   UNL     1      15.808   2.507  -4.692  1.00  0.00     0.010 A 
ATOM     69  C   UNL     1      14.841   3.288  -6.774  1.00  0.00     0.010 A 
ATOM     70  C   UNL     1      16.829   3.454  -4.814  1.00  0.00     0.020 A 
ATOM     71  C   UNL     1      15.876   4.215  -6.915  1.00  0.00     0.020 A 
ATOM     72  C   UNL     1      16.857   4.302  -5.925  1.00  0.00     0.054 A 
BRANCH  72  73
ATOM     73  S   UNL     1      18.210   5.500  -6.072  1.00  0.00     0.124 S 
ATOM     74  O   UNL     1      17.885   6.453  -5.013  1.00  0.00    -0.237 OA
ATOM     75  O   UNL     1      19.392   4.676  -5.833  1.00  0.00    -0.237 OA
ATOM     76  O   UNL     1      18.075   6.013  -7.433  1.00  0.00    -0.744 OA
ENDBRANCH  72  73
ENDBRANCH  53  67
BRANCH  54  77
ATOM     77  C   UNL     1       7.164  -3.987  -4.720  1.00  0.00    -0.014 A 
ATOM     78  C   UNL     1       7.374  -5.342  -4.410  1.00  0.00     0.010 A 
ATOM     79  C   UNL     1       5.848  -3.529  -4.921  1.00  0.00     0.010 A 
ATOM     80  C   UNL     1       6.293  -6.224  -4.320  1.00  0.00     0.020 A 
ATOM     81  C   UNL     1       4.763  -4.400  -4.801  1.00  0.00     0.020 A 
ATOM     82  C   UNL     1       4.993  -5.745  -4.512  1.00  0.00     0.054 A 
BRANCH  82  83
ATOM     83  S   UNL     1       3.603  -6.897  -4.337  1.00  0.00     0.124 S 
ATOM     84  O   UNL     1       3.743  -7.726  -5.529  1.00  0.00    -0.237 OA
ATOM     85  O   UNL     1       3.901  -7.555  -3.067  1.00  0.00    -0.237 OA
ATOM     86  O   UNL     1       2.434  -6.020  -4.316  1.00  0.00    -0.744 OA
ENDBRANCH  82  83
ENDBRANCH  54  77
BRANCH  66  87
ATOM     87  C   UNL     1      12.508  -3.435  -9.187  1.00  0.00    -0.014 A 
ATOM     88  C   UNL     1      11.798  -3.419 -10.400  1.00  0.00     0.010 A 
ATOM     89  C   UNL     1      13.698  -4.182  -9.100  1.00  0.00     0.010 A 
ATOM     90  C   UNL     1      12.256  -4.157 -11.495  1.00  0.00     0.020 A 
ATOM     91  C   UNL     1      14.176  -4.895 -10.201  1.00  0.00     0.020 A 
ATOM     92  C   UNL     1      13.445  -4.887 -11.390  1.00  0.00     0.054 A 
BRANCH  92  93
ATOM     93  S   UNL     1      14.046  -5.788 -12.845  1.00  0.00     0.124 S 
ATOM     94  O   UNL     1      13.088  -6.886 -12.940  1.00  0.00    -0.237 OA
ATOM     95  O   UNL     1      13.958  -4.783 -13.901  1.00  0.00    -0.237 OA
ATOM     96  O   UNL     1      15.405  -6.178 -12.475  1.00  0.00    -0.744 OA
ENDBRANCH  92  93
ENDBRANCH  66  87
ENDBRANCH  40  41
ENDBRANCH  33  35
ENDBRANCH  32  33
ENDBRANCH  31  32
ENDBRANCH  30  31
ENDBRANCH  29  30
ENDBRANCH  28  29
ENDBRANCH   1  28
TORSDOF 24
