REMARK SMILES CCOC(=O)c1c(NC(=O)/C=C/C(=O)OCCOCCOCCOCCOC(=O)c2ccc(-c3c4nc(c(-c5ccc(S(=O)(=O)[O-])cc5)c5ccc([nH]5)c(-c5ccc(S(=O)(=O)[O-])cc5)c5nc(c(-c6ccc(S(=O)(=O)[O-])cc6)c6ccc3[nH]6)C=C5)C=C4)cc2)sc(C)c1-c1ccc(C)c(C)c1
REMARK SMILES IDX 20 1 19 2 18 3 17 4 16 5 15 6 13 7 14 8 12 9 11 10 9 11 8 12
REMARK SMILES IDX 10 14 7 15 6 16 93 17 90 18 91 19 92 20 4 21 5 22 3 23 2 24
REMARK SMILES IDX 1 25 94 26 95 27 101 28 96 29 99 30 97 31 100 32 98 33 21 34
REMARK SMILES IDX 22 35 23 36 24 37 25 38 26 39 27 40 28 41 29 42 30 43 31 44
REMARK SMILES IDX 89 45 32 46 88 47 33 48 34 49 35 50 82 51 36 52 87 53 81 54
REMARK SMILES IDX 83 55 37 56 86 57 80 58 79 59 38 61 68 62 49 63 67 64 50 65
REMARK SMILES IDX 53 66 66 67 84 68 51 69 52 70 65 72 85 73 54 74 39 75 40 76
REMARK SMILES IDX 48 77 41 78 47 79 42 80 43 81 44 82 45 83 46 84 69 85 70 86
REMARK SMILES IDX 78 87 71 88 77 89 72 90 73 91 74 92 75 93 76 94 55 95 56 96
REMARK SMILES IDX 64 97 57 98 63 99 58 100 59 101 60 102 61 103 62 104
REMARK H PARENT 8 13 83 60 53 71
REMARK Flexibility Score: inf
ROOT
ATOM      1  C   UNL     1       4.585  -1.717  -8.230  1.00  0.00     0.188 C 
ENDROOT
BRANCH   1   2
ATOM      2  C   UNL     1       4.747  -0.313  -8.853  1.00  0.00     0.188 C 
BRANCH   2   3
ATOM      3  O   UNL     1       5.402  -0.301 -10.104  1.00  0.00    -0.376 OA
BRANCH   3   4
ATOM      4  C   UNL     1       6.686   0.293 -10.172  1.00  0.00     0.202 C 
BRANCH   4   5
ATOM      5  C   UNL     1       7.794  -0.193  -9.219  1.00  0.00     0.261 C 
BRANCH   5   6
ATOM      6  O   UNL     1       7.405  -0.430  -7.853  1.00  0.00    -0.460 OA
BRANCH   6   7
ATOM      7  C   UNL     1       7.484   0.615  -7.001  1.00  0.00     0.331 C 
ATOM      8  O   UNL     1       7.821   1.752  -7.296  1.00  0.00    -0.247 OA
BRANCH   7   9
ATOM      9  C   UNL     1       6.962   0.288  -5.653  1.00  0.00     0.099 C 
ATOM     10  C   UNL     1       6.506  -0.910  -5.256  1.00  0.00     0.079 C 
BRANCH  10  11
ATOM     11  C   UNL     1       5.854  -1.101  -3.937  1.00  0.00     0.249 C 
ATOM     12  N   UNL     1       4.793  -0.354  -3.491  1.00  0.00    -0.313 N 
ATOM     13  H   UNL     1       4.628  -0.447  -2.525  1.00  0.00     0.171 HD
ATOM     14  O   UNL     1       6.297  -1.986  -3.201  1.00  0.00    -0.270 OA
BRANCH  12  15
ATOM     15  C   UNL     1       3.904   0.506  -4.121  1.00  0.00     0.111 A 
ATOM     16  C   UNL     1       2.877   1.255  -3.561  1.00  0.00     0.102 A 
ATOM     17  C   UNL     1       2.211   2.081  -4.561  1.00  0.00     0.012 A 
ATOM     18  S   UNL     1       3.850   0.618  -5.795  1.00  0.00    -0.122 S 
ATOM     19  C   UNL     1       2.767   1.911  -5.816  1.00  0.00     0.012 A 
ATOM     20  C   UNL     1       2.543   2.616  -7.116  1.00  0.00     0.057 C 
BRANCH  16  21
ATOM     21  C   UNL     1       2.550   1.204  -2.144  1.00  0.00     0.341 C 
ATOM     22  O   UNL     1       3.394   1.143  -1.266  1.00  0.00    -0.246 OA
BRANCH  21  23
ATOM     23  O   UNL     1       1.202   1.187  -1.937  1.00  0.00    -0.462 OA
BRANCH  23  24
ATOM     24  C   UNL     1       0.758   1.222  -0.576  1.00  0.00     0.230 C 
ATOM     25  C   UNL     1       0.980  -0.103   0.130  1.00  0.00     0.049 C 
ENDBRANCH  23  24
ENDBRANCH  21  23
ENDBRANCH  16  21
BRANCH  17  26
ATOM     26  C   UNL     1       1.121   3.023  -4.353  1.00  0.00    -0.016 A 
ATOM     27  C   UNL     1       1.252   4.087  -3.464  1.00  0.00     0.009 A 
ATOM     28  C   UNL     1      -0.082   2.848  -5.050  1.00  0.00     0.012 A 
ATOM     29  C   UNL     1       0.179   4.957  -3.265  1.00  0.00     0.004 A 
ATOM     30  C   UNL     1      -1.159   3.729  -4.879  1.00  0.00    -0.048 A 
ATOM     31  C   UNL     1      -1.032   4.790  -3.963  1.00  0.00    -0.048 A 
ATOM     32  C   UNL     1      -2.410   3.494  -5.678  1.00  0.00     0.044 C 
ATOM     33  C   UNL     1      -2.150   5.751  -3.665  1.00  0.00     0.044 C 
ENDBRANCH  17  26
ENDBRANCH  12  15
ENDBRANCH  10  11
ENDBRANCH   7   9
ENDBRANCH   6   7
ENDBRANCH   5   6
ENDBRANCH   4   5
ENDBRANCH   3   4
ENDBRANCH   2   3
ENDBRANCH   1   2
BRANCH   1  34
ATOM     34  O   UNL     1       5.382  -2.789  -8.700  1.00  0.00    -0.377 OA
BRANCH  34  35
ATOM     35  C   UNL     1       5.502  -3.002 -10.101  1.00  0.00     0.188 C 
BRANCH  35  36
ATOM     36  C   UNL     1       4.355  -2.626 -11.072  1.00  0.00     0.188 C 
BRANCH  36  37
ATOM     37  O   UNL     1       3.177  -2.122 -10.459  1.00  0.00    -0.376 OA
BRANCH  37  38
ATOM     38  C   UNL     1       2.040  -2.969 -10.455  1.00  0.00     0.202 C 
BRANCH  38  39
ATOM     39  C   UNL     1       2.149  -4.265  -9.637  1.00  0.00     0.261 C 
BRANCH  39  40
ATOM     40  O   UNL     1       3.255  -5.121  -9.960  1.00  0.00    -0.460 OA
BRANCH  40  41
ATOM     41  C   UNL     1       3.275  -5.669 -11.196  1.00  0.00     0.338 C 
ATOM     42  O   UNL     1       2.443  -5.530 -12.073  1.00  0.00    -0.246 OA
BRANCH  41  43
ATOM     43  C   UNL     1       4.598  -6.304 -11.376  1.00  0.00     0.060 A 
ATOM     44  C   UNL     1       5.450  -5.836 -12.386  1.00  0.00     0.016 A 
ATOM     45  C   UNL     1       5.010  -7.328 -10.521  1.00  0.00     0.016 A 
ATOM     46  C   UNL     1       6.713  -6.406 -12.554  1.00  0.00     0.010 A 
ATOM     47  C   UNL     1       6.262  -7.917 -10.710  1.00  0.00     0.010 A 
ATOM     48  C   UNL     1       7.109  -7.477 -11.743  1.00  0.00    -0.014 A 
BRANCH  48  49
ATOM     49  C   UNL     1       8.320  -8.258 -12.091  1.00  0.00     0.031 A 
ATOM     50  C   UNL     1       8.141  -9.538 -12.862  1.00  0.00     0.074 A 
ATOM     51  C   UNL     1       9.550  -7.842 -11.741  1.00  0.00     0.049 A 
ATOM     52  N   UNL     1       9.037 -10.413 -13.235  1.00  0.00    -0.248 NA
ATOM     53  C   UNL     1       6.764  -9.878 -13.262  1.00  0.00     0.031 C 
ATOM     54  C   UNL     1       9.856  -6.603 -11.027  1.00  0.00     0.029 A 
ATOM     55  N   UNL     1      10.776  -8.433 -11.930  1.00  0.00    -0.354 N 
ATOM     56  C   UNL     1       8.334 -11.415 -13.894  1.00  0.00     0.074 A 
ATOM     57  C   UNL     1       6.936 -11.050 -13.856  1.00  0.00     0.031 C 
ATOM     58  C   UNL     1      11.184  -6.535 -10.824  1.00  0.00     0.029 A 
ATOM     59  C   UNL     1      11.817  -7.740 -11.357  1.00  0.00     0.049 A 
ATOM     60  H   UNL     1      10.898  -9.273 -12.430  1.00  0.00     0.167 HD
ATOM     61  C   UNL     1       8.811 -12.539 -14.477  1.00  0.00     0.031 A 
ATOM     62  C   UNL     1      13.123  -8.059 -11.248  1.00  0.00     0.031 A 
ATOM     63  C   UNL     1      10.203 -12.901 -14.504  1.00  0.00     0.049 A 
ATOM     64  C   UNL     1      13.621  -9.350 -11.852  1.00  0.00     0.074 A 
ATOM     65  C   UNL     1      10.789 -14.002 -15.103  1.00  0.00     0.029 A 
ATOM     66  N   UNL     1      11.223 -12.184 -13.897  1.00  0.00    -0.354 N 
ATOM     67  N   UNL     1      12.952 -10.262 -12.517  1.00  0.00    -0.248 NA
ATOM     68  C   UNL     1      15.052  -9.649 -11.698  1.00  0.00     0.031 C 
ATOM     69  C   UNL     1      12.152 -13.992 -14.793  1.00  0.00     0.029 A 
ATOM     70  C   UNL     1      12.429 -12.841 -14.072  1.00  0.00     0.049 A 
ATOM     71  H   UNL     1      11.106 -11.335 -13.413  1.00  0.00     0.167 HD
ATOM     72  C   UNL     1      13.886 -11.227 -12.885  1.00  0.00     0.074 A 
ATOM     73  C   UNL     1      15.169 -10.777 -12.386  1.00  0.00     0.031 C 
ATOM     74  C   UNL     1      13.700 -12.381 -13.573  1.00  0.00     0.031 A 
BRANCH  61  75
ATOM     75  C   UNL     1       7.819 -13.488 -15.095  1.00  0.00    -0.014 A 
ATOM     76  C   UNL     1       7.138 -13.170 -16.284  1.00  0.00     0.010 A 
ATOM     77  C   UNL     1       7.620 -14.751 -14.509  1.00  0.00     0.010 A 
ATOM     78  C   UNL     1       6.261 -14.091 -16.862  1.00  0.00     0.020 A 
ATOM     79  C   UNL     1       6.767 -15.686 -15.100  1.00  0.00     0.020 A 
ATOM     80  C   UNL     1       6.085 -15.346 -16.270  1.00  0.00     0.054 A 
BRANCH  80  81
ATOM     81  S   UNL     1       4.985 -16.541 -17.075  1.00  0.00     0.124 S 
ATOM     82  O   UNL     1       3.672 -15.940 -16.854  1.00  0.00    -0.237 OA
ATOM     83  O   UNL     1       5.457 -16.527 -18.457  1.00  0.00    -0.237 OA
ATOM     84  O   UNL     1       5.230 -17.785 -16.349  1.00  0.00    -0.744 OA
ENDBRANCH  80  81
ENDBRANCH  61  75
BRANCH  62  85
ATOM     85  C   UNL     1      14.054  -7.165 -10.500  1.00  0.00    -0.014 A 
ATOM     86  C   UNL     1      15.102  -6.495 -11.156  1.00  0.00     0.010 A 
ATOM     87  C   UNL     1      13.908  -7.002  -9.109  1.00  0.00     0.010 A 
ATOM     88  C   UNL     1      16.000  -5.703 -10.433  1.00  0.00     0.020 A 
ATOM     89  C   UNL     1      14.782  -6.184  -8.389  1.00  0.00     0.020 A 
ATOM     90  C   UNL     1      15.833  -5.551  -9.054  1.00  0.00     0.054 A 
BRANCH  90  91
ATOM     91  S   UNL     1      16.990  -4.489  -8.143  1.00  0.00     0.124 S 
ATOM     92  O   UNL     1      18.213  -5.285  -8.165  1.00  0.00    -0.237 OA
ATOM     93  O   UNL     1      17.008  -3.276  -8.957  1.00  0.00    -0.237 OA
ATOM     94  O   UNL     1      16.361  -4.342  -6.833  1.00  0.00    -0.744 OA
ENDBRANCH  90  91
ENDBRANCH  62  85
BRANCH  74  95
ATOM     95  C   UNL     1      14.914 -13.225 -13.872  1.00  0.00    -0.014 A 
ATOM     96  C   UNL     1      15.590 -13.926 -12.858  1.00  0.00     0.010 A 
ATOM     97  C   UNL     1      15.345 -13.367 -15.204  1.00  0.00     0.010 A 
ATOM     98  C   UNL     1      16.695 -14.725 -13.167  1.00  0.00     0.020 A 
ATOM     99  C   UNL     1      16.427 -14.192 -15.522  1.00  0.00     0.020 A 
ATOM    100  C   UNL     1      17.105 -14.854 -14.498  1.00  0.00     0.054 A 
BRANCH 100 101
ATOM    101  S   UNL     1      18.515 -15.931 -14.876  1.00  0.00     0.124 S 
ATOM    102  O   UNL     1      19.636 -15.165 -14.338  1.00  0.00    -0.237 OA
ATOM    103  O   UNL     1      18.185 -17.156 -14.152  1.00  0.00    -0.237 OA
ATOM    104  O   UNL     1      18.484 -16.047 -16.332  1.00  0.00    -0.744 OA
ENDBRANCH 100 101
ENDBRANCH  74  95
ENDBRANCH  48  49
ENDBRANCH  41  43
ENDBRANCH  40  41
ENDBRANCH  39  40
ENDBRANCH  38  39
ENDBRANCH  37  38
ENDBRANCH  36  37
ENDBRANCH  35  36
ENDBRANCH  34  35
ENDBRANCH   1  34
TORSDOF 29
