REMARK SMILES C[C@H]1OCC[C@@H]1C(=O)Nc1sc2c(c1C(=O)OCCOCCOCCOCCOC(=O)c1ccc(-c3c4nc(c(-c5ccc(S(=O)(=O)[O-])cc5)c5ccc([nH]5)c(-c5ccc(S(=O)(=O)[O-])cc5)c5nc(c(-c6ccc(S(=O)(=O)[O-])cc6)c6ccc3[nH]6)C=C5)C=C4)cc1)CCC2
REMARK SMILES IDX 24 1 23 2 22 3 21 4 20 5 19 6 18 7 17 8 15 9 16 10 14 11
REMARK SMILES IDX 10 12 11 13 12 14 13 15 94 16 92 17 93 18 9 19 7 20 8 21
REMARK SMILES IDX 6 23 1 24 2 25 3 26 4 27 5 28 25 29 26 30 27 31 28 32 29 33
REMARK SMILES IDX 30 34 31 35 32 36 33 37 91 38 34 39 90 40 35 41 36 42 37 43
REMARK SMILES IDX 84 44 38 45 89 46 83 47 85 48 39 49 88 50 82 51 81 52 40 54
REMARK SMILES IDX 70 55 51 56 69 57 52 58 55 59 68 60 86 61 53 62 54 63 67 65
REMARK SMILES IDX 87 66 56 67 41 68 42 69 50 70 43 71 49 72 44 73 45 74 46 75
REMARK SMILES IDX 47 76 48 77 71 78 72 79 80 80 73 81 79 82 74 83 75 84 76 85
REMARK SMILES IDX 77 86 78 87 57 88 58 89 66 90 59 91 65 92 60 93 61 94 62 95
REMARK SMILES IDX 63 96 64 97
REMARK H PARENT 9 22 85 53 55 64
REMARK Flexibility Score: inf
ROOT
ATOM      1  C   UNL     1      -1.606   1.377  -3.077  1.00  0.00     0.188 C 
ENDROOT
BRANCH   1   2
ATOM      2  O   UNL     1      -1.638   0.353  -2.086  1.00  0.00    -0.377 OA
BRANCH   2   3
ATOM      3  C   UNL     1      -1.718  -0.983  -2.571  1.00  0.00     0.188 C 
BRANCH   3   4
ATOM      4  C   UNL     1      -2.747  -1.772  -1.777  1.00  0.00     0.188 C 
BRANCH   4   5
ATOM      5  O   UNL     1      -4.080  -1.380  -2.092  1.00  0.00    -0.376 OA
BRANCH   5   6
ATOM      6  C   UNL     1      -4.557  -0.225  -1.387  1.00  0.00     0.202 C 
BRANCH   6   7
ATOM      7  C   UNL     1      -4.890  -0.502   0.089  1.00  0.00     0.261 C 
BRANCH   7   8
ATOM      8  O   UNL     1      -3.843  -0.106   1.014  1.00  0.00    -0.460 OA
BRANCH   8   9
ATOM      9  C   UNL     1      -3.668  -0.935   2.100  1.00  0.00     0.341 C 
ATOM     10  O   UNL     1      -4.232  -2.012   2.232  1.00  0.00    -0.246 OA
BRANCH   9  11
ATOM     11  C   UNL     1      -2.734  -0.422   3.109  1.00  0.00     0.098 A 
ATOM     12  C   UNL     1      -1.657  -1.147   3.622  1.00  0.00     0.110 A 
ATOM     13  S   UNL     1      -0.906  -0.424   4.986  1.00  0.00    -0.122 S 
ATOM     14  C   UNL     1      -1.731   0.986   4.677  1.00  0.00     0.011 A 
ATOM     15  C   UNL     1      -2.668   0.889   3.680  1.00  0.00    -0.017 A 
ATOM     16  C   UNL     1      -1.551   2.342   5.237  1.00  0.00     0.047 C 
ATOM     17  C   UNL     1      -3.283   2.220   3.429  1.00  0.00     0.038 C 
ATOM     18  C   UNL     1      -2.285   3.186   4.157  1.00  0.00     0.010 C 
BRANCH  12  19
ATOM     19  N   UNL     1      -1.082  -2.349   3.261  1.00  0.00    -0.317 N 
ATOM     20  C   UNL     1       0.175  -2.382   2.696  1.00  0.00     0.230 C 
ATOM     21  O   UNL     1       0.981  -3.203   3.153  1.00  0.00    -0.274 OA
ATOM     22  H   UNL     1      -1.573  -3.190   3.409  1.00  0.00     0.170 HD
BRANCH  20  23
ATOM     23  C   UNL     1       0.574  -1.553   1.470  1.00  0.00     0.110 C 
ATOM     24  C   UNL     1       2.748  -0.538   0.682  1.00  0.00     0.039 C 
ATOM     25  C   UNL     1       1.603  -0.448   1.688  1.00  0.00     0.127 C 
ATOM     26  O   UNL     1       0.974   0.821   1.420  1.00  0.00    -0.378 OA
ATOM     27  C   UNL     1      -0.364   0.602   0.997  1.00  0.00     0.161 C 
ATOM     28  C   UNL     1      -0.496  -0.866   0.684  1.00  0.00     0.044 C 
ENDBRANCH  20  23
ENDBRANCH  12  19
ENDBRANCH   9  11
ENDBRANCH   8   9
ENDBRANCH   7   8
ENDBRANCH   6   7
ENDBRANCH   5   6
ENDBRANCH   4   5
ENDBRANCH   3   4
ENDBRANCH   2   3
ENDBRANCH   1   2
BRANCH   1  29
ATOM     29  C   UNL     1      -0.974   1.029  -4.431  1.00  0.00     0.188 C 
BRANCH  29  30
ATOM     30  O   UNL     1       0.265   0.311  -4.464  1.00  0.00    -0.376 OA
BRANCH  30  31
ATOM     31  C   UNL     1       1.207   0.394  -3.393  1.00  0.00     0.202 C 
BRANCH  31  32
ATOM     32  C   UNL     1       2.159   1.579  -3.394  1.00  0.00     0.261 C 
BRANCH  32  33
ATOM     33  O   UNL     1       1.397   2.755  -3.201  1.00  0.00    -0.460 OA
BRANCH  33  34
ATOM     34  C   UNL     1       0.956   3.274  -4.367  1.00  0.00     0.338 C 
ATOM     35  O   UNL     1       1.222   2.892  -5.490  1.00  0.00    -0.246 OA
BRANCH  34  36
ATOM     36  C   UNL     1       0.076   4.432  -4.062  1.00  0.00     0.060 A 
ATOM     37  C   UNL     1      -0.177   5.130  -5.236  1.00  0.00     0.016 A 
ATOM     38  C   UNL     1       0.401   5.082  -2.864  1.00  0.00     0.016 A 
ATOM     39  C   UNL     1       0.499   6.311  -5.361  1.00  0.00     0.010 A 
ATOM     40  C   UNL     1       1.080   6.265  -2.978  1.00  0.00     0.010 A 
ATOM     41  C   UNL     1       1.211   6.802  -4.253  1.00  0.00    -0.014 A 
BRANCH  41  42
ATOM     42  C   UNL     1       1.891   8.051  -4.454  1.00  0.00     0.031 A 
ATOM     43  C   UNL     1       0.906   9.130  -4.636  1.00  0.00     0.074 A 
ATOM     44  C   UNL     1       3.219   8.221  -4.441  1.00  0.00     0.049 A 
ATOM     45  N   UNL     1       0.566   9.691  -5.746  1.00  0.00    -0.248 NA
ATOM     46  C   UNL     1      -0.005   9.386  -3.508  1.00  0.00     0.031 C 
ATOM     47  C   UNL     1       4.272   7.314  -3.989  1.00  0.00     0.029 A 
ATOM     48  N   UNL     1       3.892   9.353  -4.755  1.00  0.00    -0.354 N 
ATOM     49  C   UNL     1      -0.476  10.539  -5.409  1.00  0.00     0.074 A 
ATOM     50  C   UNL     1      -0.932  10.128  -4.106  1.00  0.00     0.031 C 
ATOM     51  C   UNL     1       5.414   8.027  -3.826  1.00  0.00     0.029 A 
ATOM     52  C   UNL     1       5.193   9.391  -4.288  1.00  0.00     0.049 A 
ATOM     53  H   UNL     1       3.488  10.087  -5.272  1.00  0.00     0.167 HD
ATOM     54  C   UNL     1      -0.690  11.694  -6.089  1.00  0.00     0.031 A 
ATOM     55  C   UNL     1       5.955  10.510  -4.204  1.00  0.00     0.031 A 
ATOM     56  C   UNL     1      -0.035  11.685  -7.373  1.00  0.00     0.049 A 
ATOM     57  C   UNL     1       5.345  11.530  -5.103  1.00  0.00     0.074 A 
ATOM     58  C   UNL     1      -0.129  10.885  -8.496  1.00  0.00     0.029 A 
ATOM     59  N   UNL     1       1.173  12.338  -7.468  1.00  0.00    -0.354 N 
ATOM     60  N   UNL     1       5.325  11.425  -6.402  1.00  0.00    -0.248 NA
ATOM     61  C   UNL     1       4.359  12.446  -4.544  1.00  0.00     0.031 C 
ATOM     62  C   UNL     1       1.207  10.756  -8.976  1.00  0.00     0.029 A 
ATOM     63  C   UNL     1       2.038  11.525  -8.158  1.00  0.00     0.049 A 
ATOM     64  H   UNL     1       1.380  13.229  -7.106  1.00  0.00     0.167 HD
ATOM     65  C   UNL     1       4.084  11.916  -6.788  1.00  0.00     0.074 A 
ATOM     66  C   UNL     1       3.576  12.621  -5.614  1.00  0.00     0.031 C 
ATOM     67  C   UNL     1       3.468  11.471  -7.925  1.00  0.00     0.031 A 
BRANCH  54  68
ATOM     68  C   UNL     1      -1.109  12.957  -5.382  1.00  0.00    -0.014 A 
ATOM     69  C   UNL     1      -1.290  14.127  -6.139  1.00  0.00     0.010 A 
ATOM     70  C   UNL     1      -1.069  13.105  -3.977  1.00  0.00     0.010 A 
ATOM     71  C   UNL     1      -1.348  15.383  -5.521  1.00  0.00     0.020 A 
ATOM     72  C   UNL     1      -1.173  14.341  -3.350  1.00  0.00     0.020 A 
ATOM     73  C   UNL     1      -1.273  15.479  -4.130  1.00  0.00     0.054 A 
BRANCH  73  74
ATOM     74  S   UNL     1      -1.233  17.105  -3.346  1.00  0.00     0.124 S 
ATOM     75  O   UNL     1       0.051  17.624  -3.803  1.00  0.00    -0.237 OA
ATOM     76  O   UNL     1      -2.418  17.746  -3.910  1.00  0.00    -0.237 OA
ATOM     77  O   UNL     1      -1.316  16.798  -1.920  1.00  0.00    -0.744 OA
ENDBRANCH  73  74
ENDBRANCH  54  68
BRANCH  55  78
ATOM     78  C   UNL     1       6.932  10.868  -3.147  1.00  0.00    -0.014 A 
ATOM     79  C   UNL     1       7.743  12.010  -3.290  1.00  0.00     0.010 A 
ATOM     80  C   UNL     1       6.863  10.268  -1.873  1.00  0.00     0.010 A 
ATOM     81  C   UNL     1       8.390  12.579  -2.182  1.00  0.00     0.020 A 
ATOM     82  C   UNL     1       7.515  10.822  -0.767  1.00  0.00     0.020 A 
ATOM     83  C   UNL     1       8.250  11.995  -0.921  1.00  0.00     0.054 A 
BRANCH  83  84
ATOM     84  S   UNL     1       8.909  12.853   0.538  1.00  0.00     0.124 S 
ATOM     85  O   UNL     1      10.349  12.686   0.373  1.00  0.00    -0.237 OA
ATOM     86  O   UNL     1       8.405  14.212   0.360  1.00  0.00    -0.237 OA
ATOM     87  O   UNL     1       8.323  12.122   1.661  1.00  0.00    -0.744 OA
ENDBRANCH  83  84
ENDBRANCH  55  78
BRANCH  67  88
ATOM     88  C   UNL     1       4.284  10.663  -8.910  1.00  0.00    -0.014 A 
ATOM     89  C   UNL     1       4.920   9.445  -8.592  1.00  0.00     0.010 A 
ATOM     90  C   UNL     1       4.300  11.093 -10.248  1.00  0.00     0.010 A 
ATOM     91  C   UNL     1       5.586   8.703  -9.580  1.00  0.00     0.020 A 
ATOM     92  C   UNL     1       4.943  10.349 -11.240  1.00  0.00     0.020 A 
ATOM     93  C   UNL     1       5.596   9.165 -10.899  1.00  0.00     0.054 A 
BRANCH  93  94
ATOM     94  S   UNL     1       6.436   8.192 -12.181  1.00  0.00     0.124 S 
ATOM     95  O   UNL     1       7.844   8.346 -11.825  1.00  0.00    -0.237 OA
ATOM     96  O   UNL     1       5.881   6.854 -11.992  1.00  0.00    -0.237 OA
ATOM     97  O   UNL     1       6.040   8.845 -13.429  1.00  0.00    -0.744 OA
ENDBRANCH  93  94
ENDBRANCH  67  88
ENDBRANCH  41  42
ENDBRANCH  34  36
ENDBRANCH  33  34
ENDBRANCH  32  33
ENDBRANCH  31  32
ENDBRANCH  30  31
ENDBRANCH  29  30
ENDBRANCH   1  29
TORSDOF 25
