REMARK SMILES Cc1ccc(-c2cnnc(-n3nc(C)c4c3NC(=O)C[C@@H]4c3ccc(C(=O)OCCOCCOCCOCCOC(=O)c4ccc(-c5c6nc(c(-c7ccc(S(=O)(=O)[O-])cc7)c7ccc([nH]7)c(-c7ccc(S(=O)(=O)[O-])cc7)c7nc(c(-c8ccc(S(=O)(=O)[O-])cc8)c8ccc5[nH]8)C=C7)C=C6)cc4)cc3)n2)cc1
REMARK SMILES IDX 34 1 33 2 32 3 31 4 30 5 29 6 28 7 26 8 27 9 25 10 22 11
REMARK SMILES IDX 23 12 104 13 24 14 103 15 21 16 11 17 12 18 16 19 13 20
REMARK SMILES IDX 15 21 17 22 14 23 18 24 20 26 19 27 10 28 6 29 7 30 105 31
REMARK SMILES IDX 8 32 9 33 5 34 1 35 2 36 3 37 107 38 4 39 106 40 35 41 36 42
REMARK SMILES IDX 37 43 38 44 39 45 40 46 41 47 42 48 43 49 44 50 102 51 45 52
REMARK SMILES IDX 101 53 46 54 47 55 48 56 95 57 49 58 100 59 94 60 96 61
REMARK SMILES IDX 50 62 99 63 93 64 92 65 51 67 81 68 62 69 80 70 63 71 66 72
REMARK SMILES IDX 79 73 97 74 64 75 65 76 78 78 98 79 67 80 52 81 53 82 61 83
REMARK SMILES IDX 54 84 60 85 55 86 56 87 57 88 58 89 59 90 82 91 83 92 91 93
REMARK SMILES IDX 84 94 90 95 85 96 86 97 87 98 88 99 89 100 68 101 69 102
REMARK SMILES IDX 77 103 70 104 76 105 71 106 72 107 73 108 74 109 75 110
REMARK H PARENT 17 25 96 66 66 77
REMARK Flexibility Score: inf
ROOT
ATOM      1  O   UNL     1      -8.386   7.358  -9.092  1.00  0.00    -0.377 OA
ENDROOT
BRANCH   1   2
ATOM      2  C   UNL     1      -8.106   5.982  -8.951  1.00  0.00     0.188 C 
BRANCH   2   3
ATOM      3  C   UNL     1      -8.021   5.129 -10.224  1.00  0.00     0.188 C 
BRANCH   3   4
ATOM      4  O   UNL     1      -9.175   4.896 -11.036  1.00  0.00    -0.376 OA
BRANCH   4   5
ATOM      5  C   UNL     1     -10.454   5.084 -10.453  1.00  0.00     0.202 C 
BRANCH   5   6
ATOM      6  C   UNL     1     -11.267   3.831 -10.502  1.00  0.00     0.261 C 
BRANCH   6   7
ATOM      7  O   UNL     1     -10.845   3.012  -9.437  1.00  0.00    -0.460 OA
BRANCH   7   8
ATOM      8  C   UNL     1      -9.952   2.126  -9.839  1.00  0.00     0.338 C 
ATOM      9  O   UNL     1      -9.847   1.593 -10.946  1.00  0.00    -0.246 OA
BRANCH   8  10
ATOM     10  C   UNL     1      -9.006   1.962  -8.749  1.00  0.00     0.060 A 
ATOM     11  C   UNL     1      -7.229   1.447  -6.694  1.00  0.00    -0.040 A 
ATOM     12  C   UNL     1      -7.238   0.666  -7.872  1.00  0.00     0.005 A 
ATOM     13  C   UNL     1      -8.022   2.590  -6.636  1.00  0.00     0.005 A 
ATOM     14  C   UNL     1      -8.087   0.948  -8.914  1.00  0.00     0.016 A 
ATOM     15  C   UNL     1      -8.963   2.803  -7.627  1.00  0.00     0.016 A 
BRANCH  11  16
ATOM     16  C   UNL     1      -6.419   0.893  -5.559  1.00  0.00     0.064 C 
ATOM     17  N   UNL     1      -5.705   2.347  -2.395  1.00  0.00    -0.180 N 
ATOM     18  N   UNL     1      -7.024   2.666  -2.297  1.00  0.00    -0.168 NA
ATOM     19  C   UNL     1      -5.399   2.274  -3.741  1.00  0.00     0.143 A 
ATOM     20  C   UNL     1      -7.555   2.151  -3.419  1.00  0.00     0.066 A 
ATOM     21  C   UNL     1      -6.521   1.687  -4.298  1.00  0.00     0.026 A 
ATOM     22  N   UNL     1      -4.314   2.617  -4.524  1.00  0.00    -0.310 N 
ATOM     23  C   UNL     1      -9.030   2.270  -3.571  1.00  0.00     0.069 C 
ATOM     24  C   UNL     1      -4.252   2.050  -5.836  1.00  0.00     0.226 C 
ATOM     25  H   UNL     1      -3.614   3.225  -4.193  1.00  0.00     0.171 HD
ATOM     26  C   UNL     1      -4.948   0.725  -5.975  1.00  0.00     0.113 C 
ATOM     27  O   UNL     1      -3.568   2.603  -6.676  1.00  0.00    -0.275 OA
BRANCH  17  28
ATOM     28  C   UNL     1      -5.073   1.544  -1.384  1.00  0.00     0.272 A 
ATOM     29  C   UNL     1      -3.291   0.370  -0.546  1.00  0.00     0.095 A 
ATOM     30  C   UNL     1      -4.144  -0.287   0.323  1.00  0.00     0.164 A 
ATOM     31  N   UNL     1      -3.751   1.266  -1.466  1.00  0.00    -0.208 NA
ATOM     32  N   UNL     1      -5.455  -0.014   0.339  1.00  0.00    -0.153 NA
ATOM     33  N   UNL     1      -5.914   0.944  -0.502  1.00  0.00    -0.109 NA
BRANCH  29  34
ATOM     34  C   UNL     1      -1.834   0.231  -0.426  1.00  0.00     0.002 A 
ATOM     35  C   UNL     1       2.462  -0.044   0.067  1.00  0.00     0.044 C 
ATOM     36  C   UNL     1       0.972   0.054  -0.073  1.00  0.00    -0.051 A 
ATOM     37  C   UNL     1       0.190  -1.104  -0.138  1.00  0.00     0.004 A 
ATOM     38  C   UNL     1       0.347   1.299  -0.166  1.00  0.00     0.004 A 
ATOM     39  C   UNL     1      -1.197  -1.017  -0.310  1.00  0.00     0.011 A 
ATOM     40  C   UNL     1      -1.035   1.383  -0.344  1.00  0.00     0.011 A 
ENDBRANCH  29  34
ENDBRANCH  17  28
ENDBRANCH  11  16
ENDBRANCH   8  10
ENDBRANCH   7   8
ENDBRANCH   6   7
ENDBRANCH   5   6
ENDBRANCH   4   5
ENDBRANCH   3   4
ENDBRANCH   2   3
ENDBRANCH   1   2
BRANCH   1  41
ATOM     41  C   UNL     1      -9.102   7.820 -10.211  1.00  0.00     0.188 C 
BRANCH  41  42
ATOM     42  C   UNL     1      -8.368   8.777 -11.156  1.00  0.00     0.188 C 
BRANCH  42  43
ATOM     43  O   UNL     1      -6.994   8.983 -10.930  1.00  0.00    -0.376 OA
BRANCH  43  44
ATOM     44  C   UNL     1      -6.683   9.359  -9.590  1.00  0.00     0.202 C 
BRANCH  44  45
ATOM     45  C   UNL     1      -7.589  10.359  -8.787  1.00  0.00     0.261 C 
BRANCH  45  46
ATOM     46  O   UNL     1      -9.038  10.300  -8.943  1.00  0.00    -0.460 OA
BRANCH  46  47
ATOM     47  C   UNL     1      -9.759  11.414  -9.307  1.00  0.00     0.338 C 
ATOM     48  O   UNL     1      -9.334  12.514  -9.607  1.00  0.00    -0.246 OA
BRANCH  47  49
ATOM     49  C   UNL     1     -11.147  10.947  -9.640  1.00  0.00     0.060 A 
ATOM     50  C   UNL     1     -12.171  10.834  -8.700  1.00  0.00     0.016 A 
ATOM     51  C   UNL     1     -11.271  10.260 -10.837  1.00  0.00     0.016 A 
ATOM     52  C   UNL     1     -13.062   9.754  -8.783  1.00  0.00     0.010 A 
ATOM     53  C   UNL     1     -12.029   9.104 -10.842  1.00  0.00     0.010 A 
ATOM     54  C   UNL     1     -12.834   8.774  -9.750  1.00  0.00    -0.014 A 
BRANCH  54  55
ATOM     55  C   UNL     1     -13.113   7.333  -9.537  1.00  0.00     0.031 A 
ATOM     56  C   UNL     1     -13.736   6.526 -10.644  1.00  0.00     0.074 A 
ATOM     57  C   UNL     1     -12.483   6.759  -8.467  1.00  0.00     0.049 A 
ATOM     58  N   UNL     1     -14.120   5.301 -10.560  1.00  0.00    -0.248 NA
ATOM     59  C   UNL     1     -13.894   7.016 -12.016  1.00  0.00     0.031 C 
ATOM     60  C   UNL     1     -12.345   5.355  -8.071  1.00  0.00     0.029 A 
ATOM     61  N   UNL     1     -11.828   7.400  -7.414  1.00  0.00    -0.354 N 
ATOM     62  C   UNL     1     -14.186   4.752 -11.842  1.00  0.00     0.074 A 
ATOM     63  C   UNL     1     -14.091   5.891 -12.715  1.00  0.00     0.031 C 
ATOM     64  C   UNL     1     -11.776   5.232  -6.859  1.00  0.00     0.029 A 
ATOM     65  C   UNL     1     -11.771   6.556  -6.294  1.00  0.00     0.049 A 
ATOM     66  H   UNL     1     -11.460   8.312  -7.452  1.00  0.00     0.167 HD
ATOM     67  C   UNL     1     -14.164   3.386 -11.997  1.00  0.00     0.031 A 
ATOM     68  C   UNL     1     -12.638   6.840  -5.277  1.00  0.00     0.031 A 
ATOM     69  C   UNL     1     -14.280   2.709 -10.674  1.00  0.00     0.049 A 
ATOM     70  C   UNL     1     -13.942   5.960  -5.412  1.00  0.00     0.074 A 
ATOM     71  C   UNL     1     -13.582   1.721  -9.998  1.00  0.00     0.029 A 
ATOM     72  N   UNL     1     -15.132   3.262  -9.707  1.00  0.00    -0.354 N 
ATOM     73  N   UNL     1     -14.380   5.460  -6.563  1.00  0.00    -0.248 NA
ATOM     74  C   UNL     1     -14.649   5.317  -4.300  1.00  0.00     0.031 C 
ATOM     75  C   UNL     1     -13.820   1.909  -8.591  1.00  0.00     0.029 A 
ATOM     76  C   UNL     1     -14.736   2.947  -8.414  1.00  0.00     0.049 A 
ATOM     77  H   UNL     1     -15.921   3.811  -9.920  1.00  0.00     0.167 HD
ATOM     78  C   UNL     1     -15.194   4.362  -6.370  1.00  0.00     0.074 A 
ATOM     79  C   UNL     1     -15.399   4.381  -4.925  1.00  0.00     0.031 C 
ATOM     80  C   UNL     1     -15.565   3.381  -7.277  1.00  0.00     0.031 A 
BRANCH  67  81
ATOM     81  C   UNL     1     -13.822   2.636 -13.311  1.00  0.00    -0.014 A 
ATOM     82  C   UNL     1     -13.780   1.221 -13.322  1.00  0.00     0.010 A 
ATOM     83  C   UNL     1     -13.478   3.235 -14.547  1.00  0.00     0.010 A 
ATOM     84  C   UNL     1     -13.450   0.462 -14.469  1.00  0.00     0.020 A 
ATOM     85  C   UNL     1     -13.174   2.489 -15.716  1.00  0.00     0.020 A 
ATOM     86  C   UNL     1     -13.168   1.100 -15.671  1.00  0.00     0.054 A 
BRANCH  86  87
ATOM     87  S   UNL     1     -12.855   0.095 -17.157  1.00  0.00     0.124 S 
ATOM     88  O   UNL     1     -11.621  -0.608 -16.818  1.00  0.00    -0.237 OA
ATOM     89  O   UNL     1     -14.051  -0.741 -17.231  1.00  0.00    -0.237 OA
ATOM     90  O   UNL     1     -12.730   1.083 -18.228  1.00  0.00    -0.744 OA
ENDBRANCH  86  87
ENDBRANCH  67  81
BRANCH  68  91
ATOM     91  C   UNL     1     -12.156   8.148  -4.658  1.00  0.00    -0.014 A 
ATOM     92  C   UNL     1     -10.907   8.047  -3.974  1.00  0.00     0.010 A 
ATOM     93  C   UNL     1     -12.400   9.403  -5.265  1.00  0.00     0.010 A 
ATOM     94  C   UNL     1      -9.893   9.027  -4.079  1.00  0.00     0.020 A 
ATOM     95  C   UNL     1     -11.387  10.404  -5.350  1.00  0.00     0.020 A 
ATOM     96  C   UNL     1     -10.122  10.189  -4.803  1.00  0.00     0.054 A 
BRANCH  96  97
ATOM     97  S   UNL     1      -8.719  11.311  -5.152  1.00  0.00     0.124 S 
ATOM     98  O   UNL     1      -8.618  12.078  -3.915  1.00  0.00    -0.237 OA
ATOM     99  O   UNL     1      -7.612  10.386  -5.396  1.00  0.00    -0.237 OA
ATOM    100  O   UNL     1      -9.168  12.060  -6.321  1.00  0.00    -0.744 OA
ENDBRANCH  96  97
ENDBRANCH  68  91
BRANCH  80 101
ATOM    101  C   UNL     1     -16.915   2.674  -7.221  1.00  0.00    -0.014 A 
ATOM    102  C   UNL     1     -17.988   3.161  -6.471  1.00  0.00     0.010 A 
ATOM    103  C   UNL     1     -17.206   1.641  -8.161  1.00  0.00     0.010 A 
ATOM    104  C   UNL     1     -19.272   2.623  -6.623  1.00  0.00     0.020 A 
ATOM    105  C   UNL     1     -18.491   1.149  -8.370  1.00  0.00     0.020 A 
ATOM    106  C   UNL     1     -19.515   1.628  -7.573  1.00  0.00     0.054 A 
BRANCH 106 107
ATOM    107  S   UNL     1     -21.190   0.991  -7.776  1.00  0.00     0.124 S 
ATOM    108  O   UNL     1     -21.294   0.082  -6.638  1.00  0.00    -0.237 OA
ATOM    109  O   UNL     1     -22.004   2.201  -7.693  1.00  0.00    -0.237 OA
ATOM    110  O   UNL     1     -21.164   0.352  -9.089  1.00  0.00    -0.744 OA
ENDBRANCH 106 107
ENDBRANCH  80 101
ENDBRANCH  54  55
ENDBRANCH  47  49
ENDBRANCH  46  47
ENDBRANCH  45  46
ENDBRANCH  44  45
ENDBRANCH  43  44
ENDBRANCH  42  43
ENDBRANCH  41  42
ENDBRANCH   1  41
TORSDOF 26
