REMARK SMILES COC(=O)c1ccc(C)c2c1[C@H]1C=CC[C@H]1[C@@H](c1ccc(C(=O)OCCOCCOCCOCCOC(=O)c3ccc(-c4c5nc(c(-c6ccc(S(=O)(=O)[O-])cc6)c6ccc([nH]6)c(-c6ccc(S(=O)(=O)[O-])cc6)c6nc(c(-c7ccc(S(=O)(=O)[O-])cc7)c7ccc4[nH]7)C=C6)C=C5)cc3)cc1)N2
REMARK SMILES IDX 30 1 29 2 28 3 27 4 26 5 25 6 24 7 22 8 23 9 21 10 18 11
REMARK SMILES IDX 19 12 100 13 20 14 99 15 17 16 5 17 6 18 11 19 7 20 10 21
REMARK SMILES IDX 12 22 8 23 101 24 13 25 16 26 9 27 14 29 15 30 3 31 4 32
REMARK SMILES IDX 2 33 1 34 31 35 32 36 33 37 34 38 35 39 36 40 37 41 38 42
REMARK SMILES IDX 39 43 40 44 98 45 41 46 97 47 42 48 43 49 44 50 91 51 45 52
REMARK SMILES IDX 96 53 90 54 92 55 46 56 95 57 89 58 88 59 47 61 77 62 58 63
REMARK SMILES IDX 76 64 59 65 62 66 75 67 93 68 60 69 61 70 74 72 94 73 63 74
REMARK SMILES IDX 48 75 49 76 57 77 50 78 56 79 51 80 52 81 53 82 54 83 55 84
REMARK SMILES IDX 78 85 79 86 87 87 80 88 86 89 81 90 82 91 83 92 84 93 85 94
REMARK SMILES IDX 64 95 65 96 73 97 66 98 72 99 67 100 68 101 69 102 70 103
REMARK SMILES IDX 71 104
REMARK H PARENT 101 28 92 60 62 71
REMARK Flexibility Score: inf
ROOT
ATOM      1  O   UNL     1       6.845  -6.647  -1.154  1.00  0.00    -0.377 OA
ENDROOT
BRANCH   1   2
ATOM      2  C   UNL     1       5.537  -6.153  -0.911  1.00  0.00     0.188 C 
BRANCH   2   3
ATOM      3  C   UNL     1       4.546  -6.991  -0.075  1.00  0.00     0.188 C 
BRANCH   3   4
ATOM      4  O   UNL     1       5.130  -8.089   0.607  1.00  0.00    -0.376 OA
BRANCH   4   5
ATOM      5  C   UNL     1       4.778  -9.399   0.196  1.00  0.00     0.202 C 
BRANCH   5   6
ATOM      6  C   UNL     1       5.202  -9.850  -1.211  1.00  0.00     0.261 C 
BRANCH   6   7
ATOM      7  O   UNL     1       4.939  -8.912  -2.262  1.00  0.00    -0.460 OA
BRANCH   7   8
ATOM      8  C   UNL     1       3.655  -8.807  -2.664  1.00  0.00     0.338 C 
ATOM      9  O   UNL     1       2.705  -9.448  -2.247  1.00  0.00    -0.246 OA
BRANCH   8  10
ATOM     10  C   UNL     1       3.535  -7.588  -3.496  1.00  0.00     0.060 A 
ATOM     11  C   UNL     1       3.248  -5.156  -4.918  1.00  0.00    -0.025 A 
ATOM     12  C   UNL     1       2.414  -5.481  -3.833  1.00  0.00     0.007 A 
ATOM     13  C   UNL     1       4.276  -6.067  -5.233  1.00  0.00     0.007 A 
ATOM     14  C   UNL     1       2.527  -6.690  -3.153  1.00  0.00     0.016 A 
ATOM     15  C   UNL     1       4.431  -7.267  -4.518  1.00  0.00     0.016 A 
BRANCH  11  16
ATOM     16  C   UNL     1       3.019  -3.915  -5.792  1.00  0.00     0.114 C 
ATOM     17  C   UNL     1       0.388  -1.736  -3.240  1.00  0.00     0.065 A 
ATOM     18  C   UNL     1      -0.936  -2.174  -3.145  1.00  0.00     0.016 A 
ATOM     19  C   UNL     1       1.254  -2.266  -4.224  1.00  0.00    -0.003 A 
ATOM     20  C   UNL     1      -1.423  -3.111  -4.048  1.00  0.00     0.006 A 
ATOM     21  C   UNL     1       0.742  -3.199  -5.166  1.00  0.00     0.042 A 
ATOM     22  C   UNL     1       2.721  -1.875  -4.262  1.00  0.00     0.050 C 
ATOM     23  C   UNL     1      -0.606  -3.621  -5.070  1.00  0.00    -0.028 A 
ATOM     24  N   UNL     1       1.597  -3.780  -6.096  1.00  0.00    -0.377 N 
ATOM     25  C   UNL     1       3.547  -2.249  -3.053  1.00  0.00    -0.023 C 
ATOM     26  C   UNL     1       3.549  -2.527  -5.386  1.00  0.00     0.031 C 
ATOM     27  C   UNL     1      -1.227  -4.666  -5.962  1.00  0.00     0.046 C 
ATOM     28  H   UNL     1       1.245  -4.100  -6.958  1.00  0.00     0.161 HD
ATOM     29  C   UNL     1       4.798  -2.589  -3.394  1.00  0.00    -0.030 C 
ATOM     30  C   UNL     1       4.992  -2.530  -4.872  1.00  0.00     0.034 C 
BRANCH  17  31
ATOM     31  C   UNL     1       0.833  -0.674  -2.306  1.00  0.00     0.338 C 
ATOM     32  O   UNL     1       1.415   0.342  -2.644  1.00  0.00    -0.246 OA
BRANCH  31  33
ATOM     33  O   UNL     1       0.506  -1.031  -1.037  1.00  0.00    -0.465 OA
ATOM     34  C   UNL     1       0.937  -0.089  -0.053  1.00  0.00     0.282 C 
ENDBRANCH  31  33
ENDBRANCH  17  31
ENDBRANCH  11  16
ENDBRANCH   8  10
ENDBRANCH   7   8
ENDBRANCH   6   7
ENDBRANCH   5   6
ENDBRANCH   4   5
ENDBRANCH   3   4
ENDBRANCH   2   3
ENDBRANCH   1   2
BRANCH   1  35
ATOM     35  C   UNL     1       7.589  -7.234  -0.090  1.00  0.00     0.188 C 
BRANCH  35  36
ATOM     36  C   UNL     1       7.400  -6.764   1.372  1.00  0.00     0.188 C 
BRANCH  36  37
ATOM     37  O   UNL     1       6.555  -5.634   1.520  1.00  0.00    -0.376 OA
BRANCH  37  38
ATOM     38  C   UNL     1       7.176  -4.408   1.862  1.00  0.00     0.202 C 
BRANCH  38  39
ATOM     39  C   UNL     1       8.178  -3.822   0.858  1.00  0.00     0.261 C 
BRANCH  39  40
ATOM     40  O   UNL     1       9.222  -4.698   0.407  1.00  0.00    -0.460 OA
BRANCH  40  41
ATOM     41  C   UNL     1      10.162  -5.073   1.301  1.00  0.00     0.338 C 
ATOM     42  O   UNL     1      10.224  -4.764   2.479  1.00  0.00    -0.246 OA
BRANCH  41  43
ATOM     43  C   UNL     1      11.018  -6.073   0.632  1.00  0.00     0.060 A 
ATOM     44  C   UNL     1      10.974  -7.413   1.043  1.00  0.00     0.016 A 
ATOM     45  C   UNL     1      11.839  -5.683  -0.427  1.00  0.00     0.016 A 
ATOM     46  C   UNL     1      11.760  -8.367   0.395  1.00  0.00     0.010 A 
ATOM     47  C   UNL     1      12.656  -6.630  -1.046  1.00  0.00     0.010 A 
ATOM     48  C   UNL     1      12.639  -7.968  -0.620  1.00  0.00    -0.014 A 
BRANCH  48  49
ATOM     49  C   UNL     1      13.709  -8.890  -1.064  1.00  0.00     0.031 A 
ATOM     50  C   UNL     1      15.016  -8.848  -0.324  1.00  0.00     0.074 A 
ATOM     51  C   UNL     1      13.531  -9.747  -2.085  1.00  0.00     0.049 A 
ATOM     52  N   UNL     1      16.119  -9.509  -0.555  1.00  0.00    -0.248 NA
ATOM     53  C   UNL     1      15.087  -7.940   0.836  1.00  0.00     0.031 C 
ATOM     54  C   UNL     1      12.293  -9.921  -2.842  1.00  0.00     0.029 A 
ATOM     55  N   UNL     1      14.409 -10.632  -2.662  1.00  0.00    -0.354 N 
ATOM     56  C   UNL     1      17.009  -9.103   0.430  1.00  0.00     0.074 A 
ATOM     57  C   UNL     1      16.333  -8.122   1.247  1.00  0.00     0.031 C 
ATOM     58  C   UNL     1      12.495 -10.850  -3.794  1.00  0.00     0.029 A 
ATOM     59  C   UNL     1      13.882 -11.311  -3.734  1.00  0.00     0.049 A 
ATOM     60  H   UNL     1      15.328 -10.767  -2.337  1.00  0.00     0.167 HD
ATOM     61  C   UNL     1      18.279  -9.517   0.641  1.00  0.00     0.031 A 
ATOM     62  C   UNL     1      14.460 -12.188  -4.581  1.00  0.00     0.031 A 
ATOM     63  C   UNL     1      18.960 -10.472  -0.186  1.00  0.00     0.049 A 
ATOM     64  C   UNL     1      15.906 -12.563  -4.389  1.00  0.00     0.074 A 
ATOM     65  C   UNL     1      20.254 -10.945  -0.059  1.00  0.00     0.029 A 
ATOM     66  N   UNL     1      18.408 -11.094  -1.294  1.00  0.00    -0.354 N 
ATOM     67  N   UNL     1      16.742 -12.163  -3.460  1.00  0.00    -0.248 NA
ATOM     68  C   UNL     1      16.489 -13.505  -5.356  1.00  0.00     0.031 C 
ATOM     69  C   UNL     1      20.501 -11.817  -1.121  1.00  0.00     0.029 A 
ATOM     70  C   UNL     1      19.343 -11.933  -1.873  1.00  0.00     0.049 A 
ATOM     71  H   UNL     1      17.489 -10.960  -1.619  1.00  0.00     0.167 HD
ATOM     72  C   UNL     1      17.942 -12.819  -3.718  1.00  0.00     0.074 A 
ATOM     73  C   UNL     1      17.724 -13.645  -4.888  1.00  0.00     0.031 C 
ATOM     74  C   UNL     1      19.113 -12.747  -3.040  1.00  0.00     0.031 A 
BRANCH  61  75
ATOM     75  C   UNL     1      19.022  -8.924   1.803  1.00  0.00    -0.014 A 
ATOM     76  C   UNL     1      18.734  -9.323   3.119  1.00  0.00     0.010 A 
ATOM     77  C   UNL     1      20.065  -8.009   1.571  1.00  0.00     0.010 A 
ATOM     78  C   UNL     1      19.472  -8.810   4.187  1.00  0.00     0.020 A 
ATOM     79  C   UNL     1      20.820  -7.511   2.635  1.00  0.00     0.020 A 
ATOM     80  C   UNL     1      20.518  -7.915   3.937  1.00  0.00     0.054 A 
BRANCH  80  81
ATOM     81  S   UNL     1      21.482  -7.301   5.343  1.00  0.00     0.124 S 
ATOM     82  O   UNL     1      20.457  -6.650   6.157  1.00  0.00    -0.237 OA
ATOM     83  O   UNL     1      22.040  -8.530   5.901  1.00  0.00    -0.237 OA
ATOM     84  O   UNL     1      22.453  -6.396   4.732  1.00  0.00    -0.744 OA
ENDBRANCH  80  81
ENDBRANCH  61  75
BRANCH  62  85
ATOM     85  C   UNL     1      13.659 -12.756  -5.699  1.00  0.00    -0.014 A 
ATOM     86  C   UNL     1      13.207 -14.086  -5.653  1.00  0.00     0.010 A 
ATOM     87  C   UNL     1      13.296 -11.947  -6.792  1.00  0.00     0.010 A 
ATOM     88  C   UNL     1      12.392 -14.590  -6.671  1.00  0.00     0.020 A 
ATOM     89  C   UNL     1      12.465 -12.441  -7.801  1.00  0.00     0.020 A 
ATOM     90  C   UNL     1      12.011 -13.759  -7.729  1.00  0.00     0.054 A 
BRANCH  90  91
ATOM     91  S   UNL     1      10.884 -14.417  -8.990  1.00  0.00     0.124 S 
ATOM     92  O   UNL     1      11.633 -15.554  -9.514  1.00  0.00    -0.237 OA
ATOM     93  O   UNL     1       9.701 -14.748  -8.199  1.00  0.00    -0.237 OA
ATOM     94  O   UNL     1      10.715 -13.300  -9.918  1.00  0.00    -0.744 OA
ENDBRANCH  90  91
ENDBRANCH  62  85
BRANCH  74  95
ATOM     95  C   UNL     1      20.265 -13.591  -3.513  1.00  0.00    -0.014 A 
ATOM     96  C   UNL     1      21.022 -13.218  -4.636  1.00  0.00     0.010 A 
ATOM     97  C   UNL     1      20.677 -14.693  -2.739  1.00  0.00     0.010 A 
ATOM     98  C   UNL     1      22.172 -13.934  -4.979  1.00  0.00     0.020 A 
ATOM     99  C   UNL     1      21.839 -15.397  -3.066  1.00  0.00     0.020 A 
ATOM    100  C   UNL     1      22.580 -15.012  -4.184  1.00  0.00     0.054 A 
BRANCH 100 101
ATOM    101  S   UNL     1      24.110 -15.881  -4.622  1.00  0.00     0.124 S 
ATOM    102  O   UNL     1      23.817 -16.363  -5.969  1.00  0.00    -0.237 OA
ATOM    103  O   UNL     1      25.109 -14.819  -4.538  1.00  0.00    -0.237 OA
ATOM    104  O   UNL     1      24.224 -16.923  -3.603  1.00  0.00    -0.744 OA
ENDBRANCH 100 101
ENDBRANCH  74  95
ENDBRANCH  48  49
ENDBRANCH  41  43
ENDBRANCH  40  41
ENDBRANCH  39  40
ENDBRANCH  38  39
ENDBRANCH  37  38
ENDBRANCH  36  37
ENDBRANCH  35  36
ENDBRANCH   1  35
TORSDOF 26
