REMARK SMILES Cc1ccccc1C(=O)Nc1ccc(OCC(=O)OCCOCCOCCOCCOC(=O)c2ccc(-c3c4nc(c(-c5ccc(S(=O)(=O)[O-])cc5)c5ccc([nH]5)c(-c5ccc(S(=O)(=O)[O-])cc5)c5nc(c(-c6ccc(S(=O)(=O)[O-])cc6)c6ccc3[nH]6)C=C5)C=C4)cc2)c(-c2nc3ccccc3s2)c1
REMARK SMILES IDX 24 1 23 2 22 3 21 4 20 5 19 6 17 7 18 8 16 9 15 10 14 11
REMARK SMILES IDX 11 12 12 13 104 14 13 15 94 16 10 17 8 18 9 19 7 21 1 22
REMARK SMILES IDX 2 23 3 24 4 25 6 26 5 27 95 28 96 29 103 30 97 31 102 32
REMARK SMILES IDX 98 33 101 34 99 35 100 36 25 37 26 38 27 39 28 40 29 41
REMARK SMILES IDX 30 42 31 43 32 44 33 45 34 46 35 47 93 48 36 49 92 50 37 51
REMARK SMILES IDX 38 52 39 53 86 54 40 55 91 56 85 57 87 58 41 59 90 60 84 61
REMARK SMILES IDX 83 62 42 64 72 65 53 66 71 67 54 68 57 69 70 70 88 71 55 72
REMARK SMILES IDX 56 73 69 75 89 76 58 77 43 78 44 79 52 80 45 81 51 82 46 83
REMARK SMILES IDX 47 84 48 85 49 86 50 87 73 88 74 89 82 90 75 91 81 92 76 93
REMARK SMILES IDX 77 94 78 95 79 96 80 97 59 98 60 99 68 100 61 101 67 102
REMARK SMILES IDX 62 103 63 104 64 105 65 106 66 107
REMARK H PARENT 10 20 87 63 57 74
REMARK Flexibility Score: inf
ROOT
ATOM      1  C   UNL     1       2.982  -1.739  -0.192  1.00  0.00     0.188 C 
ENDROOT
BRANCH   1   2
ATOM      2  C   UNL     1       2.387  -1.531  -1.582  1.00  0.00     0.188 C 
BRANCH   2   3
ATOM      3  O   UNL     1       1.840  -2.519  -2.440  1.00  0.00    -0.376 OA
BRANCH   3   4
ATOM      4  C   UNL     1       1.903  -3.872  -2.063  1.00  0.00     0.202 C 
BRANCH   4   5
ATOM      5  C   UNL     1       3.247  -4.577  -2.236  1.00  0.00     0.261 C 
BRANCH   5   6
ATOM      6  O   UNL     1       4.326  -3.754  -1.803  1.00  0.00    -0.461 OA
BRANCH   6   7
ATOM      7  C   UNL     1       5.519  -3.977  -2.389  1.00  0.00     0.344 C 
ATOM      8  O   UNL     1       5.795  -4.929  -3.110  1.00  0.00    -0.248 OA
BRANCH   7   9
ATOM      9  C   UNL     1       6.501  -2.841  -2.071  1.00  0.00     0.352 C 
BRANCH   9  10
ATOM     10  O   UNL     1       6.121  -1.650  -1.425  1.00  0.00    -0.481 OA
BRANCH  10  11
ATOM     11  C   UNL     1       5.637  -0.444  -1.833  1.00  0.00     0.130 A 
ATOM     12  C   UNL     1       3.970   1.892  -1.524  1.00  0.00     0.042 A 
ATOM     13  C   UNL     1       4.853   1.521  -0.521  1.00  0.00     0.030 A 
ATOM     14  C   UNL     1       4.200   1.284  -2.762  1.00  0.00     0.041 A 
ATOM     15  C   UNL     1       5.681   0.398  -0.685  1.00  0.00     0.049 A 
ATOM     16  C   UNL     1       4.944   0.045  -2.963  1.00  0.00     0.055 A 
BRANCH  12  17
ATOM     17  N   UNL     1       3.046   2.929  -1.232  1.00  0.00    -0.322 N 
ATOM     18  C   UNL     1       1.713   3.313  -1.426  1.00  0.00     0.255 C 
ATOM     19  O   UNL     1       1.480   4.497  -1.122  1.00  0.00    -0.269 OA
ATOM     20  H   UNL     1       3.505   3.625  -0.707  1.00  0.00     0.170 HD
BRANCH  18  21
ATOM     21  C   UNL     1       0.470   2.484  -1.694  1.00  0.00     0.043 A 
ATOM     22  C   UNL     1       1.300   1.215  -3.689  1.00  0.00     0.045 C 
ATOM     23  C   UNL     1       0.292   1.492  -2.655  1.00  0.00    -0.038 A 
ATOM     24  C   UNL     1      -0.878   0.693  -2.693  1.00  0.00     0.004 A 
ATOM     25  C   UNL     1      -1.959   0.961  -1.868  1.00  0.00     0.000 A 
ATOM     26  C   UNL     1      -0.677   2.780  -0.909  1.00  0.00     0.014 A 
ATOM     27  C   UNL     1      -1.872   2.033  -0.993  1.00  0.00     0.001 A 
ENDBRANCH  18  21
ENDBRANCH  12  17
BRANCH  16  28
ATOM     28  C   UNL     1       4.514  -0.670  -4.225  1.00  0.00     0.128 A 
ATOM     29  N   UNL     1       3.495  -0.261  -4.976  1.00  0.00    -0.236 NA
ATOM     30  S   UNL     1       5.086  -2.174  -4.803  1.00  0.00    -0.114 S 
ATOM     31  C   UNL     1       2.807  -1.368  -5.476  1.00  0.00     0.082 A 
ATOM     32  C   UNL     1       3.493  -2.570  -5.343  1.00  0.00     0.055 A 
ATOM     33  C   UNL     1       1.506  -1.396  -6.027  1.00  0.00     0.030 A 
ATOM     34  C   UNL     1       2.891  -3.805  -5.644  1.00  0.00     0.021 A 
ATOM     35  C   UNL     1       0.880  -2.619  -6.291  1.00  0.00     0.002 A 
ATOM     36  C   UNL     1       1.559  -3.810  -6.074  1.00  0.00     0.002 A 
ENDBRANCH  16  28
ENDBRANCH  10  11
ENDBRANCH   9  10
ENDBRANCH   7   9
ENDBRANCH   6   7
ENDBRANCH   5   6
ENDBRANCH   4   5
ENDBRANCH   3   4
ENDBRANCH   2   3
ENDBRANCH   1   2
BRANCH   1  37
ATOM     37  O   UNL     1       2.140  -1.692   0.934  1.00  0.00    -0.377 OA
BRANCH  37  38
ATOM     38  C   UNL     1       0.767  -1.720   0.686  1.00  0.00     0.188 C 
BRANCH  38  39
ATOM     39  C   UNL     1       0.066  -0.385   0.563  1.00  0.00     0.188 C 
BRANCH  39  40
ATOM     40  O   UNL     1       0.863   0.765   0.482  1.00  0.00    -0.376 OA
BRANCH  40  41
ATOM     41  C   UNL     1       1.739   1.021   1.562  1.00  0.00     0.202 C 
BRANCH  41  42
ATOM     42  C   UNL     1       1.321   0.729   3.017  1.00  0.00     0.261 C 
BRANCH  42  43
ATOM     43  O   UNL     1       0.579  -0.481   3.298  1.00  0.00    -0.460 OA
BRANCH  43  44
ATOM     44  C   UNL     1      -0.581  -0.409   4.016  1.00  0.00     0.338 C 
ATOM     45  O   UNL     1      -1.139   0.577   4.471  1.00  0.00    -0.246 OA
BRANCH  44  46
ATOM     46  C   UNL     1      -1.256  -1.730   3.846  1.00  0.00     0.060 A 
ATOM     47  C   UNL     1      -0.816  -2.870   4.515  1.00  0.00     0.016 A 
ATOM     48  C   UNL     1      -2.003  -1.873   2.679  1.00  0.00     0.016 A 
ATOM     49  C   UNL     1      -0.842  -4.104   3.844  1.00  0.00     0.010 A 
ATOM     50  C   UNL     1      -1.869  -3.055   1.947  1.00  0.00     0.010 A 
ATOM     51  C   UNL     1      -1.115  -4.123   2.460  1.00  0.00    -0.014 A 
BRANCH  51  52
ATOM     52  C   UNL     1      -0.165  -4.860   1.540  1.00  0.00     0.031 A 
ATOM     53  C   UNL     1      -0.512  -5.443   0.184  1.00  0.00     0.074 A 
ATOM     54  C   UNL     1       1.165  -4.692   1.810  1.00  0.00     0.049 A 
ATOM     55  N   UNL     1       0.213  -6.307  -0.465  1.00  0.00    -0.248 NA
ATOM     56  C   UNL     1      -1.696  -5.086  -0.585  1.00  0.00     0.031 C 
ATOM     57  C   UNL     1       2.275  -4.968   0.925  1.00  0.00     0.029 A 
ATOM     58  N   UNL     1       1.805  -4.091   2.898  1.00  0.00    -0.354 N 
ATOM     59  C   UNL     1      -0.271  -6.475  -1.760  1.00  0.00     0.074 A 
ATOM     60  C   UNL     1      -1.502  -5.724  -1.746  1.00  0.00     0.031 C 
ATOM     61  C   UNL     1       3.419  -4.472   1.405  1.00  0.00     0.029 A 
ATOM     62  C   UNL     1       3.199  -4.160   2.782  1.00  0.00     0.049 A 
ATOM     63  H   UNL     1       1.333  -3.671   3.653  1.00  0.00     0.167 HD
ATOM     64  C   UNL     1       0.445  -7.157  -2.724  1.00  0.00     0.031 A 
ATOM     65  C   UNL     1       3.905  -4.851   3.712  1.00  0.00     0.031 A 
ATOM     66  C   UNL     1       1.744  -7.686  -2.202  1.00  0.00     0.049 A 
ATOM     67  C   UNL     1       4.088  -6.361   3.290  1.00  0.00     0.074 A 
ATOM     68  C   UNL     1       3.046  -7.806  -2.668  1.00  0.00     0.029 A 
ATOM     69  N   UNL     1       1.821  -8.134  -0.876  1.00  0.00    -0.354 N 
ATOM     70  N   UNL     1       3.959  -6.807   2.040  1.00  0.00    -0.248 NA
ATOM     71  C   UNL     1       4.329  -7.501   4.176  1.00  0.00     0.031 C 
ATOM     72  C   UNL     1       3.906  -8.105  -1.550  1.00  0.00     0.029 A 
ATOM     73  C   UNL     1       3.123  -8.273  -0.416  1.00  0.00     0.049 A 
ATOM     74  H   UNL     1       1.029  -8.331  -0.325  1.00  0.00     0.167 HD
ATOM     75  C   UNL     1       3.811  -8.176   1.987  1.00  0.00     0.074 A 
ATOM     76  C   UNL     1       4.173  -8.559   3.346  1.00  0.00     0.031 C 
ATOM     77  C   UNL     1       3.339  -8.902   0.903  1.00  0.00     0.031 A 
BRANCH  64  78
ATOM     78  C   UNL     1       0.043  -7.249  -4.237  1.00  0.00    -0.014 A 
ATOM     79  C   UNL     1       0.826  -7.981  -5.163  1.00  0.00     0.010 A 
ATOM     80  C   UNL     1      -1.083  -6.627  -4.826  1.00  0.00     0.010 A 
ATOM     81  C   UNL     1       0.536  -8.049  -6.553  1.00  0.00     0.020 A 
ATOM     82  C   UNL     1      -1.407  -6.705  -6.203  1.00  0.00     0.020 A 
ATOM     83  C   UNL     1      -0.584  -7.407  -7.068  1.00  0.00     0.054 A 
BRANCH  83  84
ATOM     84  S   UNL     1      -0.960  -7.500  -8.847  1.00  0.00     0.124 S 
ATOM     85  O   UNL     1       0.168  -6.787  -9.441  1.00  0.00    -0.237 OA
ATOM     86  O   UNL     1      -0.998  -8.938  -9.093  1.00  0.00    -0.237 OA
ATOM     87  O   UNL     1      -2.249  -6.819  -8.965  1.00  0.00    -0.744 OA
ENDBRANCH  83  84
ENDBRANCH  64  78
BRANCH  65  88
ATOM     88  C   UNL     1       4.121  -3.857   4.849  1.00  0.00    -0.014 A 
ATOM     89  C   UNL     1       5.137  -2.887   4.602  1.00  0.00     0.010 A 
ATOM     90  C   UNL     1       3.018  -3.372   5.613  1.00  0.00     0.010 A 
ATOM     91  C   UNL     1       4.992  -1.514   4.936  1.00  0.00     0.020 A 
ATOM     92  C   UNL     1       2.867  -1.991   5.950  1.00  0.00     0.020 A 
ATOM     93  C   UNL     1       3.850  -1.064   5.595  1.00  0.00     0.054 A 
BRANCH  93  94
ATOM     94  S   UNL     1       3.590   0.745   5.829  1.00  0.00     0.124 S 
ATOM     95  O   UNL     1       4.284   1.009   7.083  1.00  0.00    -0.237 OA
ATOM     96  O   UNL     1       4.209   1.331   4.639  1.00  0.00    -0.237 OA
ATOM     97  O   UNL     1       2.136   0.871   5.889  1.00  0.00    -0.744 OA
ENDBRANCH  93  94
ENDBRANCH  65  88
BRANCH  77  98
ATOM     98  C   UNL     1       2.933 -10.388   0.922  1.00  0.00    -0.014 A 
ATOM     99  C   UNL     1       2.539 -11.088   2.068  1.00  0.00     0.010 A 
ATOM    100  C   UNL     1       2.757 -11.076  -0.317  1.00  0.00     0.010 A 
ATOM    101  C   UNL     1       2.072 -12.415   1.990  1.00  0.00     0.020 A 
ATOM    102  C   UNL     1       2.236 -12.370  -0.412  1.00  0.00     0.020 A 
ATOM    103  C   UNL     1       1.931 -13.049   0.753  1.00  0.00     0.054 A 
BRANCH 103 104
ATOM    104  S   UNL     1       1.314 -14.749   0.676  1.00  0.00     0.124 S 
ATOM    105  O   UNL     1       2.523 -15.517   0.961  1.00  0.00    -0.237 OA
ATOM    106  O   UNL     1       0.295 -14.773   1.722  1.00  0.00    -0.237 OA
ATOM    107  O   UNL     1       0.801 -14.873  -0.686  1.00  0.00    -0.744 OA
ENDBRANCH 103 104
ENDBRANCH  77  98
ENDBRANCH  51  52
ENDBRANCH  44  46
ENDBRANCH  43  44
ENDBRANCH  42  43
ENDBRANCH  41  42
ENDBRANCH  40  41
ENDBRANCH  39  40
ENDBRANCH  38  39
ENDBRANCH  37  38
ENDBRANCH   1  37
TORSDOF 28
