REMARK SMILES C[C@H](C(=O)OCCOCCOCCOCCOC(=O)c1ccc(-c2c3nc(c(-c4ccc(S(=O)(=O)[O-])cc4)c4ccc([nH]4)c(-c4ccc(S(=O)(=O)[O-])cc4)c4nc(c(-c5ccc(S(=O)(=O)[O-])cc5)c5ccc2[nH]5)C=C4)C=C3)cc1)c1ccc(C[C@@H]2CCC[C@H]2O)cc1
REMARK SMILES IDX 10 1 9 2 8 3 7 4 6 5 5 6 3 7 4 8 2 9 1 10 80 11 81 12 92 13
REMARK SMILES IDX 82 14 91 15 83 16 84 17 85 18 86 19 89 20 87 21 88 22 90 23
REMARK SMILES IDX 11 25 12 26 13 27 14 28 15 29 16 30 17 31 18 32 19 33 20 34
REMARK SMILES IDX 21 35 79 36 22 37 78 38 23 39 24 40 25 41 72 42 26 43 77 44
REMARK SMILES IDX 71 45 73 46 27 47 76 48 70 49 69 50 28 52 58 53 39 54 57 55
REMARK SMILES IDX 40 56 43 57 56 58 74 59 41 60 42 61 55 63 75 64 44 65 29 66
REMARK SMILES IDX 30 67 38 68 31 69 37 70 32 71 33 72 34 73 35 74 36 75 59 76
REMARK SMILES IDX 60 77 68 78 61 79 67 80 62 81 63 82 64 83 65 84 66 85 45 86
REMARK SMILES IDX 46 87 54 88 47 89 53 90 48 91 49 92 50 93 51 94 52 95
REMARK H PARENT 90 24 73 51 43 62
REMARK Flexibility Score: inf
ROOT
ATOM      1  C   UNL     1     -10.367   5.965   3.475  1.00  0.00     0.188 C 
ENDROOT
BRANCH   1   2
ATOM      2  C   UNL     1     -10.368   7.011   4.590  1.00  0.00     0.188 C 
BRANCH   2   3
ATOM      3  O   UNL     1      -9.198   7.792   4.615  1.00  0.00    -0.376 OA
BRANCH   3   4
ATOM      4  C   UNL     1      -8.076   7.477   5.409  1.00  0.00     0.202 C 
BRANCH   4   5
ATOM      5  C   UNL     1      -7.497   6.064   5.653  1.00  0.00     0.261 C 
BRANCH   5   6
ATOM      6  O   UNL     1      -8.148   4.915   5.091  1.00  0.00    -0.463 OA
BRANCH   6   7
ATOM      7  C   UNL     1      -8.892   4.148   5.933  1.00  0.00     0.313 C 
ATOM      8  O   UNL     1      -9.098   4.448   7.107  1.00  0.00    -0.252 OA
BRANCH   7   9
ATOM      9  C   UNL     1      -9.561   2.918   5.292  1.00  0.00     0.126 C 
ATOM     10  C   UNL     1     -11.083   3.101   5.307  1.00  0.00     0.025 C 
BRANCH   9  11
ATOM     11  C   UNL     1      -9.015   2.402   3.960  1.00  0.00    -0.034 A 
ATOM     12  C   UNL     1      -8.053   1.387   3.989  1.00  0.00     0.005 A 
ATOM     13  C   UNL     1      -9.456   2.821   2.694  1.00  0.00     0.005 A 
ATOM     14  C   UNL     1      -7.518   0.861   2.811  1.00  0.00     0.004 A 
ATOM     15  C   UNL     1      -8.847   2.365   1.515  1.00  0.00     0.004 A 
ATOM     16  C   UNL     1      -7.837   1.404   1.565  1.00  0.00    -0.048 A 
BRANCH  16  17
ATOM     17  C   UNL     1      -7.118   0.968   0.310  1.00  0.00     0.041 C 
BRANCH  17  18
ATOM     18  C   UNL     1      -5.616   1.317   0.162  1.00  0.00     0.022 C 
ATOM     19  C   UNL     1      -4.686   0.704   1.218  1.00  0.00     0.007 C 
ATOM     20  C   UNL     1      -5.291   2.812   0.236  1.00  0.00     0.117 C 
ATOM     21  C   UNL     1      -4.418   1.794   2.259  1.00  0.00     0.003 C 
ATOM     22  C   UNL     1      -5.003   3.095   1.706  1.00  0.00     0.032 C 
BRANCH  20  23
ATOM     23  O   UNL     1      -4.120   3.076  -0.536  1.00  0.00    -0.393 OA
ATOM     24  H   UNL     1      -3.386   2.532  -0.207  1.00  0.00     0.210 HD
ENDBRANCH  20  23
ENDBRANCH  17  18
ENDBRANCH  16  17
ENDBRANCH   9  11
ENDBRANCH   7   9
ENDBRANCH   6   7
ENDBRANCH   5   6
ENDBRANCH   4   5
ENDBRANCH   3   4
ENDBRANCH   2   3
ENDBRANCH   1   2
BRANCH   1  25
ATOM     25  O   UNL     1      -9.956   6.250   2.155  1.00  0.00    -0.377 OA
BRANCH  25  26
ATOM     26  C   UNL     1      -8.891   7.162   1.991  1.00  0.00     0.188 C 
BRANCH  26  27
ATOM     27  C   UNL     1      -9.395   8.604   1.835  1.00  0.00     0.188 C 
BRANCH  27  28
ATOM     28  O   UNL     1     -10.777   8.882   1.638  1.00  0.00    -0.376 OA
BRANCH  28  29
ATOM     29  C   UNL     1     -11.653   7.958   1.015  1.00  0.00     0.202 C 
BRANCH  29  30
ATOM     30  C   UNL     1     -11.305   7.212  -0.291  1.00  0.00     0.261 C 
BRANCH  30  31
ATOM     31  O   UNL     1      -9.934   7.125  -0.680  1.00  0.00    -0.460 OA
BRANCH  31  32
ATOM     32  C   UNL     1      -9.445   8.184  -1.357  1.00  0.00     0.338 C 
ATOM     33  O   UNL     1     -10.047   9.200  -1.672  1.00  0.00    -0.246 OA
BRANCH  32  34
ATOM     34  C   UNL     1      -7.993   7.986  -1.538  1.00  0.00     0.060 A 
ATOM     35  C   UNL     1      -7.113   8.919  -0.977  1.00  0.00     0.016 A 
ATOM     36  C   UNL     1      -7.503   6.903  -2.274  1.00  0.00     0.016 A 
ATOM     37  C   UNL     1      -5.741   8.789  -1.167  1.00  0.00     0.010 A 
ATOM     38  C   UNL     1      -6.127   6.794  -2.496  1.00  0.00     0.010 A 
ATOM     39  C   UNL     1      -5.247   7.758  -1.973  1.00  0.00    -0.014 A 
BRANCH  39  40
ATOM     40  C   UNL     1      -3.844   7.828  -2.442  1.00  0.00     0.031 A 
ATOM     41  C   UNL     1      -3.579   8.434  -3.793  1.00  0.00     0.074 A 
ATOM     42  C   UNL     1      -2.828   7.416  -1.665  1.00  0.00     0.049 A 
ATOM     43  N   UNL     1      -2.446   8.586  -4.426  1.00  0.00    -0.248 NA
ATOM     44  C   UNL     1      -4.752   8.938  -4.529  1.00  0.00     0.031 C 
ATOM     45  C   UNL     1      -2.962   6.873  -0.313  1.00  0.00     0.029 A 
ATOM     46  N   UNL     1      -1.478   7.393  -1.907  1.00  0.00    -0.354 N 
ATOM     47  C   UNL     1      -2.770   9.184  -5.639  1.00  0.00     0.074 A 
ATOM     48  C   UNL     1      -4.206   9.350  -5.663  1.00  0.00     0.031 C 
ATOM     49  C   UNL     1      -1.739   6.565   0.153  1.00  0.00     0.029 A 
ATOM     50  C   UNL     1      -0.745   6.847  -0.881  1.00  0.00     0.049 A 
ATOM     51  H   UNL     1      -1.073   7.734  -2.737  1.00  0.00     0.167 HD
ATOM     52  C   UNL     1      -1.944   9.561  -6.643  1.00  0.00     0.031 A 
ATOM     53  C   UNL     1       0.574   6.582  -0.802  1.00  0.00     0.031 A 
ATOM     54  C   UNL     1      -0.517   9.377  -6.615  1.00  0.00     0.049 A 
ATOM     55  C   UNL     1       1.463   6.929  -1.969  1.00  0.00     0.074 A 
ATOM     56  C   UNL     1       0.414   9.732  -7.574  1.00  0.00     0.029 A 
ATOM     57  N   UNL     1       0.183   8.774  -5.580  1.00  0.00    -0.354 N 
ATOM     58  N   UNL     1       1.149   7.511  -3.103  1.00  0.00    -0.248 NA
ATOM     59  C   UNL     1       2.887   6.589  -1.843  1.00  0.00     0.031 C 
ATOM     60  C   UNL     1       1.668   9.283  -7.150  1.00  0.00     0.029 A 
ATOM     61  C   UNL     1       1.530   8.718  -5.891  1.00  0.00     0.049 A 
ATOM     62  H   UNL     1      -0.219   8.437  -4.747  1.00  0.00     0.167 HD
ATOM     63  C   UNL     1       2.341   7.635  -3.810  1.00  0.00     0.074 A 
ATOM     64  C   UNL     1       3.383   7.081  -2.970  1.00  0.00     0.031 C 
ATOM     65  C   UNL     1       2.555   8.163  -5.042  1.00  0.00     0.031 A 
BRANCH  52  66
ATOM     66  C   UNL     1      -2.569  10.159  -7.876  1.00  0.00    -0.014 A 
ATOM     67  C   UNL     1      -3.160  11.436  -7.857  1.00  0.00     0.010 A 
ATOM     68  C   UNL     1      -2.535   9.440  -9.085  1.00  0.00     0.010 A 
ATOM     69  C   UNL     1      -3.736  11.966  -9.016  1.00  0.00     0.020 A 
ATOM     70  C   UNL     1      -3.081   9.980 -10.253  1.00  0.00     0.020 A 
ATOM     71  C   UNL     1      -3.692  11.234 -10.207  1.00  0.00     0.054 A 
BRANCH  71  72
ATOM     72  S   UNL     1      -4.420  11.959 -11.701  1.00  0.00     0.124 S 
ATOM     73  O   UNL     1      -5.849  11.899 -11.401  1.00  0.00    -0.237 OA
ATOM     74  O   UNL     1      -3.838  13.298 -11.722  1.00  0.00    -0.237 OA
ATOM     75  O   UNL     1      -3.973  11.072 -12.772  1.00  0.00    -0.744 OA
ENDBRANCH  71  72
ENDBRANCH  52  66
BRANCH  53  76
ATOM     76  C   UNL     1       1.132   5.929   0.415  1.00  0.00    -0.014 A 
ATOM     77  C   UNL     1       2.013   6.621   1.264  1.00  0.00     0.010 A 
ATOM     78  C   UNL     1       0.784   4.602   0.730  1.00  0.00     0.010 A 
ATOM     79  C   UNL     1       2.547   5.995   2.395  1.00  0.00     0.020 A 
ATOM     80  C   UNL     1       1.290   3.983   1.875  1.00  0.00     0.020 A 
ATOM     81  C   UNL     1       2.177   4.681   2.696  1.00  0.00     0.054 A 
BRANCH  81  82
ATOM     82  S   UNL     1       2.839   3.907   4.198  1.00  0.00     0.124 S 
ATOM     83  O   UNL     1       4.239   3.700   3.843  1.00  0.00    -0.237 OA
ATOM     84  O   UNL     1       2.585   4.927   5.213  1.00  0.00    -0.237 OA
ATOM     85  O   UNL     1       2.040   2.691   4.336  1.00  0.00    -0.744 OA
ENDBRANCH  81  82
ENDBRANCH  53  76
BRANCH  65  86
ATOM     86  C   UNL     1       3.977   8.213  -5.542  1.00  0.00    -0.014 A 
ATOM     87  C   UNL     1       4.665   7.046  -5.917  1.00  0.00     0.010 A 
ATOM     88  C   UNL     1       4.610   9.460  -5.696  1.00  0.00     0.010 A 
ATOM     89  C   UNL     1       5.973   7.124  -6.404  1.00  0.00     0.020 A 
ATOM     90  C   UNL     1       5.904   9.546  -6.214  1.00  0.00     0.020 A 
ATOM     91  C   UNL     1       6.584   8.374  -6.551  1.00  0.00     0.054 A 
BRANCH  91  92
ATOM     92  S   UNL     1       8.265   8.450  -7.226  1.00  0.00     0.124 S 
ATOM     93  O   UNL     1       9.060   7.917  -6.124  1.00  0.00    -0.237 OA
ATOM     94  O   UNL     1       8.174   7.595  -8.408  1.00  0.00    -0.237 OA
ATOM     95  O   UNL     1       8.464   9.870  -7.507  1.00  0.00    -0.744 OA
ENDBRANCH  91  92
ENDBRANCH  65  86
ENDBRANCH  39  40
ENDBRANCH  32  34
ENDBRANCH  31  32
ENDBRANCH  30  31
ENDBRANCH  29  30
ENDBRANCH  28  29
ENDBRANCH  27  28
ENDBRANCH  26  27
ENDBRANCH  25  26
ENDBRANCH   1  25
TORSDOF 27
