REMARK SMILES Cc1ccc(S(=O)(=O)n2cc(C(=O)C(=O)N[C@@H](Cc3c[nH]c4ccccc34)C(=O)NCC(=O)OCCOCCOCCOCCOC(=O)c3ccc(-c4c5nc(c(-c6ccc(S(=O)(=O)[O-])cc6)c6ccc([nH]6)c(-c6ccc(S(=O)(=O)[O-])cc6)c6nc(c(-c7ccc(S(=O)(=O)[O-])cc7)c7ccc4[nH]7)C=C6)C=C5)cc3)c3ccccc32)cc1
REMARK SMILES IDX 38 1 37 2 36 3 35 4 34 5 32 6 33 7 31 8 30 9 28 10 29 11
REMARK SMILES IDX 17 13 16 14 14 15 15 16 12 18 13 19 11 20 9 21 10 22 114 23
REMARK SMILES IDX 109 24 113 25 110 26 112 27 111 28 6 29 7 30 8 31 5 32 1 33
REMARK SMILES IDX 2 34 3 35 116 36 4 37 115 38 18 39 19 40 20 41 27 42 21 43
REMARK SMILES IDX 22 44 26 45 23 47 25 48 24 49 39 50 40 51 41 52 42 53 43 54
REMARK SMILES IDX 44 55 45 56 46 57 47 58 48 59 49 60 50 61 108 62 51 63
REMARK SMILES IDX 107 64 52 65 53 66 54 67 101 68 55 69 106 70 100 71 102 72
REMARK SMILES IDX 56 73 105 74 99 75 98 76 57 78 87 79 68 80 86 81 69 82 72 83
REMARK SMILES IDX 85 84 103 85 70 86 71 87 84 89 104 90 73 91 58 92 59 93
REMARK SMILES IDX 67 94 60 95 66 96 61 97 62 98 63 99 64 100 65 101 88 102
REMARK SMILES IDX 89 103 97 104 90 105 96 106 91 107 92 108 93 109 94 110
REMARK SMILES IDX 95 111 74 112 75 113 83 114 76 115 82 116 77 117 78 118
REMARK SMILES IDX 79 119 80 120 81 121
REMARK H PARENT 30 12 16 17 21 46 102 77 72 88
REMARK Flexibility Score: inf
ROOT
ATOM      1  C   UNL     1     -15.421   4.736  -2.658  1.00  0.00     0.188 C 
ENDROOT
BRANCH   1   2
ATOM      2  O   UNL     1     -15.397   6.123  -2.975  1.00  0.00    -0.376 OA
BRANCH   2   3
ATOM      3  C   UNL     1     -14.257   6.891  -2.570  1.00  0.00     0.202 C 
BRANCH   3   4
ATOM      4  C   UNL     1     -13.888   6.855  -1.083  1.00  0.00     0.261 C 
BRANCH   4   5
ATOM      5  O   UNL     1     -13.151   5.648  -0.837  1.00  0.00    -0.462 OA
BRANCH   5   6
ATOM      6  C   UNL     1     -13.713   4.767  -0.006  1.00  0.00     0.325 C 
ATOM      7  O   UNL     1     -14.713   4.973   0.680  1.00  0.00    -0.250 OA
BRANCH   6   8
ATOM      8  C   UNL     1     -12.951   3.460   0.047  1.00  0.00     0.238 C 
BRANCH   8   9
ATOM      9  N   UNL     1     -12.121   2.829  -0.943  1.00  0.00    -0.343 N 
ATOM     10  C   UNL     1     -11.588   1.586  -0.672  1.00  0.00     0.243 C 
ATOM     11  O   UNL     1     -11.814   0.656  -1.450  1.00  0.00    -0.273 OA
ATOM     12  H   UNL     1     -11.936   3.277  -1.800  1.00  0.00     0.164 HD
BRANCH  10  13
ATOM     13  C   UNL     1     -10.835   1.331   0.680  1.00  0.00     0.176 C 
BRANCH  13  14
ATOM     14  N   UNL     1      -9.816   2.379   0.937  1.00  0.00    -0.337 N 
ATOM     15  C   UNL     1      -8.472   2.463   0.580  1.00  0.00     0.293 C 
ATOM     16  O   UNL     1      -7.759   3.365   1.012  1.00  0.00    -0.265 OA
ATOM     17  H   UNL     1     -10.148   3.150   1.452  1.00  0.00     0.164 HD
BRANCH  15  18
ATOM     18  C   UNL     1      -7.839   1.447  -0.378  1.00  0.00     0.252 C 
ATOM     19  O   UNL     1      -8.474   1.191  -1.399  1.00  0.00    -0.283 OA
BRANCH  18  20
ATOM     20  C   UNL     1      -6.626   0.682  -0.025  1.00  0.00     0.054 A 
ATOM     21  N   UNL     1      -4.623  -0.100   0.691  1.00  0.00    -0.240 N 
ATOM     22  C   UNL     1      -5.306   1.053   0.292  1.00  0.00     0.117 A 
ATOM     23  C   UNL     1      -5.571  -1.140   0.749  1.00  0.00     0.065 A 
ATOM     24  C   UNL     1      -6.604  -0.739  -0.086  1.00  0.00     0.012 A 
ATOM     25  C   UNL     1      -5.446  -2.478   1.171  1.00  0.00     0.028 A 
ATOM     26  C   UNL     1      -7.393  -1.726  -0.710  1.00  0.00     0.011 A 
ATOM     27  C   UNL     1      -6.173  -3.442   0.477  1.00  0.00     0.002 A 
ATOM     28  C   UNL     1      -7.098  -3.074  -0.490  1.00  0.00     0.001 A 
BRANCH  21  29
ATOM     29  S   UNL     1      -3.081  -0.729   0.171  1.00  0.00     0.268 S 
ATOM     30  O   UNL     1      -3.370  -1.217  -1.170  1.00  0.00    -0.201 OA
ATOM     31  O   UNL     1      -2.798  -1.664   1.256  1.00  0.00    -0.201 OA
BRANCH  29  32
ATOM     32  C   UNL     1      -1.496   0.006   0.014  1.00  0.00     0.088 A 
ATOM     33  C   UNL     1       2.779   0.687  -0.049  1.00  0.00     0.044 C 
ATOM     34  C   UNL     1       1.289   0.501  -0.090  1.00  0.00    -0.051 A 
ATOM     35  C   UNL     1       0.822  -0.787  -0.291  1.00  0.00     0.005 A 
ATOM     36  C   UNL     1       0.352   1.542   0.117  1.00  0.00     0.005 A 
ATOM     37  C   UNL     1      -0.540  -1.016  -0.255  1.00  0.00     0.022 A 
ATOM     38  C   UNL     1      -1.051   1.304   0.176  1.00  0.00     0.022 A 
ENDBRANCH  29  32
ENDBRANCH  21  29
ENDBRANCH  18  20
ENDBRANCH  15  18
ENDBRANCH  13  14
BRANCH  13  39
ATOM     39  C   UNL     1     -11.752   0.913   1.916  1.00  0.00     0.072 C 
BRANCH  39  40
ATOM     40  C   UNL     1     -12.581   1.950   2.664  1.00  0.00    -0.020 A 
ATOM     41  C   UNL     1     -13.965   2.085   2.688  1.00  0.00     0.087 A 
ATOM     42  C   UNL     1     -12.064   3.113   3.327  1.00  0.00     0.003 A 
ATOM     43  N   UNL     1     -14.264   3.377   3.082  1.00  0.00    -0.361 N 
ATOM     44  C   UNL     1     -13.082   4.063   3.241  1.00  0.00     0.046 A 
ATOM     45  C   UNL     1     -10.750   3.529   3.598  1.00  0.00     0.010 A 
ATOM     46  H   UNL     1     -15.167   3.742   3.224  1.00  0.00     0.166 HD
ATOM     47  C   UNL     1     -12.816   5.418   3.085  1.00  0.00     0.026 A 
ATOM     48  C   UNL     1     -10.446   4.845   3.284  1.00  0.00     0.001 A 
ATOM     49  C   UNL     1     -11.467   5.710   2.925  1.00  0.00     0.002 A 
ENDBRANCH  39  40
ENDBRANCH  13  39
ENDBRANCH  10  13
ENDBRANCH   8   9
ENDBRANCH   6   8
ENDBRANCH   5   6
ENDBRANCH   4   5
ENDBRANCH   3   4
ENDBRANCH   2   3
ENDBRANCH   1   2
BRANCH   1  50
ATOM     50  C   UNL     1     -14.490   3.761  -3.398  1.00  0.00     0.188 C 
BRANCH  50  51
ATOM     51  O   UNL     1     -13.121   4.136  -3.370  1.00  0.00    -0.377 OA
BRANCH  51  52
ATOM     52  C   UNL     1     -12.382   3.708  -4.522  1.00  0.00     0.188 C 
BRANCH  52  53
ATOM     53  C   UNL     1     -12.745   4.385  -5.858  1.00  0.00     0.188 C 
BRANCH  53  54
ATOM     54  O   UNL     1     -13.857   5.276  -5.792  1.00  0.00    -0.376 OA
BRANCH  54  55
ATOM     55  C   UNL     1     -14.988   5.007  -6.616  1.00  0.00     0.202 C 
BRANCH  55  56
ATOM     56  C   UNL     1     -14.727   4.819  -8.118  1.00  0.00     0.261 C 
BRANCH  56  57
ATOM     57  O   UNL     1     -14.565   6.069  -8.817  1.00  0.00    -0.460 OA
BRANCH  57  58
ATOM     58  C   UNL     1     -13.283   6.379  -9.187  1.00  0.00     0.338 C 
ATOM     59  O   UNL     1     -12.816   6.129 -10.270  1.00  0.00    -0.246 OA
BRANCH  58  60
ATOM     60  C   UNL     1     -12.610   7.174  -8.123  1.00  0.00     0.060 A 
ATOM     61  C   UNL     1     -11.214   7.185  -8.003  1.00  0.00     0.016 A 
ATOM     62  C   UNL     1     -13.392   7.774  -7.147  1.00  0.00     0.016 A 
ATOM     63  C   UNL     1     -10.609   7.654  -6.824  1.00  0.00     0.010 A 
ATOM     64  C   UNL     1     -12.804   8.129  -5.953  1.00  0.00     0.010 A 
ATOM     65  C   UNL     1     -11.413   8.060  -5.758  1.00  0.00    -0.014 A 
BRANCH  65  66
ATOM     66  C   UNL     1     -10.993   8.224  -4.351  1.00  0.00     0.031 A 
ATOM     67  C   UNL     1     -11.639   9.308  -3.509  1.00  0.00     0.074 A 
ATOM     68  C   UNL     1     -10.435   7.145  -3.750  1.00  0.00     0.049 A 
ATOM     69  N   UNL     1     -11.633   9.381  -2.218  1.00  0.00    -0.248 NA
ATOM     70  C   UNL     1     -12.364  10.442  -4.099  1.00  0.00     0.031 C 
ATOM     71  C   UNL     1     -10.823   6.675  -2.430  1.00  0.00     0.029 A 
ATOM     72  N   UNL     1      -9.584   6.141  -4.170  1.00  0.00    -0.354 N 
ATOM     73  C   UNL     1     -12.498  10.385  -1.813  1.00  0.00     0.074 A 
ATOM     74  C   UNL     1     -12.920  11.024  -3.030  1.00  0.00     0.031 C 
ATOM     75  C   UNL     1     -10.210   5.530  -2.122  1.00  0.00     0.029 A 
ATOM     76  C   UNL     1      -9.162   5.361  -3.081  1.00  0.00     0.049 A 
ATOM     77  H   UNL     1      -9.312   5.992  -5.104  1.00  0.00     0.167 HD
ATOM     78  C   UNL     1     -12.806  10.544  -0.492  1.00  0.00     0.031 A 
ATOM     79  C   UNL     1      -7.867   5.355  -2.652  1.00  0.00     0.031 A 
ATOM     80  C   UNL     1     -11.904   9.791   0.397  1.00  0.00     0.049 A 
ATOM     81  C   UNL     1      -7.617   6.187  -1.381  1.00  0.00     0.074 A 
ATOM     82  C   UNL     1     -12.071   9.145   1.604  1.00  0.00     0.029 A 
ATOM     83  N   UNL     1     -10.552   9.605   0.052  1.00  0.00    -0.354 N 
ATOM     84  N   UNL     1      -8.450   7.075  -0.865  1.00  0.00    -0.248 NA
ATOM     85  C   UNL     1      -6.412   6.044  -0.568  1.00  0.00     0.031 C 
ATOM     86  C   UNL     1     -10.792   8.750   2.044  1.00  0.00     0.029 A 
ATOM     87  C   UNL     1      -9.881   8.884   1.008  1.00  0.00     0.049 A 
ATOM     88  H   UNL     1     -10.139   9.950  -0.772  1.00  0.00     0.167 HD
ATOM     89  C   UNL     1      -7.894   7.654   0.254  1.00  0.00     0.074 A 
ATOM     90  C   UNL     1      -6.642   6.929   0.417  1.00  0.00     0.031 C 
ATOM     91  C   UNL     1      -8.434   8.680   0.995  1.00  0.00     0.031 A 
BRANCH  78  92
ATOM     92  C   UNL     1     -14.014  11.333   0.068  1.00  0.00    -0.014 A 
ATOM     93  C   UNL     1     -14.165  11.486   1.470  1.00  0.00     0.010 A 
ATOM     94  C   UNL     1     -15.097  11.826  -0.692  1.00  0.00     0.010 A 
ATOM     95  C   UNL     1     -15.335  11.979   2.078  1.00  0.00     0.020 A 
ATOM     96  C   UNL     1     -16.253  12.393  -0.097  1.00  0.00     0.020 A 
ATOM     97  C   UNL     1     -16.383  12.425   1.289  1.00  0.00     0.054 A 
BRANCH  97  98
ATOM     98  S   UNL     1     -17.880  13.070   2.094  1.00  0.00     0.124 S 
ATOM     99  O   UNL     1     -18.549  11.848   2.533  1.00  0.00    -0.237 OA
ATOM    100  O   UNL     1     -17.341  13.907   3.164  1.00  0.00    -0.237 OA
ATOM    101  O   UNL     1     -18.558  13.800   1.026  1.00  0.00    -0.744 OA
ENDBRANCH  97  98
ENDBRANCH  78  92
BRANCH  79 102
ATOM    102  C   UNL     1      -6.961   4.785  -3.712  1.00  0.00    -0.014 A 
ATOM    103  C   UNL     1      -7.186   3.401  -3.939  1.00  0.00     0.010 A 
ATOM    104  C   UNL     1      -6.712   5.595  -4.838  1.00  0.00     0.010 A 
ATOM    105  C   UNL     1      -7.587   2.951  -5.205  1.00  0.00     0.020 A 
ATOM    106  C   UNL     1      -7.100   5.143  -6.114  1.00  0.00     0.020 A 
ATOM    107  C   UNL     1      -7.635   3.857  -6.262  1.00  0.00     0.054 A 
BRANCH 107 108
ATOM    108  S   UNL     1      -8.752   3.496  -7.665  1.00  0.00     0.124 S 
ATOM    109  O   UNL     1      -7.931   2.643  -8.515  1.00  0.00    -0.237 OA
ATOM    110  O   UNL     1      -9.893   2.850  -7.016  1.00  0.00    -0.237 OA
ATOM    111  O   UNL     1      -9.044   4.826  -8.193  1.00  0.00    -0.744 OA
ENDBRANCH 107 108
ENDBRANCH  79 102
BRANCH  91 112
ATOM    112  C   UNL     1      -7.643   9.573   1.948  1.00  0.00    -0.014 A 
ATOM    113  C   UNL     1      -6.245   9.639   1.990  1.00  0.00     0.010 A 
ATOM    114  C   UNL     1      -8.331  10.520   2.755  1.00  0.00     0.010 A 
ATOM    115  C   UNL     1      -5.580  10.509   2.866  1.00  0.00     0.020 A 
ATOM    116  C   UNL     1      -7.685  11.405   3.617  1.00  0.00     0.020 A 
ATOM    117  C   UNL     1      -6.305  11.375   3.684  1.00  0.00     0.054 A 
BRANCH 117 118
ATOM    118  S   UNL     1      -5.421  12.518   4.765  1.00  0.00     0.124 S 
ATOM    119  O   UNL     1      -4.940  11.625   5.816  1.00  0.00    -0.237 OA
ATOM    120  O   UNL     1      -4.392  13.057   3.879  1.00  0.00    -0.237 OA
ATOM    121  O   UNL     1      -6.445  13.475   5.176  1.00  0.00    -0.744 OA
ENDBRANCH 117 118
ENDBRANCH  91 112
ENDBRANCH  65  66
ENDBRANCH  58  60
ENDBRANCH  57  58
ENDBRANCH  56  57
ENDBRANCH  55  56
ENDBRANCH  54  55
ENDBRANCH  53  54
ENDBRANCH  52  53
ENDBRANCH  51  52
ENDBRANCH  50  51
ENDBRANCH   1  50
TORSDOF 32
