REMARK SMILES C[C@@H](C(=O)OCCOCCOCCOCCOC(=O)c1ccc(-c2c3nc(c(-c4ccc(S(=O)(=O)[O-])cc4)c4ccc([nH]4)c(-c4ccc(S(=O)(=O)[O-])cc4)c4nc(c(-c5ccc(S(=O)(=O)[O-])cc5)c5ccc2[nH]5)C=C4)C=C3)cc1)c1ccc(C[SiH](C)C)cc1
REMARK SMILES IDX 11 1 10 2 9 3 8 4 7 5 6 6 5 7 3 8 4 9 2 10 1 11 80 12 81 13
REMARK SMILES IDX 89 14 82 15 88 16 83 17 84 18 85 19 86 20 87 21 12 23 13 24
REMARK SMILES IDX 14 25 15 26 16 27 17 28 18 29 19 30 20 31 21 32 79 33 22 34
REMARK SMILES IDX 78 35 23 36 24 37 25 38 72 39 26 40 77 41 71 42 73 43 27 44
REMARK SMILES IDX 76 45 70 46 69 47 28 49 58 50 39 51 57 52 40 53 43 54 56 55
REMARK SMILES IDX 74 56 41 57 42 58 55 60 75 61 44 62 29 63 30 64 38 65 31 66
REMARK SMILES IDX 37 67 32 68 33 69 34 70 35 71 36 72 59 73 60 74 68 75 61 76
REMARK SMILES IDX 67 77 62 78 63 79 64 80 65 81 66 82 45 83 46 84 54 85 47 86
REMARK SMILES IDX 53 87 48 88 49 89 50 90 51 91 52 92
REMARK H PARENT 85 22 73 48 43 59
REMARK Flexibility Score: inf
ROOT
ATOM      1  O   UNL     1       2.315  -1.943   1.840  1.00  0.00    -0.377 OA
ENDROOT
BRANCH   1   2
ATOM      2  C   UNL     1       0.901  -1.911   1.817  1.00  0.00     0.188 C 
BRANCH   2   3
ATOM      3  C   UNL     1       0.234  -3.240   1.437  1.00  0.00     0.188 C 
BRANCH   3   4
ATOM      4  O   UNL     1       0.976  -4.424   1.645  1.00  0.00    -0.376 OA
BRANCH   4   5
ATOM      5  C   UNL     1       2.039  -4.788   0.775  1.00  0.00     0.202 C 
BRANCH   5   6
ATOM      6  C   UNL     1       2.529  -3.997  -0.459  1.00  0.00     0.261 C 
BRANCH   6   7
ATOM      7  O   UNL     1       1.950  -2.709  -0.686  1.00  0.00    -0.463 OA
BRANCH   7   8
ATOM      8  C   UNL     1       1.221  -2.519  -1.811  1.00  0.00     0.313 C 
ATOM      9  O   UNL     1       1.013  -3.389  -2.651  1.00  0.00    -0.252 OA
BRANCH   8  10
ATOM     10  C   UNL     1       0.578  -1.125  -1.871  1.00  0.00     0.126 C 
ATOM     11  C   UNL     1       1.438  -0.029  -1.203  1.00  0.00     0.025 C 
BRANCH  10  12
ATOM     12  C   UNL     1      -0.906  -1.093  -1.471  1.00  0.00    -0.034 A 
ATOM     13  C   UNL     1      -1.578   0.127  -1.300  1.00  0.00     0.005 A 
ATOM     14  C   UNL     1      -1.673  -2.263  -1.340  1.00  0.00     0.005 A 
ATOM     15  C   UNL     1      -2.949   0.171  -1.004  1.00  0.00     0.004 A 
ATOM     16  C   UNL     1      -3.030  -2.223  -0.997  1.00  0.00     0.004 A 
ATOM     17  C   UNL     1      -3.692  -1.004  -0.838  1.00  0.00    -0.051 A 
BRANCH  17  18
ATOM     18  C   UNL     1      -5.187  -0.982  -0.615  1.00  0.00     0.021 C 
BRANCH  18  19
ATOM     19  Si  UNL     1      -5.871  -0.259   0.983  1.00  0.00     0.035 Si
ATOM     20  C   UNL     1      -5.373   1.522   1.204  1.00  0.00    -0.013 C 
ATOM     21  C   UNL     1      -7.743  -0.368   0.940  1.00  0.00    -0.013 C 
ATOM     22  H   UNL     1      -5.341  -1.002   2.071  1.00  0.00     0.014 H 
ENDBRANCH  18  19
ENDBRANCH  17  18
ENDBRANCH  10  12
ENDBRANCH   8  10
ENDBRANCH   7   8
ENDBRANCH   6   7
ENDBRANCH   5   6
ENDBRANCH   4   5
ENDBRANCH   3   4
ENDBRANCH   2   3
ENDBRANCH   1   2
BRANCH   1  23
ATOM     23  C   UNL     1       2.960  -2.440   3.008  1.00  0.00     0.188 C 
BRANCH  23  24
ATOM     24  C   UNL     1       2.186  -3.259   4.067  1.00  0.00     0.188 C 
BRANCH  24  25
ATOM     25  O   UNL     1       0.861  -2.817   4.324  1.00  0.00    -0.376 OA
BRANCH  25  26
ATOM     26  C   UNL     1       0.628  -1.983   5.448  1.00  0.00     0.202 C 
BRANCH  26  27
ATOM     27  C   UNL     1       1.286  -0.594   5.449  1.00  0.00     0.261 C 
BRANCH  27  28
ATOM     28  O   UNL     1       2.720  -0.569   5.375  1.00  0.00    -0.460 OA
BRANCH  28  29
ATOM     29  C   UNL     1       3.413  -1.223   6.331  1.00  0.00     0.338 C 
ATOM     30  O   UNL     1       2.957  -1.794   7.308  1.00  0.00    -0.246 OA
BRANCH  29  31
ATOM     31  C   UNL     1       4.819  -1.311   5.887  1.00  0.00     0.060 A 
ATOM     32  C   UNL     1       5.399  -2.575   5.712  1.00  0.00     0.016 A 
ATOM     33  C   UNL     1       5.558  -0.153   5.635  1.00  0.00     0.016 A 
ATOM     34  C   UNL     1       6.735  -2.683   5.325  1.00  0.00     0.010 A 
ATOM     35  C   UNL     1       6.902  -0.263   5.270  1.00  0.00     0.010 A 
ATOM     36  C   UNL     1       7.507  -1.528   5.151  1.00  0.00    -0.014 A 
BRANCH  36  37
ATOM     37  C   UNL     1       8.983  -1.637   5.055  1.00  0.00     0.031 A 
ATOM     38  C   UNL     1       9.794  -1.405   6.303  1.00  0.00     0.074 A 
ATOM     39  C   UNL     1       9.594  -1.956   3.901  1.00  0.00     0.049 A 
ATOM     40  N   UNL     1      11.091  -1.396   6.460  1.00  0.00    -0.248 NA
ATOM     41  C   UNL     1       9.035  -1.146   7.538  1.00  0.00     0.031 C 
ATOM     42  C   UNL     1       8.920  -2.255   2.639  1.00  0.00     0.029 A 
ATOM     43  N   UNL     1      10.930  -2.073   3.606  1.00  0.00    -0.354 N 
ATOM     44  C   UNL     1      11.305  -1.120   7.806  1.00  0.00     0.074 A 
ATOM     45  C   UNL     1      10.005  -0.936   8.414  1.00  0.00     0.031 C 
ATOM     46  C   UNL     1       9.848  -2.510   1.700  1.00  0.00     0.029 A 
ATOM     47  C   UNL     1      11.180  -2.355   2.284  1.00  0.00     0.049 A 
ATOM     48  H   UNL     1      11.642  -1.964   4.277  1.00  0.00     0.167 HD
ATOM     49  C   UNL     1      12.477  -1.033   8.479  1.00  0.00     0.031 A 
ATOM     50  C   UNL     1      12.349  -2.451   1.617  1.00  0.00     0.031 A 
ATOM     51  C   UNL     1      13.768  -1.196   7.866  1.00  0.00     0.049 A 
ATOM     52  C   UNL     1      13.644  -2.264   2.368  1.00  0.00     0.074 A 
ATOM     53  C   UNL     1      15.016  -1.133   8.461  1.00  0.00     0.029 A 
ATOM     54  N   UNL     1      13.979  -1.443   6.518  1.00  0.00    -0.354 N 
ATOM     55  N   UNL     1      13.832  -2.023   3.644  1.00  0.00    -0.248 NA
ATOM     56  C   UNL     1      14.886  -2.371   1.588  1.00  0.00     0.031 C 
ATOM     57  C   UNL     1      15.983  -1.274   7.460  1.00  0.00     0.029 A 
ATOM     58  C   UNL     1      15.338  -1.504   6.255  1.00  0.00     0.049 A 
ATOM     59  H   UNL     1      13.269  -1.558   5.846  1.00  0.00     0.167 HD
ATOM     60  C   UNL     1      15.212  -1.981   3.825  1.00  0.00     0.074 A 
ATOM     61  C   UNL     1      15.809  -2.236   2.530  1.00  0.00     0.031 C 
ATOM     62  C   UNL     1      15.920  -1.757   4.960  1.00  0.00     0.031 A 
BRANCH  49  63
ATOM     63  C   UNL     1      12.412  -0.705   9.948  1.00  0.00    -0.014 A 
ATOM     64  C   UNL     1      11.899  -1.623  10.883  1.00  0.00     0.010 A 
ATOM     65  C   UNL     1      12.896   0.535  10.404  1.00  0.00     0.010 A 
ATOM     66  C   UNL     1      11.832  -1.291  12.238  1.00  0.00     0.020 A 
ATOM     67  C   UNL     1      12.861   0.858  11.763  1.00  0.00     0.020 A 
ATOM     68  C   UNL     1      12.313  -0.051  12.670  1.00  0.00     0.054 A 
BRANCH  68  69
ATOM     69  S   UNL     1      12.229   0.346  14.437  1.00  0.00     0.124 S 
ATOM     70  O   UNL     1      10.794   0.526  14.638  1.00  0.00    -0.237 OA
ATOM     71  O   UNL     1      12.806  -0.843  15.059  1.00  0.00    -0.237 OA
ATOM     72  O   UNL     1      13.031   1.561  14.559  1.00  0.00    -0.744 OA
ENDBRANCH  68  69
ENDBRANCH  49  63
BRANCH  50  73
ATOM     73  C   UNL     1      12.349  -2.714   0.151  1.00  0.00    -0.014 A 
ATOM     74  C   UNL     1      12.838  -3.926  -0.366  1.00  0.00     0.010 A 
ATOM     75  C   UNL     1      11.855  -1.744  -0.742  1.00  0.00     0.010 A 
ATOM     76  C   UNL     1      12.844  -4.159  -1.746  1.00  0.00     0.020 A 
ATOM     77  C   UNL     1      11.830  -1.984  -2.118  1.00  0.00     0.020 A 
ATOM     78  C   UNL     1      12.333  -3.188  -2.612  1.00  0.00     0.054 A 
BRANCH  78  79
ATOM     79  S   UNL     1      12.294  -3.538  -4.392  1.00  0.00     0.124 S 
ATOM     80  O   UNL     1      13.709  -3.482  -4.745  1.00  0.00    -0.237 OA
ATOM     81  O   UNL     1      11.682  -4.864  -4.437  1.00  0.00    -0.237 OA
ATOM     82  O   UNL     1      11.470  -2.461  -4.935  1.00  0.00    -0.744 OA
ENDBRANCH  78  79
ENDBRANCH  50  73
BRANCH  62  83
ATOM     83  C   UNL     1      17.425  -1.817   4.872  1.00  0.00    -0.014 A 
ATOM     84  C   UNL     1      18.164  -0.823   4.207  1.00  0.00     0.010 A 
ATOM     85  C   UNL     1      18.113  -2.859   5.523  1.00  0.00     0.010 A 
ATOM     86  C   UNL     1      19.560  -0.887   4.167  1.00  0.00     0.020 A 
ATOM     87  C   UNL     1      19.510  -2.909   5.513  1.00  0.00     0.020 A 
ATOM     88  C   UNL     1      20.224  -1.929   4.822  1.00  0.00     0.054 A 
BRANCH  88  89
ATOM     89  S   UNL     1      22.038  -1.964   4.792  1.00  0.00     0.124 S 
ATOM     90  O   UNL     1      22.312  -2.325   3.403  1.00  0.00    -0.237 OA
ATOM     91  O   UNL     1      22.390  -0.597   5.168  1.00  0.00    -0.237 OA
ATOM     92  O   UNL     1      22.382  -2.985   5.779  1.00  0.00    -0.744 OA
ENDBRANCH  88  89
ENDBRANCH  62  83
ENDBRANCH  36  37
ENDBRANCH  29  31
ENDBRANCH  28  29
ENDBRANCH  27  28
ENDBRANCH  26  27
ENDBRANCH  25  26
ENDBRANCH  24  25
ENDBRANCH  23  24
ENDBRANCH   1  23
TORSDOF 26
