REMARK SMILES Cc1ccc(C(=O)N2CCCC[C@@H]2C(=O)OCCOCCOCCOCCOC(=O)c2ccc(-c3c4nc(c(-c5ccc(S(=O)(=O)[O-])cc5)c5ccc([nH]5)c(-c5ccc(S(=O)(=O)[O-])cc5)c5nc(c(-c6ccc(S(=O)(=O)[O-])cc6)c6ccc3[nH]6)C=C5)C=C4)cc2)cc1S(=O)(=O)N1CCCCC1
REMARK SMILES IDX 21 1 20 2 19 3 18 4 17 5 16 6 14 7 15 8 13 9 8 10 9 11 10 12
REMARK SMILES IDX 12 13 11 14 6 15 7 16 5 17 1 18 2 19 3 20 92 21 4 22 91 23
REMARK SMILES IDX 93 24 94 25 95 26 96 27 97 28 101 29 98 30 100 31 99 32
REMARK SMILES IDX 22 33 23 34 24 35 25 36 26 37 27 38 28 39 29 40 30 41 31 42
REMARK SMILES IDX 32 43 90 44 33 45 89 46 34 47 35 48 36 49 83 50 37 51 88 52
REMARK SMILES IDX 82 53 84 54 38 55 87 56 81 57 80 58 39 60 69 61 50 62 68 63
REMARK SMILES IDX 51 64 54 65 67 66 85 67 52 68 53 69 66 71 86 72 55 73 40 74
REMARK SMILES IDX 41 75 49 76 42 77 48 78 43 79 44 80 45 81 46 82 47 83 70 84
REMARK SMILES IDX 71 85 79 86 72 87 78 88 73 89 74 90 75 91 76 92 77 93 56 94
REMARK SMILES IDX 57 95 65 96 58 97 64 98 59 99 60 100 61 101 62 102 63 103
REMARK H PARENT 84 59 54 70
REMARK Flexibility Score: inf
ROOT
ATOM      1  C   UNL     1      -5.485   3.220  -4.740  1.00  0.00     0.188 C 
ENDROOT
BRANCH   1   2
ATOM      2  C   UNL     1      -4.208   2.418  -5.088  1.00  0.00     0.188 C 
BRANCH   2   3
ATOM      3  O   UNL     1      -4.126   0.762  -5.604  1.00  0.00    -0.376 OA
BRANCH   3   4
ATOM      4  C   UNL     1      -3.083  -0.597  -5.008  1.00  0.00     0.202 C 
BRANCH   4   5
ATOM      5  C   UNL     1      -2.075  -0.672  -3.390  1.00  0.00     0.261 C 
BRANCH   5   6
ATOM      6  O   UNL     1      -2.076   0.646  -2.107  1.00  0.00    -0.462 OA
BRANCH   6   7
ATOM      7  C   UNL     1      -2.122   2.235  -1.808  1.00  0.00     0.328 C 
ATOM      8  O   UNL     1      -1.794   3.139  -2.601  1.00  0.00    -0.250 OA
BRANCH   7   9
ATOM      9  C   UNL     1      -2.970   2.812  -0.495  1.00  0.00     0.195 C 
ATOM     10  N   UNL     1      -3.610   1.913   0.475  1.00  0.00    -0.325 N 
ATOM     11  C   UNL     1      -4.548   2.473   1.442  1.00  0.00     0.121 C 
ATOM     12  C   UNL     1      -5.768   2.994   0.732  1.00  0.00     0.022 C 
ATOM     13  C   UNL     1      -4.004   3.969  -0.947  1.00  0.00     0.037 C 
ATOM     14  C   UNL     1      -5.356   4.126  -0.193  1.00  0.00     0.005 C 
BRANCH  10  15
ATOM     15  C   UNL     1      -3.182   0.599   0.688  1.00  0.00     0.254 C 
ATOM     16  O   UNL     1      -3.728  -0.035   1.591  1.00  0.00    -0.269 OA
BRANCH  15  17
ATOM     17  C   UNL     1      -1.860   0.215   0.000  1.00  0.00     0.041 A 
ATOM     18  C   UNL     1       2.978  -1.586   0.716  1.00  0.00     0.046 C 
ATOM     19  C   UNL     1       1.668  -0.903   0.539  1.00  0.00    -0.031 A 
ATOM     20  C   UNL     1       0.560  -1.771  -0.397  1.00  0.00     0.005 A 
ATOM     21  C   UNL     1       1.128   0.636   1.196  1.00  0.00     0.086 A 
ATOM     22  C   UNL     1      -1.072  -1.250  -0.691  1.00  0.00     0.014 A 
ATOM     23  C   UNL     1      -0.827   1.245   0.789  1.00  0.00     0.035 A 
BRANCH  21  24
ATOM     24  S   UNL     1       2.618   1.553   2.179  1.00  0.00     0.243 S 
ATOM     25  O   UNL     1       2.660   3.001   2.047  1.00  0.00    -0.207 OA
ATOM     26  O   UNL     1       2.598   0.973   3.508  1.00  0.00    -0.207 OA
BRANCH  24  27
ATOM     27  N   UNL     1       4.010   1.053   1.381  1.00  0.00    -0.198 NA
ATOM     28  C   UNL     1       5.144   1.044   2.300  1.00  0.00     0.102 C 
ATOM     29  C   UNL     1       4.188   1.349  -0.050  1.00  0.00     0.102 C 
ATOM     30  C   UNL     1       6.489   1.004   1.633  1.00  0.00     0.017 C 
ATOM     31  C   UNL     1       5.557   1.043  -0.635  1.00  0.00     0.017 C 
ATOM     32  C   UNL     1       6.439   0.264   0.313  1.00  0.00     0.003 C 
ENDBRANCH  24  27
ENDBRANCH  21  24
ENDBRANCH  15  17
ENDBRANCH  10  15
ENDBRANCH   7   9
ENDBRANCH   6   7
ENDBRANCH   5   6
ENDBRANCH   4   5
ENDBRANCH   3   4
ENDBRANCH   2   3
ENDBRANCH   1   2
BRANCH   1  33
ATOM     33  O   UNL     1      -6.535   3.315  -5.662  1.00  0.00    -0.377 OA
BRANCH  33  34
ATOM     34  C   UNL     1      -6.462   2.256  -6.593  1.00  0.00     0.188 C 
BRANCH  34  35
ATOM     35  C   UNL     1      -5.425   2.503  -7.694  1.00  0.00     0.188 C 
BRANCH  35  36
ATOM     36  O   UNL     1      -4.250   3.213  -7.351  1.00  0.00    -0.376 OA
BRANCH  36  37
ATOM     37  C   UNL     1      -4.094   4.611  -7.339  1.00  0.00     0.202 C 
BRANCH  37  38
ATOM     38  C   UNL     1      -4.144   5.056  -8.767  1.00  0.00     0.261 C 
BRANCH  38  39
ATOM     39  O   UNL     1      -3.067   4.496  -9.597  1.00  0.00    -0.460 OA
BRANCH  39  40
ATOM     40  C   UNL     1      -2.842   3.148  -9.738  1.00  0.00     0.338 C 
ATOM     41  O   UNL     1      -3.166   2.529 -10.743  1.00  0.00    -0.246 OA
BRANCH  40  42
ATOM     42  C   UNL     1      -2.014   2.516  -8.654  1.00  0.00     0.060 A 
ATOM     43  C   UNL     1      -2.111   1.154  -8.418  1.00  0.00     0.016 A 
ATOM     44  C   UNL     1      -1.323   3.273  -7.718  1.00  0.00     0.016 A 
ATOM     45  C   UNL     1      -1.824   0.660  -7.135  1.00  0.00     0.010 A 
ATOM     46  C   UNL     1      -1.275   2.812  -6.391  1.00  0.00     0.010 A 
ATOM     47  C   UNL     1      -1.750   1.530  -6.025  1.00  0.00    -0.014 A 
BRANCH  47  48
ATOM     48  C   UNL     1      -2.144   1.361  -4.331  1.00  0.00     0.031 A 
ATOM     49  C   UNL     1      -0.467   1.466  -3.815  1.00  0.00     0.074 A 
ATOM     50  C   UNL     1      -3.601   1.003  -3.479  1.00  0.00     0.049 A 
ATOM     51  N   UNL     1       0.013   1.382  -2.609  1.00  0.00    -0.248 NA
ATOM     52  C   UNL     1       0.697   1.570  -4.729  1.00  0.00     0.031 C 
ATOM     53  C   UNL     1      -4.318   1.315  -2.182  1.00  0.00     0.029 A 
ATOM     54  N   UNL     1      -4.625  -0.088  -3.580  1.00  0.00    -0.354 N 
ATOM     55  C   UNL     1       1.178   2.081  -2.550  1.00  0.00     0.074 A 
ATOM     56  C   UNL     1       1.661   2.002  -3.908  1.00  0.00     0.031 C 
ATOM     57  C   UNL     1      -4.872   0.299  -1.503  1.00  0.00     0.029 A 
ATOM     58  C   UNL     1      -4.885  -0.767  -2.398  1.00  0.00     0.049 A 
ATOM     59  H   UNL     1      -5.081  -0.307  -4.425  1.00  0.00     0.167 HD
ATOM     60  C   UNL     1       1.471   2.751  -1.392  1.00  0.00     0.031 A 
ATOM     61  C   UNL     1      -5.284  -2.009  -2.050  1.00  0.00     0.031 A 
ATOM     62  C   UNL     1       0.746   2.165  -0.119  1.00  0.00     0.049 A 
ATOM     63  C   UNL     1      -4.459  -2.474  -0.716  1.00  0.00     0.074 A 
ATOM     64  C   UNL     1       0.378   2.541   1.602  1.00  0.00     0.029 A 
ATOM     65  N   UNL     1       0.241   0.388  -0.335  1.00  0.00    -0.354 N 
ATOM     66  N   UNL     1      -3.433  -1.788  -0.229  1.00  0.00    -0.248 NA
ATOM     67  C   UNL     1      -4.657  -3.617   0.178  1.00  0.00     0.031 C 
ATOM     68  C   UNL     1      -0.246   0.929   2.593  1.00  0.00     0.029 A 
ATOM     69  C   UNL     1      -0.425  -0.464   1.378  1.00  0.00     0.049 A 
ATOM     70  H   UNL     1       0.293  -0.090  -1.194  1.00  0.00     0.167 HD
ATOM     71  C   UNL     1      -2.750  -2.339   0.926  1.00  0.00     0.074 A 
ATOM     72  C   UNL     1      -3.679  -3.484   1.125  1.00  0.00     0.031 C 
ATOM     73  C   UNL     1      -1.461  -1.912   1.586  1.00  0.00     0.031 A 
BRANCH  60  74
ATOM     74  C   UNL     1       2.580   3.837  -1.415  1.00  0.00    -0.014 A 
ATOM     75  C   UNL     1       2.731   4.706  -0.328  1.00  0.00     0.010 A 
ATOM     76  C   UNL     1       3.642   3.895  -2.365  1.00  0.00     0.010 A 
ATOM     77  C   UNL     1       3.971   5.324  -0.039  1.00  0.00     0.020 A 
ATOM     78  C   UNL     1       4.873   4.531  -2.111  1.00  0.00     0.020 A 
ATOM     79  C   UNL     1       5.062   5.160  -0.893  1.00  0.00     0.054 A 
BRANCH  79  80
ATOM     80  S   UNL     1       6.727   5.687  -0.390  1.00  0.00     0.124 S 
ATOM     81  O   UNL     1       6.475   6.903   0.378  1.00  0.00    -0.237 OA
ATOM     82  O   UNL     1       7.196   4.537   0.380  1.00  0.00    -0.237 OA
ATOM     83  O   UNL     1       7.417   5.896  -1.662  1.00  0.00    -0.744 OA
ENDBRANCH  79  80
ENDBRANCH  60  74
BRANCH  61  84
ATOM     84  C   UNL     1      -6.087  -2.539  -3.255  1.00  0.00    -0.014 A 
ATOM     85  C   UNL     1      -7.232  -1.724  -3.611  1.00  0.00     0.010 A 
ATOM     86  C   UNL     1      -5.475  -3.181  -4.349  1.00  0.00     0.010 A 
ATOM     87  C   UNL     1      -7.560  -1.373  -4.953  1.00  0.00     0.020 A 
ATOM     88  C   UNL     1      -5.826  -2.856  -5.701  1.00  0.00     0.020 A 
ATOM     89  C   UNL     1      -6.821  -1.916  -5.998  1.00  0.00     0.054 A 
BRANCH  89  90
ATOM     90  S   UNL     1      -6.980  -1.288  -7.722  1.00  0.00     0.124 S 
ATOM     91  O   UNL     1      -7.601  -2.412  -8.413  1.00  0.00    -0.237 OA
ATOM     92  O   UNL     1      -7.832  -0.109  -7.592  1.00  0.00    -0.237 OA
ATOM     93  O   UNL     1      -5.597  -1.011  -8.096  1.00  0.00    -0.744 OA
ENDBRANCH  89  90
ENDBRANCH  61  84
BRANCH  73  94
ATOM     94  C   UNL     1      -0.669  -3.019   2.308  1.00  0.00    -0.014 A 
ATOM     95  C   UNL     1      -0.834  -4.388   2.017  1.00  0.00     0.010 A 
ATOM     96  C   UNL     1       0.488  -2.674   3.038  1.00  0.00     0.010 A 
ATOM     97  C   UNL     1       0.068  -5.359   2.464  1.00  0.00     0.020 A 
ATOM     98  C   UNL     1       1.443  -3.627   3.416  1.00  0.00     0.020 A 
ATOM     99  C   UNL     1       1.210  -4.971   3.153  1.00  0.00     0.054 A 
BRANCH  99 100
ATOM    100  S   UNL     1       2.412  -6.226   3.647  1.00  0.00     0.124 S 
ATOM    101  O   UNL     1       1.881  -6.648   4.940  1.00  0.00    -0.237 OA
ATOM    102  O   UNL     1       2.313  -7.219   2.578  1.00  0.00    -0.237 OA
ATOM    103  O   UNL     1       3.676  -5.496   3.690  1.00  0.00    -0.744 OA
ENDBRANCH  99 100
ENDBRANCH  73  94
ENDBRANCH  47  48
ENDBRANCH  40  42
ENDBRANCH  39  40
ENDBRANCH  38  39
ENDBRANCH  37  38
ENDBRANCH  36  37
ENDBRANCH  35  36
ENDBRANCH  34  35
ENDBRANCH  33  34
ENDBRANCH   1  33
TORSDOF 27
