REMARK SMILES O=C(OCCOCCOCCOCCOC(=O)c1ccc(-c2c3nc(c(-c4ccc(S(=O)(=O)[O-])cc4)c4ccc([nH]4)c(-c4ccc(S(=O)(=O)[O-])cc4)c4nc(c(-c5ccc(S(=O)(=O)[O-])cc5)c5ccc2[nH]5)C=C4)C=C3)cc1)c1ccc(NC(=O)[C@@H]2CC=CC[C@H]2C(=O)Nc2cccc([N+](=O)[O-])c2)cc1
REMARK SMILES IDX 8 1 7 2 6 3 5 4 4 5 3 6 2 7 1 8 78 9 79 10 104 11 80 12
REMARK SMILES IDX 103 13 81 14 82 15 83 16 84 18 85 19 86 20 90 21 87 22 89 23
REMARK SMILES IDX 88 24 91 25 92 26 93 27 94 29 95 30 102 31 96 32 98 33 97 34
REMARK SMILES IDX 99 35 100 36 101 37 9 38 10 39 11 40 12 41 13 42 14 43 15 44
REMARK SMILES IDX 16 45 17 46 18 47 19 48 77 49 20 50 76 51 21 52 22 53 23 54
REMARK SMILES IDX 70 55 24 56 75 57 69 58 71 59 25 60 74 61 68 62 67 63 26 65
REMARK SMILES IDX 56 66 37 67 55 68 38 69 41 70 54 71 72 72 39 73 40 74 53 76
REMARK SMILES IDX 73 77 42 78 27 79 28 80 36 81 29 82 35 83 30 84 31 85 32 86
REMARK SMILES IDX 33 87 34 88 57 89 58 90 66 91 59 92 65 93 60 94 61 95 62 96
REMARK SMILES IDX 63 97 64 98 43 99 44 100 52 101 45 102 51 103 46 104 47 105
REMARK SMILES IDX 48 106 49 107 50 108
REMARK H PARENT 82 17 93 28 71 64 41 75
REMARK Flexibility Score: inf
ROOT
ATOM      1  C   UNL     1      11.747  -9.359   2.422  1.00  0.00     0.188 C 
ENDROOT
BRANCH   1   2
ATOM      2  C   UNL     1      11.398  -8.309   1.360  1.00  0.00     0.188 C 
BRANCH   2   3
ATOM      3  O   UNL     1      10.200  -8.561   0.605  1.00  0.00    -0.376 OA
BRANCH   3   4
ATOM      4  C   UNL     1      10.296  -9.658  -0.298  1.00  0.00     0.202 C 
BRANCH   4   5
ATOM      5  C   UNL     1      10.442  -9.190  -1.739  1.00  0.00     0.261 C 
BRANCH   5   6
ATOM      6  O   UNL     1      11.701  -8.539  -1.994  1.00  0.00    -0.460 OA
BRANCH   6   7
ATOM      7  C   UNL     1      12.125  -7.268  -1.836  1.00  0.00     0.338 C 
ATOM      8  O   UNL     1      13.342  -7.075  -1.877  1.00  0.00    -0.246 OA
BRANCH   7   9
ATOM      9  C   UNL     1      11.257  -6.069  -1.574  1.00  0.00     0.060 A 
ATOM     10  C   UNL     1       9.886  -5.934  -1.804  1.00  0.00     0.018 A 
ATOM     11  C   UNL     1      11.929  -4.933  -1.087  1.00  0.00     0.018 A 
ATOM     12  C   UNL     1       9.182  -4.774  -1.384  1.00  0.00     0.027 A 
ATOM     13  C   UNL     1      11.241  -3.777  -0.707  1.00  0.00     0.027 A 
ATOM     14  C   UNL     1       9.848  -3.737  -0.740  1.00  0.00     0.041 A 
BRANCH  14  15
ATOM     15  N   UNL     1       9.267  -2.638  -0.093  1.00  0.00    -0.326 N 
ATOM     16  C   UNL     1       8.153  -2.406   0.654  1.00  0.00     0.228 C 
ATOM     17  H   UNL     1       9.804  -1.822  -0.208  1.00  0.00     0.169 HD
ATOM     18  O   UNL     1       8.021  -1.226   1.010  1.00  0.00    -0.274 OA
BRANCH  16  19
ATOM     19  C   UNL     1       7.102  -3.463   1.041  1.00  0.00     0.095 C 
ATOM     20  C   UNL     1       5.907  -2.712   1.702  1.00  0.00     0.041 C 
ATOM     21  C   UNL     1       7.594  -4.603   1.962  1.00  0.00     0.095 C 
ATOM     22  C   UNL     1       4.932  -3.532   2.487  1.00  0.00    -0.030 C 
ATOM     23  C   UNL     1       6.609  -5.293   2.937  1.00  0.00     0.041 C 
ATOM     24  C   UNL     1       5.257  -4.693   3.057  1.00  0.00    -0.030 C 
BRANCH  21  25
ATOM     25  C   UNL     1       8.325  -5.729   1.268  1.00  0.00     0.228 C 
ATOM     26  O   UNL     1       9.548  -5.795   1.454  1.00  0.00    -0.274 OA
ATOM     27  N   UNL     1       7.754  -6.728   0.525  1.00  0.00    -0.326 N 
ATOM     28  H   UNL     1       8.410  -7.425   0.295  1.00  0.00     0.169 HD
BRANCH  27  29
ATOM     29  C   UNL     1       6.478  -7.028  -0.001  1.00  0.00     0.048 A 
ATOM     30  C   UNL     1       6.216  -8.367  -0.327  1.00  0.00     0.026 A 
ATOM     31  C   UNL     1       5.469  -6.109  -0.262  1.00  0.00     0.111 A 
ATOM     32  C   UNL     1       4.969  -8.771  -0.834  1.00  0.00     0.009 A 
ATOM     33  C   UNL     1       4.232  -6.497  -0.800  1.00  0.00     0.271 A 
ATOM     34  C   UNL     1       3.964  -7.835  -1.069  1.00  0.00     0.086 A 
BRANCH  33  35
ATOM     35  N   UNL     1       3.229  -5.465  -1.093  1.00  0.00     0.062 N 
ATOM     36  O   UNL     1       2.062  -5.831  -1.289  1.00  0.00    -0.258 OA
ATOM     37  O   UNL     1       3.614  -4.286  -1.143  1.00  0.00    -0.258 OA
ENDBRANCH  33  35
ENDBRANCH  27  29
ENDBRANCH  21  25
ENDBRANCH  16  19
ENDBRANCH  14  15
ENDBRANCH   7   9
ENDBRANCH   6   7
ENDBRANCH   5   6
ENDBRANCH   4   5
ENDBRANCH   3   4
ENDBRANCH   2   3
ENDBRANCH   1   2
BRANCH   1  38
ATOM     38  O   UNL     1      10.804  -9.513   3.470  1.00  0.00    -0.377 OA
BRANCH  38  39
ATOM     39  C   UNL     1       9.502  -9.910   3.093  1.00  0.00     0.188 C 
BRANCH  39  40
ATOM     40  C   UNL     1       8.422  -8.822   3.243  1.00  0.00     0.188 C 
BRANCH  40  41
ATOM     41  O   UNL     1       8.619  -7.611   3.960  1.00  0.00    -0.376 OA
BRANCH  41  42
ATOM     42  C   UNL     1       9.612  -7.518   4.967  1.00  0.00     0.202 C 
BRANCH  42  43
ATOM     43  C   UNL     1       9.432  -8.360   6.239  1.00  0.00     0.261 C 
BRANCH  43  44
ATOM     44  O   UNL     1       9.063  -9.728   6.013  1.00  0.00    -0.460 OA
BRANCH  44  45
ATOM     45  C   UNL     1       7.743 -10.008   6.144  1.00  0.00     0.338 C 
ATOM     46  O   UNL     1       6.859  -9.244   6.498  1.00  0.00    -0.246 OA
BRANCH  45  47
ATOM     47  C   UNL     1       7.476 -11.351   5.578  1.00  0.00     0.060 A 
ATOM     48  C   UNL     1       6.405 -11.482   4.681  1.00  0.00     0.016 A 
ATOM     49  C   UNL     1       8.285 -12.453   5.872  1.00  0.00     0.016 A 
ATOM     50  C   UNL     1       6.123 -12.715   4.096  1.00  0.00     0.010 A 
ATOM     51  C   UNL     1       7.985 -13.697   5.306  1.00  0.00     0.010 A 
ATOM     52  C   UNL     1       6.882 -13.839   4.444  1.00  0.00    -0.014 A 
BRANCH  52  53
ATOM     53  C   UNL     1       6.356 -15.189   4.131  1.00  0.00     0.031 A 
ATOM     54  C   UNL     1       5.520 -15.867   5.184  1.00  0.00     0.074 A 
ATOM     55  C   UNL     1       6.576 -15.790   2.949  1.00  0.00     0.049 A 
ATOM     56  N   UNL     1       4.964 -17.050   5.170  1.00  0.00    -0.248 NA
ATOM     57  C   UNL     1       5.282 -15.101   6.420  1.00  0.00     0.031 C 
ATOM     58  C   UNL     1       7.317 -15.217   1.827  1.00  0.00     0.029 A 
ATOM     59  N   UNL     1       6.191 -17.030   2.500  1.00  0.00    -0.354 N 
ATOM     60  C   UNL     1       4.322 -17.174   6.397  1.00  0.00     0.074 A 
ATOM     61  C   UNL     1       4.581 -15.961   7.140  1.00  0.00     0.031 C 
ATOM     62  C   UNL     1       7.338 -16.109   0.819  1.00  0.00     0.029 A 
ATOM     63  C   UNL     1       6.642 -17.326   1.237  1.00  0.00     0.049 A 
ATOM     64  H   UNL     1       5.642 -17.649   3.034  1.00  0.00     0.167 HD
ATOM     65  C   UNL     1       3.578 -18.203   6.866  1.00  0.00     0.031 A 
ATOM     66  C   UNL     1       6.522 -18.457   0.511  1.00  0.00     0.031 A 
ATOM     67  C   UNL     1       3.346 -19.420   6.139  1.00  0.00     0.049 A 
ATOM     68  C   UNL     1       5.767 -19.629   1.087  1.00  0.00     0.074 A 
ATOM     69  C   UNL     1       2.608 -20.524   6.524  1.00  0.00     0.029 A 
ATOM     70  N   UNL     1       3.863 -19.700   4.883  1.00  0.00    -0.354 N 
ATOM     71  N   UNL     1       5.147 -19.726   2.240  1.00  0.00    -0.248 NA
ATOM     72  C   UNL     1       5.688 -20.842   0.260  1.00  0.00     0.031 C 
ATOM     73  C   UNL     1       2.730 -21.497   5.526  1.00  0.00     0.029 A 
ATOM     74  C   UNL     1       3.484 -20.971   4.488  1.00  0.00     0.049 A 
ATOM     75  H   UNL     1       4.418 -19.084   4.350  1.00  0.00     0.167 HD
ATOM     76  C   UNL     1       4.579 -20.997   2.262  1.00  0.00     0.074 A 
ATOM     77  C   UNL     1       4.920 -21.627   1.003  1.00  0.00     0.031 C 
ATOM     78  C   UNL     1       3.834 -21.586   3.232  1.00  0.00     0.031 A 
BRANCH  65  79
ATOM     79  C   UNL     1       3.016 -18.064   8.255  1.00  0.00    -0.014 A 
ATOM     80  C   UNL     1       1.996 -17.138   8.545  1.00  0.00     0.010 A 
ATOM     81  C   UNL     1       3.524 -18.868   9.291  1.00  0.00     0.010 A 
ATOM     82  C   UNL     1       1.535 -16.981   9.854  1.00  0.00     0.020 A 
ATOM     83  C   UNL     1       3.042 -18.737  10.596  1.00  0.00     0.020 A 
ATOM     84  C   UNL     1       2.066 -17.778  10.873  1.00  0.00     0.054 A 
BRANCH  84  85
ATOM     85  S   UNL     1       1.453 -17.551  12.564  1.00  0.00     0.124 S 
ATOM     86  O   UNL     1       2.049 -16.269  12.930  1.00  0.00    -0.237 OA
ATOM     87  O   UNL     1       0.004 -17.541  12.379  1.00  0.00    -0.237 OA
ATOM     88  O   UNL     1       1.978 -18.710  13.282  1.00  0.00    -0.744 OA
ENDBRANCH  84  85
ENDBRANCH  65  79
BRANCH  66  89
ATOM     89  C   UNL     1       7.140 -18.542  -0.842  1.00  0.00    -0.014 A 
ATOM     90  C   UNL     1       6.337 -18.594  -1.996  1.00  0.00     0.010 A 
ATOM     91  C   UNL     1       8.540 -18.564  -0.985  1.00  0.00     0.010 A 
ATOM     92  C   UNL     1       6.921 -18.665  -3.264  1.00  0.00     0.020 A 
ATOM     93  C   UNL     1       9.128 -18.607  -2.252  1.00  0.00     0.020 A 
ATOM     94  C   UNL     1       8.314 -18.660  -3.385  1.00  0.00     0.054 A 
BRANCH  94  95
ATOM     95  S   UNL     1       9.047 -18.665  -5.045  1.00  0.00     0.124 S 
ATOM     96  O   UNL     1       8.764 -20.021  -5.501  1.00  0.00    -0.237 OA
ATOM     97  O   UNL     1       8.303 -17.601  -5.715  1.00  0.00    -0.237 OA
ATOM     98  O   UNL     1      10.455 -18.366  -4.797  1.00  0.00    -0.744 OA
ENDBRANCH  94  95
ENDBRANCH  66  89
BRANCH  78  99
ATOM     99  C   UNL     1       3.297 -22.968   2.962  1.00  0.00    -0.014 A 
ATOM    100  C   UNL     1       4.138 -24.094   2.941  1.00  0.00     0.010 A 
ATOM    101  C   UNL     1       1.910 -23.147   2.795  1.00  0.00     0.010 A 
ATOM    102  C   UNL     1       3.607 -25.369   2.725  1.00  0.00     0.020 A 
ATOM    103  C   UNL     1       1.372 -24.423   2.611  1.00  0.00     0.020 A 
ATOM    104  C   UNL     1       2.226 -25.525   2.563  1.00  0.00     0.054 A 
BRANCH 104 105
ATOM    105  S   UNL     1       1.557 -27.195   2.329  1.00  0.00     0.124 S 
ATOM    106  O   UNL     1       1.981 -27.504   0.966  1.00  0.00    -0.237 OA
ATOM    107  O   UNL     1       2.222 -27.957   3.382  1.00  0.00    -0.237 OA
ATOM    108  O   UNL     1       0.117 -27.020   2.508  1.00  0.00    -0.744 OA
ENDBRANCH 104 105
ENDBRANCH  78  99
ENDBRANCH  52  53
ENDBRANCH  45  47
ENDBRANCH  44  45
ENDBRANCH  43  44
ENDBRANCH  42  43
ENDBRANCH  41  42
ENDBRANCH  40  41
ENDBRANCH  39  40
ENDBRANCH  38  39
ENDBRANCH   1  38
TORSDOF 28
