REMARK SMILES Cc1cnn(C2(C(=O)OCCOCCOCCOCCOC(=O)c3ccc(-c4c5nc(c(-c6ccc(S(=O)(=O)[O-])cc6)c6ccc([nH]6)c(-c6ccc(S(=O)(=O)[O-])cc6)c6nc(c(-c7ccc(S(=O)(=O)[O-])cc7)c7ccc4[nH]7)C=C6)C=C5)cc3)CCN(C(=O)c3cc4ccccc4[nH]3)CC2)c1
REMARK SMILES IDX 16 1 15 2 14 3 13 4 12 5 11 6 10 7 9 8 7 9 8 10 6 11 84 12
REMARK SMILES IDX 99 13 85 14 98 15 86 16 87 17 88 18 5 19 1 20 2 21 3 22
REMARK SMILES IDX 100 23 4 24 89 25 90 26 97 27 91 28 96 29 92 31 95 32 93 33
REMARK SMILES IDX 94 34 17 35 18 36 19 37 20 38 21 39 22 40 23 41 24 42 25 43
REMARK SMILES IDX 83 44 26 45 82 46 27 47 28 48 29 49 76 50 30 51 81 52 75 53
REMARK SMILES IDX 77 54 31 55 80 56 74 57 73 58 32 60 62 61 43 62 61 63 44 64
REMARK SMILES IDX 47 65 60 66 78 67 45 68 46 69 59 71 79 72 48 73 33 74 34 75
REMARK SMILES IDX 42 76 35 77 41 78 36 79 37 80 38 81 39 82 40 83 63 84 64 85
REMARK SMILES IDX 72 86 65 87 71 88 66 89 67 90 68 91 69 92 70 93 49 94 50 95
REMARK SMILES IDX 58 96 51 97 57 98 52 99 53 100 54 101 55 102 56 103
REMARK H PARENT 97 30 77 59 47 70
REMARK Flexibility Score: inf
ROOT
ATOM      1  C   UNL     1      -4.290  -3.345   6.758  1.00  0.00     0.188 C 
ENDROOT
BRANCH   1   2
ATOM      2  O   UNL     1      -3.118  -2.580   6.519  1.00  0.00    -0.377 OA
BRANCH   2   3
ATOM      3  C   UNL     1      -2.591  -2.686   5.210  1.00  0.00     0.188 C 
BRANCH   3   4
ATOM      4  C   UNL     1      -1.415  -3.667   5.052  1.00  0.00     0.188 C 
BRANCH   4   5
ATOM      5  O   UNL     1      -0.919  -4.369   6.187  1.00  0.00    -0.376 OA
BRANCH   5   6
ATOM      6  C   UNL     1      -0.823  -3.689   7.429  1.00  0.00     0.202 C 
BRANCH   6   7
ATOM      7  C   UNL     1      -0.088  -2.339   7.502  1.00  0.00     0.261 C 
BRANCH   7   8
ATOM      8  O   UNL     1      -0.473  -1.339   6.532  1.00  0.00    -0.461 OA
BRANCH   8   9
ATOM      9  C   UNL     1       0.487  -0.944   5.648  1.00  0.00     0.334 C 
ATOM     10  O   UNL     1       1.645  -1.358   5.696  1.00  0.00    -0.249 OA
BRANCH   9  11
ATOM     11  C   UNL     1       0.049   0.195   4.673  1.00  0.00     0.163 C 
ATOM     12  C   UNL     1      -1.440   0.625   4.736  1.00  0.00     0.064 C 
ATOM     13  C   UNL     1       0.960   1.343   5.172  1.00  0.00     0.064 C 
ATOM     14  C   UNL     1      -1.710   2.036   4.229  1.00  0.00     0.123 C 
ATOM     15  C   UNL     1       0.603   2.737   4.700  1.00  0.00     0.123 C 
ATOM     16  N   UNL     1      -0.822   3.001   4.842  1.00  0.00    -0.337 N 
ATOM     17  C   UNL     1      -1.359   4.095   5.517  1.00  0.00     0.270 C 
ATOM     18  O   UNL     1      -2.544   4.152   5.846  1.00  0.00    -0.267 OA
BRANCH  11  19
ATOM     19  N   UNL     1       0.357  -0.248   3.296  1.00  0.00    -0.255 N 
ATOM     20  C   UNL     1       1.099  -0.059  -0.283  1.00  0.00     0.048 C 
ATOM     21  C   UNL     1       0.784  -0.373   1.126  1.00  0.00    -0.013 A 
ATOM     22  C   UNL     1       0.596  -1.639   1.705  1.00  0.00     0.138 A 
ATOM     23  C   UNL     1       0.586   0.503   2.173  1.00  0.00     0.113 A 
ATOM     24  N   UNL     1       0.259  -1.559   2.990  1.00  0.00    -0.180 NA
ENDBRANCH  11  19
BRANCH  17  25
ATOM     25  C   UNL     1      -0.434   5.141   5.865  1.00  0.00     0.105 A 
ATOM     26  C   UNL     1       0.449   5.849   5.068  1.00  0.00     0.042 A 
ATOM     27  N   UNL     1      -0.277   5.607   7.147  1.00  0.00    -0.351 N 
ATOM     28  C   UNL     1       1.300   6.595   5.922  1.00  0.00     0.000 A 
ATOM     29  C   UNL     1       0.842   6.404   7.225  1.00  0.00     0.046 A 
ATOM     30  H   UNL     1      -0.877   5.401   7.900  1.00  0.00     0.167 HD
ATOM     31  C   UNL     1       2.440   7.389   5.708  1.00  0.00     0.010 A 
ATOM     32  C   UNL     1       1.478   6.962   8.337  1.00  0.00     0.026 A 
ATOM     33  C   UNL     1       3.094   7.949   6.810  1.00  0.00     0.001 A 
ATOM     34  C   UNL     1       2.619   7.735   8.104  1.00  0.00     0.002 A 
ENDBRANCH  17  25
ENDBRANCH   9  11
ENDBRANCH   8   9
ENDBRANCH   7   8
ENDBRANCH   6   7
ENDBRANCH   5   6
ENDBRANCH   4   5
ENDBRANCH   3   4
ENDBRANCH   2   3
ENDBRANCH   1   2
BRANCH   1  35
ATOM     35  C   UNL     1      -4.304  -4.800   6.245  1.00  0.00     0.188 C 
BRANCH  35  36
ATOM     36  O   UNL     1      -3.935  -4.955   4.872  1.00  0.00    -0.376 OA
BRANCH  36  37
ATOM     37  C   UNL     1      -4.942  -5.183   3.894  1.00  0.00     0.202 C 
BRANCH  37  38
ATOM     38  C   UNL     1      -5.683  -3.928   3.422  1.00  0.00     0.261 C 
BRANCH  38  39
ATOM     39  O   UNL     1      -6.296  -3.198   4.476  1.00  0.00    -0.460 OA
BRANCH  39  40
ATOM     40  C   UNL     1      -7.150  -3.890   5.240  1.00  0.00     0.338 C 
ATOM     41  O   UNL     1      -7.469  -5.078   5.110  1.00  0.00    -0.246 OA
BRANCH  40  42
ATOM     42  C   UNL     1      -7.710  -3.021   6.268  1.00  0.00     0.060 A 
ATOM     43  C   UNL     1      -8.588  -3.634   7.162  1.00  0.00     0.016 A 
ATOM     44  C   UNL     1      -7.644  -1.627   6.101  1.00  0.00     0.016 A 
ATOM     45  C   UNL     1      -9.649  -2.892   7.599  1.00  0.00     0.010 A 
ATOM     46  C   UNL     1      -8.705  -0.883   6.542  1.00  0.00     0.010 A 
ATOM     47  C   UNL     1      -9.751  -1.574   7.145  1.00  0.00    -0.014 A 
BRANCH  47  48
ATOM     48  C   UNL     1     -11.080  -1.018   7.115  1.00  0.00     0.031 A 
ATOM     49  C   UNL     1     -11.536  -0.449   8.384  1.00  0.00     0.074 A 
ATOM     50  C   UNL     1     -11.801  -1.030   5.980  1.00  0.00     0.049 A 
ATOM     51  N   UNL     1     -12.473  -0.887   9.152  1.00  0.00    -0.248 NA
ATOM     52  C   UNL     1     -10.747   0.660   8.932  1.00  0.00     0.031 C 
ATOM     53  C   UNL     1     -11.338  -1.297   4.613  1.00  0.00     0.029 A 
ATOM     54  N   UNL     1     -13.095  -0.665   5.805  1.00  0.00    -0.354 N 
ATOM     55  C   UNL     1     -12.513  -0.001  10.217  1.00  0.00     0.074 A 
ATOM     56  C   UNL     1     -11.328   0.816  10.120  1.00  0.00     0.031 C 
ATOM     57  C   UNL     1     -12.262  -0.832   3.743  1.00  0.00     0.029 A 
ATOM     58  C   UNL     1     -13.414  -0.359   4.493  1.00  0.00     0.049 A 
ATOM     59  H   UNL     1     -13.746  -0.621   6.542  1.00  0.00     0.167 HD
ATOM     60  C   UNL     1     -13.621   0.152  10.987  1.00  0.00     0.031 A 
ATOM     61  C   UNL     1     -14.490   0.361   4.092  1.00  0.00     0.031 A 
ATOM     62  C   UNL     1     -14.576  -0.905  10.789  1.00  0.00     0.049 A 
ATOM     63  C   UNL     1     -15.484   0.329   5.199  1.00  0.00     0.074 A 
ATOM     64  C   UNL     1     -14.567  -2.268  11.007  1.00  0.00     0.029 A 
ATOM     65  N   UNL     1     -15.629  -0.656   9.938  1.00  0.00    -0.354 N 
ATOM     66  N   UNL     1     -16.103  -0.753   5.586  1.00  0.00    -0.248 NA
ATOM     67  C   UNL     1     -15.481   1.414   6.170  1.00  0.00     0.031 C 
ATOM     68  C   UNL     1     -15.346  -2.823   9.951  1.00  0.00     0.029 A 
ATOM     69  C   UNL     1     -15.809  -1.771   9.157  1.00  0.00     0.049 A 
ATOM     70  H   UNL     1     -16.157   0.173   9.896  1.00  0.00     0.167 HD
ATOM     71  C   UNL     1     -16.205  -0.641   6.968  1.00  0.00     0.074 A 
ATOM     72  C   UNL     1     -15.911   0.759   7.253  1.00  0.00     0.031 C 
ATOM     73  C   UNL     1     -16.241  -1.747   7.771  1.00  0.00     0.031 A 
BRANCH  60  74
ATOM     74  C   UNL     1     -13.970   1.450  11.654  1.00  0.00    -0.014 A 
ATOM     75  C   UNL     1     -15.032   1.486  12.575  1.00  0.00     0.010 A 
ATOM     76  C   UNL     1     -13.449   2.688  11.218  1.00  0.00     0.010 A 
ATOM     77  C   UNL     1     -15.578   2.704  12.995  1.00  0.00     0.020 A 
ATOM     78  C   UNL     1     -13.950   3.905  11.670  1.00  0.00     0.020 A 
ATOM     79  C   UNL     1     -15.041   3.905  12.525  1.00  0.00     0.054 A 
BRANCH  79  80
ATOM     80  S   UNL     1     -15.833   5.469  12.964  1.00  0.00     0.124 S 
ATOM     81  O   UNL     1     -17.083   5.389  12.214  1.00  0.00    -0.237 OA
ATOM     82  O   UNL     1     -15.954   5.362  14.416  1.00  0.00    -0.237 OA
ATOM     83  O   UNL     1     -14.884   6.476  12.496  1.00  0.00    -0.744 OA
ENDBRANCH  79  80
ENDBRANCH  60  74
BRANCH  61  84
ATOM     84  C   UNL     1     -14.496   1.374   3.006  1.00  0.00    -0.014 A 
ATOM     85  C   UNL     1     -15.699   1.933   2.544  1.00  0.00     0.010 A 
ATOM     86  C   UNL     1     -13.291   1.983   2.591  1.00  0.00     0.010 A 
ATOM     87  C   UNL     1     -15.696   3.087   1.742  1.00  0.00     0.020 A 
ATOM     88  C   UNL     1     -13.278   3.120   1.780  1.00  0.00     0.020 A 
ATOM     89  C   UNL     1     -14.485   3.683   1.379  1.00  0.00     0.054 A 
BRANCH  89  90
ATOM     90  S   UNL     1     -14.491   5.267   0.492  1.00  0.00     0.124 S 
ATOM     91  O   UNL     1     -14.944   4.874  -0.839  1.00  0.00    -0.237 OA
ATOM     92  O   UNL     1     -15.432   6.063   1.273  1.00  0.00    -0.237 OA
ATOM     93  O   UNL     1     -13.099   5.709   0.568  1.00  0.00    -0.744 OA
ENDBRANCH  89  90
ENDBRANCH  61  84
BRANCH  73  94
ATOM     94  C   UNL     1     -16.465  -3.096   7.122  1.00  0.00    -0.014 A 
ATOM     95  C   UNL     1     -15.569  -3.657   6.190  1.00  0.00     0.010 A 
ATOM     96  C   UNL     1     -17.517  -3.897   7.603  1.00  0.00     0.010 A 
ATOM     97  C   UNL     1     -15.731  -4.975   5.739  1.00  0.00     0.020 A 
ATOM     98  C   UNL     1     -17.673  -5.218   7.171  1.00  0.00     0.020 A 
ATOM     99  C   UNL     1     -16.782  -5.750   6.237  1.00  0.00     0.054 A 
BRANCH  99 100
ATOM    100  S   UNL     1     -16.936  -7.481   5.713  1.00  0.00     0.124 S 
ATOM    101  O   UNL     1     -17.393  -7.355   4.332  1.00  0.00    -0.237 OA
ATOM    102  O   UNL     1     -15.578  -7.995   5.881  1.00  0.00    -0.237 OA
ATOM    103  O   UNL     1     -17.918  -8.040   6.641  1.00  0.00    -0.744 OA
ENDBRANCH  99 100
ENDBRANCH  73  94
ENDBRANCH  47  48
ENDBRANCH  40  42
ENDBRANCH  39  40
ENDBRANCH  38  39
ENDBRANCH  37  38
ENDBRANCH  36  37
ENDBRANCH  35  36
ENDBRANCH   1  35
TORSDOF 25
