REMARK SMILES CCn1nc(-c2cccnc2)c2cc(C(=O)OCCOCCOCCOCCOC(=O)c3ccc(-c4c5nc(c(-c6ccc(S(=O)(=O)[O-])cc6)c6ccc([nH]6)c(-c6ccc(S(=O)(=O)[O-])cc6)c6nc(c(-c7ccc(S(=O)(=O)[O-])cc7)c7ccc4[nH]7)C=C6)C=C5)cc3)sc21
REMARK SMILES IDX 24 1 23 2 22 3 21 4 20 5 19 6 18 7 17 8 15 9 16 10 14 11
REMARK SMILES IDX 3 12 4 13 93 14 5 15 12 16 92 17 13 18 2 19 1 20 6 21 7 22
REMARK SMILES IDX 11 23 8 24 10 25 9 26 25 27 26 28 27 29 28 30 29 31 30 32
REMARK SMILES IDX 31 33 32 34 33 35 91 36 34 37 90 38 35 39 36 40 37 41 84 42
REMARK SMILES IDX 38 43 89 44 83 45 85 46 39 47 88 48 82 49 81 50 40 52 70 53
REMARK SMILES IDX 51 54 69 55 52 56 55 57 68 58 86 59 53 60 54 61 67 63 87 64
REMARK SMILES IDX 56 65 41 66 42 67 50 68 43 69 49 70 44 71 45 72 46 73 47 74
REMARK SMILES IDX 48 75 71 76 72 77 80 78 73 79 79 80 74 81 75 82 76 83 77 84
REMARK SMILES IDX 78 85 57 86 58 87 66 88 59 89 65 90 60 91 61 92 62 93 63 94
REMARK SMILES IDX 64 95
REMARK H PARENT 85 51 55 62
REMARK Flexibility Score: inf
ROOT
ATOM      1  C   UNL     1       1.872  -1.566  -6.500  1.00  0.00     0.188 C 
ENDROOT
BRANCH   1   2
ATOM      2  O   UNL     1       2.415  -0.820  -5.409  1.00  0.00    -0.377 OA
BRANCH   2   3
ATOM      3  C   UNL     1       2.019   0.542  -5.355  1.00  0.00     0.188 C 
BRANCH   3   4
ATOM      4  C   UNL     1       3.054   1.532  -5.938  1.00  0.00     0.188 C 
BRANCH   4   5
ATOM      5  O   UNL     1       4.256   1.108  -6.575  1.00  0.00    -0.376 OA
BRANCH   5   6
ATOM      6  C   UNL     1       4.949  -0.066  -6.188  1.00  0.00     0.202 C 
BRANCH   6   7
ATOM      7  C   UNL     1       5.379  -0.289  -4.733  1.00  0.00     0.261 C 
BRANCH   7   8
ATOM      8  O   UNL     1       4.587   0.354  -3.741  1.00  0.00    -0.459 OA
BRANCH   8   9
ATOM      9  C   UNL     1       4.913   1.629  -3.410  1.00  0.00     0.348 C 
ATOM     10  O   UNL     1       5.869   2.258  -3.870  1.00  0.00    -0.245 OA
BRANCH   9  11
ATOM     11  C   UNL     1       3.881   2.177  -2.555  1.00  0.00     0.115 A 
ATOM     12  N   UNL     1       0.973   2.551  -0.207  1.00  0.00    -0.254 N 
ATOM     13  N   UNL     1       0.552   3.851  -0.270  1.00  0.00    -0.171 NA
ATOM     14  C   UNL     1       2.036   2.350  -1.014  1.00  0.00     0.122 A 
ATOM     15  C   UNL     1       1.361   4.444  -1.180  1.00  0.00     0.103 A 
ATOM     16  C   UNL     1       2.281   3.504  -1.642  1.00  0.00     0.040 A 
ATOM     17  S   UNL     1       3.087   1.132  -1.404  1.00  0.00    -0.109 S 
ATOM     18  C   UNL     1       3.355   3.475  -2.532  1.00  0.00     0.040 A 
BRANCH  12  19
ATOM     19  C   UNL     1       0.303   1.655   0.714  1.00  0.00     0.142 C 
ATOM     20  C   UNL     1       0.491   0.164   0.481  1.00  0.00     0.029 C 
ENDBRANCH  12  19
BRANCH  15  21
ATOM     21  C   UNL     1       1.228   5.857  -1.462  1.00  0.00     0.021 A 
ATOM     22  C   UNL     1       1.661   6.801  -0.528  1.00  0.00     0.013 A 
ATOM     23  C   UNL     1       0.610   6.323  -2.615  1.00  0.00     0.121 A 
ATOM     24  C   UNL     1       1.465   8.156  -0.776  1.00  0.00     0.021 A 
ATOM     25  N   UNL     1       0.418   7.639  -2.890  1.00  0.00    -0.264 NA
ATOM     26  C   UNL     1       0.841   8.522  -1.958  1.00  0.00     0.111 A 
ENDBRANCH  15  21
ENDBRANCH   9  11
ENDBRANCH   8   9
ENDBRANCH   7   8
ENDBRANCH   6   7
ENDBRANCH   5   6
ENDBRANCH   4   5
ENDBRANCH   3   4
ENDBRANCH   2   3
ENDBRANCH   1   2
BRANCH   1  27
ATOM     27  C   UNL     1       2.014  -0.967  -7.923  1.00  0.00     0.188 C 
BRANCH  27  28
ATOM     28  O   UNL     1       1.727   0.425  -7.991  1.00  0.00    -0.376 OA
BRANCH  28  29
ATOM     29  C   UNL     1       0.614   0.911  -8.722  1.00  0.00     0.202 C 
BRANCH  29  30
ATOM     30  C   UNL     1      -0.735   0.751  -8.032  1.00  0.00     0.261 C 
BRANCH  30  31
ATOM     31  O   UNL     1      -0.909  -0.532  -7.463  1.00  0.00    -0.460 OA
BRANCH  31  32
ATOM     32  C   UNL     1      -0.983  -1.539  -8.351  1.00  0.00     0.338 C 
ATOM     33  O   UNL     1      -0.784  -1.479  -9.556  1.00  0.00    -0.246 OA
BRANCH  32  34
ATOM     34  C   UNL     1      -1.458  -2.726  -7.645  1.00  0.00     0.060 A 
ATOM     35  C   UNL     1      -1.644  -3.859  -8.433  1.00  0.00     0.016 A 
ATOM     36  C   UNL     1      -2.071  -2.557  -6.392  1.00  0.00     0.016 A 
ATOM     37  C   UNL     1      -2.706  -4.665  -8.123  1.00  0.00     0.010 A 
ATOM     38  C   UNL     1      -3.143  -3.349  -6.096  1.00  0.00     0.010 A 
ATOM     39  C   UNL     1      -3.506  -4.308  -7.033  1.00  0.00    -0.014 A 
BRANCH  39  40
ATOM     40  C   UNL     1      -4.764  -4.990  -6.885  1.00  0.00     0.031 A 
ATOM     41  C   UNL     1      -4.592  -6.327  -6.306  1.00  0.00     0.074 A 
ATOM     42  C   UNL     1      -5.933  -4.399  -7.182  1.00  0.00     0.049 A 
ATOM     43  N   UNL     1      -4.601  -7.456  -6.927  1.00  0.00    -0.248 NA
ATOM     44  C   UNL     1      -4.100  -6.391  -4.920  1.00  0.00     0.031 C 
ATOM     45  C   UNL     1      -6.175  -2.978  -7.465  1.00  0.00     0.029 A 
ATOM     46  N   UNL     1      -7.181  -4.931  -7.174  1.00  0.00    -0.354 N 
ATOM     47  C   UNL     1      -4.389  -8.397  -5.931  1.00  0.00     0.074 A 
ATOM     48  C   UNL     1      -3.816  -7.688  -4.817  1.00  0.00     0.031 C 
ATOM     49  C   UNL     1      -7.500  -2.728  -7.358  1.00  0.00     0.029 A 
ATOM     50  C   UNL     1      -8.197  -3.988  -7.152  1.00  0.00     0.049 A 
ATOM     51  H   UNL     1      -7.350  -5.901  -7.183  1.00  0.00     0.167 HD
ATOM     52  C   UNL     1      -5.061  -9.580  -5.947  1.00  0.00     0.031 A 
ATOM     53  C   UNL     1      -9.504  -4.235  -6.896  1.00  0.00     0.031 A 
ATOM     54  C   UNL     1      -5.661  -9.829  -7.233  1.00  0.00     0.049 A 
ATOM     55  C   UNL     1      -9.741  -5.676  -7.159  1.00  0.00     0.074 A 
ATOM     56  C   UNL     1      -5.207 -10.112  -8.502  1.00  0.00     0.029 A 
ATOM     57  N   UNL     1      -6.957  -9.384  -7.350  1.00  0.00    -0.354 N 
ATOM     58  N   UNL     1      -9.621  -6.216  -8.341  1.00  0.00    -0.248 NA
ATOM     59  C   UNL     1      -9.736  -6.620  -6.048  1.00  0.00     0.031 C 
ATOM     60  C   UNL     1      -6.188  -9.586  -9.394  1.00  0.00     0.029 A 
ATOM     61  C   UNL     1      -7.228  -9.030  -8.646  1.00  0.00     0.049 A 
ATOM     62  H   UNL     1      -7.600  -9.329  -6.607  1.00  0.00     0.167 HD
ATOM     63  C   UNL     1      -9.110  -7.481  -8.104  1.00  0.00     0.074 A 
ATOM     64  C   UNL     1      -9.357  -7.730  -6.690  1.00  0.00     0.031 C 
ATOM     65  C   UNL     1      -8.269  -8.079  -8.998  1.00  0.00     0.031 A 
BRANCH  52  66
ATOM     66  C   UNL     1      -5.615 -10.208  -4.688  1.00  0.00    -0.014 A 
ATOM     67  C   UNL     1      -6.269 -11.450  -4.788  1.00  0.00     0.010 A 
ATOM     68  C   UNL     1      -5.779  -9.498  -3.478  1.00  0.00     0.010 A 
ATOM     69  C   UNL     1      -7.087 -11.923  -3.753  1.00  0.00     0.020 A 
ATOM     70  C   UNL     1      -6.553  -9.978  -2.426  1.00  0.00     0.020 A 
ATOM     71  C   UNL     1      -7.231 -11.175  -2.583  1.00  0.00     0.054 A 
BRANCH  71  72
ATOM     72  S   UNL     1      -8.366 -11.736  -1.294  1.00  0.00     0.124 S 
ATOM     73  O   UNL     1      -9.658 -11.618  -1.963  1.00  0.00    -0.237 OA
ATOM     74  O   UNL     1      -7.898 -13.096  -1.044  1.00  0.00    -0.237 OA
ATOM     75  O   UNL     1      -8.135 -10.792  -0.203  1.00  0.00    -0.744 OA
ENDBRANCH  71  72
ENDBRANCH  52  66
BRANCH  53  76
ATOM     76  C   UNL     1     -10.432  -3.388  -6.109  1.00  0.00    -0.014 A 
ATOM     77  C   UNL     1     -11.821  -3.600  -6.145  1.00  0.00     0.010 A 
ATOM     78  C   UNL     1      -9.923  -2.540  -5.101  1.00  0.00     0.010 A 
ATOM     79  C   UNL     1     -12.664  -3.030  -5.176  1.00  0.00     0.020 A 
ATOM     80  C   UNL     1     -10.756  -1.965  -4.136  1.00  0.00     0.020 A 
ATOM     81  C   UNL     1     -12.122  -2.230  -4.165  1.00  0.00     0.054 A 
BRANCH  81  82
ATOM     82  S   UNL     1     -13.193  -1.632  -2.824  1.00  0.00     0.124 S 
ATOM     83  O   UNL     1     -14.029  -0.651  -3.510  1.00  0.00    -0.237 OA
ATOM     84  O   UNL     1     -13.873  -2.850  -2.393  1.00  0.00    -0.237 OA
ATOM     85  O   UNL     1     -12.252  -1.075  -1.854  1.00  0.00    -0.744 OA
ENDBRANCH  81  82
ENDBRANCH  53  76
BRANCH  65  86
ATOM     86  C   UNL     1      -8.307  -7.602 -10.428  1.00  0.00    -0.014 A 
ATOM     87  C   UNL     1      -7.920  -6.316 -10.848  1.00  0.00     0.010 A 
ATOM     88  C   UNL     1      -8.665  -8.550 -11.403  1.00  0.00     0.010 A 
ATOM     89  C   UNL     1      -7.911  -5.985 -12.213  1.00  0.00     0.020 A 
ATOM     90  C   UNL     1      -8.639  -8.233 -12.762  1.00  0.00     0.020 A 
ATOM     91  C   UNL     1      -8.272  -6.949 -13.161  1.00  0.00     0.054 A 
BRANCH  91  92
ATOM     92  S   UNL     1      -8.222  -6.533 -14.927  1.00  0.00     0.124 S 
ATOM     93  O   UNL     1      -9.315  -5.574 -15.059  1.00  0.00    -0.237 OA
ATOM     94  O   UNL     1      -6.878  -5.983 -15.093  1.00  0.00    -0.237 OA
ATOM     95  O   UNL     1      -8.442  -7.816 -15.594  1.00  0.00    -0.744 OA
ENDBRANCH  91  92
ENDBRANCH  65  86
ENDBRANCH  39  40
ENDBRANCH  32  34
ENDBRANCH  31  32
ENDBRANCH  30  31
ENDBRANCH  29  30
ENDBRANCH  28  29
ENDBRANCH  27  28
ENDBRANCH   1  27
TORSDOF 25
