REMARK SMILES Cc1ccc(-c2nc(NC(=O)[C@H]3[C@@H](C(=O)OCCOCCOCCOCCOC(=O)c4ccc(-c5c6nc(c(-c7ccc(S(=O)(=O)[O-])cc7)c7ccc([nH]7)c(-c7ccc(S(=O)(=O)[O-])cc7)c7nc(c(-c8ccc(S(=O)(=O)[O-])cc8)c8ccc5[nH]8)C=C7)C=C6)cc4)[C@@H]4CC[C@H]3O4)sc2C)cc1
REMARK SMILES IDX 22 1 21 2 20 3 19 4 18 5 17 6 16 7 14 8 15 9 13 10 12 11
REMARK SMILES IDX 94 12 91 13 93 14 95 15 92 16 10 17 9 18 11 20 8 21 6 22
REMARK SMILES IDX 7 23 97 24 96 25 98 26 5 27 1 28 2 29 3 30 100 31 4 32 99 33
REMARK SMILES IDX 23 34 24 35 25 36 26 37 27 38 28 39 29 40 30 41 31 42 32 43
REMARK SMILES IDX 90 44 33 45 89 46 34 47 35 48 36 49 83 50 37 51 88 52 82 53
REMARK SMILES IDX 84 54 38 55 87 56 81 57 80 58 39 60 69 61 50 62 68 63 51 64
REMARK SMILES IDX 54 65 67 66 85 67 52 68 53 69 66 71 86 72 55 73 40 74 41 75
REMARK SMILES IDX 49 76 42 77 48 78 43 79 44 80 45 81 46 82 47 83 70 84 71 85
REMARK SMILES IDX 79 86 72 87 78 88 73 89 74 90 75 91 76 92 77 93 56 94 57 95
REMARK SMILES IDX 65 96 58 97 64 98 59 99 60 100 61 101 62 102 63 103
REMARK H PARENT 9 19 84 59 54 70
REMARK Flexibility Score: inf
ROOT
ATOM      1  O   UNL     1      -9.177  -0.206  -4.733  1.00  0.00    -0.377 OA
ENDROOT
BRANCH   1   2
ATOM      2  C   UNL     1      -9.910   0.648  -3.836  1.00  0.00     0.188 C 
BRANCH   2   3
ATOM      3  C   UNL     1      -9.921   2.207  -3.978  1.00  0.00     0.188 C 
BRANCH   3   4
ATOM      4  O   UNL     1      -8.820   2.972  -3.494  1.00  0.00    -0.376 OA
BRANCH   4   5
ATOM      5  C   UNL     1      -7.907   2.232  -2.739  1.00  0.00     0.202 C 
BRANCH   5   6
ATOM      6  C   UNL     1      -8.335   1.809  -1.383  1.00  0.00     0.261 C 
BRANCH   6   7
ATOM      7  O   UNL     1      -9.631   2.297  -1.034  1.00  0.00    -0.463 OA
BRANCH   7   8
ATOM      8  C   UNL     1     -10.775   1.640  -0.848  1.00  0.00     0.312 C 
ATOM      9  O   UNL     1     -11.822   2.152  -1.262  1.00  0.00    -0.252 OA
BRANCH   8  10
ATOM     10  C   UNL     1     -10.908   0.404   0.014  1.00  0.00     0.143 C 
ATOM     11  C   UNL     1      -9.792  -0.515   0.481  1.00  0.00     0.124 C 
ATOM     12  C   UNL     1      -9.950  -1.703  -0.551  1.00  0.00     0.132 C 
ATOM     13  C   UNL     1     -11.785  -0.573  -0.782  1.00  0.00     0.133 C 
ATOM     14  C   UNL     1     -10.989  -2.696  -0.039  1.00  0.00     0.035 C 
ATOM     15  O   UNL     1     -10.769  -1.153  -1.614  1.00  0.00    -0.373 OA
ATOM     16  C   UNL     1     -12.216  -1.779   0.070  1.00  0.00     0.036 C 
BRANCH  11  17
ATOM     17  C   UNL     1      -8.351  -0.125   0.747  1.00  0.00     0.232 C 
ATOM     18  N   UNL     1      -7.864   1.033   1.266  1.00  0.00    -0.302 N 
ATOM     19  H   UNL     1      -6.901   0.977   1.460  1.00  0.00     0.172 HD
ATOM     20  O   UNL     1      -7.495  -0.982   0.479  1.00  0.00    -0.274 OA
BRANCH  18  21
ATOM     21  C   UNL     1      -8.386   2.262   1.587  1.00  0.00     0.190 A 
ATOM     22  C   UNL     1      -8.432   4.603   1.569  1.00  0.00     0.086 A 
ATOM     23  N   UNL     1      -7.723   3.394   1.456  1.00  0.00    -0.220 NA
ATOM     24  C   UNL     1      -9.894   4.032   1.512  1.00  0.00     0.031 A 
ATOM     25  S   UNL     1      -9.894   2.408   2.233  1.00  0.00    -0.101 S 
ATOM     26  C   UNL     1     -11.380   4.381   1.173  1.00  0.00     0.059 C 
BRANCH  22  27
ATOM     27  C   UNL     1      -7.638   6.337   1.609  1.00  0.00     0.001 A 
ATOM     28  C   UNL     1      -7.487  10.803   0.969  1.00  0.00     0.044 C 
ATOM     29  C   UNL     1      -7.237   9.364   1.275  1.00  0.00    -0.051 A 
ATOM     30  C   UNL     1      -6.649   8.443   0.444  1.00  0.00     0.004 A 
ATOM     31  C   UNL     1      -7.688   8.840   2.444  1.00  0.00     0.004 A 
ATOM     32  C   UNL     1      -6.794   7.013   0.662  1.00  0.00     0.010 A 
ATOM     33  C   UNL     1      -7.835   7.435   2.587  1.00  0.00     0.010 A 
ENDBRANCH  22  27
ENDBRANCH  18  21
ENDBRANCH  11  17
ENDBRANCH   8  10
ENDBRANCH   7   8
ENDBRANCH   6   7
ENDBRANCH   5   6
ENDBRANCH   4   5
ENDBRANCH   3   4
ENDBRANCH   2   3
ENDBRANCH   1   2
BRANCH   1  34
ATOM     34  C   UNL     1      -7.790  -0.488  -4.447  1.00  0.00     0.188 C 
BRANCH  34  35
ATOM     35  C   UNL     1      -6.842   0.514  -5.119  1.00  0.00     0.188 C 
BRANCH  35  36
ATOM     36  O   UNL     1      -7.541   1.695  -5.501  1.00  0.00    -0.376 OA
BRANCH  36  37
ATOM     37  C   UNL     1      -8.276   1.639  -6.707  1.00  0.00     0.202 C 
BRANCH  37  38
ATOM     38  C   UNL     1      -7.280   1.653  -7.837  1.00  0.00     0.261 C 
BRANCH  38  39
ATOM     39  O   UNL     1      -6.548   2.914  -7.733  1.00  0.00    -0.460 OA
BRANCH  39  40
ATOM     40  C   UNL     1      -5.381   2.941  -7.012  1.00  0.00     0.338 C 
ATOM     41  O   UNL     1      -4.318   2.554  -7.479  1.00  0.00    -0.246 OA
BRANCH  40  42
ATOM     42  C   UNL     1      -5.466   3.666  -5.685  1.00  0.00     0.060 A 
ATOM     43  C   UNL     1      -4.484   3.489  -4.697  1.00  0.00     0.016 A 
ATOM     44  C   UNL     1      -6.560   4.464  -5.362  1.00  0.00     0.016 A 
ATOM     45  C   UNL     1      -4.678   3.970  -3.378  1.00  0.00     0.010 A 
ATOM     46  C   UNL     1      -6.756   4.924  -4.050  1.00  0.00     0.010 A 
ATOM     47  C   UNL     1      -5.892   4.586  -3.003  1.00  0.00    -0.014 A 
BRANCH  47  48
ATOM     48  C   UNL     1      -6.382   4.677  -1.564  1.00  0.00     0.031 A 
ATOM     49  C   UNL     1      -7.879   5.527  -1.272  1.00  0.00     0.074 A 
ATOM     50  C   UNL     1      -5.656   3.996  -0.582  1.00  0.00     0.049 A 
ATOM     51  N   UNL     1      -8.897   5.260  -0.472  1.00  0.00    -0.248 NA
ATOM     52  C   UNL     1      -8.171   6.836  -1.868  1.00  0.00     0.031 C 
ATOM     53  C   UNL     1      -5.517   4.479   0.751  1.00  0.00     0.029 A 
ATOM     54  N   UNL     1      -4.944   2.740  -0.431  1.00  0.00    -0.354 N 
ATOM     55  C   UNL     1      -9.606   6.460   0.023  1.00  0.00     0.074 A 
ATOM     56  C   UNL     1      -9.226   7.313  -1.154  1.00  0.00     0.031 C 
ATOM     57  C   UNL     1      -5.267   3.497   1.569  1.00  0.00     0.029 A 
ATOM     58  C   UNL     1      -4.822   2.350   0.942  1.00  0.00     0.049 A 
ATOM     59  H   UNL     1      -4.586   2.217  -1.185  1.00  0.00     0.167 HD
ATOM     60  C   UNL     1     -10.153   6.812   1.447  1.00  0.00     0.031 A 
ATOM     61  C   UNL     1      -4.446   1.369   1.832  1.00  0.00     0.031 A 
ATOM     62  C   UNL     1      -9.965   5.933   3.036  1.00  0.00     0.049 A 
ATOM     63  C   UNL     1      -4.908   1.711   3.461  1.00  0.00     0.074 A 
ATOM     64  C   UNL     1     -10.771   5.393   4.077  1.00  0.00     0.029 A 
ATOM     65  N   UNL     1      -8.664   5.367   3.720  1.00  0.00    -0.354 N 
ATOM     66  N   UNL     1      -5.178   2.936   3.963  1.00  0.00    -0.248 NA
ATOM     67  C   UNL     1      -5.324   0.777   4.523  1.00  0.00     0.031 C 
ATOM     68  C   UNL     1      -9.986   4.455   5.026  1.00  0.00     0.029 A 
ATOM     69  C   UNL     1      -8.637   4.370   4.686  1.00  0.00     0.049 A 
ATOM     70  H   UNL     1      -7.802   5.751   3.440  1.00  0.00     0.167 HD
ATOM     71  C   UNL     1      -6.401   2.873   4.699  1.00  0.00     0.074 A 
ATOM     72  C   UNL     1      -6.167   1.542   5.279  1.00  0.00     0.031 C 
ATOM     73  C   UNL     1      -7.170   3.948   5.211  1.00  0.00     0.031 A 
BRANCH  60  74
ATOM     74  C   UNL     1     -11.055   8.113   1.495  1.00  0.00    -0.014 A 
ATOM     75  C   UNL     1     -11.786   8.409   2.655  1.00  0.00     0.010 A 
ATOM     76  C   UNL     1     -11.302   9.012   0.428  1.00  0.00     0.010 A 
ATOM     77  C   UNL     1     -12.735   9.455   2.713  1.00  0.00     0.020 A 
ATOM     78  C   UNL     1     -12.211  10.084   0.470  1.00  0.00     0.020 A 
ATOM     79  C   UNL     1     -12.959  10.274   1.610  1.00  0.00     0.054 A 
BRANCH  79  80
ATOM     80  S   UNL     1     -14.254  11.535   1.660  1.00  0.00     0.124 S 
ATOM     81  O   UNL     1     -15.467  10.724   1.710  1.00  0.00    -0.237 OA
ATOM     82  O   UNL     1     -13.933  12.270   2.880  1.00  0.00    -0.237 OA
ATOM     83  O   UNL     1     -14.063  12.285   0.419  1.00  0.00    -0.744 OA
ENDBRANCH  79  80
ENDBRANCH  60  74
BRANCH  61  84
ATOM     84  C   UNL     1      -3.817   0.217   1.047  1.00  0.00    -0.014 A 
ATOM     85  C   UNL     1      -4.509  -0.936   0.619  1.00  0.00     0.010 A 
ATOM     86  C   UNL     1      -2.783   0.658   0.168  1.00  0.00     0.010 A 
ATOM     87  C   UNL     1      -4.370  -1.438  -0.713  1.00  0.00     0.020 A 
ATOM     88  C   UNL     1      -2.697   0.223  -1.169  1.00  0.00     0.020 A 
ATOM     89  C   UNL     1      -3.524  -0.799  -1.621  1.00  0.00     0.054 A 
BRANCH  89  90
ATOM     90  S   UNL     1      -3.630  -1.087  -3.425  1.00  0.00     0.124 S 
ATOM     91  O   UNL     1      -2.392  -1.818  -3.702  1.00  0.00    -0.237 OA
ATOM     92  O   UNL     1      -4.863  -1.845  -3.591  1.00  0.00    -0.237 OA
ATOM     93  O   UNL     1      -3.684   0.274  -3.947  1.00  0.00    -0.744 OA
ENDBRANCH  89  90
ENDBRANCH  61  84
BRANCH  73  94
ATOM     94  C   UNL     1      -6.372   5.126   5.838  1.00  0.00    -0.014 A 
ATOM     95  C   UNL     1      -5.081   4.990   6.383  1.00  0.00     0.010 A 
ATOM     96  C   UNL     1      -7.006   6.376   6.048  1.00  0.00     0.010 A 
ATOM     97  C   UNL     1      -4.521   5.998   7.192  1.00  0.00     0.020 A 
ATOM     98  C   UNL     1      -6.441   7.403   6.801  1.00  0.00     0.020 A 
ATOM     99  C   UNL     1      -5.235   7.174   7.437  1.00  0.00     0.054 A 
BRANCH  99 100
ATOM    100  S   UNL     1      -4.678   8.312   8.729  1.00  0.00     0.124 S 
ATOM    101  O   UNL     1      -5.032   7.580   9.938  1.00  0.00    -0.237 OA
ATOM    102  O   UNL     1      -3.258   8.453   8.461  1.00  0.00    -0.237 OA
ATOM    103  O   UNL     1      -5.480   9.526   8.486  1.00  0.00    -0.744 OA
ENDBRANCH  99 100
ENDBRANCH  73  94
ENDBRANCH  47  48
ENDBRANCH  40  42
ENDBRANCH  39  40
ENDBRANCH  38  39
ENDBRANCH  37  38
ENDBRANCH  36  37
ENDBRANCH  35  36
ENDBRANCH  34  35
ENDBRANCH   1  34
TORSDOF 26
