REMARK SMILES Cc1c(Cc2nc(C(C)(C)C)cs2)cccc1C(=O)OCCOCCOCCOCCOC(=O)c1ccc(-c2c3nc(c(-c4ccc(S(=O)(=O)[O-])cc4)c4ccc([nH]4)c(-c4ccc(S(=O)(=O)[O-])cc4)c4nc(c(-c5ccc(S(=O)(=O)[O-])cc5)c5ccc2[nH]5)C=C4)C=C3)cc1
REMARK SMILES IDX 26 1 25 2 24 3 23 4 22 5 21 6 20 7 18 8 19 9 17 10 1 11 2 12
REMARK SMILES IDX 3 13 14 14 16 15 15 16 4 17 5 18 6 19 13 20 7 21 12 22 8 23
REMARK SMILES IDX 9 24 10 25 11 26 27 27 28 28 29 29 30 30 31 31 32 32 33 33
REMARK SMILES IDX 34 34 35 35 36 36 94 37 37 38 93 39 38 40 39 41 40 42 87 43
REMARK SMILES IDX 41 44 92 45 86 46 88 47 42 48 91 49 85 50 84 51 43 53 73 54
REMARK SMILES IDX 54 55 72 56 55 57 58 58 71 59 89 60 56 61 57 62 70 64 90 65
REMARK SMILES IDX 59 66 44 67 45 68 53 69 46 70 52 71 47 72 48 73 49 74 50 75
REMARK SMILES IDX 51 76 74 77 75 78 83 79 76 80 82 81 77 82 78 83 79 84 80 85
REMARK SMILES IDX 81 86 60 87 61 88 69 89 62 90 68 91 63 92 64 93 65 94 66 95
REMARK SMILES IDX 67 96
REMARK H PARENT 88 52 58 63
REMARK Flexibility Score: inf
ROOT
ATOM      1  O   UNL     1       1.329   1.198  -2.482  1.00  0.00    -0.377 OA
ENDROOT
BRANCH   1   2
ATOM      2  C   UNL     1      -0.020   1.332  -2.896  1.00  0.00     0.188 C 
BRANCH   2   3
ATOM      3  C   UNL     1      -0.981   2.259  -2.127  1.00  0.00     0.188 C 
BRANCH   3   4
ATOM      4  O   UNL     1      -0.691   3.632  -1.933  1.00  0.00    -0.376 OA
BRANCH   4   5
ATOM      5  C   UNL     1       0.173   3.918  -0.838  1.00  0.00     0.202 C 
BRANCH   5   6
ATOM      6  C   UNL     1      -0.323   3.601   0.563  1.00  0.00     0.261 C 
BRANCH   6   7
ATOM      7  O   UNL     1      -0.104   2.216   0.792  1.00  0.00    -0.460 OA
BRANCH   7   8
ATOM      8  C   UNL     1      -1.096   1.578   1.426  1.00  0.00     0.338 C 
ATOM      9  O   UNL     1      -1.913   2.060   2.177  1.00  0.00    -0.246 OA
BRANCH   8  10
ATOM     10  C   UNL     1      -1.252   0.255   0.765  1.00  0.00     0.063 A 
ATOM     11  C   UNL     1       1.238  -0.237   0.298  1.00  0.00     0.045 C 
ATOM     12  C   UNL     1      -0.223  -0.599   0.302  1.00  0.00    -0.033 A 
ATOM     13  C   UNL     1      -0.597  -1.868  -0.191  1.00  0.00    -0.037 A 
ATOM     14  C   UNL     1      -1.958  -2.154  -0.424  1.00  0.00     0.004 A 
ATOM     15  C   UNL     1      -2.600  -0.053   0.512  1.00  0.00     0.016 A 
ATOM     16  C   UNL     1      -2.950  -1.233  -0.119  1.00  0.00     0.001 A 
BRANCH  13  17
ATOM     17  C   UNL     1       0.396  -3.027  -0.242  1.00  0.00     0.103 C 
BRANCH  17  18
ATOM     18  C   UNL     1       0.330  -3.753   1.072  1.00  0.00     0.097 A 
ATOM     19  N   UNL     1      -0.749  -4.395   1.460  1.00  0.00    -0.245 NA
ATOM     20  S   UNL     1       1.565  -3.637   2.255  1.00  0.00    -0.127 S 
ATOM     21  C   UNL     1      -0.744  -4.558   2.830  1.00  0.00     0.057 A 
ATOM     22  C   UNL     1       0.479  -4.285   3.420  1.00  0.00     0.091 A 
BRANCH  21  23
ATOM     23  C   UNL     1      -2.036  -5.006   3.486  1.00  0.00     0.005 C 
ATOM     24  C   UNL     1      -1.940  -6.496   3.840  1.00  0.00     0.017 C 
ATOM     25  C   UNL     1      -2.329  -4.183   4.755  1.00  0.00     0.017 C 
ATOM     26  C   UNL     1      -3.232  -4.801   2.524  1.00  0.00     0.017 C 
ENDBRANCH  21  23
ENDBRANCH  17  18
ENDBRANCH  13  17
ENDBRANCH   8  10
ENDBRANCH   7   8
ENDBRANCH   6   7
ENDBRANCH   5   6
ENDBRANCH   4   5
ENDBRANCH   3   4
ENDBRANCH   2   3
ENDBRANCH   1   2
BRANCH   1  27
ATOM     27  C   UNL     1       2.317   2.028  -3.102  1.00  0.00     0.188 C 
BRANCH  27  28
ATOM     28  C   UNL     1       2.038   2.575  -4.491  1.00  0.00     0.188 C 
BRANCH  28  29
ATOM     29  O   UNL     1       1.046   3.591  -4.333  1.00  0.00    -0.376 OA
BRANCH  29  30
ATOM     30  C   UNL     1       0.268   3.893  -5.474  1.00  0.00     0.202 C 
BRANCH  30  31
ATOM     31  C   UNL     1       1.094   4.227  -6.715  1.00  0.00     0.261 C 
BRANCH  31  32
ATOM     32  O   UNL     1       1.583   5.595  -6.713  1.00  0.00    -0.460 OA
BRANCH  32  33
ATOM     33  C   UNL     1       2.880   5.871  -6.369  1.00  0.00     0.338 C 
ATOM     34  O   UNL     1       3.705   6.271  -7.176  1.00  0.00    -0.246 OA
BRANCH  33  35
ATOM     35  C   UNL     1       3.098   5.966  -4.899  1.00  0.00     0.060 A 
ATOM     36  C   UNL     1       4.355   5.806  -4.297  1.00  0.00     0.016 A 
ATOM     37  C   UNL     1       2.009   6.215  -4.089  1.00  0.00     0.016 A 
ATOM     38  C   UNL     1       4.480   5.672  -2.897  1.00  0.00     0.010 A 
ATOM     39  C   UNL     1       2.126   6.028  -2.727  1.00  0.00     0.010 A 
ATOM     40  C   UNL     1       3.340   5.702  -2.101  1.00  0.00    -0.014 A 
BRANCH  40  41
ATOM     41  C   UNL     1       3.244   5.341  -0.665  1.00  0.00     0.031 A 
ATOM     42  C   UNL     1       2.458   6.259   0.243  1.00  0.00     0.074 A 
ATOM     43  C   UNL     1       3.488   4.054  -0.289  1.00  0.00     0.049 A 
ATOM     44  N   UNL     1       2.054   5.962   1.429  1.00  0.00    -0.248 NA
ATOM     45  C   UNL     1       1.964   7.581  -0.156  1.00  0.00     0.031 C 
ATOM     46  C   UNL     1       2.924   3.348   0.867  1.00  0.00     0.029 A 
ATOM     47  N   UNL     1       4.214   3.034  -0.880  1.00  0.00    -0.354 N 
ATOM     48  C   UNL     1       1.031   6.817   1.796  1.00  0.00     0.074 A 
ATOM     49  C   UNL     1       1.048   7.845   0.788  1.00  0.00     0.031 C 
ATOM     50  C   UNL     1       3.417   2.106   0.973  1.00  0.00     0.029 A 
ATOM     51  C   UNL     1       4.523   2.047   0.058  1.00  0.00     0.049 A 
ATOM     52  H   UNL     1       4.475   3.009  -1.829  1.00  0.00     0.167 HD
ATOM     53  C   UNL     1       0.231   6.472   2.853  1.00  0.00     0.031 A 
ATOM     54  C   UNL     1       5.800   1.852   0.500  1.00  0.00     0.031 A 
ATOM     55  C   UNL     1       0.780   5.297   3.568  1.00  0.00     0.049 A 
ATOM     56  C   UNL     1       5.862   2.346   1.960  1.00  0.00     0.074 A 
ATOM     57  C   UNL     1       0.293   4.051   3.919  1.00  0.00     0.029 A 
ATOM     58  N   UNL     1       2.151   5.255   3.848  1.00  0.00    -0.354 N 
ATOM     59  N   UNL     1       5.166   3.373   2.415  1.00  0.00    -0.248 NA
ATOM     60  C   UNL     1       6.380   1.514   3.052  1.00  0.00     0.031 C 
ATOM     61  C   UNL     1       1.416   3.212   4.208  1.00  0.00     0.029 A 
ATOM     62  C   UNL     1       2.582   3.968   4.116  1.00  0.00     0.049 A 
ATOM     63  H   UNL     1       2.737   6.045   3.854  1.00  0.00     0.167 HD
ATOM     64  C   UNL     1       4.943   3.206   3.764  1.00  0.00     0.074 A 
ATOM     65  C   UNL     1       5.792   2.073   4.126  1.00  0.00     0.031 C 
ATOM     66  C   UNL     1       3.954   3.737   4.557  1.00  0.00     0.031 A 
BRANCH  53  67
ATOM     67  C   UNL     1      -1.144   7.069   3.187  1.00  0.00    -0.014 A 
ATOM     68  C   UNL     1      -1.829   6.615   4.338  1.00  0.00     0.010 A 
ATOM     69  C   UNL     1      -1.856   8.002   2.399  1.00  0.00     0.010 A 
ATOM     70  C   UNL     1      -3.123   7.051   4.687  1.00  0.00     0.020 A 
ATOM     71  C   UNL     1      -3.146   8.474   2.753  1.00  0.00     0.020 A 
ATOM     72  C   UNL     1      -3.775   7.990   3.897  1.00  0.00     0.054 A 
BRANCH  72  73
ATOM     73  S   UNL     1      -5.421   8.575   4.405  1.00  0.00     0.124 S 
ATOM     74  O   UNL     1      -6.242   7.374   4.274  1.00  0.00    -0.237 OA
ATOM     75  O   UNL     1      -5.191   9.029   5.774  1.00  0.00    -0.237 OA
ATOM     76  O   UNL     1      -5.726   9.637   3.448  1.00  0.00    -0.744 OA
ENDBRANCH  72  73
ENDBRANCH  53  67
BRANCH  54  77
ATOM     77  C   UNL     1       6.754   1.835  -0.664  1.00  0.00    -0.014 A 
ATOM     78  C   UNL     1       6.621   0.680  -1.485  1.00  0.00     0.010 A 
ATOM     79  C   UNL     1       7.142   3.034  -1.296  1.00  0.00     0.010 A 
ATOM     80  C   UNL     1       6.592   0.780  -2.885  1.00  0.00     0.020 A 
ATOM     81  C   UNL     1       7.131   3.130  -2.709  1.00  0.00     0.020 A 
ATOM     82  C   UNL     1       6.783   2.019  -3.489  1.00  0.00     0.054 A 
BRANCH  82  83
ATOM     83  S   UNL     1       6.305   2.196  -5.245  1.00  0.00     0.124 S 
ATOM     84  O   UNL     1       7.421   1.570  -5.941  1.00  0.00    -0.237 OA
ATOM     85  O   UNL     1       5.034   1.474  -5.304  1.00  0.00    -0.237 OA
ATOM     86  O   UNL     1       6.186   3.638  -5.418  1.00  0.00    -0.744 OA
ENDBRANCH  82  83
ENDBRANCH  54  77
BRANCH  66  87
ATOM     87  C   UNL     1       4.286   4.197   5.957  1.00  0.00    -0.014 A 
ATOM     88  C   UNL     1       5.607   4.282   6.415  1.00  0.00     0.010 A 
ATOM     89  C   UNL     1       3.275   4.777   6.765  1.00  0.00     0.010 A 
ATOM     90  C   UNL     1       5.903   4.869   7.641  1.00  0.00     0.020 A 
ATOM     91  C   UNL     1       3.567   5.417   7.966  1.00  0.00     0.020 A 
ATOM     92  C   UNL     1       4.882   5.431   8.408  1.00  0.00     0.054 A 
BRANCH  92  93
ATOM     93  S   UNL     1       5.313   6.208   9.975  1.00  0.00     0.124 S 
ATOM     94  O   UNL     1       5.508   5.043  10.834  1.00  0.00    -0.237 OA
ATOM     95  O   UNL     1       6.527   6.951   9.640  1.00  0.00    -0.237 OA
ATOM     96  O   UNL     1       4.150   7.033  10.288  1.00  0.00    -0.744 OA
ENDBRANCH  92  93
ENDBRANCH  66  87
ENDBRANCH  40  41
ENDBRANCH  33  35
ENDBRANCH  32  33
ENDBRANCH  31  32
ENDBRANCH  30  31
ENDBRANCH  29  30
ENDBRANCH  28  29
ENDBRANCH  27  28
ENDBRANCH   1  27
TORSDOF 26
