REMARK SMILES Cc1nn(C)c(C)c1CCC(=O)Nc1sccc1C(=O)OCCOCCOCCOCCOC(=O)c1ccc(-c2c3nc(c(-c4ccc(S(=O)(=O)[O-])cc4)c4ccc([nH]4)c(-c4ccc(S(=O)(=O)[O-])cc4)c4nc(c(-c5ccc(S(=O)(=O)[O-])cc5)c5ccc2[nH]5)C=C4)C=C3)cc1
REMARK SMILES IDX 26 1 25 2 24 3 23 4 22 5 21 6 19 7 20 8 18 9 14 10 15 11
REMARK SMILES IDX 16 12 17 13 13 14 11 15 12 16 10 18 9 19 8 20 1 21 2 22 3 23
REMARK SMILES IDX 4 24 6 25 5 26 7 27 27 28 28 29 29 30 30 31 31 32 32 33
REMARK SMILES IDX 33 34 34 35 35 36 36 37 37 38 95 39 38 40 94 41 39 42 40 43
REMARK SMILES IDX 41 44 88 45 42 46 93 47 87 48 89 49 43 50 92 51 86 52 85 53
REMARK SMILES IDX 44 55 74 56 55 57 73 58 56 59 59 60 72 61 90 62 57 63 58 64
REMARK SMILES IDX 71 66 91 67 60 68 45 69 46 70 54 71 47 72 53 73 48 74 49 75
REMARK SMILES IDX 50 76 51 77 52 78 75 79 76 80 84 81 77 82 83 83 78 84 79 85
REMARK SMILES IDX 80 86 81 87 82 88 61 89 62 90 70 91 63 92 69 93 64 94 65 95
REMARK SMILES IDX 66 96 67 97 68 98
REMARK H PARENT 13 17 89 54 59 65
REMARK Flexibility Score: inf
ROOT
ATOM      1  C   UNL     1       0.336   0.790  -3.260  1.00  0.00     0.188 C 
ENDROOT
BRANCH   1   2
ATOM      2  C   UNL     1      -1.148   0.834  -3.651  1.00  0.00     0.188 C 
BRANCH   2   3
ATOM      3  O   UNL     1      -1.914   2.029  -3.668  1.00  0.00    -0.376 OA
BRANCH   3   4
ATOM      4  C   UNL     1      -1.506   3.213  -3.021  1.00  0.00     0.202 C 
BRANCH   4   5
ATOM      5  C   UNL     1      -1.174   3.265  -1.530  1.00  0.00     0.261 C 
BRANCH   5   6
ATOM      6  O   UNL     1      -0.266   2.313  -0.951  1.00  0.00    -0.460 OA
BRANCH   6   7
ATOM      7  C   UNL     1      -0.871   1.054  -0.275  1.00  0.00     0.341 C 
ATOM      8  O   UNL     1      -1.899   0.858  -1.020  1.00  0.00    -0.246 OA
BRANCH   7   9
ATOM      9  C   UNL     1      -0.228   0.157   1.594  1.00  0.00     0.094 A 
ATOM     10  C   UNL     1       0.698   0.570   2.744  1.00  0.00     0.110 A 
ATOM     11  S   UNL     1       1.337  -0.723   3.687  1.00  0.00    -0.126 S 
ATOM     12  C   UNL     1       0.171  -1.823   3.227  1.00  0.00     0.068 A 
ATOM     13  C   UNL     1      -0.651  -1.310   2.266  1.00  0.00     0.029 A 
BRANCH  10  14
ATOM     14  N   UNL     1       1.416   1.691   3.184  1.00  0.00    -0.317 N 
ATOM     15  C   UNL     1       1.250   3.037   3.031  1.00  0.00     0.225 C 
ATOM     16  O   UNL     1       2.253   3.755   3.045  1.00  0.00    -0.275 OA
ATOM     17  H   UNL     1       2.209   1.457   3.719  1.00  0.00     0.170 HD
BRANCH  15  18
ATOM     18  C   UNL     1      -0.129   3.650   3.051  1.00  0.00     0.105 C 
BRANCH  18  19
ATOM     19  C   UNL     1      -0.962   3.381   1.834  1.00  0.00     0.049 C 
BRANCH  19  20
ATOM     20  C   UNL     1      -0.705   2.028   1.315  1.00  0.00    -0.004 A 
ATOM     21  C   UNL     1      -3.540   0.664   1.164  1.00  0.00     0.069 C 
ATOM     22  C   UNL     1      -2.051   0.588   1.122  1.00  0.00     0.063 A 
ATOM     23  N   UNL     1      -1.291  -0.721   0.190  1.00  0.00    -0.178 NA
ATOM     24  N   UNL     1       0.483  -0.272  -0.141  1.00  0.00    -0.272 N 
ATOM     25  C   UNL     1       0.862   1.403   0.532  1.00  0.00     0.038 A 
ATOM     26  C   UNL     1       1.495  -1.269  -0.429  1.00  0.00     0.174 C 
ATOM     27  C   UNL     1       2.209   2.000   0.231  1.00  0.00     0.066 C 
ENDBRANCH  19  20
ENDBRANCH  18  19
ENDBRANCH  15  18
ENDBRANCH  10  14
ENDBRANCH   7   9
ENDBRANCH   6   7
ENDBRANCH   5   6
ENDBRANCH   4   5
ENDBRANCH   3   4
ENDBRANCH   2   3
ENDBRANCH   1   2
BRANCH   1  28
ATOM     28  O   UNL     1       1.037   2.001  -3.140  1.00  0.00    -0.377 OA
BRANCH  28  29
ATOM     29  C   UNL     1       1.457   2.668  -4.306  1.00  0.00     0.188 C 
BRANCH  29  30
ATOM     30  C   UNL     1       0.839   2.303  -5.668  1.00  0.00     0.188 C 
BRANCH  30  31
ATOM     31  O   UNL     1       0.456   0.962  -5.879  1.00  0.00    -0.376 OA
BRANCH  31  32
ATOM     32  C   UNL     1       1.307  -0.114  -6.208  1.00  0.00     0.202 C 
BRANCH  32  33
ATOM     33  C   UNL     1       2.751  -0.280  -5.706  1.00  0.00     0.261 C 
BRANCH  33  34
ATOM     34  O   UNL     1       3.502   0.893  -5.415  1.00  0.00    -0.460 OA
BRANCH  34  35
ATOM     35  C   UNL     1       3.820   1.674  -6.472  1.00  0.00     0.338 C 
ATOM     36  O   UNL     1       3.521   1.481  -7.635  1.00  0.00    -0.246 OA
BRANCH  35  37
ATOM     37  C   UNL     1       4.430   2.914  -5.945  1.00  0.00     0.060 A 
ATOM     38  C   UNL     1       3.780   4.139  -6.163  1.00  0.00     0.016 A 
ATOM     39  C   UNL     1       5.615   2.861  -5.211  1.00  0.00     0.016 A 
ATOM     40  C   UNL     1       4.330   5.319  -5.678  1.00  0.00     0.010 A 
ATOM     41  C   UNL     1       6.199   4.052  -4.778  1.00  0.00     0.010 A 
ATOM     42  C   UNL     1       5.576   5.284  -5.048  1.00  0.00    -0.014 A 
BRANCH  42  43
ATOM     43  C   UNL     1       6.346   6.540  -4.936  1.00  0.00     0.031 A 
ATOM     44  C   UNL     1       7.334   6.846  -6.028  1.00  0.00     0.074 A 
ATOM     45  C   UNL     1       6.143   7.403  -3.927  1.00  0.00     0.049 A 
ATOM     46  N   UNL     1       8.175   7.838  -6.130  1.00  0.00    -0.248 NA
ATOM     47  C   UNL     1       7.379   5.899  -7.159  1.00  0.00     0.031 C 
ATOM     48  C   UNL     1       5.155   7.247  -2.861  1.00  0.00     0.029 A 
ATOM     49  N   UNL     1       6.772   8.586  -3.636  1.00  0.00    -0.354 N 
ATOM     50  C   UNL     1       8.859   7.628  -7.322  1.00  0.00     0.074 A 
ATOM     51  C   UNL     1       8.356   6.402  -7.896  1.00  0.00     0.031 C 
ATOM     52  C   UNL     1       5.258   8.291  -2.019  1.00  0.00     0.029 A 
ATOM     53  C   UNL     1       6.345   9.161  -2.464  1.00  0.00     0.049 A 
ATOM     54  H   UNL     1       7.463   8.986  -4.212  1.00  0.00     0.167 HD
ATOM     55  C   UNL     1       9.819   8.395  -7.888  1.00  0.00     0.031 A 
ATOM     56  C   UNL     1       6.806  10.248  -1.813  1.00  0.00     0.031 A 
ATOM     57  C   UNL     1      10.321   9.606  -7.299  1.00  0.00     0.049 A 
ATOM     58  C   UNL     1       7.952  11.027  -2.414  1.00  0.00     0.074 A 
ATOM     59  C   UNL     1      11.293  10.459  -7.789  1.00  0.00     0.029 A 
ATOM     60  N   UNL     1       9.898  10.132  -6.087  1.00  0.00    -0.354 N 
ATOM     61  N   UNL     1       8.585  10.827  -3.547  1.00  0.00    -0.248 NA
ATOM     62  C   UNL     1       8.440  12.183  -1.650  1.00  0.00     0.031 C 
ATOM     63  C   UNL     1      11.510  11.460  -6.839  1.00  0.00     0.029 A 
ATOM     64  C   UNL     1      10.612  11.281  -5.798  1.00  0.00     0.049 A 
ATOM     65  H   UNL     1       9.193   9.746  -5.518  1.00  0.00     0.167 HD
ATOM     66  C   UNL     1       9.517  11.857  -3.648  1.00  0.00     0.074 A 
ATOM     67  C   UNL     1       9.352  12.684  -2.471  1.00  0.00     0.031 C 
ATOM     68  C   UNL     1      10.427  12.098  -4.625  1.00  0.00     0.031 A 
BRANCH  55  69
ATOM     69  C   UNL     1      10.417   7.925  -9.187  1.00  0.00    -0.014 A 
ATOM     70  C   UNL     1       9.673   7.930 -10.381  1.00  0.00     0.010 A 
ATOM     71  C   UNL     1      11.765   7.524  -9.222  1.00  0.00     0.010 A 
ATOM     72  C   UNL     1      10.262   7.523 -11.581  1.00  0.00     0.020 A 
ATOM     73  C   UNL     1      12.367   7.150 -10.426  1.00  0.00     0.020 A 
ATOM     74  C   UNL     1      11.607   7.143 -11.597  1.00  0.00     0.054 A 
BRANCH  74  75
ATOM     75  S   UNL     1      12.358   6.678 -13.180  1.00  0.00     0.124 S 
ATOM     76  O   UNL     1      11.674   5.422 -13.481  1.00  0.00    -0.237 OA
ATOM     77  O   UNL     1      12.008   7.805 -14.040  1.00  0.00    -0.237 OA
ATOM     78  O   UNL     1      13.779   6.551 -12.869  1.00  0.00    -0.744 OA
ENDBRANCH  74  75
ENDBRANCH  55  69
BRANCH  56  79
ATOM     79  C   UNL     1       6.218  10.651  -0.504  1.00  0.00    -0.014 A 
ATOM     80  C   UNL     1       5.553  11.882  -0.362  1.00  0.00     0.010 A 
ATOM     81  C   UNL     1       6.353   9.818   0.622  1.00  0.00     0.010 A 
ATOM     82  C   UNL     1       5.067  12.287   0.885  1.00  0.00     0.020 A 
ATOM     83  C   UNL     1       5.834  10.201   1.862  1.00  0.00     0.020 A 
ATOM     84  C   UNL     1       5.210  11.442   1.989  1.00  0.00     0.054 A 
BRANCH  84  85
ATOM     85  S   UNL     1       4.550  11.982   3.590  1.00  0.00     0.124 S 
ATOM     86  O   UNL     1       5.447  13.082   3.933  1.00  0.00    -0.237 OA
ATOM     87  O   UNL     1       3.182  12.364   3.251  1.00  0.00    -0.237 OA
ATOM     88  O   UNL     1       4.669  10.793   4.431  1.00  0.00    -0.744 OA
ENDBRANCH  84  85
ENDBRANCH  56  79
BRANCH  68  89
ATOM     89  C   UNL     1      11.280  13.336  -4.497  1.00  0.00    -0.014 A 
ATOM     90  C   UNL     1      12.270  13.452  -3.505  1.00  0.00     0.010 A 
ATOM     91  C   UNL     1      11.126  14.377  -5.432  1.00  0.00     0.010 A 
ATOM     92  C   UNL     1      13.061  14.601  -3.428  1.00  0.00     0.020 A 
ATOM     93  C   UNL     1      11.941  15.510  -5.383  1.00  0.00     0.020 A 
ATOM     94  C   UNL     1      12.895  15.621  -4.370  1.00  0.00     0.054 A 
BRANCH  94  95
ATOM     95  S   UNL     1      13.968  17.079  -4.273  1.00  0.00     0.124 S 
ATOM     96  O   UNL     1      13.489  17.730  -3.057  1.00  0.00    -0.237 OA
ATOM     97  O   UNL     1      15.301  16.488  -4.188  1.00  0.00    -0.237 OA
ATOM     98  O   UNL     1      13.689  17.800  -5.514  1.00  0.00    -0.744 OA
ENDBRANCH  94  95
ENDBRANCH  68  89
ENDBRANCH  42  43
ENDBRANCH  35  37
ENDBRANCH  34  35
ENDBRANCH  33  34
ENDBRANCH  32  33
ENDBRANCH  31  32
ENDBRANCH  30  31
ENDBRANCH  29  30
ENDBRANCH  28  29
ENDBRANCH   1  28
TORSDOF 27
