REMARK SMILES O=C(OCCOCCOCCOCCOC(=O)[C@@H]1C[C@@H]1C(=O)N1CC2(CCCC2)c2c(F)cccc21)c1ccc(-c2c3nc(c(-c4ccc(S(=O)(=O)[O-])cc4)c4ccc([nH]4)c(-c4ccc(S(=O)(=O)[O-])cc4)c4nc(c(-c5ccc(S(=O)(=O)[O-])cc5)c5ccc2[nH]5)C=C4)C=C3)cc1
REMARK SMILES IDX 8 1 7 2 6 3 5 4 4 5 3 6 2 7 1 8 37 9 38 10 96 11 39 12 95 13
REMARK SMILES IDX 40 14 41 15 42 16 89 17 43 18 94 19 88 20 90 21 44 22 93 23
REMARK SMILES IDX 87 24 86 25 45 27 75 28 56 29 74 30 57 31 60 32 73 33 91 34
REMARK SMILES IDX 58 35 59 36 72 38 92 39 61 40 46 41 47 42 55 43 48 44 54 45
REMARK SMILES IDX 49 46 50 47 51 48 52 49 53 50 76 51 77 52 85 53 78 54 84 55
REMARK SMILES IDX 79 56 80 57 81 58 82 59 83 60 62 61 63 62 71 63 64 64 70 65
REMARK SMILES IDX 65 66 66 67 67 68 68 69 69 70 9 71 10 72 11 73 12 74 13 75
REMARK SMILES IDX 14 76 15 77 16 78 17 79 18 80 19 81 20 82 21 83 22 84 23 85
REMARK SMILES IDX 24 86 36 87 25 88 30 89 35 90 26 91 29 92 31 93 34 94 27 95
REMARK SMILES IDX 28 96 32 97 33 98
REMARK H PARENT 90 26 60 37
REMARK Flexibility Score: inf
ROOT
ATOM      1  C   UNL     1       1.958  -1.730  -1.381  1.00  0.00     0.188 C 
ENDROOT
BRANCH   1   2
ATOM      2  C   UNL     1       2.716  -0.417  -1.177  1.00  0.00     0.188 C 
BRANCH   2   3
ATOM      3  O   UNL     1       4.116  -0.419  -0.947  1.00  0.00    -0.376 OA
BRANCH   3   4
ATOM      4  C   UNL     1       4.797  -0.764   0.246  1.00  0.00     0.202 C 
BRANCH   4   5
ATOM      5  C   UNL     1       4.358  -0.252   1.616  1.00  0.00     0.261 C 
BRANCH   5   6
ATOM      6  O   UNL     1       3.055   0.329   1.709  1.00  0.00    -0.460 OA
BRANCH   6   7
ATOM      7  C   UNL     1       2.733   1.633   1.486  1.00  0.00     0.338 C 
ATOM      8  O   UNL     1       1.763   2.116   2.061  1.00  0.00    -0.246 OA
BRANCH   7   9
ATOM      9  C   UNL     1       3.343   2.374   0.339  1.00  0.00     0.060 A 
ATOM     10  C   UNL     1       4.648   2.178  -0.100  1.00  0.00     0.016 A 
ATOM     11  C   UNL     1       2.532   3.273  -0.377  1.00  0.00     0.016 A 
ATOM     12  C   UNL     1       5.085   2.677  -1.315  1.00  0.00     0.010 A 
ATOM     13  C   UNL     1       3.042   3.961  -1.486  1.00  0.00     0.010 A 
ATOM     14  C   UNL     1       4.333   3.669  -1.938  1.00  0.00    -0.014 A 
BRANCH  14  15
ATOM     15  C   UNL     1       5.136   4.626  -2.722  1.00  0.00     0.031 A 
ATOM     16  C   UNL     1       6.114   5.462  -1.928  1.00  0.00     0.074 A 
ATOM     17  C   UNL     1       5.147   4.620  -4.064  1.00  0.00     0.049 A 
ATOM     18  N   UNL     1       7.077   6.232  -2.351  1.00  0.00    -0.248 NA
ATOM     19  C   UNL     1       6.057   5.343  -0.454  1.00  0.00     0.031 C 
ATOM     20  C   UNL     1       4.367   3.732  -4.926  1.00  0.00     0.029 A 
ATOM     21  N   UNL     1       5.878   5.382  -4.936  1.00  0.00    -0.354 N 
ATOM     22  C   UNL     1       7.761   6.628  -1.208  1.00  0.00     0.074 A 
ATOM     23  C   UNL     1       7.140   5.996  -0.074  1.00  0.00     0.031 C 
ATOM     24  C   UNL     1       4.647   4.021  -6.211  1.00  0.00     0.029 A 
ATOM     25  C   UNL     1       5.601   5.128  -6.256  1.00  0.00     0.049 A 
ATOM     26  H   UNL     1       6.540   6.050  -4.643  1.00  0.00     0.167 HD
ATOM     27  C   UNL     1       8.794   7.486  -1.103  1.00  0.00     0.031 A 
ATOM     28  C   UNL     1       6.053   5.750  -7.362  1.00  0.00     0.031 A 
ATOM     29  C   UNL     1       9.306   8.225  -2.214  1.00  0.00     0.049 A 
ATOM     30  C   UNL     1       7.041   6.878  -7.197  1.00  0.00     0.074 A 
ATOM     31  C   UNL     1      10.257   9.225  -2.212  1.00  0.00     0.029 A 
ATOM     32  N   UNL     1       8.868   8.070  -3.518  1.00  0.00    -0.354 N 
ATOM     33  N   UNL     1       7.646   7.289  -6.106  1.00  0.00    -0.248 NA
ATOM     34  C   UNL     1       7.396   7.637  -8.404  1.00  0.00     0.031 C 
ATOM     35  C   UNL     1      10.347   9.723  -3.513  1.00  0.00     0.029 A 
ATOM     36  C   UNL     1       9.502   8.985  -4.330  1.00  0.00     0.049 A 
ATOM     37  H   UNL     1       8.205   7.408  -3.819  1.00  0.00     0.167 HD
ATOM     38  C   UNL     1       8.461   8.346  -6.497  1.00  0.00     0.074 A 
ATOM     39  C   UNL     1       8.281   8.503  -7.926  1.00  0.00     0.031 C 
ATOM     40  C   UNL     1       9.286   9.118  -5.747  1.00  0.00     0.031 A 
BRANCH  27  41
ATOM     41  C   UNL     1       9.343   7.753   0.264  1.00  0.00    -0.014 A 
ATOM     42  C   UNL     1      10.248   6.862   0.864  1.00  0.00     0.010 A 
ATOM     43  C   UNL     1       8.982   8.934   0.934  1.00  0.00     0.010 A 
ATOM     44  C   UNL     1      10.802   7.162   2.110  1.00  0.00     0.020 A 
ATOM     45  C   UNL     1       9.544   9.244   2.173  1.00  0.00     0.020 A 
ATOM     46  C   UNL     1      10.459   8.360   2.748  1.00  0.00     0.054 A 
BRANCH  46  47
ATOM     47  S   UNL     1      11.250   8.753   4.331  1.00  0.00     0.124 S 
ATOM     48  O   UNL     1      10.865   7.612   5.159  1.00  0.00    -0.237 OA
ATOM     49  O   UNL     1      12.662   8.816   3.965  1.00  0.00    -0.237 OA
ATOM     50  O   UNL     1      10.646  10.026   4.716  1.00  0.00    -0.744 OA
ENDBRANCH  46  47
ENDBRANCH  27  41
BRANCH  28  51
ATOM     51  C   UNL     1       5.517   5.382  -8.700  1.00  0.00    -0.014 A 
ATOM     52  C   UNL     1       6.333   4.779  -9.672  1.00  0.00     0.010 A 
ATOM     53  C   UNL     1       4.169   5.647  -9.011  1.00  0.00     0.010 A 
ATOM     54  C   UNL     1       5.811   4.450 -10.929  1.00  0.00     0.020 A 
ATOM     55  C   UNL     1       3.639   5.301 -10.257  1.00  0.00     0.020 A 
ATOM     56  C   UNL     1       4.465   4.705 -11.210  1.00  0.00     0.054 A 
BRANCH  56  57
ATOM     57  S   UNL     1       3.807   4.245 -12.838  1.00  0.00     0.124 S 
ATOM     58  O   UNL     1       4.658   5.010 -13.744  1.00  0.00    -0.237 OA
ATOM     59  O   UNL     1       4.007   2.798 -12.851  1.00  0.00    -0.237 OA
ATOM     60  O   UNL     1       2.412   4.676 -12.780  1.00  0.00    -0.744 OA
ENDBRANCH  56  57
ENDBRANCH  28  51
BRANCH  40  61
ATOM     61  C   UNL     1      10.061  10.199  -6.439  1.00  0.00    -0.014 A 
ATOM     62  C   UNL     1       9.434  11.393  -6.831  1.00  0.00     0.010 A 
ATOM     63  C   UNL     1      11.456  10.069  -6.574  1.00  0.00     0.010 A 
ATOM     64  C   UNL     1      10.192  12.438  -7.362  1.00  0.00     0.020 A 
ATOM     65  C   UNL     1      12.219  11.122  -7.078  1.00  0.00     0.020 A 
ATOM     66  C   UNL     1      11.580  12.298  -7.473  1.00  0.00     0.054 A 
BRANCH  66  67
ATOM     67  S   UNL     1      12.537  13.690  -8.127  1.00  0.00     0.124 S 
ATOM     68  O   UNL     1      11.966  13.857  -9.461  1.00  0.00    -0.237 OA
ATOM     69  O   UNL     1      12.233  14.755  -7.175  1.00  0.00    -0.237 OA
ATOM     70  O   UNL     1      13.917  13.209  -8.100  1.00  0.00    -0.744 OA
ENDBRANCH  66  67
ENDBRANCH  40  61
ENDBRANCH  14  15
ENDBRANCH   7   9
ENDBRANCH   6   7
ENDBRANCH   5   6
ENDBRANCH   4   5
ENDBRANCH   3   4
ENDBRANCH   2   3
ENDBRANCH   1   2
BRANCH   1  71
ATOM     71  O   UNL     1       2.566  -2.695  -2.219  1.00  0.00    -0.377 OA
BRANCH  71  72
ATOM     72  C   UNL     1       3.877  -3.026  -1.823  1.00  0.00     0.188 C 
BRANCH  72  73
ATOM     73  C   UNL     1       5.026  -2.439  -2.690  1.00  0.00     0.188 C 
BRANCH  73  74
ATOM     74  O   UNL     1       4.791  -1.608  -3.817  1.00  0.00    -0.376 OA
BRANCH  74  75
ATOM     75  C   UNL     1       3.594  -1.702  -4.571  1.00  0.00     0.202 C 
BRANCH  75  76
ATOM     76  C   UNL     1       3.211  -3.045  -5.220  1.00  0.00     0.261 C 
BRANCH  76  77
ATOM     77  O   UNL     1       3.529  -4.193  -4.420  1.00  0.00    -0.463 OA
BRANCH  77  78
ATOM     78  C   UNL     1       4.669  -4.853  -4.728  1.00  0.00     0.309 C 
ATOM     79  O   UNL     1       5.337  -4.725  -5.750  1.00  0.00    -0.252 OA
BRANCH  78  80
ATOM     80  C   UNL     1       5.139  -5.649  -3.569  1.00  0.00     0.112 C 
ATOM     81  C   UNL     1       6.204  -6.686  -3.670  1.00  0.00     0.030 C 
ATOM     82  C   UNL     1       4.764  -7.078  -3.363  1.00  0.00     0.094 C 
BRANCH  82  83
ATOM     83  C   UNL     1       3.987  -7.812  -4.371  1.00  0.00     0.231 C 
ATOM     84  O   UNL     1       4.590  -8.345  -5.300  1.00  0.00    -0.274 OA
BRANCH  83  85
ATOM     85  N   UNL     1       2.631  -7.980  -4.183  1.00  0.00    -0.311 N 
ATOM     86  C   UNL     1       1.981  -8.993  -5.002  1.00  0.00     0.137 C 
ATOM     87  C   UNL     1       1.664  -7.352  -3.377  1.00  0.00     0.050 A 
ATOM     88  C   UNL     1       0.554  -9.180  -4.453  1.00  0.00     0.018 C 
ATOM     89  C   UNL     1       0.436  -8.001  -3.535  1.00  0.00     0.020 A 
ATOM     90  C   UNL     1       1.745  -6.243  -2.552  1.00  0.00     0.027 A 
ATOM     91  C   UNL     1      -0.451  -9.234  -5.607  1.00  0.00     0.014 C 
ATOM     92  C   UNL     1       0.402 -10.521  -3.703  1.00  0.00     0.014 C 
ATOM     93  C   UNL     1      -0.694  -7.571  -2.853  1.00  0.00     0.129 A 
ATOM     94  C   UNL     1       0.594  -5.787  -1.886  1.00  0.00     0.005 A 
ATOM     95  C   UNL     1      -0.481 -10.715  -5.947  1.00  0.00     0.001 C 
ATOM     96  C   UNL     1      -0.522 -11.369  -4.575  1.00  0.00     0.001 C 
ATOM     97  F   UNL     1      -1.852  -8.234  -2.971  1.00  0.00    -0.207 F 
ATOM     98  C   UNL     1      -0.624  -6.457  -2.029  1.00  0.00     0.040 A 
ENDBRANCH  83  85
ENDBRANCH  82  83
ENDBRANCH  78  80
ENDBRANCH  77  78
ENDBRANCH  76  77
ENDBRANCH  75  76
ENDBRANCH  74  75
ENDBRANCH  73  74
ENDBRANCH  72  73
ENDBRANCH  71  72
ENDBRANCH   1  71
TORSDOF 25
