REMARK SMILES C[NH+]1CCC2(CC1)OC[C@@H](C(=O)OCCOCCOCCOCCOC(=O)c1ccc(-c3c4nc(c(-c5ccc(S(=O)(=O)[O-])cc5)c5ccc([nH]5)c(-c5ccc(S(=O)(=O)[O-])cc5)c5nc(c(-c6ccc(S(=O)(=O)[O-])cc6)c6ccc3[nH]6)C=C5)C=C4)cc1)N2C(=O)c1ccc2ccccc2c1
REMARK SMILES IDX 20 1 19 2 18 3 17 4 16 5 15 6 14 7 13 8 11 9 12 10 10 11
REMARK SMILES IDX 1 12 2 13 3 14 7 15 4 17 6 18 5 19 8 20 88 21 9 22 89 23
REMARK SMILES IDX 90 24 91 25 92 26 100 27 93 28 99 29 94 30 98 31 95 32 97 33
REMARK SMILES IDX 96 34 21 35 22 36 23 37 24 38 25 39 26 40 27 41 28 42 29 43
REMARK SMILES IDX 87 44 30 45 86 46 31 47 32 48 33 49 80 50 34 51 85 52 79 53
REMARK SMILES IDX 81 54 35 55 84 56 78 57 77 58 36 60 66 61 47 62 65 63 48 64
REMARK SMILES IDX 51 65 64 66 82 67 49 68 50 69 63 71 83 72 52 73 37 74 38 75
REMARK SMILES IDX 46 76 39 77 45 78 40 79 41 80 42 81 43 82 44 83 67 84 68 85
REMARK SMILES IDX 76 86 69 87 75 88 70 89 71 90 72 91 73 92 74 93 53 94 54 95
REMARK SMILES IDX 62 96 55 97 61 98 56 99 57 100 58 101 59 102 60 103
REMARK H PARENT 2 16 81 59 51 70
REMARK Flexibility Score: inf
ROOT
ATOM      1  C   UNL     1       0.453  -3.328   7.401  1.00  0.00     0.188 C 
ENDROOT
BRANCH   1   2
ATOM      2  O   UNL     1       1.575  -3.589   6.563  1.00  0.00    -0.377 OA
BRANCH   2   3
ATOM      3  C   UNL     1       2.073  -4.909   6.409  1.00  0.00     0.188 C 
BRANCH   3   4
ATOM      4  C   UNL     1       3.401  -5.177   7.116  1.00  0.00     0.188 C 
BRANCH   4   5
ATOM      5  O   UNL     1       3.471  -4.947   8.512  1.00  0.00    -0.376 OA
BRANCH   5   6
ATOM      6  C   UNL     1       3.338  -3.621   9.019  1.00  0.00     0.202 C 
BRANCH   6   7
ATOM      7  C   UNL     1       4.029  -2.425   8.327  1.00  0.00     0.261 C 
BRANCH   7   8
ATOM      8  O   UNL     1       3.463  -2.011   7.050  1.00  0.00    -0.462 OA
BRANCH   8   9
ATOM      9  C   UNL     1       4.232  -2.279   5.971  1.00  0.00     0.331 C 
ATOM     10  O   UNL     1       5.367  -2.760   6.073  1.00  0.00    -0.250 OA
BRANCH   9  11
ATOM     11  C   UNL     1       3.687  -1.964   4.557  1.00  0.00     0.224 C 
ATOM     12  C   UNL     1       1.338   0.391  -0.814  1.00  0.00     0.332 C 
ATOM     13  N   UNL     1       0.985  -0.169   0.478  1.00  0.00    -0.337 N 
ATOM     14  C   UNL     1       1.529  -1.504   0.701  1.00  0.00     0.267 C 
ATOM     15  C   UNL     1       1.136   0.785   1.574  1.00  0.00     0.267 C 
ATOM     16  H   UNL     1      -0.020  -0.343   0.461  1.00  0.00     0.347 HD
ATOM     17  C   UNL     1       2.857  -1.560   1.431  1.00  0.00     0.120 C 
ATOM     18  C   UNL     1       2.410   0.721   2.398  1.00  0.00     0.120 C 
ATOM     19  C   UNL     1       2.928  -0.682   2.696  1.00  0.00     0.155 C 
ATOM     20  O   UNL     1       4.360  -0.479   2.844  1.00  0.00    -0.352 OA
ATOM     21  N   UNL     1       2.486  -1.333   3.965  1.00  0.00    -0.293 N 
ATOM     22  C   UNL     1       4.782  -1.027   4.074  1.00  0.00     0.200 C 
BRANCH  21  23
ATOM     23  C   UNL     1       1.270  -2.048   3.930  1.00  0.00     0.256 C 
ATOM     24  O   UNL     1       1.233  -3.264   3.751  1.00  0.00    -0.269 OA
BRANCH  23  25
ATOM     25  C   UNL     1      -0.021  -1.278   3.922  1.00  0.00     0.040 A 
ATOM     26  C   UNL     1      -0.196  -0.150   4.722  1.00  0.00     0.014 A 
ATOM     27  C   UNL     1      -1.034  -1.625   3.003  1.00  0.00     0.022 A 
ATOM     28  C   UNL     1      -1.286   0.704   4.493  1.00  0.00     0.009 A 
ATOM     29  C   UNL     1      -2.087  -0.732   2.701  1.00  0.00    -0.018 A 
ATOM     30  C   UNL     1      -2.192   0.468   3.439  1.00  0.00    -0.018 A 
ATOM     31  C   UNL     1      -2.979  -0.953   1.631  1.00  0.00     0.009 A 
ATOM     32  C   UNL     1      -3.155   1.424   3.062  1.00  0.00     0.009 A 
ATOM     33  C   UNL     1      -3.925   0.011   1.266  1.00  0.00     0.001 A 
ATOM     34  C   UNL     1      -4.004   1.204   1.975  1.00  0.00     0.001 A 
ENDBRANCH  23  25
ENDBRANCH  21  23
ENDBRANCH   9  11
ENDBRANCH   8   9
ENDBRANCH   7   8
ENDBRANCH   6   7
ENDBRANCH   5   6
ENDBRANCH   4   5
ENDBRANCH   3   4
ENDBRANCH   2   3
ENDBRANCH   1   2
BRANCH   1  35
ATOM     35  C   UNL     1      -0.287  -4.529   7.986  1.00  0.00     0.188 C 
BRANCH  35  36
ATOM     36  O   UNL     1      -0.918  -5.424   7.063  1.00  0.00    -0.376 OA
BRANCH  36  37
ATOM     37  C   UNL     1      -1.287  -4.923   5.779  1.00  0.00     0.202 C 
BRANCH  37  38
ATOM     38  C   UNL     1      -2.667  -4.274   5.719  1.00  0.00     0.261 C 
BRANCH  38  39
ATOM     39  O   UNL     1      -2.745  -3.091   6.528  1.00  0.00    -0.460 OA
BRANCH  39  40
ATOM     40  C   UNL     1      -3.268  -3.287   7.757  1.00  0.00     0.338 C 
ATOM     41  O   UNL     1      -3.691  -4.339   8.224  1.00  0.00    -0.246 OA
BRANCH  40  42
ATOM     42  C   UNL     1      -3.143  -2.062   8.561  1.00  0.00     0.060 A 
ATOM     43  C   UNL     1      -2.695  -2.193   9.881  1.00  0.00     0.016 A 
ATOM     44  C   UNL     1      -3.558  -0.821   8.067  1.00  0.00     0.016 A 
ATOM     45  C   UNL     1      -2.729  -1.099  10.735  1.00  0.00     0.010 A 
ATOM     46  C   UNL     1      -3.600   0.276   8.931  1.00  0.00     0.010 A 
ATOM     47  C   UNL     1      -3.234   0.125  10.279  1.00  0.00    -0.014 A 
BRANCH  47  48
ATOM     48  C   UNL     1      -3.533   1.177  11.276  1.00  0.00     0.031 A 
ATOM     49  C   UNL     1      -4.952   1.351  11.747  1.00  0.00     0.074 A 
ATOM     50  C   UNL     1      -2.536   1.899  11.817  1.00  0.00     0.049 A 
ATOM     51  N   UNL     1      -5.427   2.154  12.663  1.00  0.00    -0.248 NA
ATOM     52  C   UNL     1      -5.971   0.505  11.102  1.00  0.00     0.031 C 
ATOM     53  C   UNL     1      -1.121   1.777  11.466  1.00  0.00     0.029 A 
ATOM     54  N   UNL     1      -2.562   2.864  12.788  1.00  0.00    -0.354 N 
ATOM     55  C   UNL     1      -6.796   1.914  12.703  1.00  0.00     0.074 A 
ATOM     56  C   UNL     1      -7.082   0.919  11.693  1.00  0.00     0.031 C 
ATOM     57  C   UNL     1      -0.411   2.629  12.224  1.00  0.00     0.029 A 
ATOM     58  C   UNL     1      -1.323   3.375  13.088  1.00  0.00     0.049 A 
ATOM     59  H   UNL     1      -3.390   3.163  13.230  1.00  0.00     0.167 HD
ATOM     60  C   UNL     1      -7.729   2.467  13.514  1.00  0.00     0.031 A 
ATOM     61  C   UNL     1      -0.968   4.341  13.956  1.00  0.00     0.031 A 
ATOM     62  C   UNL     1      -7.434   3.469  14.506  1.00  0.00     0.049 A 
ATOM     63  C   UNL     1      -2.032   4.983  14.806  1.00  0.00     0.074 A 
ATOM     64  C   UNL     1      -8.301   4.091  15.387  1.00  0.00     0.029 A 
ATOM     65  N   UNL     1      -6.174   4.000  14.744  1.00  0.00    -0.354 N 
ATOM     66  N   UNL     1      -3.321   4.733  14.845  1.00  0.00    -0.248 NA
ATOM     67  C   UNL     1      -1.589   6.022  15.743  1.00  0.00     0.031 C 
ATOM     68  C   UNL     1      -7.577   5.045  16.111  1.00  0.00     0.029 A 
ATOM     69  C   UNL     1      -6.245   4.962  15.738  1.00  0.00     0.049 A 
ATOM     70  H   UNL     1      -5.351   3.732  14.275  1.00  0.00     0.167 HD
ATOM     71  C   UNL     1      -3.837   5.564  15.834  1.00  0.00     0.074 A 
ATOM     72  C   UNL     1      -2.717   6.303  16.381  1.00  0.00     0.031 C 
ATOM     73  C   UNL     1      -5.120   5.701  16.257  1.00  0.00     0.031 A 
BRANCH  60  74
ATOM     74  C   UNL     1      -9.161   2.031  13.333  1.00  0.00    -0.014 A 
ATOM     75  C   UNL     1      -9.585   0.734  13.679  1.00  0.00     0.010 A 
ATOM     76  C   UNL     1     -10.108   2.948  12.841  1.00  0.00     0.010 A 
ATOM     77  C   UNL     1     -10.919   0.353  13.502  1.00  0.00     0.020 A 
ATOM     78  C   UNL     1     -11.448   2.581  12.691  1.00  0.00     0.020 A 
ATOM     79  C   UNL     1     -11.843   1.280  13.009  1.00  0.00     0.054 A 
BRANCH  79  80
ATOM     80  S   UNL     1     -13.572   0.769  12.816  1.00  0.00     0.124 S 
ATOM     81  O   UNL     1     -13.490  -0.156  11.688  1.00  0.00    -0.237 OA
ATOM     82  O   UNL     1     -13.870   0.157  14.109  1.00  0.00    -0.237 OA
ATOM     83  O   UNL     1     -14.277   2.019  12.545  1.00  0.00    -0.744 OA
ENDBRANCH  79  80
ENDBRANCH  60  74
BRANCH  61  84
ATOM     84  C   UNL     1       0.457   4.759  14.059  1.00  0.00    -0.014 A 
ATOM     85  C   UNL     1       1.205   4.505  15.222  1.00  0.00     0.010 A 
ATOM     86  C   UNL     1       1.077   5.414  12.979  1.00  0.00     0.010 A 
ATOM     87  C   UNL     1       2.539   4.915  15.310  1.00  0.00     0.020 A 
ATOM     88  C   UNL     1       2.419   5.795  13.049  1.00  0.00     0.020 A 
ATOM     89  C   UNL     1       3.138   5.553  14.220  1.00  0.00     0.054 A 
BRANCH  89  90
ATOM     90  S   UNL     1       4.886   6.026  14.335  1.00  0.00     0.124 S 
ATOM     91  O   UNL     1       4.838   7.142  15.274  1.00  0.00    -0.237 OA
ATOM     92  O   UNL     1       5.509   4.803  14.834  1.00  0.00    -0.237 OA
ATOM     93  O   UNL     1       5.235   6.378  12.960  1.00  0.00    -0.744 OA
ENDBRANCH  89  90
ENDBRANCH  61  84
BRANCH  73  94
ATOM     94  C   UNL     1      -5.367   6.661  17.393  1.00  0.00    -0.014 A 
ATOM     95  C   UNL     1      -5.204   8.050  17.234  1.00  0.00     0.010 A 
ATOM     96  C   UNL     1      -5.772   6.160  18.644  1.00  0.00     0.010 A 
ATOM     97  C   UNL     1      -5.372   8.910  18.323  1.00  0.00     0.020 A 
ATOM     98  C   UNL     1      -5.979   7.020  19.725  1.00  0.00     0.020 A 
ATOM     99  C   UNL     1      -5.750   8.388  19.564  1.00  0.00     0.054 A 
BRANCH  99 100
ATOM    100  S   UNL     1      -5.947   9.521  20.965  1.00  0.00     0.124 S 
ATOM    101  O   UNL     1      -4.561   9.858  21.279  1.00  0.00    -0.237 OA
ATOM    102  O   UNL     1      -6.743  10.604  20.392  1.00  0.00    -0.237 OA
ATOM    103  O   UNL     1      -6.636   8.715  21.970  1.00  0.00    -0.744 OA
ENDBRANCH  99 100
ENDBRANCH  73  94
ENDBRANCH  47  48
ENDBRANCH  40  42
ENDBRANCH  39  40
ENDBRANCH  38  39
ENDBRANCH  37  38
ENDBRANCH  36  37
ENDBRANCH  35  36
ENDBRANCH   1  35
TORSDOF 25
