REMARK SMILES CC[C@H](C)[C@@H](NC(=O)c1csc(NC(C)=O)n1)C(=O)OCCOCCOCCOCCOC(=O)c1ccc(-c2c3nc(c(-c4ccc(S(=O)(=O)[O-])cc4)c4ccc([nH]4)c(-c4ccc(S(=O)(=O)[O-])cc4)c4nc(c(-c5ccc(S(=O)(=O)[O-])cc5)c5ccc2[nH]5)C=C4)C=C3)cc1
REMARK SMILES IDX 26 1 25 2 24 3 23 4 22 5 21 6 20 7 18 8 19 9 5 10 3 11 4 12
REMARK SMILES IDX 2 13 1 14 6 15 7 16 8 18 9 19 10 20 17 21 11 22 12 23 13 24
REMARK SMILES IDX 14 25 15 27 16 28 27 29 28 30 29 31 30 32 31 33 32 34 33 35
REMARK SMILES IDX 34 36 35 37 36 38 94 39 37 40 93 41 38 42 39 43 40 44 87 45
REMARK SMILES IDX 41 46 92 47 86 48 88 49 42 50 91 51 85 52 84 53 43 55 73 56
REMARK SMILES IDX 54 57 72 58 55 59 58 60 71 61 89 62 56 63 57 64 70 66 90 67
REMARK SMILES IDX 59 68 44 69 45 70 53 71 46 72 52 73 47 74 48 75 49 76 50 77
REMARK SMILES IDX 51 78 74 79 75 80 83 81 76 82 82 83 77 84 78 85 79 86 80 87
REMARK SMILES IDX 81 88 60 89 61 90 69 91 62 92 68 93 63 94 64 95 65 96 66 97
REMARK SMILES IDX 67 98
REMARK H PARENT 6 17 13 26 88 54 58 65
REMARK Flexibility Score: inf
ROOT
ATOM      1  O   UNL     1       2.619   3.272   4.418  1.00  0.00    -0.377 OA
ENDROOT
BRANCH   1   2
ATOM      2  C   UNL     1       1.261   3.011   4.110  1.00  0.00     0.188 C 
BRANCH   2   3
ATOM      3  C   UNL     1       0.335   3.129   5.333  1.00  0.00     0.188 C 
BRANCH   3   4
ATOM      4  O   UNL     1       0.684   2.418   6.526  1.00  0.00    -0.376 OA
BRANCH   4   5
ATOM      5  C   UNL     1       2.055   2.198   6.779  1.00  0.00     0.202 C 
BRANCH   5   6
ATOM      6  C   UNL     1       2.725   0.995   6.091  1.00  0.00     0.261 C 
BRANCH   6   7
ATOM      7  O   UNL     1       2.072   0.185   5.087  1.00  0.00    -0.462 OA
BRANCH   7   8
ATOM      8  C   UNL     1       0.766  -0.185   5.058  1.00  0.00     0.329 C 
ATOM      9  O   UNL     1      -0.168   0.266   5.709  1.00  0.00    -0.250 OA
BRANCH   8  10
ATOM     10  C   UNL     1       0.545  -1.288   4.013  1.00  0.00     0.195 C 
BRANCH  10  11
ATOM     11  C   UNL     1       0.734  -0.662   2.570  1.00  0.00     0.019 C 
ATOM     12  C   UNL     1       0.774  -1.697   1.438  1.00  0.00     0.010 C 
BRANCH  11  13
ATOM     13  C   UNL     1      -0.256   0.498   2.242  1.00  0.00     0.002 C 
ATOM     14  C   UNL     1      -1.369   0.235   1.236  1.00  0.00     0.004 C 
ENDBRANCH  11  13
ENDBRANCH  10  11
BRANCH  10  15
ATOM     15  N   UNL     1       1.458  -2.437   4.219  1.00  0.00    -0.337 N 
ATOM     16  C   UNL     1       1.898  -3.117   5.335  1.00  0.00     0.271 C 
ATOM     17  H   UNL     1       1.831  -2.790   3.379  1.00  0.00     0.164 HD
ATOM     18  O   UNL     1       2.396  -4.226   5.131  1.00  0.00    -0.267 OA
BRANCH  16  19
ATOM     19  C   UNL     1       1.913  -2.523   6.679  1.00  0.00     0.141 A 
ATOM     20  C   UNL     1       2.969  -2.714   7.557  1.00  0.00     0.102 A 
ATOM     21  N   UNL     1       0.909  -1.714   7.199  1.00  0.00    -0.215 NA
ATOM     22  S   UNL     1       2.736  -1.795   8.986  1.00  0.00    -0.104 S 
ATOM     23  C   UNL     1       1.306  -1.155   8.322  1.00  0.00     0.190 A 
BRANCH  23  24
ATOM     24  N   UNL     1       0.664  -0.047   8.828  1.00  0.00    -0.302 N 
ATOM     25  C   UNL     1       1.075   0.744   9.879  1.00  0.00     0.223 C 
ATOM     26  H   UNL     1      -0.180   0.208   8.390  1.00  0.00     0.172 HD
ATOM     27  C   UNL     1       0.277   2.024  10.012  1.00  0.00     0.114 C 
ATOM     28  O   UNL     1       2.012   0.537  10.644  1.00  0.00    -0.275 OA
ENDBRANCH  23  24
ENDBRANCH  16  19
ENDBRANCH  10  15
ENDBRANCH   8  10
ENDBRANCH   7   8
ENDBRANCH   6   7
ENDBRANCH   5   6
ENDBRANCH   4   5
ENDBRANCH   3   4
ENDBRANCH   2   3
ENDBRANCH   1   2
BRANCH   1  29
ATOM     29  C   UNL     1       3.075   4.605   4.298  1.00  0.00     0.188 C 
BRANCH  29  30
ATOM     30  C   UNL     1       2.153   5.719   4.807  1.00  0.00     0.188 C 
BRANCH  30  31
ATOM     31  O   UNL     1       0.902   5.757   4.117  1.00  0.00    -0.376 OA
BRANCH  31  32
ATOM     32  C   UNL     1       0.758   6.728   3.087  1.00  0.00     0.202 C 
BRANCH  32  33
ATOM     33  C   UNL     1       1.376   6.330   1.737  1.00  0.00     0.261 C 
BRANCH  33  34
ATOM     34  O   UNL     1       2.807   6.207   1.700  1.00  0.00    -0.460 OA
BRANCH  34  35
ATOM     35  C   UNL     1       3.557   7.220   2.189  1.00  0.00     0.338 C 
ATOM     36  O   UNL     1       3.162   8.312   2.557  1.00  0.00    -0.246 OA
BRANCH  35  37
ATOM     37  C   UNL     1       4.918   6.692   2.441  1.00  0.00     0.060 A 
ATOM     38  C   UNL     1       5.495   6.910   3.700  1.00  0.00     0.016 A 
ATOM     39  C   UNL     1       5.594   5.942   1.474  1.00  0.00     0.016 A 
ATOM     40  C   UNL     1       6.769   6.416   3.979  1.00  0.00     0.010 A 
ATOM     41  C   UNL     1       6.883   5.477   1.741  1.00  0.00     0.010 A 
ATOM     42  C   UNL     1       7.490   5.750   2.978  1.00  0.00    -0.014 A 
BRANCH  42  43
ATOM     43  C   UNL     1       8.960   5.621   3.112  1.00  0.00     0.031 A 
ATOM     44  C   UNL     1       9.793   6.787   2.650  1.00  0.00     0.074 A 
ATOM     45  C   UNL     1       9.544   4.523   3.623  1.00  0.00     0.049 A 
ATOM     46  N   UNL     1      11.091   6.934   2.651  1.00  0.00    -0.248 NA
ATOM     47  C   UNL     1       9.056   7.948   2.118  1.00  0.00     0.031 C 
ATOM     48  C   UNL     1       8.847   3.346   4.138  1.00  0.00     0.029 A 
ATOM     49  N   UNL     1      10.874   4.225   3.786  1.00  0.00    -0.354 N 
ATOM     50  C   UNL     1      11.324   8.200   2.127  1.00  0.00     0.074 A 
ATOM     51  C   UNL     1      10.039   8.772   1.795  1.00  0.00     0.031 C 
ATOM     52  C   UNL     1       9.760   2.447   4.552  1.00  0.00     0.029 A 
ATOM     53  C   UNL     1      11.102   2.975   4.309  1.00  0.00     0.049 A 
ATOM     54  H   UNL     1      11.598   4.850   3.550  1.00  0.00     0.167 HD
ATOM     55  C   UNL     1      12.502   8.835   1.935  1.00  0.00     0.031 A 
ATOM     56  C   UNL     1      12.263   2.331   4.547  1.00  0.00     0.031 A 
ATOM     57  C   UNL     1      13.781   8.252   2.221  1.00  0.00     0.049 A 
ATOM     58  C   UNL     1      13.568   3.025   4.242  1.00  0.00     0.074 A 
ATOM     59  C   UNL     1      15.036   8.809   2.058  1.00  0.00     0.029 A 
ATOM     60  N   UNL     1      13.968   6.969   2.711  1.00  0.00    -0.354 N 
ATOM     61  N   UNL     1      13.772   4.237   3.782  1.00  0.00    -0.248 NA
ATOM     62  C   UNL     1      14.801   2.263   4.493  1.00  0.00     0.031 C 
ATOM     63  C   UNL     1      15.986   7.841   2.402  1.00  0.00     0.029 A 
ATOM     64  C   UNL     1      15.320   6.704   2.831  1.00  0.00     0.049 A 
ATOM     65  H   UNL     1      13.246   6.340   2.939  1.00  0.00     0.167 HD
ATOM     66  C   UNL     1      15.154   4.393   3.719  1.00  0.00     0.074 A 
ATOM     67  C   UNL     1      15.736   3.155   4.194  1.00  0.00     0.031 C 
ATOM     68  C   UNL     1      15.878   5.465   3.310  1.00  0.00     0.031 A 
BRANCH  55  69
ATOM     69  C   UNL     1      12.447  10.216   1.347  1.00  0.00    -0.014 A 
ATOM     70  C   UNL     1      11.996  11.311   2.107  1.00  0.00     0.010 A 
ATOM     71  C   UNL     1      12.851  10.422   0.016  1.00  0.00     0.010 A 
ATOM     72  C   UNL     1      11.914  12.582   1.533  1.00  0.00     0.020 A 
ATOM     73  C   UNL     1      12.793  11.696  -0.554  1.00  0.00     0.020 A 
ATOM     74  C   UNL     1      12.308  12.765   0.204  1.00  0.00     0.054 A 
BRANCH  74  75
ATOM     75  S   UNL     1      12.204  14.427  -0.514  1.00  0.00     0.124 S 
ATOM     76  O   UNL     1      10.764  14.577  -0.714  1.00  0.00    -0.237 OA
ATOM     77  O   UNL     1      12.783  15.266   0.532  1.00  0.00    -0.237 OA
ATOM     78  O   UNL     1      12.995  14.326  -1.737  1.00  0.00    -0.744 OA
ENDBRANCH  74  75
ENDBRANCH  55  69
BRANCH  56  79
ATOM     79  C   UNL     1      12.255   0.943   5.088  1.00  0.00    -0.014 A 
ATOM     80  C   UNL     1      12.698   0.680   6.397  1.00  0.00     0.010 A 
ATOM     81  C   UNL     1      11.826  -0.130   4.285  1.00  0.00     0.010 A 
ATOM     82  C   UNL     1      12.730  -0.630   6.886  1.00  0.00     0.020 A 
ATOM     83  C   UNL     1      11.834  -1.438   4.779  1.00  0.00     0.020 A 
ATOM     84  C   UNL     1      12.298  -1.681   6.072  1.00  0.00     0.054 A 
BRANCH  84  85
ATOM     85  S   UNL     1      12.310  -3.369   6.739  1.00  0.00     0.124 S 
ATOM     86  O   UNL     1      13.731  -3.698   6.708  1.00  0.00    -0.237 OA
ATOM     87  O   UNL     1      11.730  -3.188   8.068  1.00  0.00    -0.237 OA
ATOM     88  O   UNL     1      11.474  -4.112   5.799  1.00  0.00    -0.744 OA
ENDBRANCH  84  85
ENDBRANCH  56  79
BRANCH  68  89
ATOM     89  C   UNL     1      17.377   5.368   3.390  1.00  0.00    -0.014 A 
ATOM     90  C   UNL     1      18.108   4.591   2.474  1.00  0.00     0.010 A 
ATOM     91  C   UNL     1      18.068   6.130   4.351  1.00  0.00     0.010 A 
ATOM     92  C   UNL     1      19.504   4.559   2.535  1.00  0.00     0.020 A 
ATOM     93  C   UNL     1      19.464   6.119   4.398  1.00  0.00     0.020 A 
ATOM     94  C   UNL     1      20.173   5.323   3.497  1.00  0.00     0.054 A 
BRANCH  94  95
ATOM     95  S   UNL     1      21.987   5.307   3.523  1.00  0.00     0.124 S 
ATOM     96  O   UNL     1      22.270   4.008   4.128  1.00  0.00    -0.237 OA
ATOM     97  O   UNL     1      22.330   5.429   2.108  1.00  0.00    -0.237 OA
ATOM     98  O   UNL     1      22.332   6.466   4.343  1.00  0.00    -0.744 OA
ENDBRANCH  94  95
ENDBRANCH  68  89
ENDBRANCH  42  43
ENDBRANCH  35  37
ENDBRANCH  34  35
ENDBRANCH  33  34
ENDBRANCH  32  33
ENDBRANCH  31  32
ENDBRANCH  30  31
ENDBRANCH  29  30
ENDBRANCH   1  29
TORSDOF 28
