REMARK SMILES CC(C)Cc1ccc(S(=O)(=O)Nc2cnc(N3CCCC3)c(C(=O)OCCOCCOCCOCCOC(=O)c3ccc(-c4c5nc(c(-c6ccc(S(=O)(=O)[O-])cc6)c6ccc([nH]6)c(-c6ccc(S(=O)(=O)[O-])cc6)c6nc(c(-c7ccc(S(=O)(=O)[O-])cc7)c7ccc4[nH]7)C=C6)C=C5)cc3)c2)cc1
REMARK SMILES IDX 30 1 29 2 28 3 27 4 26 5 25 6 23 7 24 8 22 9 13 10 14 11
REMARK SMILES IDX 100 12 15 13 16 14 12 15 9 17 10 18 11 19 8 20 5 21 6 22
REMARK SMILES IDX 102 23 7 24 101 25 4 26 2 27 1 28 3 29 17 30 18 31 21 32
REMARK SMILES IDX 19 33 20 34 31 35 32 36 33 37 34 38 35 39 36 40 37 41 38 42
REMARK SMILES IDX 39 43 40 44 41 45 99 46 42 47 98 48 43 49 44 50 45 51 92 52
REMARK SMILES IDX 46 53 97 54 91 55 93 56 47 57 96 58 90 59 89 60 48 62 78 63
REMARK SMILES IDX 59 64 77 65 60 66 63 67 76 68 94 69 61 70 62 71 75 73 95 74
REMARK SMILES IDX 64 75 49 76 50 77 58 78 51 79 57 80 52 81 53 82 54 83 55 84
REMARK SMILES IDX 56 85 79 86 80 87 88 88 81 89 87 90 82 91 83 92 84 93 85 94
REMARK SMILES IDX 86 95 65 96 66 97 74 98 67 99 73 100 68 101 69 102 70 103
REMARK SMILES IDX 71 104 72 105
REMARK H PARENT 12 16 93 61 63 72
REMARK Flexibility Score: inf
ROOT
ATOM      1  C   UNL     1       0.542  -1.344   5.415  1.00  0.00     0.188 C 
ENDROOT
BRANCH   1   2
ATOM      2  C   UNL     1       0.200  -2.723   4.818  1.00  0.00     0.188 C 
BRANCH   2   3
ATOM      3  O   UNL     1       1.136  -3.352   3.969  1.00  0.00    -0.376 OA
BRANCH   3   4
ATOM      4  C   UNL     1       1.393  -2.839   2.675  1.00  0.00     0.202 C 
BRANCH   4   5
ATOM      5  C   UNL     1       0.631  -1.687   2.002  1.00  0.00     0.261 C 
BRANCH   5   6
ATOM      6  O   UNL     1      -0.252  -0.890   2.784  1.00  0.00    -0.460 OA
BRANCH   6   7
ATOM      7  C   UNL     1      -1.578  -1.113   2.657  1.00  0.00     0.342 C 
ATOM      8  O   UNL     1      -2.115  -1.901   1.900  1.00  0.00    -0.246 OA
BRANCH   7   9
ATOM      9  C   UNL     1      -2.274  -0.244   3.632  1.00  0.00     0.104 A 
ATOM     10  C   UNL     1      -2.713   1.990   4.391  1.00  0.00     0.068 A 
ATOM     11  C   UNL     1      -3.744   1.447   5.148  1.00  0.00     0.140 A 
ATOM     12  C   UNL     1      -1.912   1.108   3.693  1.00  0.00     0.048 A 
ATOM     13  N   UNL     1      -4.019   0.116   5.227  1.00  0.00    -0.236 NA
ATOM     14  C   UNL     1      -3.294  -0.733   4.459  1.00  0.00     0.143 A 
BRANCH  10  15
ATOM     15  N   UNL     1      -2.438   3.395   4.353  1.00  0.00    -0.278 N 
ATOM     16  H   UNL     1      -2.115   3.843   5.168  1.00  0.00     0.180 HD
BRANCH  15  17
ATOM     17  S   UNL     1      -2.656   4.315   2.925  1.00  0.00     0.261 S 
ATOM     18  O   UNL     1      -1.629   5.335   2.995  1.00  0.00    -0.201 OA
ATOM     19  O   UNL     1      -4.054   4.691   2.917  1.00  0.00    -0.201 OA
BRANCH  17  20
ATOM     20  C   UNL     1      -2.365   3.339   1.468  1.00  0.00     0.087 A 
ATOM     21  C   UNL     1      -1.647   1.687  -0.689  1.00  0.00    -0.048 A 
ATOM     22  C   UNL     1      -1.081   2.960  -0.548  1.00  0.00     0.005 A 
ATOM     23  C   UNL     1      -2.693   1.323   0.172  1.00  0.00     0.005 A 
ATOM     24  C   UNL     1      -1.408   3.767   0.545  1.00  0.00     0.022 A 
ATOM     25  C   UNL     1      -3.091   2.174   1.212  1.00  0.00     0.022 A 
BRANCH  21  26
ATOM     26  C   UNL     1      -1.146   0.713  -1.740  1.00  0.00     0.038 C 
BRANCH  26  27
ATOM     27  C   UNL     1       0.391   0.680  -1.939  1.00  0.00    -0.013 C 
ATOM     28  C   UNL     1       1.136   0.379  -0.643  1.00  0.00     0.008 C 
ATOM     29  C   UNL     1       0.778  -0.393  -2.962  1.00  0.00     0.008 C 
ENDBRANCH  26  27
ENDBRANCH  21  26
ENDBRANCH  17  20
ENDBRANCH  15  17
ENDBRANCH  10  15
BRANCH  14  30
ATOM     30  N   UNL     1      -3.531  -2.066   4.609  1.00  0.00    -0.356 N 
ATOM     31  C   UNL     1      -3.045  -2.861   5.713  1.00  0.00     0.118 C 
ATOM     32  C   UNL     1      -4.522  -2.787   3.837  1.00  0.00     0.118 C 
ATOM     33  C   UNL     1      -3.003  -4.243   5.064  1.00  0.00     0.023 C 
ATOM     34  C   UNL     1      -4.282  -4.257   4.228  1.00  0.00     0.023 C 
ENDBRANCH  14  30
ENDBRANCH   7   9
ENDBRANCH   6   7
ENDBRANCH   5   6
ENDBRANCH   4   5
ENDBRANCH   3   4
ENDBRANCH   2   3
ENDBRANCH   1   2
BRANCH   1  35
ATOM     35  O   UNL     1       1.585  -0.679   4.733  1.00  0.00    -0.377 OA
BRANCH  35  36
ATOM     36  C   UNL     1       2.917  -0.998   5.116  1.00  0.00     0.188 C 
BRANCH  36  37
ATOM     37  C   UNL     1       3.246  -2.368   5.759  1.00  0.00     0.188 C 
BRANCH  37  38
ATOM     38  O   UNL     1       2.301  -2.827   6.719  1.00  0.00    -0.376 OA
BRANCH  38  39
ATOM     39  C   UNL     1       2.595  -2.684   8.099  1.00  0.00     0.202 C 
BRANCH  39  40
ATOM     40  C   UNL     1       2.641  -1.254   8.655  1.00  0.00     0.261 C 
BRANCH  40  41
ATOM     41  O   UNL     1       3.587  -0.373   8.039  1.00  0.00    -0.460 OA
BRANCH  41  42
ATOM     42  C   UNL     1       4.885  -0.745   8.046  1.00  0.00     0.338 C 
ATOM     43  O   UNL     1       5.366  -1.734   8.571  1.00  0.00    -0.246 OA
BRANCH  42  44
ATOM     44  C   UNL     1       5.599   0.150   7.115  1.00  0.00     0.060 A 
ATOM     45  C   UNL     1       6.285  -0.402   6.024  1.00  0.00     0.016 A 
ATOM     46  C   UNL     1       5.560   1.532   7.307  1.00  0.00     0.016 A 
ATOM     47  C   UNL     1       6.970   0.429   5.140  1.00  0.00     0.010 A 
ATOM     48  C   UNL     1       6.271   2.361   6.441  1.00  0.00     0.010 A 
ATOM     49  C   UNL     1       7.011   1.808   5.381  1.00  0.00    -0.014 A 
BRANCH  49  50
ATOM     50  C   UNL     1       8.037   2.638   4.713  1.00  0.00     0.031 A 
ATOM     51  C   UNL     1       9.336   2.849   5.442  1.00  0.00     0.074 A 
ATOM     52  C   UNL     1       7.827   3.196   3.509  1.00  0.00     0.049 A 
ATOM     53  N   UNL     1      10.353   3.604   5.126  1.00  0.00    -0.248 NA
ATOM     54  C   UNL     1       9.503   2.108   6.706  1.00  0.00     0.031 C 
ATOM     55  C   UNL     1       6.634   3.015   2.684  1.00  0.00     0.029 A 
ATOM     56  N   UNL     1       8.620   4.043   2.778  1.00  0.00    -0.354 N 
ATOM     57  C   UNL     1      11.272   3.442   6.156  1.00  0.00     0.074 A 
ATOM     58  C   UNL     1      10.684   2.539   7.118  1.00  0.00     0.031 C 
ATOM     59  C   UNL     1       6.769   3.746   1.562  1.00  0.00     0.029 A 
ATOM     60  C   UNL     1       8.036   4.476   1.612  1.00  0.00     0.049 A 
ATOM     61  H   UNL     1       9.523   4.316   3.061  1.00  0.00     0.167 HD
ATOM     62  C   UNL     1      12.498   3.998   6.290  1.00  0.00     0.031 A 
ATOM     63  C   UNL     1       8.466   5.379   0.708  1.00  0.00     0.031 A 
ATOM     64  C   UNL     1      13.065   4.917   5.342  1.00  0.00     0.049 A 
ATOM     65  C   UNL     1       9.798   6.055   0.920  1.00  0.00     0.074 A 
ATOM     66  C   UNL     1      14.299   5.538   5.379  1.00  0.00     0.029 A 
ATOM     67  N   UNL     1      12.428   5.353   4.189  1.00  0.00    -0.354 N 
ATOM     68  N   UNL     1      10.665   5.885   1.890  1.00  0.00    -0.248 NA
ATOM     69  C   UNL     1      10.211   7.040  -0.089  1.00  0.00     0.031 C 
ATOM     70  C   UNL     1      14.384   6.398   4.280  1.00  0.00     0.029 A 
ATOM     71  C   UNL     1      13.234   6.256   3.519  1.00  0.00     0.049 A 
ATOM     72  H   UNL     1      11.535   5.063   3.893  1.00  0.00     0.167 HD
ATOM     73  C   UNL     1      11.742   6.714   1.589  1.00  0.00     0.074 A 
ATOM     74  C   UNL     1      11.418   7.380   0.343  1.00  0.00     0.031 C 
ATOM     75  C   UNL     1      12.897   6.902   2.275  1.00  0.00     0.031 A 
BRANCH  62  76
ATOM     76  C   UNL     1      13.277   3.661   7.533  1.00  0.00    -0.014 A 
ATOM     77  C   UNL     1      13.803   2.373   7.741  1.00  0.00     0.010 A 
ATOM     78  C   UNL     1      13.495   4.654   8.505  1.00  0.00     0.010 A 
ATOM     79  C   UNL     1      14.493   2.073   8.918  1.00  0.00     0.020 A 
ATOM     80  C   UNL     1      14.211   4.367   9.669  1.00  0.00     0.020 A 
ATOM     81  C   UNL     1      14.690   3.072   9.876  1.00  0.00     0.054 A 
BRANCH  81  82
ATOM     82  S   UNL     1      15.601   2.658  11.389  1.00  0.00     0.124 S 
ATOM     83  O   UNL     1      14.639   1.821  12.100  1.00  0.00    -0.237 OA
ATOM     84  O   UNL     1      16.777   1.962  10.873  1.00  0.00    -0.237 OA
ATOM     85  O   UNL     1      15.867   3.957  12.001  1.00  0.00    -0.744 OA
ENDBRANCH  81  82
ENDBRANCH  62  76
BRANCH  63  86
ATOM     86  C   UNL     1       7.621   5.710  -0.474  1.00  0.00    -0.014 A 
ATOM     87  C   UNL     1       8.022   5.337  -1.769  1.00  0.00     0.010 A 
ATOM     88  C   UNL     1       6.405   6.400  -0.309  1.00  0.00     0.010 A 
ATOM     89  C   UNL     1       7.230   5.656  -2.876  1.00  0.00     0.020 A 
ATOM     90  C   UNL     1       5.597   6.695  -1.411  1.00  0.00     0.020 A 
ATOM     91  C   UNL     1       6.019   6.328  -2.689  1.00  0.00     0.054 A 
BRANCH  91  92
ATOM     92  S   UNL     1       4.978   6.672  -4.136  1.00  0.00     0.124 S 
ATOM     93  O   UNL     1       5.734   7.720  -4.813  1.00  0.00    -0.237 OA
ATOM     94  O   UNL     1       4.944   5.378  -4.812  1.00  0.00    -0.237 OA
ATOM     95  O   UNL     1       3.707   7.093  -3.551  1.00  0.00    -0.744 OA
ENDBRANCH  91  92
ENDBRANCH  63  86
BRANCH  75  96
ATOM     96  C   UNL     1      13.930   7.821   1.675  1.00  0.00    -0.014 A 
ATOM     97  C   UNL     1      13.751   9.215   1.652  1.00  0.00     0.010 A 
ATOM     98  C   UNL     1      15.139   7.278   1.201  1.00  0.00     0.010 A 
ATOM     99  C   UNL     1      14.753  10.046   1.142  1.00  0.00     0.020 A 
ATOM    100  C   UNL     1      16.155   8.107   0.720  1.00  0.00     0.020 A 
ATOM    101  C   UNL     1      15.950   9.487   0.683  1.00  0.00     0.054 A 
BRANCH 101 102
ATOM    102  S   UNL     1      17.257  10.591   0.081  1.00  0.00     0.124 S 
ATOM    103  O   UNL     1      16.711  11.042  -1.196  1.00  0.00    -0.237 OA
ATOM    104  O   UNL     1      17.326  11.606   1.130  1.00  0.00    -0.237 OA
ATOM    105  O   UNL     1      18.429   9.723  -0.015  1.00  0.00    -0.744 OA
ENDBRANCH 101 102
ENDBRANCH  75  96
ENDBRANCH  49  50
ENDBRANCH  42  44
ENDBRANCH  41  42
ENDBRANCH  40  41
ENDBRANCH  39  40
ENDBRANCH  38  39
ENDBRANCH  37  38
ENDBRANCH  36  37
ENDBRANCH  35  36
ENDBRANCH   1  35
TORSDOF 29
