REMARK SMILES O=C(C[C@H](NC(=O)[C@]12C[C@H]3C[C@H](C[C@H](C3)C1)C2)c1cccc([N+](=O)[O-])c1)OCCOCCOCCOCCOC(=O)c1ccc(-c2c3nc(c(-c4ccc(S(=O)(=O)[O-])cc4)c4ccc([nH]4)c(-c4ccc(S(=O)(=O)[O-])cc4)c4nc(c(-c5ccc(S(=O)(=O)[O-])cc5)c5ccc2[nH]5)C=C4)C=C3)cc1
REMARK SMILES IDX 33 1 32 2 31 3 30 4 29 5 28 6 27 7 2 8 1 9 3 10 4 11 18 12
REMARK SMILES IDX 19 13 26 14 20 15 22 16 21 17 23 18 24 19 25 20 5 21 6 22
REMARK SMILES IDX 7 24 8 25 9 26 16 27 17 28 10 29 14 30 12 31 11 32 15 33
REMARK SMILES IDX 13 34 34 35 35 36 36 37 37 38 38 39 39 40 40 41 41 42 42 43
REMARK SMILES IDX 43 44 101 45 44 46 100 47 45 48 46 49 47 50 94 51 48 52
REMARK SMILES IDX 99 53 93 54 95 55 49 56 98 57 92 58 91 59 50 61 80 62 61 63
REMARK SMILES IDX 79 64 62 65 65 66 78 67 96 68 63 69 64 70 77 72 97 73 66 74
REMARK SMILES IDX 51 75 52 76 60 77 53 78 59 79 54 80 55 81 56 82 57 83 58 84
REMARK SMILES IDX 81 85 82 86 90 87 83 88 89 89 84 90 85 91 86 92 87 93 88 94
REMARK SMILES IDX 67 95 68 96 76 97 69 98 75 99 70 100 71 101 72 102 73 103
REMARK SMILES IDX 74 104
REMARK H PARENT 5 23 95 60 65 71
REMARK Flexibility Score: inf
ROOT
ATOM      1  O   UNL     1       5.447   2.924   4.068  1.00  0.00    -0.377 OA
ENDROOT
BRANCH   1   2
ATOM      2  C   UNL     1       5.075   1.836   3.244  1.00  0.00     0.188 C 
BRANCH   2   3
ATOM      3  C   UNL     1       5.280   2.007   1.737  1.00  0.00     0.188 C 
BRANCH   3   4
ATOM      4  O   UNL     1       4.807   3.128   1.000  1.00  0.00    -0.376 OA
BRANCH   4   5
ATOM      5  C   UNL     1       3.490   3.639   0.865  1.00  0.00     0.202 C 
BRANCH   5   6
ATOM      6  C   UNL     1       2.235   2.772   0.935  1.00  0.00     0.261 C 
BRANCH   6   7
ATOM      7  O   UNL     1       2.428   1.377   1.149  1.00  0.00    -0.463 OA
BRANCH   7   8
ATOM      8  C   UNL     1       2.902   0.539   0.202  1.00  0.00     0.308 C 
ATOM      9  O   UNL     1       2.846  -0.672   0.393  1.00  0.00    -0.252 OA
BRANCH   8  10
ATOM     10  C   UNL     1       3.696   1.125  -0.939  1.00  0.00     0.152 C 
BRANCH  10  11
ATOM     11  C   UNL     1       3.172   0.919  -2.341  1.00  0.00     0.123 C 
BRANCH  11  12
ATOM     12  C   UNL     1       4.104   1.598  -3.360  1.00  0.00    -0.018 A 
ATOM     13  C   UNL     1       4.795   0.875  -4.331  1.00  0.00     0.006 A 
ATOM     14  C   UNL     1       4.359   2.988  -3.307  1.00  0.00     0.091 A 
ATOM     15  C   UNL     1       5.782   1.444  -5.139  1.00  0.00     0.007 A 
ATOM     16  C   UNL     1       5.319   3.579  -4.154  1.00  0.00     0.269 A 
ATOM     17  C   UNL     1       6.055   2.801  -5.051  1.00  0.00     0.085 A 
BRANCH  16  18
ATOM     18  N   UNL     1       5.554   5.030  -4.111  1.00  0.00     0.062 N 
ATOM     19  O   UNL     1       6.371   5.505  -4.914  1.00  0.00    -0.258 OA
ATOM     20  O   UNL     1       4.907   5.693  -3.289  1.00  0.00    -0.258 OA
ENDBRANCH  16  18
ENDBRANCH  11  12
BRANCH  11  21
ATOM     21  N   UNL     1       2.712  -0.442  -2.628  1.00  0.00    -0.348 N 
ATOM     22  C   UNL     1       3.081  -1.696  -2.237  1.00  0.00     0.226 C 
ATOM     23  H   UNL     1       1.952  -0.455  -3.253  1.00  0.00     0.164 HD
ATOM     24  O   UNL     1       2.130  -2.486  -2.138  1.00  0.00    -0.274 OA
BRANCH  22  25
ATOM     25  C   UNL     1       4.525  -2.247  -2.190  1.00  0.00     0.050 C 
ATOM     26  C   UNL     1       4.619  -3.509  -1.272  1.00  0.00     0.020 C 
ATOM     27  C   UNL     1       5.645  -1.314  -1.701  1.00  0.00     0.020 C 
ATOM     28  C   UNL     1       4.788  -2.767  -3.628  1.00  0.00     0.020 C 
ATOM     29  C   UNL     1       6.007  -4.187  -1.406  1.00  0.00    -0.010 C 
ATOM     30  C   UNL     1       7.034  -1.946  -1.854  1.00  0.00    -0.010 C 
ATOM     31  C   UNL     1       6.193  -3.346  -3.769  1.00  0.00    -0.010 C 
ATOM     32  C   UNL     1       6.268  -4.585  -2.870  1.00  0.00     0.007 C 
ATOM     33  C   UNL     1       7.107  -3.204  -0.981  1.00  0.00     0.007 C 
ATOM     34  C   UNL     1       7.237  -2.308  -3.331  1.00  0.00     0.007 C 
ENDBRANCH  22  25
ENDBRANCH  11  21
ENDBRANCH  10  11
ENDBRANCH   8  10
ENDBRANCH   7   8
ENDBRANCH   6   7
ENDBRANCH   5   6
ENDBRANCH   4   5
ENDBRANCH   3   4
ENDBRANCH   2   3
ENDBRANCH   1   2
BRANCH   1  35
ATOM     35  C   UNL     1       4.816   4.137   3.714  1.00  0.00     0.188 C 
BRANCH  35  36
ATOM     36  C   UNL     1       5.718   5.090   2.897  1.00  0.00     0.188 C 
BRANCH  36  37
ATOM     37  O   UNL     1       6.959   4.638   2.383  1.00  0.00    -0.376 OA
BRANCH  37  38
ATOM     38  C   UNL     1       7.898   3.979   3.216  1.00  0.00     0.202 C 
BRANCH  38  39
ATOM     39  C   UNL     1       8.110   4.287   4.715  1.00  0.00     0.261 C 
BRANCH  39  40
ATOM     40  O   UNL     1       6.995   4.771   5.469  1.00  0.00    -0.460 OA
BRANCH  40  41
ATOM     41  C   UNL     1       6.912   6.113   5.622  1.00  0.00     0.338 C 
ATOM     42  O   UNL     1       7.710   6.947   5.224  1.00  0.00    -0.246 OA
BRANCH  41  43
ATOM     43  C   UNL     1       5.553   6.437   6.117  1.00  0.00     0.060 A 
ATOM     44  C   UNL     1       4.763   7.318   5.360  1.00  0.00     0.016 A 
ATOM     45  C   UNL     1       5.027   5.822   7.257  1.00  0.00     0.016 A 
ATOM     46  C   UNL     1       3.458   7.606   5.751  1.00  0.00     0.010 A 
ATOM     47  C   UNL     1       3.734   6.152   7.678  1.00  0.00     0.010 A 
ATOM     48  C   UNL     1       2.964   7.074   6.947  1.00  0.00    -0.014 A 
BRANCH  48  49
ATOM     49  C   UNL     1       1.787   7.722   7.571  1.00  0.00     0.031 A 
ATOM     50  C   UNL     1       2.056   8.844   8.540  1.00  0.00     0.074 A 
ATOM     51  C   UNL     1       0.526   7.383   7.251  1.00  0.00     0.049 A 
ATOM     52  N   UNL     1       1.215   9.570   9.226  1.00  0.00    -0.248 NA
ATOM     53  C   UNL     1       3.472   9.192   8.760  1.00  0.00     0.031 C 
ATOM     54  C   UNL     1       0.139   6.360   6.281  1.00  0.00     0.029 A 
ATOM     55  N   UNL     1      -0.668   7.875   7.717  1.00  0.00    -0.354 N 
ATOM     56  C   UNL     1       1.997  10.459   9.954  1.00  0.00     0.074 A 
ATOM     57  C   UNL     1       3.379  10.158   9.659  1.00  0.00     0.031 C 
ATOM     58  C   UNL     1      -1.205   6.292   6.234  1.00  0.00     0.029 A 
ATOM     59  C   UNL     1      -1.770   7.244   7.190  1.00  0.00     0.049 A 
ATOM     60  H   UNL     1      -0.729   8.611   8.368  1.00  0.00     0.167 HD
ATOM     61  C   UNL     1       1.602  11.449  10.787  1.00  0.00     0.031 A 
ATOM     62  C   UNL     1      -3.079   7.405   7.469  1.00  0.00     0.031 A 
ATOM     63  C   UNL     1       0.228  11.727  11.102  1.00  0.00     0.049 A 
ATOM     64  C   UNL     1      -3.492   8.446   8.482  1.00  0.00     0.074 A 
ATOM     65  C   UNL     1      -0.281  12.694  11.949  1.00  0.00     0.029 A 
ATOM     66  N   UNL     1      -0.855  11.032  10.587  1.00  0.00    -0.354 N 
ATOM     67  N   UNL     1      -2.743   9.288   9.155  1.00  0.00    -0.248 NA
ATOM     68  C   UNL     1      -4.930   8.566   8.763  1.00  0.00     0.031 C 
ATOM     69  C   UNL     1      -1.671  12.546  11.991  1.00  0.00     0.029 A 
ATOM     70  C   UNL     1      -2.031  11.534  11.114  1.00  0.00     0.049 A 
ATOM     71  H   UNL     1      -0.796  10.291   9.941  1.00  0.00     0.167 HD
ATOM     72  C   UNL     1      -3.622  10.058   9.912  1.00  0.00     0.074 A 
ATOM     73  C   UNL     1      -4.958   9.594   9.599  1.00  0.00     0.031 C 
ATOM     74  C   UNL     1      -3.353  11.061  10.786  1.00  0.00     0.031 A 
BRANCH  61  75
ATOM     75  C   UNL     1       2.679  12.274  11.439  1.00  0.00    -0.014 A 
ATOM     76  C   UNL     1       3.458  13.176  10.691  1.00  0.00     0.010 A 
ATOM     77  C   UNL     1       2.899  12.165  12.824  1.00  0.00     0.010 A 
ATOM     78  C   UNL     1       4.460  13.927  11.309  1.00  0.00     0.020 A 
ATOM     79  C   UNL     1       3.879  12.938  13.452  1.00  0.00     0.020 A 
ATOM     80  C   UNL     1       4.663  13.805  12.687  1.00  0.00     0.054 A 
BRANCH  80  81
ATOM     81  S   UNL     1       5.948  14.818  13.468  1.00  0.00     0.124 S 
ATOM     82  O   UNL     1       7.170  14.200  12.961  1.00  0.00    -0.237 OA
ATOM     83  O   UNL     1       5.658  16.153  12.951  1.00  0.00    -0.237 OA
ATOM     84  O   UNL     1       5.708  14.642  14.898  1.00  0.00    -0.744 OA
ENDBRANCH  80  81
ENDBRANCH  61  75
BRANCH  62  85
ATOM     85  C   UNL     1      -4.102   6.545   6.807  1.00  0.00    -0.014 A 
ATOM     86  C   UNL     1      -5.050   7.095   5.925  1.00  0.00     0.010 A 
ATOM     87  C   UNL     1      -4.154   5.167   7.087  1.00  0.00     0.010 A 
ATOM     88  C   UNL     1      -6.044   6.290   5.359  1.00  0.00     0.020 A 
ATOM     89  C   UNL     1      -5.126   4.353   6.498  1.00  0.00     0.020 A 
ATOM     90  C   UNL     1      -6.075   4.923   5.649  1.00  0.00     0.054 A 
BRANCH  90  91
ATOM     91  S   UNL     1      -7.353   3.893   4.876  1.00  0.00     0.124 S 
ATOM     92  O   UNL     1      -8.556   4.319   5.584  1.00  0.00    -0.237 OA
ATOM     93  O   UNL     1      -7.269   4.290   3.473  1.00  0.00    -0.237 OA
ATOM     94  O   UNL     1      -6.909   2.530   5.157  1.00  0.00    -0.744 OA
ENDBRANCH  90  91
ENDBRANCH  62  85
BRANCH  74  95
ATOM     95  C   UNL     1      -4.523  11.759  11.430  1.00  0.00    -0.014 A 
ATOM     96  C   UNL     1      -5.324  11.118  12.392  1.00  0.00     0.010 A 
ATOM     97  C   UNL     1      -4.793  13.101  11.101  1.00  0.00     0.010 A 
ATOM     98  C   UNL     1      -6.399  11.792  12.979  1.00  0.00     0.020 A 
ATOM     99  C   UNL     1      -5.844  13.789  11.710  1.00  0.00     0.020 A 
ATOM    100  C   UNL     1      -6.653  13.123  12.633  1.00  0.00     0.054 A 
BRANCH 100 101
ATOM    101  S   UNL     1      -8.035  13.984  13.432  1.00  0.00     0.124 S 
ATOM    102  O   UNL     1      -9.191  13.353  12.801  1.00  0.00    -0.237 OA
ATOM    103  O   UNL     1      -7.837  13.666  14.844  1.00  0.00    -0.237 OA
ATOM    104  O   UNL     1      -7.821  15.386  13.079  1.00  0.00    -0.744 OA
ENDBRANCH 100 101
ENDBRANCH  74  95
ENDBRANCH  48  49
ENDBRANCH  41  43
ENDBRANCH  40  41
ENDBRANCH  39  40
ENDBRANCH  38  39
ENDBRANCH  37  38
ENDBRANCH  36  37
ENDBRANCH  35  36
ENDBRANCH   1  35
TORSDOF 28
