REMARK SMILES CC(C)[C@@H](C)NC(=O)N[C@@H]1CCCCC[C@@H]1C(=O)OCCOCCOCCOCCOC(=O)c1ccc(-c2c3nc(c(-c4ccc(S(=O)(=O)[O-])cc4)c4ccc([nH]4)c(-c4ccc(S(=O)(=O)[O-])cc4)c4nc(c(-c5ccc(S(=O)(=O)[O-])cc5)c5ccc2[nH]5)C=C4)C=C3)cc1
REMARK SMILES IDX 24 1 23 2 22 3 21 4 20 5 19 6 17 7 18 8 16 9 10 10 9 11 6 12
REMARK SMILES IDX 7 13 8 15 4 17 5 18 2 19 1 20 3 21 11 22 15 24 14 25 13 26
REMARK SMILES IDX 12 27 25 29 26 30 27 31 28 32 29 33 30 34 31 35 32 36 33 37
REMARK SMILES IDX 34 38 35 39 93 40 36 41 92 42 37 43 38 44 39 45 86 46 40 47
REMARK SMILES IDX 91 48 85 49 87 50 41 51 90 52 84 53 83 54 42 56 72 57 53 58
REMARK SMILES IDX 71 59 54 60 57 61 70 62 88 63 55 64 56 65 69 67 89 68 58 69
REMARK SMILES IDX 43 70 44 71 52 72 45 73 51 74 46 75 47 76 48 77 49 78 50 79
REMARK SMILES IDX 73 80 74 81 82 82 75 83 81 84 76 85 77 86 78 87 79 88 80 89
REMARK SMILES IDX 59 90 60 91 68 92 61 93 67 94 62 95 63 96 64 97 65 98 66 99
REMARK H PARENT 6 14 9 16 87 55 57 66
REMARK Flexibility Score: 90.00
ROOT
ATOM      1  C   UNL     1      -4.746   0.793   2.554  1.00  0.00     0.188 C 
ENDROOT
BRANCH   1   2
ATOM      2  C   UNL     1      -4.989   1.852   3.657  1.00  0.00     0.188 C 
BRANCH   2   3
ATOM      3  O   UNL     1      -6.337   2.289   3.726  1.00  0.00    -0.376 OA
BRANCH   3   4
ATOM      4  C   UNL     1      -6.725   3.425   2.973  1.00  0.00     0.202 C 
BRANCH   4   5
ATOM      5  C   UNL     1      -6.333   3.493   1.487  1.00  0.00     0.261 C 
BRANCH   5   6
ATOM      6  O   UNL     1      -4.929   3.372   1.143  1.00  0.00    -0.463 OA
BRANCH   6   7
ATOM      7  C   UNL     1      -4.019   4.138   1.792  1.00  0.00     0.311 C 
ATOM      8  O   UNL     1      -4.307   4.946   2.666  1.00  0.00    -0.252 OA
BRANCH   7   9
ATOM      9  C   UNL     1      -2.606   3.930   1.245  1.00  0.00     0.121 C 
BRANCH   9  10
ATOM     10  C   UNL     1      -1.788   2.622   1.567  1.00  0.00     0.098 C 
BRANCH  10  11
ATOM     11  N   UNL     1      -1.833   2.065   2.923  1.00  0.00    -0.335 N 
ATOM     12  N   UNL     1      -1.138  -0.227   2.720  1.00  0.00    -0.335 N 
ATOM     13  C   UNL     1      -1.502   0.855   3.432  1.00  0.00     0.315 C 
ATOM     14  H   UNL     1      -1.199  -1.046   3.262  1.00  0.00     0.165 HD
ATOM     15  O   UNL     1      -1.586   0.714   4.655  1.00  0.00    -0.249 OA
ATOM     16  H   UNL     1      -2.172   2.697   3.598  1.00  0.00     0.165 HD
BRANCH  12  17
ATOM     17  C   UNL     1      -0.675  -0.523   1.358  1.00  0.00     0.083 C 
ATOM     18  C   UNL     1      -1.465  -1.697   0.760  1.00  0.00     0.031 C 
BRANCH  17  19
ATOM     19  C   UNL     1       0.857  -0.855   1.327  1.00  0.00     0.005 C 
ATOM     20  C   UNL     1       1.444  -0.563  -0.062  1.00  0.00     0.009 C 
ATOM     21  C   UNL     1       1.711  -0.157   2.396  1.00  0.00     0.009 C 
ENDBRANCH  17  19
ENDBRANCH  12  17
ENDBRANCH  10  11
BRANCH  10  22
ATOM     22  C   UNL     1      -0.285   2.819   1.300  1.00  0.00     0.026 CG0
ATOM     23  G   UNL     1       0.087   3.400  -0.047  1.00  0.00     0.000 G0
ENDBRANCH  10  22
ENDBRANCH   9  10
BRANCH   9  24
ATOM     24  C   UNL     1      -1.830   5.246   1.490  1.00  0.00     0.017 C 
BRANCH  24  25
ATOM     25  C   UNL     1      -1.006   5.681   0.277  1.00  0.00     0.001 C 
BRANCH  25  26
ATOM     26  C   UNL     1       0.280   4.903   0.054  1.00  0.00     0.000 C 
BRANCH  26  27
ATOM     27  C   UNL     1       0.087   3.400  -0.047  1.00  0.00     0.002 CG0
ATOM     28  G   UNL     1      -0.285   2.819   1.300  1.00  0.00     0.000 G0
ENDBRANCH  26  27
ENDBRANCH  25  26
ENDBRANCH  24  25
ENDBRANCH   9  24
ENDBRANCH   7   9
ENDBRANCH   6   7
ENDBRANCH   5   6
ENDBRANCH   4   5
ENDBRANCH   3   4
ENDBRANCH   2   3
ENDBRANCH   1   2
BRANCH   1  29
ATOM     29  O   UNL     1      -5.464  -0.427   2.601  1.00  0.00    -0.377 OA
BRANCH  29  30
ATOM     30  C   UNL     1      -6.791  -0.320   3.054  1.00  0.00     0.188 C 
BRANCH  30  31
ATOM     31  C   UNL     1      -6.945  -0.602   4.559  1.00  0.00     0.188 C 
BRANCH  31  32
ATOM     32  O   UNL     1      -5.880  -0.450   5.485  1.00  0.00    -0.376 OA
BRANCH  32  33
ATOM     33  C   UNL     1      -4.598  -1.044   5.331  1.00  0.00     0.202 C 
BRANCH  33  34
ATOM     34  C   UNL     1      -4.316  -2.443   4.771  1.00  0.00     0.261 C 
BRANCH  34  35
ATOM     35  O   UNL     1      -5.131  -2.876   3.688  1.00  0.00    -0.460 OA
BRANCH  35  36
ATOM     36  C   UNL     1      -6.156  -3.680   4.039  1.00  0.00     0.338 C 
ATOM     37  O   UNL     1      -6.424  -4.100   5.155  1.00  0.00    -0.246 OA
BRANCH  36  38
ATOM     38  C   UNL     1      -7.048  -3.811   2.879  1.00  0.00     0.060 A 
ATOM     39  C   UNL     1      -8.379  -3.398   3.029  1.00  0.00     0.016 A 
ATOM     40  C   UNL     1      -6.582  -4.311   1.661  1.00  0.00     0.016 A 
ATOM     41  C   UNL     1      -9.252  -3.469   1.956  1.00  0.00     0.010 A 
ATOM     42  C   UNL     1      -7.477  -4.447   0.602  1.00  0.00     0.010 A 
ATOM     43  C   UNL     1      -8.817  -4.050   0.761  1.00  0.00    -0.014 A 
BRANCH  43  44
ATOM     44  C   UNL     1      -9.844  -4.484  -0.201  1.00  0.00     0.031 A 
ATOM     45  C   UNL     1     -10.392  -5.873  -0.039  1.00  0.00     0.074 A 
ATOM     46  C   UNL     1     -10.320  -3.646  -1.135  1.00  0.00     0.049 A 
ATOM     47  N   UNL     1     -11.304  -6.489  -0.741  1.00  0.00    -0.248 NA
ATOM     48  C   UNL     1      -9.839  -6.673   1.070  1.00  0.00     0.031 C 
ATOM     49  C   UNL     1      -9.905  -2.255  -1.318  1.00  0.00     0.029 A 
ATOM     50  N   UNL     1     -11.268  -3.848  -2.103  1.00  0.00    -0.354 N 
ATOM     51  C   UNL     1     -11.426  -7.748  -0.166  1.00  0.00     0.074 A 
ATOM     52  C   UNL     1     -10.484  -7.819   0.926  1.00  0.00     0.031 C 
ATOM     53  C   UNL     1     -10.593  -1.730  -2.348  1.00  0.00     0.029 A 
ATOM     54  C   UNL     1     -11.466  -2.757  -2.913  1.00  0.00     0.049 A 
ATOM     55  H   UNL     1     -11.759  -4.695  -2.208  1.00  0.00     0.167 HD
ATOM     56  C   UNL     1     -12.253  -8.756  -0.523  1.00  0.00     0.031 A 
ATOM     57  C   UNL     1     -12.251  -2.622  -3.999  1.00  0.00     0.031 A 
ATOM     58  C   UNL     1     -13.168  -8.675  -1.628  1.00  0.00     0.049 A 
ATOM     59  C   UNL     1     -13.095  -3.794  -4.434  1.00  0.00     0.074 A 
ATOM     60  C   UNL     1     -14.057  -9.633  -2.079  1.00  0.00     0.029 A 
ATOM     61  N   UNL     1     -13.301  -7.576  -2.464  1.00  0.00    -0.354 N 
ATOM     62  N   UNL     1     -13.220  -4.975  -3.874  1.00  0.00    -0.248 NA
ATOM     63  C   UNL     1     -13.908  -3.613  -5.644  1.00  0.00     0.031 C 
ATOM     64  C   UNL     1     -14.675  -9.140  -3.232  1.00  0.00     0.029 A 
ATOM     65  C   UNL     1     -14.231  -7.844  -3.451  1.00  0.00     0.049 A 
ATOM     66  H   UNL     1     -12.806  -6.730  -2.368  1.00  0.00     0.167 HD
ATOM     67  C   UNL     1     -14.152  -5.665  -4.643  1.00  0.00     0.074 A 
ATOM     68  C   UNL     1     -14.566  -4.763  -5.699  1.00  0.00     0.031 C 
ATOM     69  C   UNL     1     -14.627  -6.927  -4.491  1.00  0.00     0.031 A 
BRANCH  56  70
ATOM     70  C   UNL     1     -12.157 -10.043   0.249  1.00  0.00    -0.014 A 
ATOM     71  C   UNL     1     -12.595 -10.137   1.583  1.00  0.00     0.010 A 
ATOM     72  C   UNL     1     -11.642 -11.188  -0.385  1.00  0.00     0.010 A 
ATOM     73  C   UNL     1     -12.492 -11.346   2.276  1.00  0.00     0.020 A 
ATOM     74  C   UNL     1     -11.566 -12.406   0.295  1.00  0.00     0.020 A 
ATOM     75  C   UNL     1     -11.980 -12.474   1.626  1.00  0.00     0.054 A 
BRANCH  75  76
ATOM     76  S   UNL     1     -11.895 -14.040   2.537  1.00  0.00     0.124 S 
ATOM     77  O   UNL     1     -10.828 -13.773   3.498  1.00  0.00    -0.237 OA
ATOM     78  O   UNL     1     -13.237 -14.151   3.103  1.00  0.00    -0.237 OA
ATOM     79  O   UNL     1     -11.573 -15.024   1.507  1.00  0.00    -0.744 OA
ENDBRANCH  75  76
ENDBRANCH  56  70
BRANCH  57  80
ATOM     80  C   UNL     1     -12.259  -1.345  -4.765  1.00  0.00    -0.014 A 
ATOM     81  C   UNL     1     -13.410  -0.540  -4.815  1.00  0.00     0.010 A 
ATOM     82  C   UNL     1     -11.108  -0.932  -5.463  1.00  0.00     0.010 A 
ATOM     83  C   UNL     1     -13.418   0.640  -5.565  1.00  0.00     0.020 A 
ATOM     84  C   UNL     1     -11.102   0.262  -6.188  1.00  0.00     0.020 A 
ATOM     85  C   UNL     1     -12.262   1.035  -6.245  1.00  0.00     0.054 A 
BRANCH  85  86
ATOM     86  S   UNL     1     -12.283   2.591  -7.178  1.00  0.00     0.124 S 
ATOM     87  O   UNL     1     -13.145   2.257  -8.307  1.00  0.00    -0.237 OA
ATOM     88  O   UNL     1     -12.843   3.530  -6.208  1.00  0.00    -0.237 OA
ATOM     89  O   UNL     1     -10.876   2.812  -7.506  1.00  0.00    -0.744 OA
ENDBRANCH  85  86
ENDBRANCH  57  80
BRANCH  69  90
ATOM     90  C   UNL     1     -15.681  -7.394  -5.460  1.00  0.00    -0.014 A 
ATOM     91  C   UNL     1     -15.375  -7.665  -6.804  1.00  0.00     0.010 A 
ATOM     92  C   UNL     1     -16.988  -7.629  -4.993  1.00  0.00     0.010 A 
ATOM     93  C   UNL     1     -16.366  -8.129  -7.674  1.00  0.00     0.020 A 
ATOM     94  C   UNL     1     -17.973  -8.125  -5.850  1.00  0.00     0.020 A 
ATOM     95  C   UNL     1     -17.658  -8.358  -7.190  1.00  0.00     0.054 A 
BRANCH  95  96
ATOM     96  S   UNL     1     -18.913  -9.002  -8.329  1.00  0.00     0.124 S 
ATOM     97  O   UNL     1     -19.171  -7.845  -9.182  1.00  0.00    -0.237 OA
ATOM     98  O   UNL     1     -18.220 -10.115  -8.971  1.00  0.00    -0.237 OA
ATOM     99  O   UNL     1     -20.016  -9.385  -7.450  1.00  0.00    -0.744 OA
ENDBRANCH  95  96
ENDBRANCH  69  90
ENDBRANCH  43  44
ENDBRANCH  36  38
ENDBRANCH  35  36
ENDBRANCH  34  35
ENDBRANCH  33  34
ENDBRANCH  32  33
ENDBRANCH  31  32
ENDBRANCH  30  31
ENDBRANCH  29  30
ENDBRANCH   1  29
TORSDOF 26
