REMARK SMILES COc1ccc(F)c(NC(=O)N2CCCC[C@@H]2C(=O)OCCOCCOCCOCCOC(=O)c2ccc(-c3c4nc(c(-c5ccc(S(=O)(=O)[O-])cc5)c5ccc([nH]5)c(-c5ccc(S(=O)(=O)[O-])cc5)c5nc(c(-c6ccc(S(=O)(=O)[O-])cc6)c6ccc3[nH]6)C=C5)C=C4)cc2)c1
REMARK SMILES IDX 26 1 25 2 24 3 23 4 22 5 21 6 20 7 18 8 19 9 17 10 12 11
REMARK SMILES IDX 13 12 14 13 16 14 15 15 10 16 9 17 11 19 8 20 3 21 4 22
REMARK SMILES IDX 95 23 5 24 6 25 7 26 2 27 1 28 27 29 28 30 29 31 30 32 31 33
REMARK SMILES IDX 32 34 33 35 34 36 35 37 36 38 94 39 37 40 93 41 38 42 39 43
REMARK SMILES IDX 40 44 87 45 41 46 92 47 86 48 88 49 42 50 91 51 85 52 84 53
REMARK SMILES IDX 43 55 73 56 54 57 72 58 55 59 58 60 71 61 89 62 56 63 57 64
REMARK SMILES IDX 70 66 90 67 59 68 44 69 45 70 53 71 46 72 52 73 47 74 48 75
REMARK SMILES IDX 49 76 50 77 51 78 74 79 75 80 83 81 76 82 82 83 77 84 78 85
REMARK SMILES IDX 79 86 80 87 81 88 60 89 61 90 69 91 62 92 68 93 63 94 64 95
REMARK SMILES IDX 65 96 66 97 67 98
REMARK H PARENT 9 18 88 54 58 65
REMARK Flexibility Score: inf
ROOT
ATOM      1  O   UNL     1      -2.870   1.312   3.413  1.00  0.00    -0.377 OA
ENDROOT
BRANCH   1   2
ATOM      2  C   UNL     1      -1.962   0.899   2.407  1.00  0.00     0.188 C 
BRANCH   2   3
ATOM      3  C   UNL     1      -0.486   1.311   2.537  1.00  0.00     0.188 C 
BRANCH   3   4
ATOM      4  O   UNL     1      -0.104   1.762   3.825  1.00  0.00    -0.376 OA
BRANCH   4   5
ATOM      5  C   UNL     1       0.126   3.144   4.045  1.00  0.00     0.202 C 
BRANCH   5   6
ATOM      6  C   UNL     1      -1.079   4.126   4.026  1.00  0.00     0.261 C 
BRANCH   6   7
ATOM      7  O   UNL     1      -2.041   3.964   2.961  1.00  0.00    -0.462 OA
BRANCH   7   8
ATOM      8  C   UNL     1      -1.488   4.178   1.750  1.00  0.00     0.329 C 
ATOM      9  O   UNL     1      -0.294   4.424   1.678  1.00  0.00    -0.250 OA
BRANCH   8  10
ATOM     10  C   UNL     1      -2.396   3.942   0.518  1.00  0.00     0.196 C 
ATOM     11  N   UNL     1      -2.285   4.940  -0.589  1.00  0.00    -0.311 N 
ATOM     12  C   UNL     1      -3.230   4.848  -1.697  1.00  0.00     0.122 C 
ATOM     13  C   UNL     1      -4.661   4.532  -1.281  1.00  0.00     0.022 C 
ATOM     14  C   UNL     1      -3.866   3.648   0.885  1.00  0.00     0.037 C 
ATOM     15  C   UNL     1      -4.688   3.325  -0.360  1.00  0.00     0.005 C 
BRANCH  11  16
ATOM     16  C   UNL     1      -1.598   6.122  -0.467  1.00  0.00     0.322 C 
ATOM     17  N   UNL     1      -0.235   6.120  -0.403  1.00  0.00    -0.305 N 
ATOM     18  H   UNL     1       0.151   7.011  -0.241  1.00  0.00     0.171 HD
ATOM     19  O   UNL     1      -2.195   7.200  -0.448  1.00  0.00    -0.248 OA
BRANCH  17  20
ATOM     20  C   UNL     1       0.739   5.095  -0.524  1.00  0.00     0.082 A 
ATOM     21  C   UNL     1       1.358   2.766  -0.843  1.00  0.00     0.121 A 
ATOM     22  C   UNL     1       2.505   2.953  -0.066  1.00  0.00     0.049 A 
ATOM     23  C   UNL     1       0.505   3.849  -1.111  1.00  0.00     0.075 A 
ATOM     24  C   UNL     1       2.803   4.220   0.436  1.00  0.00     0.045 A 
ATOM     25  C   UNL     1       1.934   5.281   0.192  1.00  0.00     0.147 A 
ATOM     26  F   UNL     1       2.177   6.458   0.791  1.00  0.00    -0.205 F 
BRANCH  21  27
ATOM     27  O   UNL     1       0.942   1.563  -1.352  1.00  0.00    -0.497 OA
ATOM     28  C   UNL     1       1.438   0.400  -0.695  1.00  0.00     0.278 C 
ENDBRANCH  21  27
ENDBRANCH  17  20
ENDBRANCH  11  16
ENDBRANCH   8  10
ENDBRANCH   7   8
ENDBRANCH   6   7
ENDBRANCH   5   6
ENDBRANCH   4   5
ENDBRANCH   3   4
ENDBRANCH   2   3
ENDBRANCH   1   2
BRANCH   1  29
ATOM     29  C   UNL     1      -2.539   1.096   4.784  1.00  0.00     0.188 C 
BRANCH  29  30
ATOM     30  C   UNL     1      -1.600  -0.061   5.195  1.00  0.00     0.188 C 
BRANCH  30  31
ATOM     31  O   UNL     1      -1.363  -1.025   4.181  1.00  0.00    -0.376 OA
BRANCH  31  32
ATOM     32  C   UNL     1      -2.155  -2.201   4.226  1.00  0.00     0.202 C 
BRANCH  32  33
ATOM     33  C   UNL     1      -3.681  -2.032   4.123  1.00  0.00     0.261 C 
BRANCH  33  34
ATOM     34  O   UNL     1      -4.309  -1.223   5.134  1.00  0.00    -0.460 OA
BRANCH  34  35
ATOM     35  C   UNL     1      -4.143  -1.597   6.425  1.00  0.00     0.338 C 
ATOM     36  O   UNL     1      -3.589  -2.597   6.825  1.00  0.00    -0.246 OA
BRANCH  35  37
ATOM     37  C   UNL     1      -4.540  -0.457   7.289  1.00  0.00     0.060 A 
ATOM     38  C   UNL     1      -3.588   0.071   8.173  1.00  0.00     0.016 A 
ATOM     39  C   UNL     1      -5.823   0.092   7.225  1.00  0.00     0.016 A 
ATOM     40  C   UNL     1      -3.934   1.105   9.038  1.00  0.00     0.010 A 
ATOM     41  C   UNL     1      -6.179   1.112   8.116  1.00  0.00     0.010 A 
ATOM     42  C   UNL     1      -5.249   1.585   9.059  1.00  0.00    -0.014 A 
BRANCH  42  43
ATOM     43  C   UNL     1      -5.680   2.389  10.228  1.00  0.00     0.031 A 
ATOM     44  C   UNL     1      -6.367   1.678  11.365  1.00  0.00     0.074 A 
ATOM     45  C   UNL     1      -5.389   3.698  10.326  1.00  0.00     0.049 A 
ATOM     46  N   UNL     1      -6.757   2.144  12.522  1.00  0.00    -0.248 NA
ATOM     47  C   UNL     1      -6.646   0.246  11.168  1.00  0.00     0.031 C 
ATOM     48  C   UNL     1      -4.694   4.489   9.312  1.00  0.00     0.029 A 
ATOM     49  N   UNL     1      -5.637   4.589  11.340  1.00  0.00    -0.354 N 
ATOM     50  C   UNL     1      -7.335   1.068  13.186  1.00  0.00     0.074 A 
ATOM     51  C   UNL     1      -7.275  -0.065  12.290  1.00  0.00     0.031 C 
ATOM     52  C   UNL     1      -4.576   5.753   9.754  1.00  0.00     0.029 A 
ATOM     53  C   UNL     1      -5.207   5.865  11.069  1.00  0.00     0.049 A 
ATOM     54  H   UNL     1      -6.082   4.338  12.181  1.00  0.00     0.167 HD
ATOM     55  C   UNL     1      -7.867   1.023  14.431  1.00  0.00     0.031 A 
ATOM     56  C   UNL     1      -5.321   6.997  11.793  1.00  0.00     0.031 A 
ATOM     57  C   UNL     1      -7.945   2.160  15.311  1.00  0.00     0.049 A 
ATOM     58  C   UNL     1      -5.958   6.938  13.156  1.00  0.00     0.074 A 
ATOM     59  C   UNL     1      -8.443   2.217  16.601  1.00  0.00     0.029 A 
ATOM     60  N   UNL     1      -7.532   3.444  14.985  1.00  0.00    -0.354 N 
ATOM     61  N   UNL     1      -6.463   5.904  13.789  1.00  0.00    -0.248 NA
ATOM     62  C   UNL     1      -6.020   8.196  13.912  1.00  0.00     0.031 C 
ATOM     63  C   UNL     1      -8.400   3.549  17.026  1.00  0.00     0.029 A 
ATOM     64  C   UNL     1      -7.798   4.308  16.035  1.00  0.00     0.049 A 
ATOM     65  H   UNL     1      -7.112   3.703  14.133  1.00  0.00     0.167 HD
ATOM     66  C   UNL     1      -6.882   6.383  15.027  1.00  0.00     0.074 A 
ATOM     67  C   UNL     1      -6.548   7.793  15.060  1.00  0.00     0.031 C 
ATOM     68  C   UNL     1      -7.485   5.717  16.046  1.00  0.00     0.031 A 
BRANCH  55  69
ATOM     69  C   UNL     1      -8.461  -0.287  14.883  1.00  0.00    -0.014 A 
ATOM     70  C   UNL     1      -7.662  -1.419  15.128  1.00  0.00     0.010 A 
ATOM     71  C   UNL     1      -9.852  -0.383  15.069  1.00  0.00     0.010 A 
ATOM     72  C   UNL     1      -8.248  -2.635  15.495  1.00  0.00     0.020 A 
ATOM     73  C   UNL     1     -10.439  -1.586  15.470  1.00  0.00     0.020 A 
ATOM     74  C   UNL     1      -9.634  -2.711  15.658  1.00  0.00     0.054 A 
BRANCH  74  75
ATOM     75  S   UNL     1     -10.370  -4.299  16.134  1.00  0.00     0.124 S 
ATOM     76  O   UNL     1     -10.208  -5.084  14.912  1.00  0.00    -0.237 OA
ATOM     77  O   UNL     1      -9.537  -4.713  17.260  1.00  0.00    -0.237 OA
ATOM     78  O   UNL     1     -11.749  -3.956  16.474  1.00  0.00    -0.744 OA
ENDBRANCH  74  75
ENDBRANCH  55  69
BRANCH  56  79
ATOM     79  C   UNL     1      -4.834   8.284  11.223  1.00  0.00    -0.014 A 
ATOM     80  C   UNL     1      -3.711   8.940  11.754  1.00  0.00     0.010 A 
ATOM     81  C   UNL     1      -5.492   8.847  10.112  1.00  0.00     0.010 A 
ATOM     82  C   UNL     1      -3.256  10.135  11.186  1.00  0.00     0.020 A 
ATOM     83  C   UNL     1      -5.022  10.023   9.523  1.00  0.00     0.020 A 
ATOM     84  C   UNL     1      -3.908  10.663  10.068  1.00  0.00     0.054 A 
BRANCH  84  85
ATOM     85  S   UNL     1      -3.248  12.168   9.297  1.00  0.00     0.124 S 
ATOM     86  O   UNL     1      -3.579  13.188  10.287  1.00  0.00    -0.237 OA
ATOM     87  O   UNL     1      -1.828  11.852   9.163  1.00  0.00    -0.237 OA
ATOM     88  O   UNL     1      -3.981  12.256   8.036  1.00  0.00    -0.744 OA
ENDBRANCH  84  85
ENDBRANCH  56  79
BRANCH  68  89
ATOM     89  C   UNL     1      -7.795   6.502  17.297  1.00  0.00    -0.014 A 
ATOM     90  C   UNL     1      -8.767   7.519  17.308  1.00  0.00     0.010 A 
ATOM     91  C   UNL     1      -7.108   6.205  18.488  1.00  0.00     0.010 A 
ATOM     92  C   UNL     1      -8.997   8.267  18.467  1.00  0.00     0.020 A 
ATOM     93  C   UNL     1      -7.362   6.924  19.659  1.00  0.00     0.020 A 
ATOM     94  C   UNL     1      -8.287   7.969  19.634  1.00  0.00     0.054 A 
BRANCH  94  95
ATOM     95  S   UNL     1      -8.594   8.959  21.122  1.00  0.00     0.124 S 
ATOM     96  O   UNL     1      -7.954  10.226  20.780  1.00  0.00    -0.237 OA
ATOM     97  O   UNL     1     -10.053   8.989  21.191  1.00  0.00    -0.237 OA
ATOM     98  O   UNL     1      -7.941   8.198  22.185  1.00  0.00    -0.744 OA
ENDBRANCH  94  95
ENDBRANCH  68  89
ENDBRANCH  42  43
ENDBRANCH  35  37
ENDBRANCH  34  35
ENDBRANCH  33  34
ENDBRANCH  32  33
ENDBRANCH  31  32
ENDBRANCH  30  31
ENDBRANCH  29  30
ENDBRANCH   1  29
TORSDOF 26
