REMARK SMILES CCOc1cc(N2CCOCC2)ccc1[C@H]([NH3+])C(=O)OCCOCCOCCOCCOC(=O)c1ccc(-c2c3nc(c(-c4ccc(S(=O)(=O)[O-])cc4)c4ccc([nH]4)c(-c4ccc(S(=O)(=O)[O-])cc4)c4nc(c(-c5ccc(S(=O)(=O)[O-])cc5)c5ccc2[nH]5)C=C4)C=C3)cc1
REMARK SMILES IDX 26 1 25 2 24 3 23 4 22 5 21 6 20 7 18 8 19 9 16 10 15 11
REMARK SMILES IDX 4 12 5 13 6 14 14 15 13 16 3 17 2 18 1 19 7 20 8 21 12 22
REMARK SMILES IDX 9 23 11 24 10 25 17 26 27 30 28 31 29 32 30 33 31 34 32 35
REMARK SMILES IDX 33 36 34 37 35 38 36 39 94 40 37 41 93 42 38 43 39 44 40 45
REMARK SMILES IDX 87 46 41 47 92 48 86 49 88 50 42 51 91 52 85 53 84 54 43 56
REMARK SMILES IDX 73 57 54 58 72 59 55 60 58 61 71 62 89 63 56 64 57 65 70 67
REMARK SMILES IDX 90 68 59 69 44 70 45 71 53 72 46 73 52 74 47 75 48 76 49 77
REMARK SMILES IDX 50 78 51 79 74 80 75 81 83 82 76 83 82 84 77 85 78 86 79 87
REMARK SMILES IDX 80 88 81 89 60 90 61 91 69 92 62 93 68 94 63 95 64 96 65 97
REMARK SMILES IDX 66 98 67 99
REMARK H PARENT 17 27 17 28 17 29 88 55 58 66
REMARK Flexibility Score: inf
ROOT
ATOM      1  O   UNL     1       4.661   2.476   1.897  1.00  0.00    -0.377 OA
ENDROOT
BRANCH   1   2
ATOM      2  C   UNL     1       3.346   1.968   1.829  1.00  0.00     0.188 C 
BRANCH   2   3
ATOM      3  C   UNL     1       2.905   0.642   2.470  1.00  0.00     0.188 C 
BRANCH   3   4
ATOM      4  O   UNL     1       3.925  -0.098   3.102  1.00  0.00    -0.376 OA
BRANCH   4   5
ATOM      5  C   UNL     1       3.949  -1.505   2.908  1.00  0.00     0.202 C 
BRANCH   5   6
ATOM      6  C   UNL     1       4.474  -1.934   1.529  1.00  0.00     0.261 C 
BRANCH   6   7
ATOM      7  O   UNL     1       3.762  -1.365   0.414  1.00  0.00    -0.459 OA
BRANCH   7   8
ATOM      8  C   UNL     1       2.451  -1.693   0.278  1.00  0.00     0.369 C 
ATOM      9  O   UNL     1       1.852  -2.452   1.035  1.00  0.00    -0.245 OA
BRANCH   8  10
ATOM     10  C   UNL     1       1.770  -0.982  -0.905  1.00  0.00     0.326 C 
BRANCH  10  11
ATOM     11  C   UNL     1       2.203  -1.627  -2.189  1.00  0.00     0.063 A 
ATOM     12  C   UNL     1       3.383  -1.299  -2.883  1.00  0.00     0.131 A 
ATOM     13  C   UNL     1       3.698  -1.975  -4.061  1.00  0.00     0.072 A 
ATOM     14  C   UNL     1       2.824  -2.950  -4.572  1.00  0.00     0.040 A 
ATOM     15  C   UNL     1       1.385  -2.658  -2.656  1.00  0.00     0.016 A 
ATOM     16  C   UNL     1       1.692  -3.305  -3.835  1.00  0.00     0.027 A 
BRANCH  12  17
ATOM     17  O   UNL     1       4.067  -0.166  -2.521  1.00  0.00    -0.493 OA
BRANCH  17  18
ATOM     18  C   UNL     1       5.406  -0.362  -2.052  1.00  0.00     0.226 C 
ATOM     19  C   UNL     1       5.672   0.741  -1.032  1.00  0.00     0.049 C 
ENDBRANCH  17  18
ENDBRANCH  12  17
BRANCH  14  20
ATOM     20  N   UNL     1       3.031  -3.465  -5.840  1.00  0.00    -0.367 N 
ATOM     21  C   UNL     1       1.955  -3.302  -6.827  1.00  0.00     0.145 C 
ATOM     22  C   UNL     1       3.845  -4.676  -5.980  1.00  0.00     0.145 C 
ATOM     23  C   UNL     1       1.155  -4.602  -7.005  1.00  0.00     0.181 C 
ATOM     24  C   UNL     1       2.950  -5.909  -6.197  1.00  0.00     0.181 C 
ATOM     25  O   UNL     1       2.013  -5.721  -7.276  1.00  0.00    -0.378 OA
ENDBRANCH  14  20
ENDBRANCH  10  11
BRANCH  10  26
ATOM     26  N   UNL     1       1.861   0.486  -0.957  1.00  0.00    -0.342 N 
ATOM     27  H   UNL     1       2.832   0.761  -1.109  1.00  0.00     0.345 HD
ATOM     28  H   UNL     1       1.532   0.878  -0.074  1.00  0.00     0.345 HD
ATOM     29  H   UNL     1       1.284   0.836  -1.721  1.00  0.00     0.345 HD
ENDBRANCH  10  26
ENDBRANCH   8  10
ENDBRANCH   7   8
ENDBRANCH   6   7
ENDBRANCH   5   6
ENDBRANCH   4   5
ENDBRANCH   3   4
ENDBRANCH   2   3
ENDBRANCH   1   2
BRANCH   1  30
ATOM     30  C   UNL     1       5.658   1.788   2.617  1.00  0.00     0.188 C 
BRANCH  30  31
ATOM     31  C   UNL     1       5.598   1.872   4.154  1.00  0.00     0.188 C 
BRANCH  31  32
ATOM     32  O   UNL     1       4.692   2.686   4.874  1.00  0.00    -0.376 OA
BRANCH  32  33
ATOM     33  C   UNL     1       4.087   3.858   4.376  1.00  0.00     0.202 C 
BRANCH  33  34
ATOM     34  C   UNL     1       4.802   4.921   3.522  1.00  0.00     0.261 C 
BRANCH  34  35
ATOM     35  O   UNL     1       6.096   4.617   3.012  1.00  0.00    -0.460 OA
BRANCH  35  36
ATOM     36  C   UNL     1       7.103   4.671   3.903  1.00  0.00     0.338 C 
ATOM     37  O   UNL     1       7.028   4.967   5.087  1.00  0.00    -0.246 OA
BRANCH  36  38
ATOM     38  C   UNL     1       8.317   4.148   3.247  1.00  0.00     0.060 A 
ATOM     39  C   UNL     1       8.999   3.092   3.863  1.00  0.00     0.016 A 
ATOM     40  C   UNL     1       8.781   4.691   2.045  1.00  0.00     0.016 A 
ATOM     41  C   UNL     1      10.172   2.602   3.306  1.00  0.00     0.010 A 
ATOM     42  C   UNL     1       9.983   4.226   1.507  1.00  0.00     0.010 A 
ATOM     43  C   UNL     1      10.701   3.212   2.163  1.00  0.00    -0.014 A 
BRANCH  43  44
ATOM     44  C   UNL     1      12.116   2.954   1.823  1.00  0.00     0.031 A 
ATOM     45  C   UNL     1      13.148   3.922   2.330  1.00  0.00     0.074 A 
ATOM     46  C   UNL     1      12.480   1.857   1.139  1.00  0.00     0.049 A 
ATOM     47  N   UNL     1      14.444   3.917   2.164  1.00  0.00    -0.248 NA
ATOM     48  C   UNL     1      12.646   5.050   3.135  1.00  0.00     0.031 C 
ATOM     49  C   UNL     1      11.569   0.825   0.651  1.00  0.00     0.029 A 
ATOM     50  N   UNL     1      13.721   1.438   0.734  1.00  0.00    -0.354 N 
ATOM     51  C   UNL     1      14.911   5.044   2.830  1.00  0.00     0.074 A 
ATOM     52  C   UNL     1      13.758   5.726   3.374  1.00  0.00     0.031 C 
ATOM     53  C   UNL     1      12.282  -0.103  -0.010  1.00  0.00     0.029 A 
ATOM     54  C   UNL     1      13.690   0.291  -0.020  1.00  0.00     0.049 A 
ATOM     55  H   UNL     1      14.552   1.913   0.961  1.00  0.00     0.167 HD
ATOM     56  C   UNL     1      16.187   5.472   2.976  1.00  0.00     0.031 A 
ATOM     57  C   UNL     1      14.683  -0.347  -0.671  1.00  0.00     0.031 A 
ATOM     58  C   UNL     1      17.321   4.800   2.402  1.00  0.00     0.049 A 
ATOM     59  C   UNL     1      16.087   0.184  -0.565  1.00  0.00     0.074 A 
ATOM     60  C   UNL     1      18.659   5.139   2.490  1.00  0.00     0.029 A 
ATOM     61  N   UNL     1      17.248   3.659   1.614  1.00  0.00    -0.354 N 
ATOM     62  N   UNL     1      16.523   1.236   0.088  1.00  0.00    -0.248 NA
ATOM     63  C   UNL     1      17.135  -0.564  -1.272  1.00  0.00     0.031 C 
ATOM     64  C   UNL     1      19.386   4.246   1.695  1.00  0.00     0.029 A 
ATOM     65  C   UNL     1      18.512   3.301   1.178  1.00  0.00     0.049 A 
ATOM     66  H   UNL     1      16.418   3.175   1.397  1.00  0.00     0.167 HD
ATOM     67  C   UNL     1      17.900   1.266  -0.111  1.00  0.00     0.074 A 
ATOM     68  C   UNL     1      18.223   0.116  -0.932  1.00  0.00     0.031 C 
ATOM     69  C   UNL     1      18.813   2.160   0.347  1.00  0.00     0.031 A 
BRANCH  56  70
ATOM     70  C   UNL     1      16.398   6.761   3.730  1.00  0.00    -0.014 A 
ATOM     71  C   UNL     1      16.128   6.866   5.107  1.00  0.00     0.010 A 
ATOM     72  C   UNL     1      16.855   7.897   3.038  1.00  0.00     0.010 A 
ATOM     73  C   UNL     1      16.247   8.095   5.762  1.00  0.00     0.020 A 
ATOM     74  C   UNL     1      17.010   9.121   3.696  1.00  0.00     0.020 A 
ATOM     75  C   UNL     1      16.679   9.218   5.048  1.00  0.00     0.054 A 
BRANCH  75  76
ATOM     76  S   UNL     1      16.804  10.806   5.915  1.00  0.00     0.124 S 
ATOM     77  O   UNL     1      15.399  11.153   6.111  1.00  0.00    -0.237 OA
ATOM     78  O   UNL     1      17.538  10.452   7.127  1.00  0.00    -0.237 OA
ATOM     79  O   UNL     1      17.530  11.658   4.977  1.00  0.00    -0.744 OA
ENDBRANCH  75  76
ENDBRANCH  56  70
BRANCH  57  80
ATOM     80  C   UNL     1      14.357  -1.535  -1.505  1.00  0.00    -0.014 A 
ATOM     81  C   UNL     1      14.749  -2.827  -1.118  1.00  0.00     0.010 A 
ATOM     82  C   UNL     1      13.591  -1.375  -2.677  1.00  0.00     0.010 A 
ATOM     83  C   UNL     1      14.371  -3.938  -1.880  1.00  0.00     0.020 A 
ATOM     84  C   UNL     1      13.188  -2.484  -3.424  1.00  0.00     0.020 A 
ATOM     85  C   UNL     1      13.581  -3.760  -3.021  1.00  0.00     0.054 A 
BRANCH  85  86
ATOM     86  S   UNL     1      13.014  -5.224  -3.930  1.00  0.00     0.124 S 
ATOM     87  O   UNL     1      14.247  -5.695  -4.552  1.00  0.00    -0.237 OA
ATOM     88  O   UNL     1      12.479  -6.066  -2.864  1.00  0.00    -0.237 OA
ATOM     89  O   UNL     1      12.012  -4.689  -4.850  1.00  0.00    -0.744 OA
ENDBRANCH  85  86
ENDBRANCH  57  80
BRANCH  69  90
ATOM     90  C   UNL     1      20.259   1.918  -0.004  1.00  0.00    -0.014 A 
ATOM     91  C   UNL     1      20.736   2.089  -1.316  1.00  0.00     0.010 A 
ATOM     92  C   UNL     1      21.169   1.574   1.014  1.00  0.00     0.010 A 
ATOM     93  C   UNL     1      22.088   1.889  -1.608  1.00  0.00     0.020 A 
ATOM     94  C   UNL     1      22.527   1.406   0.733  1.00  0.00     0.020 A 
ATOM     95  C   UNL     1      22.975   1.551  -0.581  1.00  0.00     0.054 A 
BRANCH  95  96
ATOM     96  S   UNL     1      24.732   1.339  -0.980  1.00  0.00     0.124 S 
ATOM     97  O   UNL     1      24.724   0.086  -1.730  1.00  0.00    -0.237 OA
ATOM     98  O   UNL     1      25.029   2.538  -1.760  1.00  0.00    -0.237 OA
ATOM     99  O   UNL     1      25.380   1.277   0.328  1.00  0.00    -0.744 OA
ENDBRANCH  95  96
ENDBRANCH  69  90
ENDBRANCH  43  44
ENDBRANCH  36  38
ENDBRANCH  35  36
ENDBRANCH  34  35
ENDBRANCH  33  34
ENDBRANCH  32  33
ENDBRANCH  31  32
ENDBRANCH  30  31
ENDBRANCH   1  30
TORSDOF 28
