REMARK SMILES Cc1nc(SCc2ccccc2)[nH]c(=O)c1CCC(=O)OCCOCCOCCOCCOC(=O)c1ccc(-c2c3nc(c(-c4ccc(S(=O)(=O)[O-])cc4)c4ccc([nH]4)c(-c4ccc(S(=O)(=O)[O-])cc4)c4nc(c(-c5ccc(S(=O)(=O)[O-])cc5)c5ccc2[nH]5)C=C4)C=C3)cc1
REMARK SMILES IDX 26 1 25 2 24 3 23 4 22 5 21 6 19 7 20 8 18 9 17 10 16 11
REMARK SMILES IDX 1 12 2 13 3 14 4 15 14 16 13 17 15 18 5 20 6 21 7 22 8 23
REMARK SMILES IDX 12 24 9 25 11 26 10 27 27 28 28 29 29 30 30 31 31 32 32 33
REMARK SMILES IDX 33 34 34 35 35 36 36 37 37 38 95 39 38 40 94 41 39 42 40 43
REMARK SMILES IDX 41 44 88 45 42 46 93 47 87 48 89 49 43 50 92 51 86 52 85 53
REMARK SMILES IDX 44 55 74 56 55 57 73 58 56 59 59 60 72 61 90 62 57 63 58 64
REMARK SMILES IDX 71 66 91 67 60 68 45 69 46 70 54 71 47 72 53 73 48 74 49 75
REMARK SMILES IDX 50 76 51 77 52 78 75 79 76 80 84 81 77 82 83 83 78 84 79 85
REMARK SMILES IDX 80 86 81 87 82 88 61 89 62 90 70 91 63 92 69 93 64 94 65 95
REMARK SMILES IDX 66 96 67 97 68 98
REMARK H PARENT 13 19 89 54 59 65
REMARK Flexibility Score: inf
ROOT
ATOM      1  C   UNL     1       2.614  -3.028   1.254  1.00  0.00     0.188 C 
ENDROOT
BRANCH   1   2
ATOM      2  C   UNL     1       3.320  -3.361  -0.071  1.00  0.00     0.188 C 
BRANCH   2   3
ATOM      3  O   UNL     1       4.600  -2.851  -0.375  1.00  0.00    -0.376 OA
BRANCH   3   4
ATOM      4  C   UNL     1       4.783  -1.819  -1.345  1.00  0.00     0.202 C 
BRANCH   4   5
ATOM      5  C   UNL     1       3.901  -1.561  -2.592  1.00  0.00     0.261 C 
BRANCH   5   6
ATOM      6  O   UNL     1       2.476  -1.536  -2.430  1.00  0.00    -0.463 OA
BRANCH   6   7
ATOM      7  C   UNL     1       1.756  -2.606  -2.809  1.00  0.00     0.306 C 
ATOM      8  O   UNL     1       2.226  -3.593  -3.367  1.00  0.00    -0.252 OA
BRANCH   7   9
ATOM      9  C   UNL     1       0.276  -2.473  -2.479  1.00  0.00     0.128 C 
BRANCH   9  10
ATOM     10  C   UNL     1      -0.216  -2.207  -1.035  1.00  0.00     0.055 C 
BRANCH  10  11
ATOM     11  C   UNL     1      -0.345  -0.816  -0.427  1.00  0.00     0.039 A 
ATOM     12  C   UNL     1      -2.745  -1.069   0.326  1.00  0.00     0.067 C 
ATOM     13  C   UNL     1      -1.443  -0.315   0.197  1.00  0.00     0.049 A 
ATOM     14  N   UNL     1      -1.556   0.989   0.654  1.00  0.00    -0.229 NA
ATOM     15  C   UNL     1      -0.604   1.799   0.341  1.00  0.00     0.168 A 
ATOM     16  C   UNL     1       0.826   0.099  -0.389  1.00  0.00     0.254 A 
ATOM     17  N   UNL     1       0.567   1.407  -0.188  1.00  0.00    -0.301 N 
ATOM     18  O   UNL     1       1.982  -0.266  -0.512  1.00  0.00    -0.269 OA
ATOM     19  H   UNL     1       1.242   2.080  -0.431  1.00  0.00     0.172 HD
BRANCH  15  20
ATOM     20  S   UNL     1      -0.683   3.516   0.459  1.00  0.00    -0.083 SA
BRANCH  20  21
ATOM     21  C   UNL     1      -2.398   3.838   0.007  1.00  0.00     0.113 C 
BRANCH  21  22
ATOM     22  C   UNL     1      -2.917   3.477  -1.376  1.00  0.00    -0.038 A 
ATOM     23  C   UNL     1      -3.737   4.395  -2.050  1.00  0.00     0.004 A 
ATOM     24  C   UNL     1      -2.792   2.208  -1.957  1.00  0.00     0.004 A 
ATOM     25  C   UNL     1      -4.431   4.034  -3.212  1.00  0.00     0.000 A 
ATOM     26  C   UNL     1      -3.494   1.832  -3.103  1.00  0.00     0.000 A 
ATOM     27  C   UNL     1      -4.329   2.744  -3.724  1.00  0.00     0.000 A 
ENDBRANCH  21  22
ENDBRANCH  20  21
ENDBRANCH  15  20
ENDBRANCH  10  11
ENDBRANCH   9  10
ENDBRANCH   7   9
ENDBRANCH   6   7
ENDBRANCH   5   6
ENDBRANCH   4   5
ENDBRANCH   3   4
ENDBRANCH   2   3
ENDBRANCH   1   2
BRANCH   1  28
ATOM     28  O   UNL     1       2.540  -1.706   1.753  1.00  0.00    -0.377 OA
BRANCH  28  29
ATOM     29  C   UNL     1       3.736  -0.945   1.786  1.00  0.00     0.188 C 
BRANCH  29  30
ATOM     30  C   UNL     1       4.971  -1.565   2.455  1.00  0.00     0.188 C 
BRANCH  30  31
ATOM     31  O   UNL     1       4.801  -2.910   2.858  1.00  0.00    -0.376 OA
BRANCH  31  32
ATOM     32  C   UNL     1       4.347  -3.141   4.188  1.00  0.00     0.202 C 
BRANCH  32  33
ATOM     33  C   UNL     1       3.097  -2.422   4.740  1.00  0.00     0.261 C 
BRANCH  33  34
ATOM     34  O   UNL     1       3.015  -0.995   4.591  1.00  0.00    -0.460 OA
BRANCH  34  35
ATOM     35  C   UNL     1       3.908  -0.230   5.247  1.00  0.00     0.338 C 
ATOM     36  O   UNL     1       4.807  -0.616   5.978  1.00  0.00    -0.246 OA
BRANCH  35  37
ATOM     37  C   UNL     1       3.729   1.166   4.786  1.00  0.00     0.060 A 
ATOM     38  C   UNL     1       4.764   1.784   4.071  1.00  0.00     0.016 A 
ATOM     39  C   UNL     1       2.546   1.862   5.048  1.00  0.00     0.016 A 
ATOM     40  C   UNL     1       4.633   3.108   3.647  1.00  0.00     0.010 A 
ATOM     41  C   UNL     1       2.426   3.197   4.645  1.00  0.00     0.010 A 
ATOM     42  C   UNL     1       3.482   3.838   3.972  1.00  0.00    -0.014 A 
BRANCH  42  43
ATOM     43  C   UNL     1       3.470   5.311   3.784  1.00  0.00     0.031 A 
ATOM     44  C   UNL     1       3.784   6.186   4.969  1.00  0.00     0.074 A 
ATOM     45  C   UNL     1       3.221   5.868   2.584  1.00  0.00     0.049 A 
ATOM     46  N   UNL     1       3.807   7.491   5.056  1.00  0.00    -0.248 NA
ATOM     47  C   UNL     1       4.121   5.493   6.223  1.00  0.00     0.031 C 
ATOM     48  C   UNL     1       2.964   5.133   1.347  1.00  0.00     0.029 A 
ATOM     49  N   UNL     1       3.142   7.188   2.213  1.00  0.00    -0.354 N 
ATOM     50  C   UNL     1       4.150   7.774   6.373  1.00  0.00     0.074 A 
ATOM     51  C   UNL     1       4.298   6.508   7.055  1.00  0.00     0.031 C 
ATOM     52  C   UNL     1       2.743   6.014   0.355  1.00  0.00     0.029 A 
ATOM     53  C   UNL     1       2.807   7.373   0.892  1.00  0.00     0.049 A 
ATOM     54  H   UNL     1       3.310   7.933   2.835  1.00  0.00     0.167 HD
ATOM     55  C   UNL     1       4.329   8.980   6.963  1.00  0.00     0.031 A 
ATOM     56  C   UNL     1       2.558   8.505   0.202  1.00  0.00     0.031 A 
ATOM     57  C   UNL     1       4.160  10.239   6.286  1.00  0.00     0.049 A 
ATOM     58  C   UNL     1       2.675   9.837   0.902  1.00  0.00     0.074 A 
ATOM     59  C   UNL     1       4.324  11.516   6.794  1.00  0.00     0.029 A 
ATOM     60  N   UNL     1       3.778  10.382   4.961  1.00  0.00    -0.354 N 
ATOM     61  N   UNL     1       3.018  10.091   2.143  1.00  0.00    -0.248 NA
ATOM     62  C   UNL     1       2.381  11.037   0.104  1.00  0.00     0.031 C 
ATOM     63  C   UNL     1       3.973  12.430   5.796  1.00  0.00     0.029 A 
ATOM     64  C   UNL     1       3.670  11.725   4.642  1.00  0.00     0.049 A 
ATOM     65  H   UNL     1       3.608   9.638   4.339  1.00  0.00     0.167 HD
ATOM     66  C   UNL     1       3.018  11.478   2.263  1.00  0.00     0.074 A 
ATOM     67  C   UNL     1       2.649  12.009   0.967  1.00  0.00     0.031 C 
ATOM     68  C   UNL     1       3.307  12.243   3.346  1.00  0.00     0.031 A 
BRANCH  55  69
ATOM     69  C   UNL     1       4.682   8.995   8.428  1.00  0.00    -0.014 A 
ATOM     70  C   UNL     1       5.936   8.552   8.887  1.00  0.00     0.010 A 
ATOM     71  C   UNL     1       3.752   9.494   9.359  1.00  0.00     0.010 A 
ATOM     72  C   UNL     1       6.237   8.569  10.252  1.00  0.00     0.020 A 
ATOM     73  C   UNL     1       4.061   9.543  10.721  1.00  0.00     0.020 A 
ATOM     74  C   UNL     1       5.296   9.064  11.161  1.00  0.00     0.054 A 
BRANCH  74  75
ATOM     75  S   UNL     1       5.722   9.095  12.923  1.00  0.00     0.124 S 
ATOM     76  O   UNL     1       5.709   7.673  13.261  1.00  0.00    -0.237 OA
ATOM     77  O   UNL     1       7.038   9.727  12.923  1.00  0.00    -0.237 OA
ATOM     78  O   UNL     1       4.653   9.886  13.526  1.00  0.00    -0.744 OA
ENDBRANCH  74  75
ENDBRANCH  55  69
BRANCH  56  79
ATOM     79  C   UNL     1       2.154   8.430  -1.231  1.00  0.00    -0.014 A 
ATOM     80  C   UNL     1       2.995   8.921  -2.245  1.00  0.00     0.010 A 
ATOM     81  C   UNL     1       0.915   7.866  -1.589  1.00  0.00     0.010 A 
ATOM     82  C   UNL     1       2.599   8.864  -3.586  1.00  0.00     0.020 A 
ATOM     83  C   UNL     1       0.529   7.777  -2.929  1.00  0.00     0.020 A 
ATOM     84  C   UNL     1       1.370   8.287  -3.919  1.00  0.00     0.054 A 
BRANCH  84  85
ATOM     85  S   UNL     1       0.903   8.178  -5.670  1.00  0.00     0.124 S 
ATOM     86  O   UNL     1       0.662   9.577  -6.008  1.00  0.00    -0.237 OA
ATOM     87  O   UNL     1       2.089   7.575  -6.272  1.00  0.00    -0.237 OA
ATOM     88  O   UNL     1      -0.283   7.325  -5.656  1.00  0.00    -0.744 OA
ENDBRANCH  84  85
ENDBRANCH  56  79
BRANCH  68  89
ATOM     89  C   UNL     1       3.294  13.742   3.175  1.00  0.00    -0.014 A 
ATOM     90  C   UNL     1       2.095  14.455   3.001  1.00  0.00     0.010 A 
ATOM     91  C   UNL     1       4.505  14.454   3.269  1.00  0.00     0.010 A 
ATOM     92  C   UNL     1       2.112  15.850   2.895  1.00  0.00     0.020 A 
ATOM     93  C   UNL     1       4.522  15.849   3.197  1.00  0.00     0.020 A 
ATOM     94  C   UNL     1       3.325  16.538   2.998  1.00  0.00     0.054 A 
BRANCH  94  95
ATOM     95  S   UNL     1       3.312  18.350   2.911  1.00  0.00     0.124 S 
ATOM     96  O   UNL     1       3.003  18.586   1.504  1.00  0.00    -0.237 OA
ATOM     97  O   UNL     1       2.255  18.706   3.855  1.00  0.00    -0.237 OA
ATOM     98  O   UNL     1       4.661  18.728   3.325  1.00  0.00    -0.744 OA
ENDBRANCH  94  95
ENDBRANCH  68  89
ENDBRANCH  42  43
ENDBRANCH  35  37
ENDBRANCH  34  35
ENDBRANCH  33  34
ENDBRANCH  32  33
ENDBRANCH  31  32
ENDBRANCH  30  31
ENDBRANCH  29  30
ENDBRANCH  28  29
ENDBRANCH   1  28
TORSDOF 28
