REMARK SMILES O=C(CCOc1cccc(/C=C2\CCn3c2nc2cc(Cl)ccc2c3=O)c1)OCCOCCOCCOCCOC(=O)c1ccc(-c2c3nc(c(-c4ccc(S(=O)(=O)[O-])cc4)c4ccc([nH]4)c(-c4ccc(S(=O)(=O)[O-])cc4)c4nc(c(-c5ccc(S(=O)(=O)[O-])cc5)c5ccc2[nH]5)C=C4)C=C3)cc1
REMARK SMILES IDX 33 1 32 2 31 3 30 4 29 5 28 6 2 7 1 8 3 9 4 10 5 11 6 12
REMARK SMILES IDX 7 13 27 14 8 15 10 16 9 17 11 18 12 19 13 20 16 21 14 22
REMARK SMILES IDX 15 23 17 24 25 25 18 26 24 27 26 28 19 29 23 30 20 31 22 32
REMARK SMILES IDX 21 33 34 34 35 35 36 36 37 37 38 38 39 39 40 40 41 41 42 42
REMARK SMILES IDX 43 43 44 44 102 45 45 46 101 47 46 48 47 49 48 50 95 51
REMARK SMILES IDX 49 52 100 53 94 54 96 55 50 56 99 57 93 58 92 59 51 61 81 62
REMARK SMILES IDX 62 63 80 64 63 65 66 66 79 67 97 68 64 69 65 70 78 72 98 73
REMARK SMILES IDX 67 74 52 75 53 76 61 77 54 78 60 79 55 80 56 81 57 82 58 83
REMARK SMILES IDX 59 84 82 85 83 86 91 87 84 88 90 89 85 90 86 91 87 92 88 93
REMARK SMILES IDX 89 94 68 95 69 96 77 97 70 98 76 99 71 100 72 101 73 102
REMARK SMILES IDX 74 103 75 104
REMARK H PARENT 96 60 66 71
REMARK Flexibility Score: inf
ROOT
ATOM      1  C   UNL     1       2.962  -2.020   1.274  1.00  0.00     0.188 C 
ENDROOT
BRANCH   1   2
ATOM      2  C   UNL     1       3.054  -2.553  -0.169  1.00  0.00     0.188 C 
BRANCH   2   3
ATOM      3  O   UNL     1       3.825  -1.844  -1.149  1.00  0.00    -0.376 OA
BRANCH   3   4
ATOM      4  C   UNL     1       5.022  -1.208  -0.709  1.00  0.00     0.202 C 
BRANCH   4   5
ATOM      5  C   UNL     1       4.779   0.225  -0.213  1.00  0.00     0.261 C 
BRANCH   5   6
ATOM      6  O   UNL     1       3.382   0.538  -0.024  1.00  0.00    -0.463 OA
BRANCH   6   7
ATOM      7  C   UNL     1       2.490   0.589  -1.037  1.00  0.00     0.309 C 
ATOM      8  O   UNL     1       1.280   0.580  -0.811  1.00  0.00    -0.252 OA
BRANCH   7   9
ATOM      9  C   UNL     1       3.010   0.781  -2.430  1.00  0.00     0.164 C 
BRANCH   9  10
ATOM     10  C   UNL     1       3.047   2.259  -2.778  1.00  0.00     0.241 C 
BRANCH  10  11
ATOM     11  O   UNL     1       4.185   2.936  -2.242  1.00  0.00    -0.493 OA
BRANCH  11  12
ATOM     12  C   UNL     1       4.145   3.474  -0.983  1.00  0.00     0.119 A 
ATOM     13  C   UNL     1       5.388   3.911  -0.529  1.00  0.00     0.046 A 
ATOM     14  C   UNL     1       3.042   3.528  -0.118  1.00  0.00     0.054 A 
ATOM     15  C   UNL     1       5.533   4.385   0.767  1.00  0.00     0.004 A 
ATOM     16  C   UNL     1       3.185   3.916   1.234  1.00  0.00    -0.022 A 
ATOM     17  C   UNL     1       4.442   4.381   1.637  1.00  0.00     0.008 A 
BRANCH  16  18
ATOM     18  C   UNL     1       2.083   3.551   2.175  1.00  0.00     0.015 C 
ATOM     19  C   UNL     1       2.078   3.584   3.525  1.00  0.00    -0.003 C 
ATOM     20  C   UNL     1       3.005   4.173   4.546  1.00  0.00     0.061 C 
ATOM     21  C   UNL     1       1.711   2.254   4.110  1.00  0.00     0.139 A 
ATOM     22  C   UNL     1       3.809   2.941   4.930  1.00  0.00     0.132 C 
ATOM     23  N   UNL     1       2.864   1.855   4.774  1.00  0.00    -0.292 N 
ATOM     24  N   UNL     1       0.651   1.533   4.000  1.00  0.00    -0.230 NA
ATOM     25  C   UNL     1       3.151   0.535   4.964  1.00  0.00     0.261 A 
ATOM     26  C   UNL     1       0.739   0.229   4.539  1.00  0.00     0.080 A 
ATOM     27  C   UNL     1       1.973  -0.346   4.863  1.00  0.00     0.066 A 
ATOM     28  O   UNL     1       4.271   0.084   5.181  1.00  0.00    -0.269 OA
ATOM     29  C   UNL     1      -0.409  -0.555   4.678  1.00  0.00     0.049 A 
ATOM     30  C   UNL     1       2.083  -1.701   5.159  1.00  0.00     0.017 A 
ATOM     31  C   UNL     1      -0.302  -1.901   5.050  1.00  0.00     0.043 A 
ATOM     32  C   UNL     1       0.944  -2.490   5.247  1.00  0.00     0.021 A 
ATOM     33  Cl  UNL     1      -1.719  -2.855   5.254  1.00  0.00    -0.084 Cl
ENDBRANCH  16  18
ENDBRANCH  11  12
ENDBRANCH  10  11
ENDBRANCH   9  10
ENDBRANCH   7   9
ENDBRANCH   6   7
ENDBRANCH   5   6
ENDBRANCH   4   5
ENDBRANCH   3   4
ENDBRANCH   2   3
ENDBRANCH   1   2
BRANCH   1  34
ATOM     34  O   UNL     1       4.224  -1.654   1.808  1.00  0.00    -0.377 OA
BRANCH  34  35
ATOM     35  C   UNL     1       4.839  -2.561   2.701  1.00  0.00     0.188 C 
BRANCH  35  36
ATOM     36  C   UNL     1       5.521  -3.788   2.079  1.00  0.00     0.188 C 
BRANCH  36  37
ATOM     37  O   UNL     1       4.732  -4.770   1.424  1.00  0.00    -0.376 OA
BRANCH  37  38
ATOM     38  C   UNL     1       3.587  -5.338   2.041  1.00  0.00     0.202 C 
BRANCH  38  39
ATOM     39  C   UNL     1       3.653  -5.875   3.473  1.00  0.00     0.261 C 
BRANCH  39  40
ATOM     40  O   UNL     1       3.918  -4.864   4.460  1.00  0.00    -0.460 OA
BRANCH  40  41
ATOM     41  C   UNL     1       5.102  -4.995   5.111  1.00  0.00     0.338 C 
ATOM     42  O   UNL     1       5.923  -5.881   4.957  1.00  0.00    -0.246 OA
BRANCH  41  43
ATOM     43  C   UNL     1       5.372  -3.795   5.928  1.00  0.00     0.060 A 
ATOM     44  C   UNL     1       6.582  -3.123   5.722  1.00  0.00     0.016 A 
ATOM     45  C   UNL     1       4.490  -3.377   6.927  1.00  0.00     0.016 A 
ATOM     46  C   UNL     1       6.949  -2.073   6.561  1.00  0.00     0.010 A 
ATOM     47  C   UNL     1       4.844  -2.302   7.751  1.00  0.00     0.010 A 
ATOM     48  C   UNL     1       6.110  -1.702   7.620  1.00  0.00    -0.014 A 
BRANCH  48  49
ATOM     49  C   UNL     1       6.703  -0.963   8.765  1.00  0.00     0.031 A 
ATOM     50  C   UNL     1       7.139  -1.780   9.958  1.00  0.00     0.074 A 
ATOM     51  C   UNL     1       6.934   0.362   8.734  1.00  0.00     0.049 A 
ATOM     52  N   UNL     1       7.748  -1.400  11.051  1.00  0.00    -0.248 NA
ATOM     53  C   UNL     1       6.849  -3.225   9.908  1.00  0.00     0.031 C 
ATOM     54  C   UNL     1       6.607   1.259   7.628  1.00  0.00     0.029 A 
ATOM     55  N   UNL     1       7.519   1.180   9.669  1.00  0.00    -0.354 N 
ATOM     56  C   UNL     1       7.900  -2.553  11.814  1.00  0.00     0.074 A 
ATOM     57  C   UNL     1       7.278  -3.635  11.089  1.00  0.00     0.031 C 
ATOM     58  C   UNL     1       7.006   2.505   7.945  1.00  0.00     0.029 A 
ATOM     59  C   UNL     1       7.603   2.496   9.281  1.00  0.00     0.049 A 
ATOM     60  H   UNL     1       7.849   0.854  10.538  1.00  0.00     0.167 HD
ATOM     61  C   UNL     1       8.522  -2.713  13.005  1.00  0.00     0.031 A 
ATOM     62  C   UNL     1       8.110   3.565   9.928  1.00  0.00     0.031 A 
ATOM     63  C   UNL     1       9.147  -1.644  13.731  1.00  0.00     0.049 A 
ATOM     64  C   UNL     1       8.746   3.377  11.284  1.00  0.00     0.074 A 
ATOM     65  C   UNL     1       9.822  -1.704  14.935  1.00  0.00     0.029 A 
ATOM     66  N   UNL     1       9.166  -0.321  13.320  1.00  0.00    -0.354 N 
ATOM     67  N   UNL     1       8.917   2.273  11.972  1.00  0.00    -0.248 NA
ATOM     68  C   UNL     1       9.276   4.582  11.939  1.00  0.00     0.031 C 
ATOM     69  C   UNL     1      10.202  -0.404  15.282  1.00  0.00     0.029 A 
ATOM     70  C   UNL     1       9.820   0.453  14.261  1.00  0.00     0.049 A 
ATOM     71  H   UNL     1       8.774   0.018  12.483  1.00  0.00     0.167 HD
ATOM     72  C   UNL     1       9.611   2.645  13.121  1.00  0.00     0.074 A 
ATOM     73  C   UNL     1       9.832   4.073  13.030  1.00  0.00     0.031 C 
ATOM     74  C   UNL     1      10.036   1.873  14.153  1.00  0.00     0.031 A 
BRANCH  61  75
ATOM     75  C   UNL     1       8.519  -4.094  13.602  1.00  0.00    -0.014 A 
ATOM     76  C   UNL     1       9.277  -5.137  13.039  1.00  0.00     0.010 A 
ATOM     77  C   UNL     1       7.738  -4.351  14.742  1.00  0.00     0.010 A 
ATOM     78  C   UNL     1       9.218  -6.424  13.580  1.00  0.00     0.020 A 
ATOM     79  C   UNL     1       7.700  -5.629  15.304  1.00  0.00     0.020 A 
ATOM     80  C   UNL     1       8.425  -6.662  14.707  1.00  0.00     0.054 A 
BRANCH  80  81
ATOM     81  S   UNL     1       8.374  -8.338  15.397  1.00  0.00     0.124 S 
ATOM     82  O   UNL     1       7.558  -9.044  14.412  1.00  0.00    -0.237 OA
ATOM     83  O   UNL     1       9.785  -8.715  15.429  1.00  0.00    -0.237 OA
ATOM     84  O   UNL     1       7.751  -8.156  16.705  1.00  0.00    -0.744 OA
ENDBRANCH  80  81
ENDBRANCH  61  75
BRANCH  62  85
ATOM     85  C   UNL     1       8.058   4.915   9.301  1.00  0.00    -0.014 A 
ATOM     86  C   UNL     1       9.235   5.550   8.862  1.00  0.00     0.010 A 
ATOM     87  C   UNL     1       6.829   5.585   9.160  1.00  0.00     0.010 A 
ATOM     88  C   UNL     1       9.185   6.834   8.311  1.00  0.00     0.020 A 
ATOM     89  C   UNL     1       6.773   6.858   8.585  1.00  0.00     0.020 A 
ATOM     90  C   UNL     1       7.953   7.479   8.174  1.00  0.00     0.054 A 
BRANCH  90  91
ATOM     91  S   UNL     1       7.904   9.122   7.404  1.00  0.00     0.124 S 
ATOM     92  O   UNL     1       8.454   9.969   8.457  1.00  0.00    -0.237 OA
ATOM     93  O   UNL     1       8.750   8.942   6.226  1.00  0.00    -0.237 OA
ATOM     94  O   UNL     1       6.485   9.318   7.115  1.00  0.00    -0.744 OA
ENDBRANCH  90  91
ENDBRANCH  62  85
BRANCH  74  95
ATOM     95  C   UNL     1      10.829   2.541  15.245  1.00  0.00    -0.014 A 
ATOM     96  C   UNL     1      10.225   3.421  16.161  1.00  0.00     0.010 A 
ATOM     97  C   UNL     1      12.196   2.237  15.387  1.00  0.00     0.010 A 
ATOM     98  C   UNL     1      10.985   4.017  17.172  1.00  0.00     0.020 A 
ATOM     99  C   UNL     1      12.951   2.807  16.414  1.00  0.00     0.020 A 
ATOM    100  C   UNL     1      12.344   3.709  17.289  1.00  0.00     0.054 A 
BRANCH 100 101
ATOM    101  S   UNL     1      13.303   4.476  18.624  1.00  0.00     0.124 S 
ATOM    102  O   UNL     1      13.468   5.841  18.132  1.00  0.00    -0.237 OA
ATOM    103  O   UNL     1      12.423   4.327  19.780  1.00  0.00    -0.237 OA
ATOM    104  O   UNL     1      14.527   3.679  18.673  1.00  0.00    -0.744 OA
ENDBRANCH 100 101
ENDBRANCH  74  95
ENDBRANCH  48  49
ENDBRANCH  41  43
ENDBRANCH  40  41
ENDBRANCH  39  40
ENDBRANCH  38  39
ENDBRANCH  37  38
ENDBRANCH  36  37
ENDBRANCH  35  36
ENDBRANCH  34  35
ENDBRANCH   1  34
TORSDOF 27
