REMARK SMILES CC(C)[C@](C)(CC(=O)NC#N)C(=O)OCCOCCOCCOCCOC(=O)c1ccc(-c2c3nc(c(-c4ccc(S(=O)(=O)[O-])cc4)c4ccc([nH]4)c(-c4ccc(S(=O)(=O)[O-])cc4)c4nc(c(-c5ccc(S(=O)(=O)[O-])cc5)c5ccc2[nH]5)C=C4)C=C3)cc1
REMARK SMILES IDX 20 1 19 2 18 3 17 4 16 5 15 6 14 7 12 8 13 9 4 10 5 11 2 12
REMARK SMILES IDX 1 13 3 14 6 15 7 16 8 17 9 18 10 20 11 21 21 22 22 23 23 24
REMARK SMILES IDX 24 25 25 26 26 27 27 28 28 29 29 30 30 31 88 32 31 33 87 34
REMARK SMILES IDX 32 35 33 36 34 37 81 38 35 39 86 40 80 41 82 42 36 43 85 44
REMARK SMILES IDX 79 45 78 46 37 48 67 49 48 50 66 51 49 52 52 53 65 54 83 55
REMARK SMILES IDX 50 56 51 57 64 59 84 60 53 61 38 62 39 63 47 64 40 65 46 66
REMARK SMILES IDX 41 67 42 68 43 69 44 70 45 71 68 72 69 73 77 74 70 75 76 76
REMARK SMILES IDX 71 77 72 78 73 79 74 80 75 81 54 82 55 83 63 84 56 85 62 86
REMARK SMILES IDX 57 87 58 88 59 89 60 90 61 91
REMARK H PARENT 9 19 82 47 52 58
REMARK Flexibility Score: inf
ROOT
ATOM      1  O   UNL     1      -2.179   4.152   1.795  1.00  0.00    -0.377 OA
ENDROOT
BRANCH   1   2
ATOM      2  C   UNL     1      -1.101   3.574   1.093  1.00  0.00     0.188 C 
BRANCH   2   3
ATOM      3  C   UNL     1      -0.750   3.851  -0.364  1.00  0.00     0.188 C 
BRANCH   3   4
ATOM      4  O   UNL     1      -1.835   4.219  -1.173  1.00  0.00    -0.376 OA
BRANCH   4   5
ATOM      5  C   UNL     1      -2.658   3.294  -1.847  1.00  0.00     0.202 C 
BRANCH   5   6
ATOM      6  C   UNL     1      -3.223   1.977  -1.254  1.00  0.00     0.261 C 
BRANCH   6   7
ATOM      7  O   UNL     1      -2.705   1.434  -0.025  1.00  0.00    -0.463 OA
BRANCH   7   8
ATOM      8  C   UNL     1      -1.556   0.734  -0.167  1.00  0.00     0.312 C 
ATOM      9  O   UNL     1      -0.963   0.681  -1.244  1.00  0.00    -0.252 OA
BRANCH   8  10
ATOM     10  C   UNL     1      -1.015   0.010   1.116  1.00  0.00     0.076 C 
ATOM     11  C   UNL     1       0.510   0.145   0.986  1.00  0.00     0.024 C 
BRANCH  10  12
ATOM     12  C   UNL     1      -1.490  -1.499   0.976  1.00  0.00     0.000 C 
ATOM     13  C   UNL     1      -1.473  -2.061  -0.454  1.00  0.00     0.008 C 
ATOM     14  C   UNL     1      -0.708  -2.481   1.866  1.00  0.00     0.008 C 
ENDBRANCH  10  12
BRANCH  10  15
ATOM     15  C   UNL     1      -1.524   0.479   2.539  1.00  0.00     0.119 C 
BRANCH  15  16
ATOM     16  C   UNL     1      -1.016   1.615   3.448  1.00  0.00     0.234 C 
ATOM     17  O   UNL     1      -1.840   2.319   4.047  1.00  0.00    -0.274 OA
ATOM     18  N   UNL     1       0.271   1.849   3.789  1.00  0.00    -0.263 N 
ATOM     19  H   UNL     1       0.339   2.670   4.327  1.00  0.00     0.182 HD
BRANCH  18  20
ATOM     20  C   UNL     1       1.474   1.306   3.616  1.00  0.00     0.183 C 
ATOM     21  N   UNL     1       2.555   0.900   3.496  1.00  0.00    -0.172 NA
ENDBRANCH  18  20
ENDBRANCH  15  16
ENDBRANCH  10  15
ENDBRANCH   8  10
ENDBRANCH   7   8
ENDBRANCH   6   7
ENDBRANCH   5   6
ENDBRANCH   4   5
ENDBRANCH   3   4
ENDBRANCH   2   3
ENDBRANCH   1   2
BRANCH   1  22
ATOM     22  C   UNL     1      -3.195   4.819   1.085  1.00  0.00     0.188 C 
BRANCH  22  23
ATOM     23  C   UNL     1      -2.764   6.201   0.578  1.00  0.00     0.188 C 
BRANCH  23  24
ATOM     24  O   UNL     1      -1.498   6.729   0.945  1.00  0.00    -0.376 OA
BRANCH  24  25
ATOM     25  C   UNL     1      -0.976   6.587   2.255  1.00  0.00     0.202 C 
BRANCH  25  26
ATOM     26  C   UNL     1      -1.808   6.638   3.551  1.00  0.00     0.261 C 
BRANCH  26  27
ATOM     27  O   UNL     1      -3.213   6.406   3.474  1.00  0.00    -0.460 OA
BRANCH  27  28
ATOM     28  C   UNL     1      -3.967   7.494   3.204  1.00  0.00     0.338 C 
ATOM     29  O   UNL     1      -3.577   8.629   3.005  1.00  0.00    -0.246 OA
BRANCH  28  30
ATOM     30  C   UNL     1      -5.362   7.048   3.018  1.00  0.00     0.060 A 
ATOM     31  C   UNL     1      -5.961   7.206   1.760  1.00  0.00     0.016 A 
ATOM     32  C   UNL     1      -6.080   6.506   4.084  1.00  0.00     0.016 A 
ATOM     33  C   UNL     1      -7.290   6.851   1.569  1.00  0.00     0.010 A 
ATOM     34  C   UNL     1      -7.427   6.187   3.903  1.00  0.00     0.010 A 
ATOM     35  C   UNL     1      -8.042   6.396   2.655  1.00  0.00    -0.014 A 
BRANCH  35  36
ATOM     36  C   UNL     1      -9.514   6.351   2.532  1.00  0.00     0.031 A 
ATOM     37  C   UNL     1     -10.307   7.496   3.096  1.00  0.00     0.074 A 
ATOM     38  C   UNL     1     -10.122   5.338   1.891  1.00  0.00     0.049 A 
ATOM     39  N   UNL     1     -11.601   7.659   3.150  1.00  0.00    -0.248 NA
ATOM     40  C   UNL     1      -9.534   8.606   3.682  1.00  0.00     0.031 C 
ATOM     41  C   UNL     1      -9.442   4.218   1.242  1.00  0.00     0.029 A 
ATOM     42  N   UNL     1     -11.454   5.093   1.685  1.00  0.00    -0.354 N 
ATOM     43  C   UNL     1     -11.800   8.874   3.795  1.00  0.00     0.074 A 
ATOM     44  C   UNL     1     -10.496   9.395   4.136  1.00  0.00     0.031 C 
ATOM     45  C   UNL     1     -10.367   3.397   0.714  1.00  0.00     0.029 A 
ATOM     46  C   UNL     1     -11.698   3.911   1.029  1.00  0.00     0.049 A 
ATOM     47  H   UNL     1     -12.168   5.705   1.978  1.00  0.00     0.167 HD
ATOM     48  C   UNL     1     -12.968   9.496   4.078  1.00  0.00     0.031 A 
ATOM     49  C   UNL     1     -12.866   3.302   0.745  1.00  0.00     0.031 A 
ATOM     50  C   UNL     1     -14.259   8.955   3.743  1.00  0.00     0.049 A 
ATOM     51  C   UNL     1     -14.154   3.970   1.153  1.00  0.00     0.074 A 
ATOM     52  C   UNL     1     -15.506   9.508   3.968  1.00  0.00     0.029 A 
ATOM     53  N   UNL     1     -14.468   7.731   3.124  1.00  0.00    -0.354 N 
ATOM     54  N   UNL     1     -14.332   5.128   1.746  1.00  0.00    -0.248 NA
ATOM     55  C   UNL     1     -15.399   3.254   0.845  1.00  0.00     0.031 C 
ATOM     56  C   UNL     1     -16.471   8.582   3.561  1.00  0.00     0.029 A 
ATOM     57  C   UNL     1     -15.826   7.492   2.996  1.00  0.00     0.049 A 
ATOM     58  H   UNL     1     -13.757   7.121   2.821  1.00  0.00     0.167 HD
ATOM     59  C   UNL     1     -15.710   5.294   1.848  1.00  0.00     0.074 A 
ATOM     60  C   UNL     1     -16.315   4.126   1.242  1.00  0.00     0.031 C 
ATOM     61  C   UNL     1     -16.411   6.322   2.389  1.00  0.00     0.031 A 
BRANCH  48  62
ATOM     62  C   UNL     1     -12.905  10.798   4.833  1.00  0.00    -0.014 A 
ATOM     63  C   UNL     1     -12.375  11.965   4.255  1.00  0.00     0.010 A 
ATOM     64  C   UNL     1     -13.426  10.861   6.139  1.00  0.00     0.010 A 
ATOM     65  C   UNL     1     -12.335  13.160   4.980  1.00  0.00     0.020 A 
ATOM     66  C   UNL     1     -13.421  12.061   6.855  1.00  0.00     0.020 A 
ATOM     67  C   UNL     1     -12.862  13.200   6.275  1.00  0.00     0.054 A 
BRANCH  67  68
ATOM     68  S   UNL     1     -12.830  14.773   7.177  1.00  0.00     0.124 S 
ATOM     69  O   UNL     1     -11.401  14.954   7.420  1.00  0.00    -0.237 OA
ATOM     70  O   UNL     1     -13.427  15.700   6.219  1.00  0.00    -0.237 OA
ATOM     71  O   UNL     1     -13.634  14.508   8.368  1.00  0.00    -0.744 OA
ENDBRANCH  67  68
ENDBRANCH  48  62
BRANCH  49  72
ATOM     72  C   UNL     1     -12.872   1.980   0.059  1.00  0.00    -0.014 A 
ATOM     73  C   UNL     1     -13.405   1.845  -1.235  1.00  0.00     0.010 A 
ATOM     74  C   UNL     1     -12.346   0.844   0.702  1.00  0.00     0.010 A 
ATOM     75  C   UNL     1     -13.429   0.597  -1.865  1.00  0.00     0.020 A 
ATOM     76  C   UNL     1     -12.334  -0.398   0.062  1.00  0.00     0.020 A 
ATOM     77  C   UNL     1     -12.886  -0.516  -1.214  1.00  0.00     0.054 A 
BRANCH  77  78
ATOM     78  S   UNL     1     -12.881  -2.112  -2.075  1.00  0.00     0.124 S 
ATOM     79  O   UNL     1     -14.301  -2.446  -2.109  1.00  0.00    -0.237 OA
ATOM     80  O   UNL     1     -12.279  -1.769  -3.362  1.00  0.00    -0.237 OA
ATOM     81  O   UNL     1     -12.058  -2.961  -1.218  1.00  0.00    -0.744 OA
ENDBRANCH  77  78
ENDBRANCH  49  72
BRANCH  61  82
ATOM     82  C   UNL     1     -17.916   6.259   2.308  1.00  0.00    -0.014 A 
ATOM     83  C   UNL     1     -18.657   5.319   3.046  1.00  0.00     0.010 A 
ATOM     84  C   UNL     1     -18.601   7.202   1.518  1.00  0.00     0.010 A 
ATOM     85  C   UNL     1     -20.052   5.301   2.967  1.00  0.00     0.020 A 
ATOM     86  C   UNL     1     -19.997   7.212   1.468  1.00  0.00     0.020 A 
ATOM     87  C   UNL     1     -20.713   6.251   2.182  1.00  0.00     0.054 A 
BRANCH  87  88
ATOM     88  S   UNL     1     -22.525   6.233   2.135  1.00  0.00     0.124 S 
ATOM     89  O   UNL     1     -22.799   5.003   1.396  1.00  0.00    -0.237 OA
ATOM     90  O   UNL     1     -22.879   6.207   3.552  1.00  0.00    -0.237 OA
ATOM     91  O   UNL     1     -22.868   7.469   1.435  1.00  0.00    -0.744 OA
ENDBRANCH  87  88
ENDBRANCH  61  82
ENDBRANCH  35  36
ENDBRANCH  28  30
ENDBRANCH  27  28
ENDBRANCH  26  27
ENDBRANCH  25  26
ENDBRANCH  24  25
ENDBRANCH  23  24
ENDBRANCH  22  23
ENDBRANCH   1  22
TORSDOF 27
