REMARK SMILES COc1ccc(-n2c(SCc3cn(-c4ccc(C(=O)OCCOCCOCCOCCOC(=O)c5ccc(-c6c7nc(c(-c8ccc(S(=O)(=O)[O-])cc8)c8ccc([nH]8)c(-c8ccc(S(=O)(=O)[O-])cc8)c8nc(c(-c9ccc(S(=O)(=O)[O-])cc9)c9ccc6[nH]9)C=C8)C=C7)cc5)cc4)nn3)nc3ccccc3c2=O)cc1
REMARK SMILES IDX 24 1 23 2 22 3 21 4 20 5 18 6 19 7 17 8 14 9 15 10 96 11
REMARK SMILES IDX 16 12 95 13 13 14 11 15 12 16 98 17 97 18 10 19 9 20 8 21
REMARK SMILES IDX 7 22 106 23 99 24 105 25 107 26 100 27 104 28 101 29 103 30
REMARK SMILES IDX 102 31 6 32 3 33 4 34 109 35 5 36 108 37 2 38 1 39 25 40
REMARK SMILES IDX 26 41 27 42 28 43 29 44 30 45 31 46 32 47 33 48 34 49 35 50
REMARK SMILES IDX 36 51 94 52 37 53 93 54 38 55 39 56 40 57 87 58 41 59 92 60
REMARK SMILES IDX 86 61 88 62 42 63 91 64 85 65 84 66 43 68 73 69 54 70 72 71
REMARK SMILES IDX 55 72 58 73 71 74 89 75 56 76 57 77 70 79 90 80 59 81 44 82
REMARK SMILES IDX 45 83 53 84 46 85 52 86 47 87 48 88 49 89 50 90 51 91 74 92
REMARK SMILES IDX 75 93 83 94 76 95 82 96 77 97 78 98 79 99 80 100 81 101
REMARK SMILES IDX 60 102 61 103 69 104 62 105 68 106 63 107 64 108 65 109
REMARK SMILES IDX 66 110 67 111
REMARK H PARENT 88 67 58 78
REMARK Flexibility Score: inf
ROOT
ATOM      1  C   UNL     1      -4.144   2.612   4.560  1.00  0.00     0.188 C 
ENDROOT
BRANCH   1   2
ATOM      2  O   UNL     1      -5.234   1.843   5.046  1.00  0.00    -0.376 OA
BRANCH   2   3
ATOM      3  C   UNL     1      -5.122   0.491   5.454  1.00  0.00     0.202 C 
BRANCH   3   4
ATOM      4  C   UNL     1      -4.177  -0.546   4.829  1.00  0.00     0.261 C 
BRANCH   4   5
ATOM      5  O   UNL     1      -3.053  -0.045   4.123  1.00  0.00    -0.460 OA
BRANCH   5   6
ATOM      6  C   UNL     1      -3.217   0.137   2.800  1.00  0.00     0.338 C 
ATOM      7  O   UNL     1      -4.199  -0.133   2.120  1.00  0.00    -0.246 OA
BRANCH   6   8
ATOM      8  C   UNL     1      -2.064   0.923   2.333  1.00  0.00     0.060 A 
ATOM      9  C   UNL     1       0.041   2.526   1.553  1.00  0.00     0.066 A 
ATOM     10  C   UNL     1      -1.251   2.839   1.114  1.00  0.00     0.029 A 
ATOM     11  C   UNL     1       0.279   1.462   2.432  1.00  0.00     0.029 A 
ATOM     12  C   UNL     1      -2.302   2.010   1.481  1.00  0.00     0.018 A 
ATOM     13  C   UNL     1      -0.782   0.665   2.833  1.00  0.00     0.018 A 
BRANCH   9  14
ATOM     14  N   UNL     1       1.129   3.222   1.012  1.00  0.00    -0.220 N 
ATOM     15  C   UNL     1       3.013   3.684   0.059  1.00  0.00     0.093 A 
ATOM     16  C   UNL     1       2.395   2.733   0.828  1.00  0.00     0.141 A 
ATOM     17  N   UNL     1       2.161   4.741  -0.110  1.00  0.00    -0.134 NA
ATOM     18  N   UNL     1       0.999   4.429   0.432  1.00  0.00    -0.062 NA
BRANCH  15  19
ATOM     19  C   UNL     1       4.329   3.596  -0.593  1.00  0.00     0.138 C 
BRANCH  19  20
ATOM     20  S   UNL     1       4.879   5.113  -1.337  1.00  0.00    -0.081 SA
BRANCH  20  21
ATOM     21  C   UNL     1       3.481   5.652  -2.357  1.00  0.00     0.176 A 
ATOM     22  N   UNL     1       3.292   4.857  -3.475  1.00  0.00    -0.255 N 
ATOM     23  C   UNL     1       3.932   5.270  -4.640  1.00  0.00     0.266 A 
ATOM     24  N   UNL     1       3.396   6.942  -2.497  1.00  0.00    -0.223 NA
ATOM     25  C   UNL     1       4.756   6.509  -4.460  1.00  0.00     0.066 A 
ATOM     26  O   UNL     1       3.907   4.702  -5.727  1.00  0.00    -0.268 OA
ATOM     27  C   UNL     1       4.390   7.364  -3.402  1.00  0.00     0.079 A 
ATOM     28  C   UNL     1       5.982   6.667  -5.099  1.00  0.00     0.016 A 
ATOM     29  C   UNL     1       5.213   8.424  -3.034  1.00  0.00     0.029 A 
ATOM     30  C   UNL     1       6.843   7.679  -4.663  1.00  0.00     0.001 A 
ATOM     31  C   UNL     1       6.454   8.565  -3.649  1.00  0.00     0.002 A 
BRANCH  22  32
ATOM     32  C   UNL     1       2.437   3.729  -3.413  1.00  0.00     0.052 A 
ATOM     33  C   UNL     1       0.925   1.489  -2.684  1.00  0.00     0.119 A 
ATOM     34  C   UNL     1       0.331   2.747  -2.689  1.00  0.00     0.048 A 
ATOM     35  C   UNL     1       2.226   1.331  -3.161  1.00  0.00     0.048 A 
ATOM     36  C   UNL     1       1.097   3.872  -3.021  1.00  0.00     0.030 A 
ATOM     37  C   UNL     1       2.971   2.446  -3.561  1.00  0.00     0.030 A 
BRANCH  33  38
ATOM     38  O   UNL     1       0.179   0.418  -2.275  1.00  0.00    -0.497 OA
ATOM     39  C   UNL     1       0.711  -0.200  -1.101  1.00  0.00     0.278 C 
ENDBRANCH  33  38
ENDBRANCH  22  32
ENDBRANCH  20  21
ENDBRANCH  19  20
ENDBRANCH  15  19
ENDBRANCH   9  14
ENDBRANCH   6   8
ENDBRANCH   5   6
ENDBRANCH   4   5
ENDBRANCH   3   4
ENDBRANCH   2   3
ENDBRANCH   1   2
BRANCH   1  40
ATOM     40  C   UNL     1      -2.799   2.689   5.315  1.00  0.00     0.188 C 
BRANCH  40  41
ATOM     41  O   UNL     1      -2.630   1.677   6.290  1.00  0.00    -0.377 OA
BRANCH  41  42
ATOM     42  C   UNL     1      -3.037   2.002   7.619  1.00  0.00     0.188 C 
BRANCH  42  43
ATOM     43  C   UNL     1      -4.297   2.879   7.858  1.00  0.00     0.188 C 
BRANCH  43  44
ATOM     44  O   UNL     1      -4.518   3.894   6.889  1.00  0.00    -0.376 OA
BRANCH  44  45
ATOM     45  C   UNL     1      -4.328   5.272   7.150  1.00  0.00     0.202 C 
BRANCH  45  46
ATOM     46  C   UNL     1      -2.913   5.761   7.436  1.00  0.00     0.261 C 
BRANCH  46  47
ATOM     47  O   UNL     1      -2.162   4.862   8.223  1.00  0.00    -0.460 OA
BRANCH  47  48
ATOM     48  C   UNL     1      -2.562   4.777   9.502  1.00  0.00     0.338 C 
ATOM     49  O   UNL     1      -3.595   5.229   9.984  1.00  0.00    -0.246 OA
BRANCH  48  50
ATOM     50  C   UNL     1      -1.482   4.166  10.271  1.00  0.00     0.060 A 
ATOM     51  C   UNL     1      -1.704   4.098  11.642  1.00  0.00     0.016 A 
ATOM     52  C   UNL     1      -0.197   4.128   9.701  1.00  0.00     0.016 A 
ATOM     53  C   UNL     1      -0.632   4.351  12.453  1.00  0.00     0.010 A 
ATOM     54  C   UNL     1       0.870   4.394  10.513  1.00  0.00     0.010 A 
ATOM     55  C   UNL     1       0.609   4.617  11.858  1.00  0.00    -0.014 A 
BRANCH  55  56
ATOM     56  C   UNL     1       1.675   5.040  12.726  1.00  0.00     0.031 A 
ATOM     57  C   UNL     1       2.137   3.928  13.570  1.00  0.00     0.074 A 
ATOM     58  C   UNL     1       2.186   6.283  12.714  1.00  0.00     0.049 A 
ATOM     59  N   UNL     1       1.852   3.737  14.812  1.00  0.00    -0.248 NA
ATOM     60  C   UNL     1       2.749   2.771  12.897  1.00  0.00     0.031 C 
ATOM     61  C   UNL     1       1.954   7.365  11.755  1.00  0.00     0.029 A 
ATOM     62  N   UNL     1       3.129   6.803  13.537  1.00  0.00    -0.354 N 
ATOM     63  C   UNL     1       2.487   2.553  15.144  1.00  0.00     0.074 A 
ATOM     64  C   UNL     1       2.793   1.894  13.899  1.00  0.00     0.031 C 
ATOM     65  C   UNL     1       2.921   8.302  11.908  1.00  0.00     0.029 A 
ATOM     66  C   UNL     1       3.745   7.949  13.053  1.00  0.00     0.049 A 
ATOM     67  H   UNL     1       3.358   6.401  14.406  1.00  0.00     0.167 HD
ATOM     68  C   UNL     1       3.013   2.377  16.385  1.00  0.00     0.031 A 
ATOM     69  C   UNL     1       4.896   8.494  13.525  1.00  0.00     0.031 A 
ATOM     70  C   UNL     1       2.475   3.324  17.331  1.00  0.00     0.049 A 
ATOM     71  C   UNL     1       5.091   7.975  14.905  1.00  0.00     0.074 A 
ATOM     72  C   UNL     1       1.203   3.636  17.771  1.00  0.00     0.029 A 
ATOM     73  N   UNL     1       3.266   4.404  17.652  1.00  0.00    -0.354 N 
ATOM     74  N   UNL     1       4.302   8.282  15.897  1.00  0.00    -0.248 NA
ATOM     75  C   UNL     1       5.849   6.743  15.078  1.00  0.00     0.031 C 
ATOM     76  C   UNL     1       1.198   5.055  17.915  1.00  0.00     0.029 A 
ATOM     77  C   UNL     1       2.480   5.527  17.628  1.00  0.00     0.049 A 
ATOM     78  H   UNL     1       4.227   4.375  17.863  1.00  0.00     0.167 HD
ATOM     79  C   UNL     1       4.120   7.093  16.590  1.00  0.00     0.074 A 
ATOM     80  C   UNL     1       5.172   6.204  16.098  1.00  0.00     0.031 C 
ATOM     81  C   UNL     1       2.964   6.847  17.278  1.00  0.00     0.031 A 
BRANCH  68  82
ATOM     82  C   UNL     1       4.336   1.688  16.592  1.00  0.00    -0.014 A 
ATOM     83  C   UNL     1       4.801   1.506  17.906  1.00  0.00     0.010 A 
ATOM     84  C   UNL     1       5.262   1.478  15.546  1.00  0.00     0.010 A 
ATOM     85  C   UNL     1       6.143   1.199  18.157  1.00  0.00     0.020 A 
ATOM     86  C   UNL     1       6.587   1.125  15.783  1.00  0.00     0.020 A 
ATOM     87  C   UNL     1       7.028   1.023  17.092  1.00  0.00     0.054 A 
BRANCH  87  88
ATOM     88  S   UNL     1       8.777   0.724  17.427  1.00  0.00     0.124 S 
ATOM     89  O   UNL     1       9.183   1.986  18.035  1.00  0.00    -0.237 OA
ATOM     90  O   UNL     1       8.723  -0.428  18.323  1.00  0.00    -0.237 OA
ATOM     91  O   UNL     1       9.336   0.453  16.104  1.00  0.00    -0.744 OA
ENDBRANCH  87  88
ENDBRANCH  68  82
BRANCH  69  92
ATOM     92  C   UNL     1       5.993   9.120  12.740  1.00  0.00    -0.014 A 
ATOM     93  C   UNL     1       7.052   9.795  13.379  1.00  0.00     0.010 A 
ATOM     94  C   UNL     1       6.150   8.809  11.374  1.00  0.00     0.010 A 
ATOM     95  C   UNL     1       8.247  10.083  12.693  1.00  0.00     0.020 A 
ATOM     96  C   UNL     1       7.332   9.099  10.683  1.00  0.00     0.020 A 
ATOM     97  C   UNL     1       8.387   9.713  11.353  1.00  0.00     0.054 A 
BRANCH  97  98
ATOM     98  S   UNL     1       9.994   9.914  10.525  1.00  0.00     0.124 S 
ATOM     99  O   UNL     1      10.087  11.362  10.372  1.00  0.00    -0.237 OA
ATOM    100  O   UNL     1      10.922   9.317  11.481  1.00  0.00    -0.237 OA
ATOM    101  O   UNL     1       9.833   9.168   9.278  1.00  0.00    -0.744 OA
ENDBRANCH  97  98
ENDBRANCH  69  92
BRANCH  81 102
ATOM    102  C   UNL     1       2.013   8.001  17.514  1.00  0.00    -0.014 A 
ATOM    103  C   UNL     1       1.405   8.750  16.486  1.00  0.00     0.010 A 
ATOM    104  C   UNL     1       1.627   8.256  18.841  1.00  0.00     0.010 A 
ATOM    105  C   UNL     1       0.472   9.756  16.785  1.00  0.00     0.020 A 
ATOM    106  C   UNL     1       0.686   9.241  19.145  1.00  0.00     0.020 A 
ATOM    107  C   UNL     1       0.124   9.999  18.118  1.00  0.00     0.054 A 
BRANCH 107 108
ATOM    108  S   UNL     1      -1.084  11.296  18.507  1.00  0.00     0.124 S 
ATOM    109  O   UNL     1      -0.368  12.516  18.147  1.00  0.00    -0.237 OA
ATOM    110  O   UNL     1      -2.216  10.954  17.649  1.00  0.00    -0.237 OA
ATOM    111  O   UNL     1      -1.330  11.125  19.938  1.00  0.00    -0.744 OA
ENDBRANCH 107 108
ENDBRANCH  81 102
ENDBRANCH  55  56
ENDBRANCH  48  50
ENDBRANCH  47  48
ENDBRANCH  46  47
ENDBRANCH  45  46
ENDBRANCH  44  45
ENDBRANCH  43  44
ENDBRANCH  42  43
ENDBRANCH  41  42
ENDBRANCH  40  41
ENDBRANCH   1  40
TORSDOF 29
