REMARK SMILES Cn1cc(C[C@@H](NC(=O)OCC2c3ccccc3-c3ccccc32)C(=O)OCCOCCOCCOCCOC(=O)c2ccc(-c3c4nc(c(-c5ccc(S(=O)(=O)[O-])cc5)c5ccc([nH]5)c(-c5ccc(S(=O)(=O)[O-])cc5)c5nc(c(-c6ccc(S(=O)(=O)[O-])cc6)c6ccc3[nH]6)C=C5)C=C4)cc2)c2ccccc21
REMARK SMILES IDX 32 1 31 2 30 3 29 4 28 5 27 6 25 7 26 8 6 9 5 10 4 11 1 12
REMARK SMILES IDX 2 13 3 14 107 15 102 16 106 17 103 18 105 19 104 20 7 21
REMARK SMILES IDX 8 22 9 24 10 25 11 26 12 27 13 28 24 29 14 30 18 31 19 32
REMARK SMILES IDX 23 33 15 34 17 35 20 36 22 37 16 38 21 39 33 40 34 41 35 42
REMARK SMILES IDX 36 43 37 44 38 45 39 46 40 47 41 48 42 49 43 50 101 51 44 52
REMARK SMILES IDX 100 53 45 54 46 55 47 56 94 57 48 58 99 59 93 60 95 61 49 62
REMARK SMILES IDX 98 63 92 64 91 65 50 67 80 68 61 69 79 70 62 71 65 72 78 73
REMARK SMILES IDX 96 74 63 75 64 76 77 78 97 79 66 80 51 81 52 82 60 83 53 84
REMARK SMILES IDX 59 85 54 86 55 87 56 88 57 89 58 90 81 91 82 92 90 93 83 94
REMARK SMILES IDX 89 95 84 96 85 97 86 98 87 99 88 100 67 101 68 102 76 103
REMARK SMILES IDX 69 104 75 105 70 106 71 107 72 108 73 109 74 110
REMARK H PARENT 7 23 95 66 65 77
REMARK Flexibility Score: inf
ROOT
ATOM      1  C   UNL     1       2.652  -5.859   0.827  1.00  0.00     0.188 C 
ENDROOT
BRANCH   1   2
ATOM      2  C   UNL     1       2.433  -6.760   2.054  1.00  0.00     0.188 C 
BRANCH   2   3
ATOM      3  O   UNL     1       1.931  -8.078   1.892  1.00  0.00    -0.376 OA
BRANCH   3   4
ATOM      4  C   UNL     1       0.671  -8.295   1.264  1.00  0.00     0.202 C 
BRANCH   4   5
ATOM      5  C   UNL     1      -0.499  -7.341   1.504  1.00  0.00     0.261 C 
BRANCH   5   6
ATOM      6  O   UNL     1      -0.319  -6.018   0.970  1.00  0.00    -0.462 OA
BRANCH   6   7
ATOM      7  C   UNL     1      -0.360  -5.003   1.873  1.00  0.00     0.329 C 
ATOM      8  O   UNL     1      -0.316  -5.154   3.091  1.00  0.00    -0.250 OA
BRANCH   7   9
ATOM      9  C   UNL     1      -0.637  -3.642   1.232  1.00  0.00     0.200 C 
BRANCH   9  10
ATOM     10  C   UNL     1       0.027  -3.276  -0.114  1.00  0.00     0.075 C 
BRANCH  10  11
ATOM     11  C   UNL     1       0.287  -1.776  -0.194  1.00  0.00    -0.020 A 
ATOM     12  C   UNL     1       2.335   1.220   0.060  1.00  0.00     0.149 C 
ATOM     13  N   UNL     1       1.300   0.214  -0.033  1.00  0.00    -0.350 N 
ATOM     14  C   UNL     1       1.510  -1.141  -0.037  1.00  0.00     0.090 A 
ATOM     15  C   UNL     1      -0.046   0.489  -0.127  1.00  0.00     0.048 A 
ATOM     16  C   UNL     1      -0.690  -0.732  -0.347  1.00  0.00     0.003 A 
ATOM     17  C   UNL     1      -0.748   1.704  -0.047  1.00  0.00     0.027 A 
ATOM     18  C   UNL     1      -2.079  -0.714  -0.593  1.00  0.00     0.010 A 
ATOM     19  C   UNL     1      -2.136   1.674  -0.209  1.00  0.00     0.002 A 
ATOM     20  C   UNL     1      -2.792   0.484  -0.497  1.00  0.00     0.001 A 
ENDBRANCH  10  11
ENDBRANCH   9  10
BRANCH   9  21
ATOM     21  N   UNL     1      -2.061  -3.324   1.243  1.00  0.00    -0.308 N 
ATOM     22  C   UNL     1      -3.077  -4.102   0.777  1.00  0.00     0.407 C 
ATOM     23  H   UNL     1      -2.314  -2.454   1.628  1.00  0.00     0.168 HD
ATOM     24  O   UNL     1      -4.095  -3.602   0.321  1.00  0.00    -0.225 OA
BRANCH  22  25
ATOM     25  O   UNL     1      -2.904  -5.418   1.049  1.00  0.00    -0.449 OA
BRANCH  25  26
ATOM     26  C   UNL     1      -4.107  -6.198   1.199  1.00  0.00     0.248 C 
BRANCH  26  27
ATOM     27  C   UNL     1      -4.581  -6.283   2.672  1.00  0.00     0.088 C 
ATOM     28  C   UNL     1      -3.836  -7.310   3.531  1.00  0.00    -0.029 A 
ATOM     29  C   UNL     1      -4.377  -5.007   3.490  1.00  0.00    -0.029 A 
ATOM     30  C   UNL     1      -3.770  -8.688   3.376  1.00  0.00     0.005 A 
ATOM     31  C   UNL     1      -3.269  -6.681   4.661  1.00  0.00    -0.014 A 
ATOM     32  C   UNL     1      -3.538  -5.263   4.595  1.00  0.00    -0.014 A 
ATOM     33  C   UNL     1      -4.845  -3.728   3.234  1.00  0.00     0.005 A 
ATOM     34  C   UNL     1      -3.141  -9.438   4.376  1.00  0.00     0.000 A 
ATOM     35  C   UNL     1      -2.644  -7.425   5.651  1.00  0.00     0.009 A 
ATOM     36  C   UNL     1      -3.089  -4.225   5.395  1.00  0.00     0.009 A 
ATOM     37  C   UNL     1      -4.371  -2.678   4.022  1.00  0.00     0.000 A 
ATOM     38  C   UNL     1      -2.589  -8.813   5.507  1.00  0.00     0.001 A 
ATOM     39  C   UNL     1      -3.491  -2.922   5.087  1.00  0.00     0.001 A 
ENDBRANCH  26  27
ENDBRANCH  25  26
ENDBRANCH  22  25
ENDBRANCH   9  21
ENDBRANCH   7   9
ENDBRANCH   6   7
ENDBRANCH   5   6
ENDBRANCH   4   5
ENDBRANCH   3   4
ENDBRANCH   2   3
ENDBRANCH   1   2
BRANCH   1  40
ATOM     40  O   UNL     1       1.920  -6.225  -0.326  1.00  0.00    -0.377 OA
BRANCH  40  41
ATOM     41  C   UNL     1       2.514  -7.119  -1.262  1.00  0.00     0.188 C 
BRANCH  41  42
ATOM     42  C   UNL     1       3.605  -8.096  -0.785  1.00  0.00     0.188 C 
BRANCH  42  43
ATOM     43  O   UNL     1       4.678  -7.463  -0.096  1.00  0.00    -0.376 OA
BRANCH  43  44
ATOM     44  C   UNL     1       5.831  -7.116  -0.853  1.00  0.00     0.202 C 
BRANCH  44  45
ATOM     45  C   UNL     1       5.636  -6.039  -1.930  1.00  0.00     0.261 C 
BRANCH  45  46
ATOM     46  O   UNL     1       4.839  -6.410  -3.069  1.00  0.00    -0.460 OA
BRANCH  46  47
ATOM     47  C   UNL     1       5.126  -7.558  -3.718  1.00  0.00     0.338 C 
ATOM     48  O   UNL     1       6.062  -8.307  -3.519  1.00  0.00    -0.246 OA
BRANCH  47  49
ATOM     49  C   UNL     1       3.989  -7.860  -4.609  1.00  0.00     0.060 A 
ATOM     50  C   UNL     1       3.308  -9.075  -4.458  1.00  0.00     0.016 A 
ATOM     51  C   UNL     1       3.622  -6.955  -5.606  1.00  0.00     0.016 A 
ATOM     52  C   UNL     1       2.282  -9.410  -5.341  1.00  0.00     0.010 A 
ATOM     53  C   UNL     1       2.609  -7.301  -6.501  1.00  0.00     0.010 A 
ATOM     54  C   UNL     1       1.963  -8.545  -6.396  1.00  0.00    -0.014 A 
BRANCH  54  55
ATOM     55  C   UNL     1       1.127  -9.018  -7.523  1.00  0.00     0.031 A 
ATOM     56  C   UNL     1       1.828  -9.564  -8.738  1.00  0.00     0.074 A 
ATOM     57  C   UNL     1      -0.215  -8.947  -7.484  1.00  0.00     0.049 A 
ATOM     58  N   UNL     1       1.328  -9.938  -9.886  1.00  0.00    -0.248 NA
ATOM     59  C   UNL     1       3.292  -9.701  -8.643  1.00  0.00     0.031 C 
ATOM     60  C   UNL     1      -1.008  -8.486  -6.346  1.00  0.00     0.029 A 
ATOM     61  N   UNL     1      -1.147  -9.252  -8.444  1.00  0.00    -0.354 N 
ATOM     62  C   UNL     1       2.414 -10.341 -10.654  1.00  0.00     0.074 A 
ATOM     63  C   UNL     1       3.601 -10.147  -9.851  1.00  0.00     0.031 C 
ATOM     64  C   UNL     1      -2.310  -8.522  -6.681  1.00  0.00     0.029 A 
ATOM     65  C   UNL     1      -2.438  -8.970  -8.067  1.00  0.00     0.049 A 
ATOM     66  H   UNL     1      -0.912  -9.635  -9.320  1.00  0.00     0.167 HD
ATOM     67  C   UNL     1       2.423 -10.829 -11.916  1.00  0.00     0.031 A 
ATOM     68  C   UNL     1      -3.585  -9.039  -8.772  1.00  0.00     0.031 A 
ATOM     69  C   UNL     1       1.243 -10.999 -12.718  1.00  0.00     0.049 A 
ATOM     70  C   UNL     1      -3.542  -9.503 -10.207  1.00  0.00     0.074 A 
ATOM     71  C   UNL     1       1.143 -11.488 -14.009  1.00  0.00     0.029 A 
ATOM     72  N   UNL     1      -0.042 -10.677 -12.310  1.00  0.00    -0.354 N 
ATOM     73  N   UNL     1      -2.510  -9.896 -10.917  1.00  0.00    -0.248 NA
ATOM     74  C   UNL     1      -4.819  -9.534 -10.935  1.00  0.00     0.031 C 
ATOM     75  C   UNL     1      -0.197 -11.410 -14.400  1.00  0.00     0.029 A 
ATOM     76  C   UNL     1      -0.940 -10.933 -13.331  1.00  0.00     0.049 A 
ATOM     77  H   UNL     1      -0.281 -10.319 -11.424  1.00  0.00     0.167 HD
ATOM     78  C   UNL     1      -3.019 -10.251 -12.163  1.00  0.00     0.074 A 
ATOM     79  C   UNL     1      -4.450 -10.034 -12.108  1.00  0.00     0.031 C 
ATOM     80  C   UNL     1      -2.363 -10.719 -13.254  1.00  0.00     0.031 A 
BRANCH  67  81
ATOM     81  C   UNL     1       3.759 -11.175 -12.516  1.00  0.00    -0.014 A 
ATOM     82  C   UNL     1       4.484 -12.298 -12.079  1.00  0.00     0.010 A 
ATOM     83  C   UNL     1       4.283 -10.379 -13.549  1.00  0.00     0.010 A 
ATOM     84  C   UNL     1       5.728 -12.597 -12.641  1.00  0.00     0.020 A 
ATOM     85  C   UNL     1       5.514 -10.690 -14.133  1.00  0.00     0.020 A 
ATOM     86  C   UNL     1       6.236 -11.789 -13.663  1.00  0.00     0.054 A 
BRANCH  86  87
ATOM     87  S   UNL     1       7.843 -12.213 -14.389  1.00  0.00     0.124 S 
ATOM     88  O   UNL     1       8.765 -11.833 -13.322  1.00  0.00    -0.237 OA
ATOM     89  O   UNL     1       7.718 -13.649 -14.628  1.00  0.00    -0.237 OA
ATOM     90  O   UNL     1       7.909 -11.388 -15.593  1.00  0.00    -0.744 OA
ENDBRANCH  86  87
ENDBRANCH  67  81
BRANCH  68  91
ATOM     91  C   UNL     1      -4.874  -8.635  -8.145  1.00  0.00    -0.014 A 
ATOM     92  C   UNL     1      -5.865  -9.592  -7.866  1.00  0.00     0.010 A 
ATOM     93  C   UNL     1      -5.121  -7.285  -7.832  1.00  0.00     0.010 A 
ATOM     94  C   UNL     1      -7.086  -9.205  -7.304  1.00  0.00     0.020 A 
ATOM     95  C   UNL     1      -6.329  -6.898  -7.244  1.00  0.00     0.020 A 
ATOM     96  C   UNL     1      -7.309  -7.860  -6.994  1.00  0.00     0.054 A 
BRANCH  96  97
ATOM     97  S   UNL     1      -8.883  -7.390  -6.223  1.00  0.00     0.124 S 
ATOM     98  O   UNL     1      -9.816  -7.515  -7.337  1.00  0.00    -0.237 OA
ATOM     99  O   UNL     1      -9.023  -8.387  -5.164  1.00  0.00    -0.237 OA
ATOM    100  O   UNL     1      -8.641  -6.027  -5.756  1.00  0.00    -0.744 OA
ENDBRANCH  96  97
ENDBRANCH  68  91
BRANCH  80 101
ATOM    101  C   UNL     1      -3.181 -11.075 -14.467  1.00  0.00    -0.014 A 
ATOM    102  C   UNL     1      -3.739 -10.082 -15.290  1.00  0.00     0.010 A 
ATOM    103  C   UNL     1      -3.321 -12.428 -14.831  1.00  0.00     0.010 A 
ATOM    104  C   UNL     1      -4.440 -10.438 -16.447  1.00  0.00     0.020 A 
ATOM    105  C   UNL     1      -3.997 -12.785 -16.000  1.00  0.00     0.020 A 
ATOM    106  C   UNL     1      -4.562 -11.787 -16.796  1.00  0.00     0.054 A 
BRANCH 106 107
ATOM    107  S   UNL     1      -5.421 -12.218 -18.334  1.00  0.00     0.124 S 
ATOM    108  O   UNL     1      -6.817 -11.979 -17.980  1.00  0.00    -0.237 OA
ATOM    109  O   UNL     1      -4.846 -11.281 -19.296  1.00  0.00    -0.237 OA
ATOM    110  O   UNL     1      -5.064 -13.619 -18.550  1.00  0.00    -0.744 OA
ENDBRANCH 106 107
ENDBRANCH  80 101
ENDBRANCH  54  55
ENDBRANCH  47  49
ENDBRANCH  46  47
ENDBRANCH  45  46
ENDBRANCH  44  45
ENDBRANCH  43  44
ENDBRANCH  42  43
ENDBRANCH  41  42
ENDBRANCH  40  41
ENDBRANCH   1  40
TORSDOF 29
