REMARK SMILES C[C@@H](CC(=O)OCCOCCOCCOCCOC(=O)c1ccc(-c2c3nc(c(-c4ccc(S(=O)(=O)[O-])cc4)c4ccc([nH]4)c(-c4ccc(S(=O)(=O)[O-])cc4)c4nc(c(-c5ccc(S(=O)(=O)[O-])cc5)c5ccc2[nH]5)C=C4)C=C3)cc1)NC(=O)[C@@H]1CCCN(C(N)=O)C1
REMARK SMILES IDX 11 1 10 2 9 3 8 4 7 5 6 6 4 7 5 8 3 9 2 10 1 11 81 12 82 13
REMARK SMILES IDX 83 15 84 16 85 17 92 18 86 19 88 20 87 21 89 22 90 23 91 24
REMARK SMILES IDX 12 27 13 28 14 29 15 30 16 31 17 32 18 33 19 34 20 35 21 36
REMARK SMILES IDX 22 37 80 38 23 39 79 40 24 41 25 42 26 43 73 44 27 45 78 46
REMARK SMILES IDX 72 47 74 48 28 49 77 50 71 51 70 52 29 54 59 55 40 56 58 57
REMARK SMILES IDX 41 58 44 59 57 60 75 61 42 62 43 63 56 65 76 66 45 67 30 68
REMARK SMILES IDX 31 69 39 70 32 71 38 72 33 73 34 74 35 75 36 76 37 77 60 78
REMARK SMILES IDX 61 79 69 80 62 81 68 82 63 83 64 84 65 85 66 86 67 87 46 88
REMARK SMILES IDX 47 89 55 90 48 91 54 92 49 93 50 94 51 95 52 96 53 97
REMARK H PARENT 81 14 90 25 90 26 74 53 44 64
REMARK Flexibility Score: inf
ROOT
ATOM      1  C   UNL     1      -1.708  -2.736   0.493  1.00  0.00     0.188 C 
ENDROOT
BRANCH   1   2
ATOM      2  C   UNL     1      -1.649  -4.196   0.939  1.00  0.00     0.188 C 
BRANCH   2   3
ATOM      3  O   UNL     1      -1.459  -4.519   2.304  1.00  0.00    -0.376 OA
BRANCH   3   4
ATOM      4  C   UNL     1      -0.398  -3.921   3.044  1.00  0.00     0.202 C 
BRANCH   4   5
ATOM      5  C   UNL     1       1.002  -3.779   2.422  1.00  0.00     0.261 C 
BRANCH   5   6
ATOM      6  O   UNL     1       1.087  -2.798   1.361  1.00  0.00    -0.463 OA
BRANCH   6   7
ATOM      7  C   UNL     1       1.561  -3.208   0.168  1.00  0.00     0.307 C 
ATOM      8  O   UNL     1       1.959  -4.351  -0.051  1.00  0.00    -0.252 OA
BRANCH   7   9
ATOM      9  C   UNL     1       1.545  -2.182  -0.959  1.00  0.00     0.147 C 
BRANCH   9  10
ATOM     10  C   UNL     1       1.128  -0.702  -0.837  1.00  0.00     0.090 C 
ATOM     11  C   UNL     1       1.538   0.011   0.445  1.00  0.00     0.031 C 
BRANCH  10  12
ATOM     12  N   UNL     1      -0.295  -0.453  -1.118  1.00  0.00    -0.353 N 
ATOM     13  C   UNL     1      -1.049  -0.126  -2.196  1.00  0.00     0.225 C 
ATOM     14  H   UNL     1      -0.846  -0.548  -0.308  1.00  0.00     0.163 HD
ATOM     15  O   UNL     1      -2.264  -0.356  -2.085  1.00  0.00    -0.275 OA
BRANCH  13  16
ATOM     16  C   UNL     1      -0.559   0.474  -3.521  1.00  0.00     0.098 C 
ATOM     17  C   UNL     1       0.885   0.925  -3.701  1.00  0.00     0.017 C 
ATOM     18  C   UNL     1      -1.468   1.685  -3.846  1.00  0.00     0.134 C 
ATOM     19  C   UNL     1       1.218   2.135  -2.826  1.00  0.00     0.022 C 
ATOM     20  N   UNL     1      -1.150   2.824  -2.974  1.00  0.00    -0.324 N 
ATOM     21  C   UNL     1       0.236   3.283  -3.035  1.00  0.00     0.121 C 
BRANCH  20  22
ATOM     22  C   UNL     1      -2.006   3.448  -2.097  1.00  0.00     0.314 C 
ATOM     23  N   UNL     1      -3.312   3.111  -2.152  1.00  0.00    -0.351 N 
ATOM     24  O   UNL     1      -1.659   4.301  -1.285  1.00  0.00    -0.249 OA
ATOM     25  H   UNL     1      -3.618   2.430  -2.794  1.00  0.00     0.161 HD
ATOM     26  H   UNL     1      -3.958   3.547  -1.551  1.00  0.00     0.161 HD
ENDBRANCH  20  22
ENDBRANCH  13  16
ENDBRANCH  10  12
ENDBRANCH   9  10
ENDBRANCH   7   9
ENDBRANCH   6   7
ENDBRANCH   5   6
ENDBRANCH   4   5
ENDBRANCH   3   4
ENDBRANCH   2   3
ENDBRANCH   1   2
BRANCH   1  27
ATOM     27  O   UNL     1      -1.280  -1.760   1.425  1.00  0.00    -0.377 OA
BRANCH  27  28
ATOM     28  C   UNL     1      -2.232  -1.157   2.300  1.00  0.00     0.188 C 
BRANCH  28  29
ATOM     29  C   UNL     1      -3.591  -1.840   2.488  1.00  0.00     0.188 C 
BRANCH  29  30
ATOM     30  O   UNL     1      -4.249  -2.099   1.259  1.00  0.00    -0.376 OA
BRANCH  30  31
ATOM     31  C   UNL     1      -5.126  -1.125   0.713  1.00  0.00     0.202 C 
BRANCH  31  32
ATOM     32  C   UNL     1      -4.633   0.309   0.445  1.00  0.00     0.261 C 
BRANCH  32  33
ATOM     33  O   UNL     1      -4.111   1.059   1.553  1.00  0.00    -0.460 OA
BRANCH  33  34
ATOM     34  C   UNL     1      -4.871   1.197   2.651  1.00  0.00     0.338 C 
ATOM     35  O   UNL     1      -6.015   0.789   2.809  1.00  0.00    -0.246 OA
BRANCH  34  36
ATOM     36  C   UNL     1      -4.031   1.762   3.724  1.00  0.00     0.060 A 
ATOM     37  C   UNL     1      -3.922   1.056   4.928  1.00  0.00     0.016 A 
ATOM     38  C   UNL     1      -3.404   3.003   3.571  1.00  0.00     0.016 A 
ATOM     39  C   UNL     1      -3.262   1.630   6.013  1.00  0.00     0.010 A 
ATOM     40  C   UNL     1      -2.753   3.583   4.666  1.00  0.00     0.010 A 
ATOM     41  C   UNL     1      -2.736   2.924   5.908  1.00  0.00    -0.014 A 
BRANCH  41  42
ATOM     42  C   UNL     1      -2.401   3.658   7.155  1.00  0.00     0.031 A 
ATOM     43  C   UNL     1      -3.423   4.616   7.715  1.00  0.00     0.074 A 
ATOM     44  C   UNL     1      -1.260   3.419   7.825  1.00  0.00     0.049 A 
ATOM     45  N   UNL     1      -3.386   5.319   8.817  1.00  0.00    -0.248 NA
ATOM     46  C   UNL     1      -4.653   4.802   6.926  1.00  0.00     0.031 C 
ATOM     47  C   UNL     1      -0.215   2.482   7.412  1.00  0.00     0.029 A 
ATOM     48  N   UNL     1      -0.797   3.941   9.007  1.00  0.00    -0.354 N 
ATOM     49  C   UNL     1      -4.581   6.031   8.851  1.00  0.00     0.074 A 
ATOM     50  C   UNL     1      -5.303   5.706   7.642  1.00  0.00     0.031 C 
ATOM     51  C   UNL     1       0.766   2.493   8.332  1.00  0.00     0.029 A 
ATOM     52  C   UNL     1       0.433   3.455   9.381  1.00  0.00     0.049 A 
ATOM     53  H   UNL     1      -1.298   4.602   9.536  1.00  0.00     0.167 HD
ATOM     54  C   UNL     1      -5.044   6.871   9.807  1.00  0.00     0.031 A 
ATOM     55  C   UNL     1       1.203   3.758  10.445  1.00  0.00     0.031 A 
ATOM     56  C   UNL     1      -4.318   7.205  11.003  1.00  0.00     0.049 A 
ATOM     57  C   UNL     1       0.698   4.750  11.462  1.00  0.00     0.074 A 
ATOM     58  C   UNL     1      -4.703   8.037  12.040  1.00  0.00     0.029 A 
ATOM     59  N   UNL     1      -3.054   6.731  11.319  1.00  0.00    -0.354 N 
ATOM     60  N   UNL     1      -0.447   5.392  11.494  1.00  0.00    -0.248 NA
ATOM     61  C   UNL     1       1.583   5.043  12.598  1.00  0.00     0.031 C 
ATOM     62  C   UNL     1      -3.644   8.117  12.951  1.00  0.00     0.029 A 
ATOM     63  C   UNL     1      -2.630   7.276  12.520  1.00  0.00     0.049 A 
ATOM     64  H   UNL     1      -2.534   6.100  10.771  1.00  0.00     0.167 HD
ATOM     65  C   UNL     1      -0.429   6.142  12.667  1.00  0.00     0.074 A 
ATOM     66  C   UNL     1       0.829   5.854  13.325  1.00  0.00     0.031 C 
ATOM     67  C   UNL     1      -1.369   6.989  13.158  1.00  0.00     0.031 A 
BRANCH  54  68
ATOM     68  C   UNL     1      -6.386   7.518   9.575  1.00  0.00    -0.014 A 
ATOM     69  C   UNL     1      -7.578   6.771   9.613  1.00  0.00     0.010 A 
ATOM     70  C   UNL     1      -6.458   8.904   9.342  1.00  0.00     0.010 A 
ATOM     71  C   UNL     1      -8.811   7.390   9.384  1.00  0.00     0.020 A 
ATOM     72  C   UNL     1      -7.691   9.532   9.144  1.00  0.00     0.020 A 
ATOM     73  C   UNL     1      -8.859   8.768   9.151  1.00  0.00     0.054 A 
BRANCH  73  74
ATOM     74  S   UNL     1     -10.474   9.549   8.883  1.00  0.00     0.124 S 
ATOM     75  O   UNL     1     -10.837   9.045   7.560  1.00  0.00    -0.237 OA
ATOM     76  O   UNL     1     -11.268   9.028   9.992  1.00  0.00    -0.237 OA
ATOM     77  O   UNL     1     -10.183  10.979   8.945  1.00  0.00    -0.744 OA
ENDBRANCH  73  74
ENDBRANCH  54  68
BRANCH  55  78
ATOM     78  C   UNL     1       2.543   3.123  10.601  1.00  0.00    -0.014 A 
ATOM     79  C   UNL     1       2.799   2.221  11.648  1.00  0.00     0.010 A 
ATOM     80  C   UNL     1       3.578   3.431   9.698  1.00  0.00     0.010 A 
ATOM     81  C   UNL     1       4.069   1.654  11.801  1.00  0.00     0.020 A 
ATOM     82  C   UNL     1       4.838   2.842   9.829  1.00  0.00     0.020 A 
ATOM     83  C   UNL     1       5.079   1.965  10.887  1.00  0.00     0.054 A 
BRANCH  83  84
ATOM     84  S   UNL     1       6.703   1.176  11.074  1.00  0.00     0.124 S 
ATOM     85  O   UNL     1       7.232   1.844  12.259  1.00  0.00    -0.237 OA
ATOM     86  O   UNL     1       6.350  -0.231  11.243  1.00  0.00    -0.237 OA
ATOM     87  O   UNL     1       7.383   1.493   9.820  1.00  0.00    -0.744 OA
ENDBRANCH  83  84
ENDBRANCH  55  78
BRANCH  67  88
ATOM     88  C   UNL     1      -1.087   7.639  14.489  1.00  0.00    -0.014 A 
ATOM     89  C   UNL     1      -0.075   8.605  14.637  1.00  0.00     0.010 A 
ATOM     90  C   UNL     1      -1.867   7.292  15.608  1.00  0.00     0.010 A 
ATOM     91  C   UNL     1       0.190   9.166  15.890  1.00  0.00     0.020 A 
ATOM     92  C   UNL     1      -1.629   7.878  16.855  1.00  0.00     0.020 A 
ATOM     93  C   UNL     1      -0.586   8.794  16.992  1.00  0.00     0.054 A 
BRANCH  93  94
ATOM     94  S   UNL     1      -0.224   9.539  18.606  1.00  0.00     0.124 S 
ATOM     95  O   UNL     1       1.022   8.874  18.974  1.00  0.00    -0.237 OA
ATOM     96  O   UNL     1      -0.108  10.959  18.285  1.00  0.00    -0.237 OA
ATOM     97  O   UNL     1      -1.384   9.183  19.420  1.00  0.00    -0.744 OA
ENDBRANCH  93  94
ENDBRANCH  67  88
ENDBRANCH  41  42
ENDBRANCH  34  36
ENDBRANCH  33  34
ENDBRANCH  32  33
ENDBRANCH  31  32
ENDBRANCH  30  31
ENDBRANCH  29  30
ENDBRANCH  28  29
ENDBRANCH  27  28
ENDBRANCH   1  27
TORSDOF 27
