REMARK SMILES O=C(CN1C(=O)N[C@@](CCC(=O)OCCOCCOCCOCCOC(=O)c2ccc(-c3c4nc(c(-c5ccc(S(=O)(=O)[O-])cc5)c5ccc([nH]5)c(-c5ccc(S(=O)(=O)[O-])cc5)c5nc(c(-c6ccc(S(=O)(=O)[O-])cc6)c6ccc3[nH]6)C=C5)C=C4)cc2)(c2ccccc2)C1=O)Nc1cccc(F)c1
REMARK SMILES IDX 18 1 17 2 16 3 15 4 14 5 13 6 11 7 12 8 10 9 9 10 8 11 4 12
REMARK SMILES IDX 5 13 94 14 6 15 7 16 95 17 3 19 2 20 1 21 96 22 97 24 98 25
REMARK SMILES IDX 103 26 99 27 101 28 100 29 102 30 88 31 89 32 93 33 90 34
REMARK SMILES IDX 92 35 91 36 19 37 20 38 21 39 22 40 23 41 24 42 25 43 26 44
REMARK SMILES IDX 27 45 28 46 29 47 87 48 30 49 86 50 31 51 32 52 33 53 80 54
REMARK SMILES IDX 34 55 85 56 79 57 81 58 35 59 84 60 78 61 77 62 36 64 66 65
REMARK SMILES IDX 47 66 65 67 48 68 51 69 64 70 82 71 49 72 50 73 63 75 83 76
REMARK SMILES IDX 52 77 37 78 38 79 46 80 39 81 45 82 40 83 41 84 42 85 43 86
REMARK SMILES IDX 44 87 67 88 68 89 76 90 69 91 75 92 70 93 71 94 72 95 73 96
REMARK SMILES IDX 74 97 53 98 54 99 62 100 55 101 61 102 56 103 57 104 58 105
REMARK SMILES IDX 59 106 60 107
REMARK H PARENT 7 18 96 23 81 63 51 74
REMARK Flexibility Score: inf
ROOT
ATOM      1  C   UNL     1       3.941  -7.190   2.141  1.00  0.00     0.188 C 
ENDROOT
BRANCH   1   2
ATOM      2  C   UNL     1       4.558  -7.826   3.386  1.00  0.00     0.188 C 
BRANCH   2   3
ATOM      3  O   UNL     1       4.348  -6.991   4.510  1.00  0.00    -0.376 OA
BRANCH   3   4
ATOM      4  C   UNL     1       5.176  -7.256   5.623  1.00  0.00     0.202 C 
BRANCH   4   5
ATOM      5  C   UNL     1       6.391  -6.324   5.674  1.00  0.00     0.261 C 
BRANCH   5   6
ATOM      6  O   UNL     1       6.265  -5.137   4.868  1.00  0.00    -0.463 OA
BRANCH   6   7
ATOM      7  C   UNL     1       6.939  -5.124   3.690  1.00  0.00     0.305 C 
ATOM      8  O   UNL     1       7.546  -6.074   3.211  1.00  0.00    -0.252 OA
BRANCH   7   9
ATOM      9  C   UNL     1       6.932  -3.743   3.067  1.00  0.00     0.126 C 
BRANCH   9  10
ATOM     10  C   UNL     1       5.697  -3.398   2.222  1.00  0.00     0.055 C 
BRANCH  10  11
ATOM     11  C   UNL     1       4.834  -2.229   2.764  1.00  0.00     0.147 C 
ATOM     12  N   UNL     1       4.085  -0.366   1.465  1.00  0.00    -0.252 N 
ATOM     13  C   UNL     1       5.156   0.039   2.205  1.00  0.00     0.325 C 
ATOM     14  C   UNL     1       3.881  -1.707   1.649  1.00  0.00     0.261 C 
ATOM     15  O   UNL     1       5.591   1.169   2.326  1.00  0.00    -0.248 OA
ATOM     16  N   UNL     1       5.651  -1.037   2.899  1.00  0.00    -0.319 N 
ATOM     17  O   UNL     1       3.061  -2.373   1.030  1.00  0.00    -0.271 OA
ATOM     18  H   UNL     1       6.476  -1.003   3.435  1.00  0.00     0.166 HD
BRANCH  12  19
ATOM     19  C   UNL     1       3.054   0.574   1.063  1.00  0.00     0.230 C 
BRANCH  19  20
ATOM     20  C   UNL     1       2.283   0.466  -0.254  1.00  0.00     0.244 C 
ATOM     21  O   UNL     1       1.408   1.301  -0.487  1.00  0.00    -0.273 OA
ATOM     22  N   UNL     1       2.638  -0.563  -1.097  1.00  0.00    -0.324 N 
ATOM     23  H   UNL     1       3.379  -1.138  -0.798  1.00  0.00     0.170 HD
BRANCH  22  24
ATOM     24  C   UNL     1       2.054  -0.883  -2.342  1.00  0.00     0.044 A 
ATOM     25  C   UNL     1       2.567  -1.999  -3.021  1.00  0.00     0.026 A 
ATOM     26  C   UNL     1       0.995  -0.177  -2.916  1.00  0.00     0.065 A 
ATOM     27  C   UNL     1       2.025  -2.405  -4.246  1.00  0.00     0.005 A 
ATOM     28  C   UNL     1       0.457  -0.594  -4.130  1.00  0.00     0.125 A 
ATOM     29  C   UNL     1       0.960  -1.702  -4.800  1.00  0.00     0.039 A 
ATOM     30  F   UNL     1      -0.570   0.081  -4.664  1.00  0.00    -0.207 F 
ENDBRANCH  22  24
ENDBRANCH  19  20
ENDBRANCH  12  19
BRANCH  11  31
ATOM     31  C   UNL     1       3.989  -2.478   4.014  1.00  0.00    -0.013 A 
ATOM     32  C   UNL     1       3.612  -3.769   4.398  1.00  0.00     0.007 A 
ATOM     33  C   UNL     1       3.462  -1.412   4.772  1.00  0.00     0.007 A 
ATOM     34  C   UNL     1       2.824  -4.002   5.528  1.00  0.00     0.000 A 
ATOM     35  C   UNL     1       2.643  -1.639   5.882  1.00  0.00     0.000 A 
ATOM     36  C   UNL     1       2.344  -2.938   6.273  1.00  0.00     0.000 A 
ENDBRANCH  11  31
ENDBRANCH  10  11
ENDBRANCH   9  10
ENDBRANCH   7   9
ENDBRANCH   6   7
ENDBRANCH   5   6
ENDBRANCH   4   5
ENDBRANCH   3   4
ENDBRANCH   2   3
ENDBRANCH   1   2
BRANCH   1  37
ATOM     37  O   UNL     1       2.809  -6.343   2.282  1.00  0.00    -0.377 OA
BRANCH  37  38
ATOM     38  C   UNL     1       1.772  -6.645   3.201  1.00  0.00     0.188 C 
BRANCH  38  39
ATOM     39  C   UNL     1       0.955  -7.929   3.031  1.00  0.00     0.188 C 
BRANCH  39  40
ATOM     40  O   UNL     1       0.587  -8.443   1.759  1.00  0.00    -0.376 OA
BRANCH  40  41
ATOM     41  C   UNL     1       0.767  -7.664   0.592  1.00  0.00     0.202 C 
BRANCH  41  42
ATOM     42  C   UNL     1      -0.255  -6.560   0.307  1.00  0.00     0.261 C 
BRANCH  42  43
ATOM     43  O   UNL     1      -0.445  -5.611   1.365  1.00  0.00    -0.460 OA
BRANCH  43  44
ATOM     44  C   UNL     1      -1.591  -5.772   2.068  1.00  0.00     0.338 C 
ATOM     45  O   UNL     1      -2.415  -6.659   1.936  1.00  0.00    -0.246 OA
BRANCH  44  46
ATOM     46  C   UNL     1      -1.720  -4.738   3.114  1.00  0.00     0.060 A 
ATOM     47  C   UNL     1      -1.895  -5.167   4.433  1.00  0.00     0.016 A 
ATOM     48  C   UNL     1      -1.857  -3.385   2.785  1.00  0.00     0.016 A 
ATOM     49  C   UNL     1      -2.279  -4.255   5.416  1.00  0.00     0.010 A 
ATOM     50  C   UNL     1      -2.248  -2.472   3.774  1.00  0.00     0.010 A 
ATOM     51  C   UNL     1      -2.511  -2.912   5.083  1.00  0.00    -0.014 A 
BRANCH  51  52
ATOM     52  C   UNL     1      -3.179  -2.029   6.076  1.00  0.00     0.031 A 
ATOM     53  C   UNL     1      -4.668  -1.825   5.998  1.00  0.00     0.074 A 
ATOM     54  C   UNL     1      -2.484  -1.469   7.082  1.00  0.00     0.049 A 
ATOM     55  N   UNL     1      -5.455  -1.171   6.814  1.00  0.00    -0.248 NA
ATOM     56  C   UNL     1      -5.362  -2.445   4.858  1.00  0.00     0.031 C 
ATOM     57  C   UNL     1      -1.046  -1.610   7.284  1.00  0.00     0.029 A 
ATOM     58  N   UNL     1      -2.893  -0.679   8.128  1.00  0.00    -0.354 N 
ATOM     59  C   UNL     1      -6.737  -1.306   6.293  1.00  0.00     0.074 A 
ATOM     60  C   UNL     1      -6.616  -2.074   5.071  1.00  0.00     0.031 C 
ATOM     61  C   UNL     1      -0.688  -0.935   8.390  1.00  0.00     0.029 A 
ATOM     62  C   UNL     1      -1.871  -0.296   8.963  1.00  0.00     0.049 A 
ATOM     63  H   UNL     1      -3.831  -0.412   8.266  1.00  0.00     0.167 HD
ATOM     64  C   UNL     1      -7.910  -0.844   6.789  1.00  0.00     0.031 A 
ATOM     65  C   UNL     1      -1.884   0.485  10.061  1.00  0.00     0.031 A 
ATOM     66  C   UNL     1      -8.032  -0.059   7.989  1.00  0.00     0.049 A 
ATOM     67  C   UNL     1      -3.192   1.042  10.557  1.00  0.00     0.074 A 
ATOM     68  C   UNL     1      -9.181   0.443   8.576  1.00  0.00     0.029 A 
ATOM     69  N   UNL     1      -6.970   0.351   8.779  1.00  0.00    -0.354 N 
ATOM     70  N   UNL     1      -4.398   0.868  10.073  1.00  0.00    -0.248 NA
ATOM     71  C   UNL     1      -3.139   1.887  11.758  1.00  0.00     0.031 C 
ATOM     72  C   UNL     1      -8.809   1.198   9.694  1.00  0.00     0.029 A 
ATOM     73  C   UNL     1      -7.432   1.121   9.834  1.00  0.00     0.049 A 
ATOM     74  H   UNL     1      -6.025   0.128   8.615  1.00  0.00     0.167 HD
ATOM     75  C   UNL     1      -5.251   1.565  10.923  1.00  0.00     0.074 A 
ATOM     76  C   UNL     1      -4.424   2.146  11.961  1.00  0.00     0.031 C 
ATOM     77  C   UNL     1      -6.598   1.708  10.852  1.00  0.00     0.031 A 
BRANCH  64  78
ATOM     78  C   UNL     1      -9.158  -1.160   6.010  1.00  0.00    -0.014 A 
ATOM     79  C   UNL     1      -9.697  -2.459   6.000  1.00  0.00     0.010 A 
ATOM     80  C   UNL     1      -9.817  -0.139   5.301  1.00  0.00     0.010 A 
ATOM     81  C   UNL     1     -10.853  -2.740   5.266  1.00  0.00     0.020 A 
ATOM     82  C   UNL     1     -10.986  -0.410   4.585  1.00  0.00     0.020 A 
ATOM     83  C   UNL     1     -11.487  -1.714   4.559  1.00  0.00     0.054 A 
BRANCH  83  84
ATOM     84  S   UNL     1     -12.998  -2.099   3.631  1.00  0.00     0.124 S 
ATOM     85  O   UNL     1     -12.466  -2.823   2.478  1.00  0.00    -0.237 OA
ATOM     86  O   UNL     1     -13.762  -2.905   4.580  1.00  0.00    -0.237 OA
ATOM     87  O   UNL     1     -13.567  -0.787   3.334  1.00  0.00    -0.744 OA
ENDBRANCH  83  84
ENDBRANCH  64  78
BRANCH  65  88
ATOM     88  C   UNL     1      -0.611   0.795  10.767  1.00  0.00    -0.014 A 
ATOM     89  C   UNL     1      -0.338   0.251  12.034  1.00  0.00     0.010 A 
ATOM     90  C   UNL     1       0.335   1.649  10.170  1.00  0.00     0.010 A 
ATOM     91  C   UNL     1       0.853   0.564  12.697  1.00  0.00     0.020 A 
ATOM     92  C   UNL     1       1.536   1.945  10.819  1.00  0.00     0.020 A 
ATOM     93  C   UNL     1       1.783   1.408  12.084  1.00  0.00     0.054 A 
BRANCH  93  94
ATOM     94  S   UNL     1       3.348   1.756  12.934  1.00  0.00     0.124 S 
ATOM     95  O   UNL     1       2.934   2.712  13.955  1.00  0.00    -0.237 OA
ATOM     96  O   UNL     1       3.743   0.436  13.423  1.00  0.00    -0.237 OA
ATOM     97  O   UNL     1       4.198   2.296  11.875  1.00  0.00    -0.744 OA
ENDBRANCH  93  94
ENDBRANCH  65  88
BRANCH  77  98
ATOM     98  C   UNL     1      -7.262   2.507  11.943  1.00  0.00    -0.014 A 
ATOM     99  C   UNL     1      -7.119   3.905  12.012  1.00  0.00     0.010 A 
ATOM    100  C   UNL     1      -8.051   1.851  12.905  1.00  0.00     0.010 A 
ATOM    101  C   UNL     1      -7.711   4.625  13.054  1.00  0.00     0.020 A 
ATOM    102  C   UNL     1      -8.667   2.571  13.932  1.00  0.00     0.020 A 
ATOM    103  C   UNL     1      -8.473   3.952  14.013  1.00  0.00     0.054 A 
BRANCH 103 104
ATOM    104  S   UNL     1      -9.237   4.905  15.355  1.00  0.00     0.124 S 
ATOM    105  O   UNL     1      -8.101   5.140  16.242  1.00  0.00    -0.237 OA
ATOM    106  O   UNL     1      -9.749   6.086  14.663  1.00  0.00    -0.237 OA
ATOM    107  O   UNL     1     -10.262   4.004  15.878  1.00  0.00    -0.744 OA
ENDBRANCH 103 104
ENDBRANCH  77  98
ENDBRANCH  51  52
ENDBRANCH  44  46
ENDBRANCH  43  44
ENDBRANCH  42  43
ENDBRANCH  41  42
ENDBRANCH  40  41
ENDBRANCH  39  40
ENDBRANCH  38  39
ENDBRANCH  37  38
ENDBRANCH   1  37
TORSDOF 29
