REMARK SMILES Cc1cc(C)cc(Oc2nc3ccccn3c(=O)c2/C=C2\SC(=S)N(CCC(=O)OCCOCCOCCOCCOC(=O)c3ccc(-c4c5nc(c(-c6ccc(S(=O)(=O)[O-])cc6)c6ccc([nH]6)c(-c6ccc(S(=O)(=O)[O-])cc6)c6nc(c(-c7ccc(S(=O)(=O)[O-])cc7)c7ccc4[nH]7)C=C6)C=C5)cc3)C2=O)c1
REMARK SMILES IDX 35 1 34 2 33 3 32 4 31 5 30 6 28 7 29 8 27 9 26 10 25 11
REMARK SMILES IDX 20 12 21 13 22 14 105 15 23 16 106 17 24 18 19 19 9 20 10 21
REMARK SMILES IDX 11 22 17 23 12 24 16 25 18 26 13 27 15 28 14 29 8 30 7 31
REMARK SMILES IDX 1 32 2 33 3 34 107 35 4 36 5 37 6 38 36 39 37 40 38 41 39 42
REMARK SMILES IDX 40 43 41 44 42 45 43 46 44 47 45 48 46 49 104 50 47 51
REMARK SMILES IDX 103 52 48 53 49 54 50 55 97 56 51 57 102 58 96 59 98 60
REMARK SMILES IDX 52 61 101 62 95 63 94 64 53 66 83 67 64 68 82 69 65 70 68 71
REMARK SMILES IDX 81 72 99 73 66 74 67 75 80 77 100 78 69 79 54 80 55 81 63 82
REMARK SMILES IDX 56 83 62 84 57 85 58 86 59 87 60 88 61 89 84 90 85 91 93 92
REMARK SMILES IDX 86 93 92 94 87 95 88 96 89 97 90 98 91 99 70 100 71 101
REMARK SMILES IDX 79 102 72 103 78 104 73 105 74 106 75 107 76 108 77 109
REMARK H PARENT 98 65 68 76
REMARK Flexibility Score: inf
ROOT
ATOM      1  C   UNL     1       2.094   0.004   6.616  1.00  0.00     0.188 C 
ENDROOT
BRANCH   1   2
ATOM      2  C   UNL     1       0.696   0.663   6.652  1.00  0.00     0.188 C 
BRANCH   2   3
ATOM      3  O   UNL     1      -0.476  -0.097   6.514  1.00  0.00    -0.376 OA
BRANCH   3   4
ATOM      4  C   UNL     1      -1.232  -0.155   5.314  1.00  0.00     0.202 C 
BRANCH   4   5
ATOM      5  C   UNL     1      -1.108   0.749   4.069  1.00  0.00     0.261 C 
BRANCH   5   6
ATOM      6  O   UNL     1       0.189   1.166   3.637  1.00  0.00    -0.463 OA
BRANCH   6   7
ATOM      7  C   UNL     1       0.574   2.434   3.853  1.00  0.00     0.307 C 
ATOM      8  O   UNL     1      -0.119   3.278   4.412  1.00  0.00    -0.252 OA
BRANCH   7   9
ATOM      9  C   UNL     1       1.923   2.771   3.246  1.00  0.00     0.144 C 
BRANCH   9  10
ATOM     10  C   UNL     1       3.203   1.980   3.556  1.00  0.00     0.139 C 
BRANCH  10  11
ATOM     11  N   UNL     1       3.505   0.730   2.830  1.00  0.00    -0.292 N 
ATOM     12  C   UNL     1       2.363  -2.565   1.948  1.00  0.00     0.041 C 
ATOM     13  C   UNL     1       3.169  -1.511   2.161  1.00  0.00     0.081 C 
ATOM     14  S   UNL     1       4.667  -1.121   1.432  1.00  0.00    -0.054 SA
ATOM     15  C   UNL     1       2.725  -0.391   3.000  1.00  0.00     0.266 C 
ATOM     16  C   UNL     1       4.676   0.497   2.128  1.00  0.00     0.148 C 
ATOM     17  O   UNL     1       1.772  -0.514   3.751  1.00  0.00    -0.268 OA
ATOM     18  S   UNL     1       5.982   1.516   1.909  1.00  0.00    -0.052 S 
BRANCH  12  19
ATOM     19  C   UNL     1       2.612  -3.530   0.900  1.00  0.00     0.104 A 
ATOM     20  C   UNL     1       1.900  -3.582  -0.246  1.00  0.00     0.234 A 
ATOM     21  N   UNL     1       2.307  -4.307  -1.331  1.00  0.00    -0.194 NA
ATOM     22  C   UNL     1       3.322  -5.102  -1.209  1.00  0.00     0.143 A 
ATOM     23  C   UNL     1       3.775  -4.455   1.039  1.00  0.00     0.269 A 
ATOM     24  C   UNL     1       3.764  -5.900  -2.389  1.00  0.00     0.048 A 
ATOM     25  N   UNL     1       4.041  -5.270  -0.042  1.00  0.00    -0.267 N 
ATOM     26  O   UNL     1       4.431  -4.459   2.084  1.00  0.00    -0.268 OA
ATOM     27  C   UNL     1       4.709  -6.835  -2.246  1.00  0.00     0.005 A 
ATOM     28  C   UNL     1       5.028  -6.243   0.059  1.00  0.00     0.096 A 
ATOM     29  C   UNL     1       5.350  -7.029  -0.975  1.00  0.00     0.019 A 
BRANCH  20  30
ATOM     30  O   UNL     1       0.638  -2.982  -0.380  1.00  0.00    -0.438 OA
BRANCH  30  31
ATOM     31  C   UNL     1       0.477  -1.616  -0.364  1.00  0.00     0.130 A 
ATOM     32  C   UNL     1       2.460   1.606  -0.548  1.00  0.00     0.044 C 
ATOM     33  C   UNL     1       1.309   0.658  -0.418  1.00  0.00    -0.047 A 
ATOM     34  C   UNL     1       0.017   1.131  -0.160  1.00  0.00     0.007 A 
ATOM     35  C   UNL     1       1.516  -0.715  -0.574  1.00  0.00     0.050 A 
ATOM     36  C   UNL     1      -1.063   0.244  -0.057  1.00  0.00    -0.047 A 
ATOM     37  C   UNL     1      -2.455   0.787   0.099  1.00  0.00     0.044 C 
ATOM     38  C   UNL     1      -0.819  -1.135  -0.138  1.00  0.00     0.050 A 
ENDBRANCH  30  31
ENDBRANCH  20  30
ENDBRANCH  12  19
ENDBRANCH  10  11
ENDBRANCH   9  10
ENDBRANCH   7   9
ENDBRANCH   6   7
ENDBRANCH   5   6
ENDBRANCH   4   5
ENDBRANCH   3   4
ENDBRANCH   2   3
ENDBRANCH   1   2
BRANCH   1  39
ATOM     39  O   UNL     1       2.411  -1.294   6.148  1.00  0.00    -0.377 OA
BRANCH  39  40
ATOM     40  C   UNL     1       1.378  -2.254   6.030  1.00  0.00     0.188 C 
BRANCH  40  41
ATOM     41  C   UNL     1       0.760  -2.713   7.351  1.00  0.00     0.188 C 
BRANCH  41  42
ATOM     42  O   UNL     1       1.180  -1.933   8.454  1.00  0.00    -0.376 OA
BRANCH  42  43
ATOM     43  C   UNL     1       2.403  -2.264   9.099  1.00  0.00     0.202 C 
BRANCH  43  44
ATOM     44  C   UNL     1       3.661  -2.821   8.387  1.00  0.00     0.261 C 
BRANCH  44  45
ATOM     45  O   UNL     1       3.510  -3.711   7.273  1.00  0.00    -0.460 OA
BRANCH  45  46
ATOM     46  C   UNL     1       3.105  -4.972   7.515  1.00  0.00     0.338 C 
ATOM     47  O   UNL     1       2.823  -5.452   8.598  1.00  0.00    -0.246 OA
BRANCH  46  48
ATOM     48  C   UNL     1       2.882  -5.639   6.209  1.00  0.00     0.060 A 
ATOM     49  C   UNL     1       1.588  -6.061   5.879  1.00  0.00     0.016 A 
ATOM     50  C   UNL     1       3.938  -5.872   5.328  1.00  0.00     0.016 A 
ATOM     51  C   UNL     1       1.355  -6.765   4.694  1.00  0.00     0.010 A 
ATOM     52  C   UNL     1       3.706  -6.599   4.152  1.00  0.00     0.010 A 
ATOM     53  C   UNL     1       2.420  -7.083   3.843  1.00  0.00    -0.014 A 
BRANCH  53  54
ATOM     54  C   UNL     1       2.238  -8.115   2.782  1.00  0.00     0.031 A 
ATOM     55  C   UNL     1       2.769  -9.501   3.063  1.00  0.00     0.074 A 
ATOM     56  C   UNL     1       1.544  -7.880   1.649  1.00  0.00     0.049 A 
ATOM     57  N   UNL     1       2.790 -10.556   2.292  1.00  0.00    -0.248 NA
ATOM     58  C   UNL     1       3.324  -9.733   4.410  1.00  0.00     0.031 C 
ATOM     59  C   UNL     1       0.839  -6.639   1.333  1.00  0.00     0.029 A 
ATOM     60  N   UNL     1       1.306  -8.678   0.553  1.00  0.00    -0.354 N 
ATOM     61  C   UNL     1       3.328 -11.578   3.068  1.00  0.00     0.074 A 
ATOM     62  C   UNL     1       3.686 -11.005   4.345  1.00  0.00     0.031 C 
ATOM     63  C   UNL     1       0.269  -6.751   0.120  1.00  0.00     0.029 A 
ATOM     64  C   UNL     1       0.603  -8.051  -0.457  1.00  0.00     0.049 A 
ATOM     65  H   UNL     1       1.609  -9.613   0.494  1.00  0.00     0.167 HD
ATOM     66  C   UNL     1       3.478 -12.887   2.758  1.00  0.00     0.031 A 
ATOM     67  C   UNL     1       0.304  -8.463  -1.711  1.00  0.00     0.031 A 
ATOM     68  C   UNL     1       3.127 -13.448   1.482  1.00  0.00     0.049 A 
ATOM     69  C   UNL     1       0.762  -9.844  -2.126  1.00  0.00     0.074 A 
ATOM     70  C   UNL     1       3.245 -14.758   1.056  1.00  0.00     0.029 A 
ATOM     71  N   UNL     1       2.588 -12.728   0.427  1.00  0.00    -0.354 N 
ATOM     72  N   UNL     1       1.301 -10.791  -1.391  1.00  0.00    -0.248 NA
ATOM     73  C   UNL     1       0.576 -10.216  -3.535  1.00  0.00     0.031 C 
ATOM     74  C   UNL     1       2.841 -14.816  -0.281  1.00  0.00     0.029 A 
ATOM     75  C   UNL     1       2.401 -13.559  -0.663  1.00  0.00     0.049 A 
ATOM     76  H   UNL     1       2.371 -11.768   0.450  1.00  0.00     0.167 HD
ATOM     77  C   UNL     1       1.422 -11.898  -2.227  1.00  0.00     0.074 A 
ATOM     78  C   UNL     1       0.935 -11.492  -3.528  1.00  0.00     0.031 C 
ATOM     79  C   UNL     1       1.868 -13.146  -1.937  1.00  0.00     0.031 A 
BRANCH  66  80
ATOM     80  C   UNL     1       4.056 -13.798   3.810  1.00  0.00    -0.014 A 
ATOM     81  C   UNL     1       3.317 -14.146   4.956  1.00  0.00     0.010 A 
ATOM     82  C   UNL     1       5.331 -14.362   3.623  1.00  0.00     0.010 A 
ATOM     83  C   UNL     1       3.852 -15.021   5.905  1.00  0.00     0.020 A 
ATOM     84  C   UNL     1       5.857 -15.260   4.556  1.00  0.00     0.020 A 
ATOM     85  C   UNL     1       5.118 -15.576   5.697  1.00  0.00     0.054 A 
BRANCH  85  86
ATOM     86  S   UNL     1       5.765 -16.749   6.920  1.00  0.00     0.124 S 
ATOM     87  O   UNL     1       6.020 -15.880   8.066  1.00  0.00    -0.237 OA
ATOM     88  O   UNL     1       4.657 -17.688   7.078  1.00  0.00    -0.237 OA
ATOM     89  O   UNL     1       6.957 -17.298   6.279  1.00  0.00    -0.744 OA
ENDBRANCH  85  86
ENDBRANCH  66  80
BRANCH  67  90
ATOM     90  C   UNL     1      -0.342  -7.549  -2.717  1.00  0.00    -0.014 A 
ATOM     91  C   UNL     1      -1.506  -7.870  -3.434  1.00  0.00     0.010 A 
ATOM     92  C   UNL     1       0.306  -6.353  -3.054  1.00  0.00     0.010 A 
ATOM     93  C   UNL     1      -1.953  -7.045  -4.485  1.00  0.00     0.020 A 
ATOM     94  C   UNL     1      -0.138  -5.507  -4.070  1.00  0.00     0.020 A 
ATOM     95  C   UNL     1      -1.260  -5.870  -4.799  1.00  0.00     0.054 A 
BRANCH  95  96
ATOM     96  S   UNL     1      -1.811  -4.840  -6.187  1.00  0.00     0.124 S 
ATOM     97  O   UNL     1      -1.773  -5.779  -7.303  1.00  0.00    -0.237 OA
ATOM     98  O   UNL     1      -3.141  -4.422  -5.753  1.00  0.00    -0.237 OA
ATOM     99  O   UNL     1      -0.814  -3.772  -6.245  1.00  0.00    -0.744 OA
ENDBRANCH  95  96
ENDBRANCH  67  90
BRANCH  79 100
ATOM    100  C   UNL     1       1.717 -14.202  -3.000  1.00  0.00    -0.014 A 
ATOM    101  C   UNL     1       2.512 -14.219  -4.158  1.00  0.00     0.010 A 
ATOM    102  C   UNL     1       0.774 -15.229  -2.800  1.00  0.00     0.010 A 
ATOM    103  C   UNL     1       2.337 -15.223  -5.116  1.00  0.00     0.020 A 
ATOM    104  C   UNL     1       0.623 -16.253  -3.736  1.00  0.00     0.020 A 
ATOM    105  C   UNL     1       1.394 -16.233  -4.898  1.00  0.00     0.054 A 
BRANCH 105 106
ATOM    106  S   UNL     1       1.213 -17.543  -6.138  1.00  0.00     0.124 S 
ATOM    107  O   UNL     1       0.551 -16.837  -7.232  1.00  0.00    -0.237 OA
ATOM    108  O   UNL     1       2.597 -17.937  -6.391  1.00  0.00    -0.237 OA
ATOM    109  O   UNL     1       0.398 -18.551  -5.464  1.00  0.00    -0.744 OA
ENDBRANCH 105 106
ENDBRANCH  79 100
ENDBRANCH  53  54
ENDBRANCH  46  48
ENDBRANCH  45  46
ENDBRANCH  44  45
ENDBRANCH  43  44
ENDBRANCH  42  43
ENDBRANCH  41  42
ENDBRANCH  40  41
ENDBRANCH  39  40
ENDBRANCH   1  39
TORSDOF 28
