REMARK SMILES Cc1c(CC(=O)OCCOCCOCCOCCOC(=O)c2ccc(-c3c4nc(c(-c5ccc(S(=O)(=O)[O-])cc5)c5ccc([nH]5)c(-c5ccc(S(=O)(=O)[O-])cc5)c5nc(c(-c6ccc(S(=O)(=O)[O-])cc6)c6ccc3[nH]6)C=C5)C=C4)cc2)c(=O)oc2cc(OCc3c(F)cccc3Cl)ccc12
REMARK SMILES IDX 12 1 11 2 10 3 9 4 8 5 7 6 5 7 6 8 4 9 3 10 1 11 2 12 100 13
REMARK SMILES IDX 82 14 85 15 99 16 83 17 84 18 86 19 98 20 87 21 88 22 89 23
REMARK SMILES IDX 90 24 91 25 96 26 92 27 93 28 95 29 97 30 94 31 13 32 14 33
REMARK SMILES IDX 15 34 16 35 17 36 18 37 19 38 20 39 21 40 22 41 23 42 81 43
REMARK SMILES IDX 24 44 80 45 25 46 26 47 27 48 74 49 28 50 79 51 73 52 75 53
REMARK SMILES IDX 29 54 78 55 72 56 71 57 30 59 60 60 41 61 59 62 42 63 45 64
REMARK SMILES IDX 58 65 76 66 43 67 44 68 57 70 77 71 46 72 31 73 32 74 40 75
REMARK SMILES IDX 33 76 39 77 34 78 35 79 36 80 37 81 38 82 61 83 62 84 70 85
REMARK SMILES IDX 63 86 69 87 64 88 65 89 66 90 67 91 68 92 47 93 48 94 56 95
REMARK SMILES IDX 49 96 55 97 50 98 51 99 52 100 53 101 54 102
REMARK H PARENT 75 58 45 69
REMARK Flexibility Score: inf
ROOT
ATOM      1  C   UNL     1      -0.822  -2.774  -2.133  1.00  0.00     0.188 C 
ENDROOT
BRANCH   1   2
ATOM      2  C   UNL     1      -1.544  -4.051  -1.643  1.00  0.00     0.188 C 
BRANCH   2   3
ATOM      3  O   UNL     1      -2.459  -4.746  -2.483  1.00  0.00    -0.376 OA
BRANCH   3   4
ATOM      4  C   UNL     1      -3.169  -4.026  -3.479  1.00  0.00     0.202 C 
BRANCH   4   5
ATOM      5  C   UNL     1      -3.972  -2.769  -3.079  1.00  0.00     0.261 C 
BRANCH   5   6
ATOM      6  O   UNL     1      -3.502  -2.028  -1.927  1.00  0.00    -0.463 OA
BRANCH   6   7
ATOM      7  C   UNL     1      -4.130  -2.267  -0.753  1.00  0.00     0.310 C 
ATOM      8  O   UNL     1      -5.092  -3.023  -0.635  1.00  0.00    -0.252 OA
BRANCH   7   9
ATOM      9  C   UNL     1      -3.538  -1.563   0.480  1.00  0.00     0.166 C 
BRANCH   9  10
ATOM     10  C   UNL     1      -2.206  -0.823   0.477  1.00  0.00     0.052 A 
ATOM     11  C   UNL     1      -0.780  -2.684   1.459  1.00  0.00     0.046 C 
ATOM     12  C   UNL     1      -1.014  -1.291   0.930  1.00  0.00    -0.029 A 
ATOM     13  C   UNL     1       0.176  -0.409   0.888  1.00  0.00     0.021 A 
ATOM     14  C   UNL     1      -2.340   0.600   0.048  1.00  0.00     0.340 A 
ATOM     15  C   UNL     1      -0.002   0.944   0.616  1.00  0.00     0.142 A 
ATOM     16  C   UNL     1       1.494  -0.849   1.077  1.00  0.00     0.016 A 
ATOM     17  O   UNL     1      -3.389   1.029  -0.419  1.00  0.00    -0.246 OA
ATOM     18  O   UNL     1      -1.274   1.449   0.303  1.00  0.00    -0.422 OA
ATOM     19  C   UNL     1       1.062   1.853   0.535  1.00  0.00     0.094 A 
ATOM     20  C   UNL     1       2.575   0.030   0.918  1.00  0.00     0.047 A 
ATOM     21  C   UNL     1       2.365   1.375   0.607  1.00  0.00     0.123 A 
BRANCH  21  22
ATOM     22  O   UNL     1       3.497   2.047   0.239  1.00  0.00    -0.489 OA
BRANCH  22  23
ATOM     23  C   UNL     1       3.424   3.402  -0.213  1.00  0.00     0.270 C 
BRANCH  23  24
ATOM     24  C   UNL     1       2.688   3.778  -1.487  1.00  0.00     0.044 A 
ATOM     25  C   UNL     1       2.486   5.157  -1.680  1.00  0.00     0.131 A 
ATOM     26  C   UNL     1       2.184   2.925  -2.478  1.00  0.00     0.050 A 
ATOM     27  F   UNL     1       3.006   6.025  -0.798  1.00  0.00    -0.207 F 
ATOM     28  C   UNL     1       1.755   5.669  -2.749  1.00  0.00     0.040 A 
ATOM     29  C   UNL     1       1.420   3.431  -3.541  1.00  0.00     0.021 A 
ATOM     30  Cl  UNL     1       2.448   1.225  -2.500  1.00  0.00    -0.084 Cl
ATOM     31  C   UNL     1       1.194   4.798  -3.672  1.00  0.00     0.005 A 
ENDBRANCH  23  24
ENDBRANCH  22  23
ENDBRANCH  21  22
ENDBRANCH   9  10
ENDBRANCH   7   9
ENDBRANCH   6   7
ENDBRANCH   5   6
ENDBRANCH   4   5
ENDBRANCH   3   4
ENDBRANCH   2   3
ENDBRANCH   1   2
BRANCH   1  32
ATOM     32  O   UNL     1      -0.956  -2.524  -3.516  1.00  0.00    -0.377 OA
BRANCH  32  33
ATOM     33  C   UNL     1       0.161  -2.862  -4.316  1.00  0.00     0.188 C 
BRANCH  33  34
ATOM     34  C   UNL     1       0.753  -4.268  -4.118  1.00  0.00     0.188 C 
BRANCH  34  35
ATOM     35  O   UNL     1       1.022  -4.596  -2.758  1.00  0.00    -0.376 OA
BRANCH  35  36
ATOM     36  C   UNL     1       2.365  -4.573  -2.303  1.00  0.00     0.202 C 
BRANCH  36  37
ATOM     37  C   UNL     1       2.989  -3.189  -2.073  1.00  0.00     0.261 C 
BRANCH  37  38
ATOM     38  O   UNL     1       2.954  -2.304  -3.195  1.00  0.00    -0.460 OA
BRANCH  38  39
ATOM     39  C   UNL     1       3.687  -2.646  -4.281  1.00  0.00     0.338 C 
ATOM     40  O   UNL     1       4.391  -3.622  -4.411  1.00  0.00    -0.246 OA
BRANCH  39  41
ATOM     41  C   UNL     1       3.305  -1.706  -5.357  1.00  0.00     0.060 A 
ATOM     42  C   UNL     1       2.625  -2.189  -6.479  1.00  0.00     0.016 A 
ATOM     43  C   UNL     1       3.556  -0.341  -5.215  1.00  0.00     0.016 A 
ATOM     44  C   UNL     1       2.188  -1.301  -7.462  1.00  0.00     0.010 A 
ATOM     45  C   UNL     1       3.111   0.551  -6.191  1.00  0.00     0.010 A 
ATOM     46  C   UNL     1       2.458   0.068  -7.337  1.00  0.00    -0.014 A 
BRANCH  46  47
ATOM     47  C   UNL     1       2.307   0.950  -8.518  1.00  0.00     0.031 A 
ATOM     48  C   UNL     1       3.546   1.249  -9.318  1.00  0.00     0.074 A 
ATOM     49  C   UNL     1       1.111   1.440  -8.892  1.00  0.00     0.049 A 
ATOM     50  N   UNL     1       3.690   1.997 -10.379  1.00  0.00    -0.248 NA
ATOM     51  C   UNL     1       4.795   0.620  -8.851  1.00  0.00     0.031 C 
ATOM     52  C   UNL     1      -0.162   1.182  -8.221  1.00  0.00     0.029 A 
ATOM     53  N   UNL     1       0.779   2.260  -9.942  1.00  0.00    -0.354 N 
ATOM     54  C   UNL     1       5.042   1.935 -10.697  1.00  0.00     0.074 A 
ATOM     55  C   UNL     1       5.683   1.115  -9.697  1.00  0.00     0.031 C 
ATOM     56  C   UNL     1      -1.140   1.831  -8.880  1.00  0.00     0.029 A 
ATOM     57  C   UNL     1      -0.558   2.575  -9.996  1.00  0.00     0.049 A 
ATOM     58  H   UNL     1       1.437   2.591 -10.595  1.00  0.00     0.167 HD
ATOM     59  C   UNL     1       5.692   2.502 -11.739  1.00  0.00     0.031 A 
ATOM     60  C   UNL     1      -1.227   3.384 -10.843  1.00  0.00     0.031 A 
ATOM     61  C   UNL     1       5.050   3.326 -12.724  1.00  0.00     0.049 A 
ATOM     62  C   UNL     1      -0.468   4.068 -11.954  1.00  0.00     0.074 A 
ATOM     63  C   UNL     1       5.611   3.943 -13.826  1.00  0.00     0.029 A 
ATOM     64  N   UNL     1       3.702   3.655 -12.720  1.00  0.00    -0.354 N 
ATOM     65  N   UNL     1       0.806   3.980 -12.260  1.00  0.00    -0.248 NA
ATOM     66  C   UNL     1      -1.238   4.952 -12.840  1.00  0.00     0.031 C 
ATOM     67  C   UNL     1       4.616   4.700 -14.452  1.00  0.00     0.029 A 
ATOM     68  C   UNL     1       3.419   4.492 -13.783  1.00  0.00     0.049 A 
ATOM     69  H   UNL     1       3.045   3.339 -12.058  1.00  0.00     0.167 HD
ATOM     70  C   UNL     1       0.983   4.772 -13.390  1.00  0.00     0.074 A 
ATOM     71  C   UNL     1      -0.317   5.319 -13.722  1.00  0.00     0.031 C 
ATOM     72  C   UNL     1       2.115   5.024 -14.094  1.00  0.00     0.031 A 
BRANCH  59  73
ATOM     73  C   UNL     1       7.177   2.276 -11.834  1.00  0.00    -0.014 A 
ATOM     74  C   UNL     1       7.709   1.010 -12.142  1.00  0.00     0.010 A 
ATOM     75  C   UNL     1       8.056   3.355 -11.626  1.00  0.00     0.010 A 
ATOM     76  C   UNL     1       9.091   0.819 -12.201  1.00  0.00     0.020 A 
ATOM     77  C   UNL     1       9.438   3.175 -11.717  1.00  0.00     0.020 A 
ATOM     78  C   UNL     1       9.947   1.904 -11.989  1.00  0.00     0.054 A 
BRANCH  78  79
ATOM     79  S   UNL     1      11.737   1.633 -12.101  1.00  0.00     0.124 S 
ATOM     80  O   UNL     1      11.999   0.848 -10.898  1.00  0.00    -0.237 OA
ATOM     81  O   UNL     1      11.870   0.910 -13.364  1.00  0.00    -0.237 OA
ATOM     82  O   UNL     1      12.294   2.983 -12.097  1.00  0.00    -0.744 OA
ENDBRANCH  78  79
ENDBRANCH  59  73
BRANCH  60  83
ATOM     83  C   UNL     1      -2.691   3.608 -10.670  1.00  0.00    -0.014 A 
ATOM     84  C   UNL     1      -3.612   3.145 -11.626  1.00  0.00     0.010 A 
ATOM     85  C   UNL     1      -3.173   4.303  -9.544  1.00  0.00     0.010 A 
ATOM     86  C   UNL     1      -4.982   3.386 -11.469  1.00  0.00     0.020 A 
ATOM     87  C   UNL     1      -4.543   4.519  -9.368  1.00  0.00     0.020 A 
ATOM     88  C   UNL     1      -5.438   4.069 -10.338  1.00  0.00     0.054 A 
BRANCH  88  89
ATOM     89  S   UNL     1      -7.223   4.329 -10.134  1.00  0.00     0.124 S 
ATOM     90  O   UNL     1      -7.506   5.319 -11.168  1.00  0.00    -0.237 OA
ATOM     91  O   UNL     1      -7.763   2.993 -10.371  1.00  0.00    -0.237 OA
ATOM     92  O   UNL     1      -7.344   4.808  -8.759  1.00  0.00    -0.744 OA
ENDBRANCH  88  89
ENDBRANCH  60  83
BRANCH  72  93
ATOM     93  C   UNL     1       1.999   5.897 -15.317  1.00  0.00    -0.014 A 
ATOM     94  C   UNL     1       1.757   7.278 -15.213  1.00  0.00     0.010 A 
ATOM     95  C   UNL     1       2.207   5.332 -16.590  1.00  0.00     0.010 A 
ATOM     96  C   UNL     1       1.692   8.071 -16.362  1.00  0.00     0.020 A 
ATOM     97  C   UNL     1       2.176   6.127 -17.737  1.00  0.00     0.020 A 
ATOM     98  C   UNL     1       1.904   7.490 -17.616  1.00  0.00     0.054 A 
BRANCH  98  99
ATOM     99  S   UNL     1       1.859   8.551 -19.087  1.00  0.00     0.124 S 
ATOM    100  O   UNL     1       0.436   8.857 -19.198  1.00  0.00    -0.237 OA
ATOM    101  O   UNL     1       2.714   9.671 -18.699  1.00  0.00    -0.237 OA
ATOM    102  O   UNL     1       2.398   7.701 -20.145  1.00  0.00    -0.744 OA
ENDBRANCH  98  99
ENDBRANCH  72  93
ENDBRANCH  46  47
ENDBRANCH  39  41
ENDBRANCH  38  39
ENDBRANCH  37  38
ENDBRANCH  36  37
ENDBRANCH  35  36
ENDBRANCH  34  35
ENDBRANCH  33  34
ENDBRANCH  32  33
ENDBRANCH   1  32
TORSDOF 27
