REMARK SMILES COC(=O)c1ccccc1-c1ccc(/C=C(\C#N)C(=O)OCCOCCOCCOCCOC(=O)c2ccc(-c3c4nc(c(-c5ccc(S(=O)(=O)[O-])cc5)c5ccc([nH]5)c(-c5ccc(S(=O)(=O)[O-])cc5)c5nc(c(-c6ccc(S(=O)(=O)[O-])cc6)c6ccc3[nH]6)C=C5)C=C4)cc2)o1
REMARK SMILES IDX 26 1 25 2 24 3 23 4 22 5 21 6 19 7 20 8 16 9 15 10 14 11
REMARK SMILES IDX 11 12 12 13 96 14 13 15 10 16 5 17 6 18 7 19 9 20 8 21 3 22
REMARK SMILES IDX 4 23 2 24 1 25 17 26 18 27 27 28 28 29 29 30 30 31 31 32
REMARK SMILES IDX 32 33 33 34 34 35 35 36 36 37 37 38 95 39 38 40 94 41 39 42
REMARK SMILES IDX 40 43 41 44 88 45 42 46 93 47 87 48 89 49 43 50 92 51 86 52
REMARK SMILES IDX 85 53 44 55 74 56 55 57 73 58 56 59 59 60 72 61 90 62 57 63
REMARK SMILES IDX 58 64 71 66 91 67 60 68 45 69 46 70 54 71 47 72 53 73 48 74
REMARK SMILES IDX 49 75 50 76 51 77 52 78 75 79 76 80 84 81 77 82 83 83 78 84
REMARK SMILES IDX 79 85 80 86 81 87 82 88 61 89 62 90 70 91 63 92 69 93 64 94
REMARK SMILES IDX 65 95 66 96 67 97 68 98
REMARK H PARENT 89 54 59 65
REMARK Flexibility Score: inf
ROOT
ATOM      1  C   UNL     1      -4.090  -4.892  -1.198  1.00  0.00     0.188 C 
ENDROOT
BRANCH   1   2
ATOM      2  C   UNL     1      -5.354  -4.556  -0.382  1.00  0.00     0.188 C 
BRANCH   2   3
ATOM      3  O   UNL     1      -6.598  -5.206  -0.591  1.00  0.00    -0.376 OA
BRANCH   3   4
ATOM      4  C   UNL     1      -7.199  -5.472  -1.852  1.00  0.00     0.202 C 
BRANCH   4   5
ATOM      5  C   UNL     1      -7.178  -4.538  -3.075  1.00  0.00     0.261 C 
BRANCH   5   6
ATOM      6  O   UNL     1      -5.968  -3.823  -3.274  1.00  0.00    -0.459 OA
BRANCH   6   7
ATOM      7  C   UNL     1      -5.933  -2.642  -2.636  1.00  0.00     0.349 C 
ATOM      8  O   UNL     1      -6.881  -2.084  -2.098  1.00  0.00    -0.245 OA
BRANCH   7   9
ATOM      9  C   UNL     1      -4.536  -2.164  -2.544  1.00  0.00     0.141 C 
ATOM     10  C   UNL     1      -4.350  -1.284  -1.531  1.00  0.00     0.074 C 
BRANCH  10  11
ATOM     11  C   UNL     1      -3.421  -0.199  -1.535  1.00  0.00     0.129 A 
ATOM     12  C   UNL     1      -1.946   1.298  -2.279  1.00  0.00     0.135 A 
ATOM     13  C   UNL     1      -2.291   1.702  -1.010  1.00  0.00     0.051 A 
ATOM     14  O   UNL     1      -2.622   0.162  -2.597  1.00  0.00    -0.457 OA
ATOM     15  C   UNL     1      -3.223   0.750  -0.536  1.00  0.00     0.051 A 
BRANCH  12  16
ATOM     16  C   UNL     1      -1.029   1.815  -3.286  1.00  0.00     0.032 A 
ATOM     17  C   UNL     1       0.325   2.077  -3.006  1.00  0.00     0.071 A 
ATOM     18  C   UNL     1       1.149   2.695  -3.960  1.00  0.00     0.016 A 
ATOM     19  C   UNL     1       0.638   3.031  -5.212  1.00  0.00     0.001 A 
ATOM     20  C   UNL     1      -1.518   2.141  -4.562  1.00  0.00     0.013 A 
ATOM     21  C   UNL     1      -0.692   2.747  -5.515  1.00  0.00     0.001 A 
BRANCH  17  22
ATOM     22  C   UNL     1       0.940   1.747  -1.703  1.00  0.00     0.338 C 
ATOM     23  O   UNL     1       1.628   2.525  -1.063  1.00  0.00    -0.246 OA
BRANCH  22  24
ATOM     24  O   UNL     1       0.650   0.466  -1.376  1.00  0.00    -0.465 OA
ATOM     25  C   UNL     1       1.085   0.076  -0.076  1.00  0.00     0.282 C 
ENDBRANCH  22  24
ENDBRANCH  17  22
ENDBRANCH  12  16
ENDBRANCH  10  11
BRANCH   9  26
ATOM     26  C   UNL     1      -3.768  -2.005  -3.846  1.00  0.00     0.107 C 
ATOM     27  N   UNL     1      -3.131  -1.873  -4.927  1.00  0.00    -0.192 NA
ENDBRANCH   9  26
ENDBRANCH   7   9
ENDBRANCH   6   7
ENDBRANCH   5   6
ENDBRANCH   4   5
ENDBRANCH   3   4
ENDBRANCH   2   3
ENDBRANCH   1   2
BRANCH   1  28
ATOM     28  O   UNL     1      -4.353  -5.628  -2.366  1.00  0.00    -0.377 OA
BRANCH  28  29
ATOM     29  C   UNL     1      -4.265  -7.040  -2.252  1.00  0.00     0.188 C 
BRANCH  29  30
ATOM     30  C   UNL     1      -4.600  -7.708  -0.896  1.00  0.00     0.188 C 
BRANCH  30  31
ATOM     31  O   UNL     1      -4.077  -7.057   0.255  1.00  0.00    -0.376 OA
BRANCH  31  32
ATOM     32  C   UNL     1      -2.859  -7.504   0.830  1.00  0.00     0.202 C 
BRANCH  32  33
ATOM     33  C   UNL     1      -1.567  -7.384   0.003  1.00  0.00     0.261 C 
BRANCH  33  34
ATOM     34  O   UNL     1      -1.571  -8.023  -1.277  1.00  0.00    -0.460 OA
BRANCH  34  35
ATOM     35  C   UNL     1      -1.833  -9.346  -1.316  1.00  0.00     0.338 C 
ATOM     36  O   UNL     1      -2.042 -10.085  -0.370  1.00  0.00    -0.246 OA
BRANCH  35  37
ATOM     37  C   UNL     1      -2.023  -9.708  -2.734  1.00  0.00     0.060 A 
ATOM     38  C   UNL     1      -3.244 -10.262  -3.147  1.00  0.00     0.016 A 
ATOM     39  C   UNL     1      -1.001  -9.469  -3.653  1.00  0.00     0.016 A 
ATOM     40  C   UNL     1      -3.431 -10.617  -4.483  1.00  0.00     0.010 A 
ATOM     41  C   UNL     1      -1.178  -9.851  -4.981  1.00  0.00     0.010 A 
ATOM     42  C   UNL     1      -2.377 -10.461  -5.391  1.00  0.00    -0.014 A 
BRANCH  42  43
ATOM     43  C   UNL     1      -2.392 -11.164  -6.693  1.00  0.00     0.031 A 
ATOM     44  C   UNL     1      -1.697 -12.497  -6.759  1.00  0.00     0.074 A 
ATOM     45  C   UNL     1      -2.957 -10.627  -7.788  1.00  0.00     0.049 A 
ATOM     46  N   UNL     1      -1.386 -13.220  -7.801  1.00  0.00    -0.248 NA
ATOM     47  C   UNL     1      -1.287 -13.086  -5.471  1.00  0.00     0.031 C 
ATOM     48  C   UNL     1      -3.720  -9.382  -7.831  1.00  0.00     0.029 A 
ATOM     49  N   UNL     1      -2.948 -11.064  -9.090  1.00  0.00    -0.354 N 
ATOM     50  C   UNL     1      -0.733 -14.338  -7.296  1.00  0.00     0.074 A 
ATOM     51  C   UNL     1      -0.668 -14.189  -5.861  1.00  0.00     0.031 C 
ATOM     52  C   UNL     1      -4.088  -9.141  -9.104  1.00  0.00     0.029 A 
ATOM     53  C   UNL     1      -3.540 -10.187  -9.968  1.00  0.00     0.049 A 
ATOM     54  H   UNL     1      -2.556 -11.923  -9.368  1.00  0.00     0.167 HD
ATOM     55  C   UNL     1      -0.232 -15.397  -7.971  1.00  0.00     0.031 A 
ATOM     56  C   UNL     1      -3.593 -10.211 -11.315  1.00  0.00     0.031 A 
ATOM     57  C   UNL     1      -0.280 -15.525  -9.401  1.00  0.00     0.049 A 
ATOM     58  C   UNL     1      -2.923 -11.346 -12.056  1.00  0.00     0.074 A 
ATOM     59  C   UNL     1       0.221 -16.544 -10.190  1.00  0.00     0.029 A 
ATOM     60  N   UNL     1      -0.869 -14.605 -10.254  1.00  0.00    -0.354 N 
ATOM     61  N   UNL     1      -2.292 -12.391 -11.572  1.00  0.00    -0.248 NA
ATOM     62  C   UNL     1      -2.973 -11.306 -13.525  1.00  0.00     0.031 C 
ATOM     63  C   UNL     1      -0.022 -16.216 -11.526  1.00  0.00     0.029 A 
ATOM     64  C   UNL     1      -0.738 -15.030 -11.563  1.00  0.00     0.049 A 
ATOM     65  H   UNL     1      -1.314 -13.774  -9.970  1.00  0.00     0.167 HD
ATOM     66  C   UNL     1      -1.922 -13.156 -12.676  1.00  0.00     0.074 A 
ATOM     67  C   UNL     1      -2.394 -12.454 -13.850  1.00  0.00     0.031 C 
ATOM     68  C   UNL     1      -1.258 -14.337 -12.714  1.00  0.00     0.031 A 
BRANCH  55  69
ATOM     69  C   UNL     1       0.429 -16.486  -7.173  1.00  0.00    -0.014 A 
ATOM     70  C   UNL     1      -0.330 -17.349  -6.362  1.00  0.00     0.010 A 
ATOM     71  C   UNL     1       1.818 -16.684  -7.274  1.00  0.00     0.010 A 
ATOM     72  C   UNL     1       0.291 -18.377  -5.649  1.00  0.00     0.020 A 
ATOM     73  C   UNL     1       2.439 -17.729  -6.585  1.00  0.00     0.020 A 
ATOM     74  C   UNL     1       1.672 -18.563  -5.769  1.00  0.00     0.054 A 
BRANCH  74  75
ATOM     75  S   UNL     1       2.441 -19.937  -4.870  1.00  0.00     0.124 S 
ATOM     76  O   UNL     1       2.343 -19.484  -3.485  1.00  0.00    -0.237 OA
ATOM     77  O   UNL     1       1.584 -21.067  -5.223  1.00  0.00    -0.237 OA
ATOM     78  O   UNL     1       3.796 -19.993  -5.412  1.00  0.00    -0.744 OA
ENDBRANCH  74  75
ENDBRANCH  55  69
BRANCH  56  79
ATOM     79  C   UNL     1      -4.271  -9.119 -12.072  1.00  0.00    -0.014 A 
ATOM     80  C   UNL     1      -5.418  -9.390 -12.840  1.00  0.00     0.010 A 
ATOM     81  C   UNL     1      -3.742  -7.815 -12.077  1.00  0.00     0.010 A 
ATOM     82  C   UNL     1      -5.995  -8.393 -13.632  1.00  0.00     0.020 A 
ATOM     83  C   UNL     1      -4.338  -6.805 -12.840  1.00  0.00     0.020 A 
ATOM     84  C   UNL     1      -5.448  -7.107 -13.631  1.00  0.00     0.054 A 
BRANCH  84  85
ATOM     85  S   UNL     1      -6.214  -5.831 -14.669  1.00  0.00     0.124 S 
ATOM     86  O   UNL     1      -5.826  -6.259 -16.009  1.00  0.00    -0.237 OA
ATOM     87  O   UNL     1      -7.631  -5.971 -14.345  1.00  0.00    -0.237 OA
ATOM     88  O   UNL     1      -5.594  -4.593 -14.203  1.00  0.00    -0.744 OA
ENDBRANCH  84  85
ENDBRANCH  56  79
BRANCH  68  89
ATOM     89  C   UNL     1      -1.081 -15.011 -14.050  1.00  0.00    -0.014 A 
ATOM     90  C   UNL     1      -0.160 -14.541 -15.000  1.00  0.00     0.010 A 
ATOM     91  C   UNL     1      -1.778 -16.209 -14.302  1.00  0.00     0.010 A 
ATOM     92  C   UNL     1       0.054 -15.254 -16.184  1.00  0.00     0.020 A 
ATOM     93  C   UNL     1      -1.545 -16.938 -15.468  1.00  0.00     0.020 A 
ATOM     94  C   UNL     1      -0.633 -16.453 -16.406  1.00  0.00     0.054 A 
BRANCH  94  95
ATOM     95  S   UNL     1      -0.268 -17.404 -17.907  1.00  0.00     0.124 S 
ATOM     96  O   UNL     1      -0.883 -16.581 -18.946  1.00  0.00    -0.237 OA
ATOM     97  O   UNL     1       1.192 -17.439 -17.915  1.00  0.00    -0.237 OA
ATOM     98  O   UNL     1      -0.915 -18.692 -17.669  1.00  0.00    -0.744 OA
ENDBRANCH  94  95
ENDBRANCH  68  89
ENDBRANCH  42  43
ENDBRANCH  35  37
ENDBRANCH  34  35
ENDBRANCH  33  34
ENDBRANCH  32  33
ENDBRANCH  31  32
ENDBRANCH  30  31
ENDBRANCH  29  30
ENDBRANCH  28  29
ENDBRANCH   1  28
TORSDOF 28
