REMARK SMILES CC(C)(C)OC(=O)N1[C@@H](C(=O)OCCOCCOCCOCCOC(=O)c2ccc(-c3c4nc(c(-c5ccc(S(=O)(=O)[O-])cc5)c5ccc([nH]5)c(-c5ccc(S(=O)(=O)[O-])cc5)c5nc(c(-c6ccc(S(=O)(=O)[O-])cc6)c6ccc3[nH]6)C=C5)C=C4)cc2)C[C@H]2CCCC[C@@H]21
REMARK SMILES IDX 18 1 17 2 16 3 15 4 14 5 13 6 12 7 10 8 11 9 9 10 8 11 93 12
REMARK SMILES IDX 87 13 88 14 92 15 89 16 91 17 90 18 6 19 7 20 5 21 2 22 1 23
REMARK SMILES IDX 3 24 4 25 19 26 20 27 21 28 22 29 23 30 24 31 25 32 26 33
REMARK SMILES IDX 27 34 28 35 86 36 29 37 85 38 30 39 31 40 32 41 79 42 33 43
REMARK SMILES IDX 84 44 78 45 80 46 34 47 83 48 77 49 76 50 35 52 65 53 46 54
REMARK SMILES IDX 64 55 47 56 50 57 63 58 81 59 48 60 49 61 62 63 82 64 51 65
REMARK SMILES IDX 36 66 37 67 45 68 38 69 44 70 39 71 40 72 41 73 42 74 43 75
REMARK SMILES IDX 66 76 67 77 75 78 68 79 74 80 69 81 70 82 71 83 72 84 73 85
REMARK SMILES IDX 52 86 53 87 61 88 54 89 60 90 55 91 56 92 57 93 58 94 59 95
REMARK H PARENT 80 51 50 62
REMARK Flexibility Score: inf
ROOT
ATOM      1  O   UNL     1       4.203   1.005  -3.514  1.00  0.00    -0.377 OA
ENDROOT
BRANCH   1   2
ATOM      2  C   UNL     1       3.470   2.218  -3.552  1.00  0.00     0.188 C 
BRANCH   2   3
ATOM      3  C   UNL     1       3.156   2.865  -4.916  1.00  0.00     0.188 C 
BRANCH   3   4
ATOM      4  O   UNL     1       4.320   3.091  -5.687  1.00  0.00    -0.376 OA
BRANCH   4   5
ATOM      5  C   UNL     1       4.997   4.330  -5.655  1.00  0.00     0.202 C 
BRANCH   5   6
ATOM      6  C   UNL     1       5.372   5.039  -4.338  1.00  0.00     0.261 C 
BRANCH   6   7
ATOM      7  O   UNL     1       4.504   4.895  -3.204  1.00  0.00    -0.462 OA
BRANCH   7   8
ATOM      8  C   UNL     1       3.273   5.456  -3.276  1.00  0.00     0.329 C 
ATOM      9  O   UNL     1       2.893   6.128  -4.229  1.00  0.00    -0.250 OA
BRANCH   8  10
ATOM     10  C   UNL     1       2.425   5.152  -1.997  1.00  0.00     0.199 C 
ATOM     11  N   UNL     1       1.084   4.579  -2.284  1.00  0.00    -0.291 N 
ATOM     12  C   UNL     1       0.230   5.643  -2.733  1.00  0.00     0.092 C 
ATOM     13  C   UNL     1       2.120   6.564  -1.464  1.00  0.00     0.043 C 
ATOM     14  C   UNL     1       0.636   6.771  -1.778  1.00  0.00     0.014 C 
ATOM     15  C   UNL     1      -1.287   5.501  -2.655  1.00  0.00     0.025 C 
ATOM     16  C   UNL     1       0.192   8.085  -2.390  1.00  0.00     0.006 C 
ATOM     17  C   UNL     1      -1.942   6.818  -3.094  1.00  0.00     0.002 C 
ATOM     18  C   UNL     1      -1.343   8.078  -2.444  1.00  0.00     0.000 C 
BRANCH  11  19
ATOM     19  C   UNL     1       0.654   3.271  -2.327  1.00  0.00     0.411 C 
ATOM     20  O   UNL     1      -0.123   2.869  -3.184  1.00  0.00    -0.224 OA
BRANCH  19  21
ATOM     21  O   UNL     1       1.079   2.502  -1.280  1.00  0.00    -0.444 OA
BRANCH  21  22
ATOM     22  C   UNL     1       0.467   1.179  -1.069  1.00  0.00     0.106 C 
ATOM     23  C   UNL     1       0.999   0.669   0.282  1.00  0.00     0.056 C 
ATOM     24  C   UNL     1       0.876   0.158  -2.140  1.00  0.00     0.056 C 
ATOM     25  C   UNL     1      -1.068   1.242  -0.965  1.00  0.00     0.056 C 
ENDBRANCH  21  22
ENDBRANCH  19  21
ENDBRANCH  11  19
ENDBRANCH   8  10
ENDBRANCH   7   8
ENDBRANCH   6   7
ENDBRANCH   5   6
ENDBRANCH   4   5
ENDBRANCH   3   4
ENDBRANCH   2   3
ENDBRANCH   1   2
BRANCH   1  26
ATOM     26  C   UNL     1       5.352   0.991  -4.331  1.00  0.00     0.188 C 
BRANCH  26  27
ATOM     27  C   UNL     1       5.119   0.315  -5.697  1.00  0.00     0.188 C 
BRANCH  27  28
ATOM     28  O   UNL     1       3.804   0.035  -6.173  1.00  0.00    -0.376 OA
BRANCH  28  29
ATOM     29  C   UNL     1       2.836  -0.574  -5.326  1.00  0.00     0.202 C 
BRANCH  29  30
ATOM     30  C   UNL     1       3.158  -1.872  -4.579  1.00  0.00     0.261 C 
BRANCH  30  31
ATOM     31  O   UNL     1       4.332  -1.808  -3.756  1.00  0.00    -0.460 OA
BRANCH  31  32
ATOM     32  C   UNL     1       5.356  -2.588  -4.177  1.00  0.00     0.338 C 
ATOM     33  O   UNL     1       5.346  -3.382  -5.098  1.00  0.00    -0.246 OA
BRANCH  32  34
ATOM     34  C   UNL     1       6.603  -2.195  -3.495  1.00  0.00     0.060 A 
ATOM     35  C   UNL     1       7.665  -1.775  -4.310  1.00  0.00     0.016 A 
ATOM     36  C   UNL     1       6.763  -2.297  -2.113  1.00  0.00     0.016 A 
ATOM     37  C   UNL     1       8.905  -1.499  -3.756  1.00  0.00     0.010 A 
ATOM     38  C   UNL     1       8.027  -2.065  -1.559  1.00  0.00     0.010 A 
ATOM     39  C   UNL     1       9.108  -1.711  -2.389  1.00  0.00    -0.014 A 
BRANCH  39  40
ATOM     40  C   UNL     1      10.504  -1.814  -1.913  1.00  0.00     0.031 A 
ATOM     41  C   UNL     1      11.130  -3.182  -1.861  1.00  0.00     0.074 A 
ATOM     42  C   UNL     1      11.228  -0.715  -1.643  1.00  0.00     0.049 A 
ATOM     43  N   UNL     1      12.343  -3.526  -1.517  1.00  0.00    -0.248 NA
ATOM     44  C   UNL     1      10.274  -4.313  -2.261  1.00  0.00     0.031 C 
ATOM     45  C   UNL     1      10.746   0.662  -1.746  1.00  0.00     0.029 A 
ATOM     46  N   UNL     1      12.532  -0.589  -1.239  1.00  0.00    -0.354 N 
ATOM     47  C   UNL     1      12.393  -4.909  -1.653  1.00  0.00     0.074 A 
ATOM     48  C   UNL     1      11.084  -5.345  -2.083  1.00  0.00     0.031 C 
ATOM     49  C   UNL     1      11.745   1.497  -1.408  1.00  0.00     0.029 A 
ATOM     50  C   UNL     1      12.920   0.713  -1.034  1.00  0.00     0.049 A 
ATOM     51  H   UNL     1      13.132  -1.358  -1.108  1.00  0.00     0.167 HD
ATOM     52  C   UNL     1      13.440  -5.740  -1.444  1.00  0.00     0.031 A 
ATOM     53  C   UNL     1      14.086   1.208  -0.575  1.00  0.00     0.031 A 
ATOM     54  C   UNL     1      14.733  -5.297  -0.998  1.00  0.00     0.049 A 
ATOM     55  C   UNL     1      15.206   0.253  -0.251  1.00  0.00     0.074 A 
ATOM     56  C   UNL     1      15.862  -6.054  -0.744  1.00  0.00     0.029 A 
ATOM     57  N   UNL     1      15.067  -3.977  -0.732  1.00  0.00    -0.354 N 
ATOM     58  N   UNL     1      15.243  -1.053  -0.383  1.00  0.00    -0.248 NA
ATOM     59  C   UNL     1      16.446   0.840   0.276  1.00  0.00     0.031 C 
ATOM     60  C   UNL     1      16.858  -5.200  -0.261  1.00  0.00     0.029 A 
ATOM     61  C   UNL     1      16.375  -3.901  -0.286  1.00  0.00     0.049 A 
ATOM     62  H   UNL     1      14.462  -3.208  -0.843  1.00  0.00     0.167 HD
ATOM     63  C   UNL     1      16.519  -1.440   0.015  1.00  0.00     0.074 A 
ATOM     64  C   UNL     1      17.226  -0.228   0.378  1.00  0.00     0.031 C 
ATOM     65  C   UNL     1      17.059  -2.683   0.073  1.00  0.00     0.031 A 
BRANCH  52  66
ATOM     66  C   UNL     1      13.210  -7.215  -1.647  1.00  0.00    -0.014 A 
ATOM     67  C   UNL     1      13.011  -7.758  -2.930  1.00  0.00     0.010 A 
ATOM     68  C   UNL     1      13.220  -8.076  -0.535  1.00  0.00     0.010 A 
ATOM     69  C   UNL     1      12.790  -9.130  -3.091  1.00  0.00     0.020 A 
ATOM     70  C   UNL     1      13.031  -9.452  -0.695  1.00  0.00     0.020 A 
ATOM     71  C   UNL     1      12.802  -9.968  -1.972  1.00  0.00     0.054 A 
BRANCH  71  72
ATOM     72  S   UNL     1      12.541 -11.746  -2.213  1.00  0.00     0.124 S 
ATOM     73  O   UNL     1      11.126 -11.798  -2.572  1.00  0.00    -0.237 OA
ATOM     74  O   UNL     1      13.475 -12.062  -3.292  1.00  0.00    -0.237 OA
ATOM     75  O   UNL     1      12.875 -12.326  -0.915  1.00  0.00    -0.744 OA
ENDBRANCH  71  72
ENDBRANCH  52  66
BRANCH  53  76
ATOM     76  C   UNL     1      14.244   2.674  -0.373  1.00  0.00    -0.014 A 
ATOM     77  C   UNL     1      15.135   3.422  -1.161  1.00  0.00     0.010 A 
ATOM     78  C   UNL     1      13.495   3.333   0.621  1.00  0.00     0.010 A 
ATOM     79  C   UNL     1      15.285   4.797  -0.951  1.00  0.00     0.020 A 
ATOM     80  C   UNL     1      13.619   4.711   0.814  1.00  0.00     0.020 A 
ATOM     81  C   UNL     1      14.522   5.433   0.033  1.00  0.00     0.054 A 
BRANCH  81  82
ATOM     82  S   UNL     1      14.693   7.226   0.250  1.00  0.00     0.124 S 
ATOM     83  O   UNL     1      16.018   7.335   0.851  1.00  0.00    -0.237 OA
ATOM     84  O   UNL     1      14.574   7.720  -1.119  1.00  0.00    -0.237 OA
ATOM     85  O   UNL     1      13.576   7.572   1.127  1.00  0.00    -0.744 OA
ENDBRANCH  81  82
ENDBRANCH  53  76
BRANCH  65  86
ATOM     86  C   UNL     1      18.498  -2.796   0.506  1.00  0.00    -0.014 A 
ATOM     87  C   UNL     1      18.885  -2.555   1.836  1.00  0.00     0.010 A 
ATOM     88  C   UNL     1      19.470  -3.206  -0.426  1.00  0.00     0.010 A 
ATOM     89  C   UNL     1      20.224  -2.685   2.216  1.00  0.00     0.020 A 
ATOM     90  C   UNL     1      20.802  -3.370  -0.043  1.00  0.00     0.020 A 
ATOM     91  C   UNL     1      21.174  -3.092   1.274  1.00  0.00     0.054 A 
BRANCH  91  92
ATOM     92  S   UNL     1      22.897  -3.290   1.803  1.00  0.00     0.124 S 
ATOM     93  O   UNL     1      23.319  -1.904   1.988  1.00  0.00    -0.237 OA
ATOM     94  O   UNL     1      22.767  -4.076   3.027  1.00  0.00    -0.237 OA
ATOM     95  O   UNL     1      23.526  -3.989   0.684  1.00  0.00    -0.744 OA
ENDBRANCH  91  92
ENDBRANCH  65  86
ENDBRANCH  39  40
ENDBRANCH  32  34
ENDBRANCH  31  32
ENDBRANCH  30  31
ENDBRANCH  29  30
ENDBRANCH  28  29
ENDBRANCH  27  28
ENDBRANCH  26  27
ENDBRANCH   1  26
TORSDOF 26
