REMARK SMILES O=C(OCCOCCOCCOCCOC(=O)[C@H]1C[C@](O)(c2ccccc2Cl)[C@@H](c2ccccc2Cl)O1)c1ccc(-c2c3nc(c(-c4ccc(S(=O)(=O)[O-])cc4)c4ccc([nH]4)c(-c4ccc(S(=O)(=O)[O-])cc4)c4nc(c(-c5ccc(S(=O)(=O)[O-])cc5)c5ccc2[nH]5)C=C4)C=C3)cc1
REMARK SMILES IDX 8 1 7 2 6 3 5 4 4 5 3 6 2 7 1 8 38 9 39 10 97 11 40 12 96 13
REMARK SMILES IDX 41 14 42 15 43 16 90 17 44 18 95 19 89 20 91 21 45 22 94 23
REMARK SMILES IDX 88 24 87 25 46 27 76 28 57 29 75 30 58 31 61 32 74 33 92 34
REMARK SMILES IDX 59 35 60 36 73 38 93 39 62 40 47 41 48 42 56 43 49 44 55 45
REMARK SMILES IDX 50 46 51 47 52 48 53 49 54 50 77 51 78 52 86 53 79 54 85 55
REMARK SMILES IDX 80 56 81 57 82 58 83 59 84 60 63 61 64 62 72 63 65 64 71 65
REMARK SMILES IDX 66 66 67 67 68 68 69 69 70 70 9 71 10 72 11 73 12 74 13 75
REMARK SMILES IDX 14 76 15 77 16 78 17 79 18 80 19 81 37 82 20 83 29 84 22 85
REMARK SMILES IDX 23 86 27 87 24 88 26 89 28 90 25 91 21 92 30 94 31 95 35 96
REMARK SMILES IDX 32 97 34 98 36 99 33 100
REMARK H PARENT 91 26 61 37 21 93
REMARK Flexibility Score: inf
ROOT
ATOM      1  C   UNL     1       7.011  -4.745   2.975  1.00  0.00     0.188 C 
ENDROOT
BRANCH   1   2
ATOM      2  C   UNL     1       7.238  -4.369   1.511  1.00  0.00     0.188 C 
BRANCH   2   3
ATOM      3  O   UNL     1       7.797  -3.060   1.438  1.00  0.00    -0.376 OA
BRANCH   3   4
ATOM      4  C   UNL     1       7.359  -2.261   0.345  1.00  0.00     0.202 C 
BRANCH   4   5
ATOM      5  C   UNL     1       8.168  -2.481  -0.931  1.00  0.00     0.261 C 
BRANCH   5   6
ATOM      6  O   UNL     1       8.731  -3.798  -1.000  1.00  0.00    -0.460 OA
BRANCH   6   7
ATOM      7  C   UNL     1       9.952  -4.189  -0.553  1.00  0.00     0.338 C 
ATOM      8  O   UNL     1      10.291  -5.359  -0.724  1.00  0.00    -0.246 OA
BRANCH   7   9
ATOM      9  C   UNL     1      10.940  -3.265   0.085  1.00  0.00     0.060 A 
ATOM     10  C   UNL     1      10.627  -2.241   0.982  1.00  0.00     0.016 A 
ATOM     11  C   UNL     1      12.296  -3.535  -0.154  1.00  0.00     0.016 A 
ATOM     12  C   UNL     1      11.612  -1.471   1.587  1.00  0.00     0.010 A 
ATOM     13  C   UNL     1      13.297  -2.787   0.474  1.00  0.00     0.010 A 
ATOM     14  C   UNL     1      12.952  -1.740   1.337  1.00  0.00    -0.014 A 
BRANCH  14  15
ATOM     15  C   UNL     1      13.974  -0.841   1.901  1.00  0.00     0.031 A 
ATOM     16  C   UNL     1      14.641   0.126   0.973  1.00  0.00     0.074 A 
ATOM     17  C   UNL     1      14.233  -0.852   3.222  1.00  0.00     0.049 A 
ATOM     18  N   UNL     1      15.657   0.912   1.192  1.00  0.00    -0.248 NA
ATOM     19  C   UNL     1      14.083   0.224  -0.390  1.00  0.00     0.031 C 
ATOM     20  C   UNL     1      13.536  -1.675   4.216  1.00  0.00     0.029 A 
ATOM     21  N   UNL     1      15.145  -0.144   3.960  1.00  0.00    -0.354 N 
ATOM     22  C   UNL     1      15.895   1.556  -0.016  1.00  0.00     0.074 A 
ATOM     23  C   UNL     1      14.907   1.090  -0.960  1.00  0.00     0.031 C 
ATOM     24  C   UNL     1      14.052  -1.427   5.431  1.00  0.00     0.029 A 
ATOM     25  C   UNL     1      15.161  -0.490   5.292  1.00  0.00     0.049 A 
ATOM     26  H   UNL     1      15.733   0.545   3.574  1.00  0.00     0.167 HD
ATOM     27  C   UNL     1      16.875   2.440  -0.306  1.00  0.00     0.031 A 
ATOM     28  C   UNL     1      16.020  -0.133   6.266  1.00  0.00     0.031 A 
ATOM     29  C   UNL     1      17.838   2.881   0.663  1.00  0.00     0.049 A 
ATOM     30  C   UNL     1      17.160   0.780   5.893  1.00  0.00     0.074 A 
ATOM     31  C   UNL     1      18.896   3.753   0.493  1.00  0.00     0.029 A 
ATOM     32  N   UNL     1      17.856   2.472   1.989  1.00  0.00    -0.354 N 
ATOM     33  N   UNL     1      17.401   1.365   4.741  1.00  0.00    -0.248 NA
ATOM     34  C   UNL     1      18.157   1.061   6.933  1.00  0.00     0.031 C 
ATOM     35  C   UNL     1      19.589   3.825   1.706  1.00  0.00     0.029 A 
ATOM     36  C   UNL     1      18.931   3.041   2.643  1.00  0.00     0.049 A 
ATOM     37  H   UNL     1      17.200   1.865   2.402  1.00  0.00     0.167 HD
ATOM     38  C   UNL     1      18.580   2.078   4.917  1.00  0.00     0.074 A 
ATOM     39  C   UNL     1      18.983   1.881   6.296  1.00  0.00     0.031 C 
ATOM     40  C   UNL     1      19.281   2.816   4.022  1.00  0.00     0.031 A 
BRANCH  27  41
ATOM     41  C   UNL     1      17.001   2.901  -1.729  1.00  0.00    -0.014 A 
ATOM     42  C   UNL     1      16.115   3.839  -2.287  1.00  0.00     0.010 A 
ATOM     43  C   UNL     1      18.047   2.391  -2.521  1.00  0.00     0.010 A 
ATOM     44  C   UNL     1      16.262   4.243  -3.618  1.00  0.00     0.020 A 
ATOM     45  C   UNL     1      18.209   2.806  -3.844  1.00  0.00     0.020 A 
ATOM     46  C   UNL     1      17.308   3.723  -4.388  1.00  0.00     0.054 A 
BRANCH  46  47
ATOM     47  S   UNL     1      17.499   4.292  -6.100  1.00  0.00     0.124 S 
ATOM     48  O   UNL     1      16.379   3.630  -6.765  1.00  0.00    -0.237 OA
ATOM     49  O   UNL     1      17.383   5.742  -5.970  1.00  0.00    -0.237 OA
ATOM     50  O   UNL     1      18.823   3.808  -6.482  1.00  0.00    -0.744 OA
ENDBRANCH  46  47
ENDBRANCH  27  41
BRANCH  28  51
ATOM     51  C   UNL     1      15.916  -0.724   7.632  1.00  0.00    -0.014 A 
ATOM     52  C   UNL     1      15.663   0.078   8.758  1.00  0.00     0.010 A 
ATOM     53  C   UNL     1      16.107  -2.108   7.817  1.00  0.00     0.010 A 
ATOM     54  C   UNL     1      15.633  -0.485  10.040  1.00  0.00     0.020 A 
ATOM     55  C   UNL     1      16.045  -2.680   9.090  1.00  0.00     0.020 A 
ATOM     56  C   UNL     1      15.829  -1.861  10.198  1.00  0.00     0.054 A 
BRANCH  56  57
ATOM     57  S   UNL     1      15.775  -2.576  11.866  1.00  0.00     0.124 S 
ATOM     58  O   UNL     1      17.063  -2.162  12.413  1.00  0.00    -0.237 OA
ATOM     59  O   UNL     1      14.602  -1.931  12.450  1.00  0.00    -0.237 OA
ATOM     60  O   UNL     1      15.630  -4.009  11.618  1.00  0.00    -0.744 OA
ENDBRANCH  56  57
ENDBRANCH  28  51
BRANCH  40  61
ATOM     61  C   UNL     1      20.543   3.465   4.512  1.00  0.00    -0.014 A 
ATOM     62  C   UNL     1      21.712   2.708   4.691  1.00  0.00     0.010 A 
ATOM     63  C   UNL     1      20.579   4.859   4.696  1.00  0.00     0.010 A 
ATOM     64  C   UNL     1      22.903   3.337   5.055  1.00  0.00     0.020 A 
ATOM     65  C   UNL     1      21.775   5.493   5.034  1.00  0.00     0.020 A 
ATOM     66  C   UNL     1      22.928   4.726   5.218  1.00  0.00     0.054 A 
BRANCH  66  67
ATOM     67  S   UNL     1      24.506   5.528   5.606  1.00  0.00     0.124 S 
ATOM     68  O   UNL     1      24.680   5.188   7.015  1.00  0.00    -0.237 OA
ATOM     69  O   UNL     1      25.433   4.878   4.682  1.00  0.00    -0.237 OA
ATOM     70  O   UNL     1      24.252   6.941   5.332  1.00  0.00    -0.744 OA
ENDBRANCH  66  67
ENDBRANCH  40  61
ENDBRANCH  14  15
ENDBRANCH   7   9
ENDBRANCH   6   7
ENDBRANCH   5   6
ENDBRANCH   4   5
ENDBRANCH   3   4
ENDBRANCH   2   3
ENDBRANCH   1   2
BRANCH   1  71
ATOM     71  O   UNL     1       6.036  -3.948   3.651  1.00  0.00    -0.377 OA
BRANCH  71  72
ATOM     72  C   UNL     1       6.238  -2.536   3.626  1.00  0.00     0.188 C 
BRANCH  72  73
ATOM     73  C   UNL     1       7.511  -1.919   4.261  1.00  0.00     0.188 C 
BRANCH  73  74
ATOM     74  O   UNL     1       8.605  -2.801   4.511  1.00  0.00    -0.376 OA
BRANCH  74  75
ATOM     75  C   UNL     1       8.886  -3.006   5.904  1.00  0.00     0.202 C 
BRANCH  75  76
ATOM     76  C   UNL     1       7.972  -4.058   6.539  1.00  0.00     0.261 C 
BRANCH  76  77
ATOM     77  O   UNL     1       6.605  -3.663   6.360  1.00  0.00    -0.461 OA
BRANCH  77  78
ATOM     78  C   UNL     1       5.957  -3.048   7.376  1.00  0.00     0.335 C 
ATOM     79  O   UNL     1       6.303  -3.080   8.548  1.00  0.00    -0.249 OA
BRANCH  78  80
ATOM     80  C   UNL     1       4.764  -2.266   6.799  1.00  0.00     0.232 C 
ATOM     81  C   UNL     1       3.659  -2.003   7.791  1.00  0.00     0.087 C 
ATOM     82  O   UNL     1       5.146  -1.021   6.226  1.00  0.00    -0.355 OA
ATOM     83  C   UNL     1       3.469  -0.469   7.870  1.00  0.00     0.124 C 
ATOM     84  C   UNL     1       4.663   0.074   7.024  1.00  0.00     0.187 C 
BRANCH  83  85
ATOM     85  C   UNL     1       1.988  -0.164   7.526  1.00  0.00     0.005 A 
ATOM     86  C   UNL     1       1.036  -0.825   8.360  1.00  0.00     0.008 A 
ATOM     87  C   UNL     1       1.440   0.651   6.516  1.00  0.00     0.047 A 
ATOM     88  C   UNL     1      -0.346  -0.719   8.186  1.00  0.00     0.001 A 
ATOM     89  C   UNL     1       0.042   0.774   6.362  1.00  0.00     0.021 A 
ATOM     90  Cl  UNL     1       2.311   1.581   5.356  1.00  0.00    -0.084 Cl
ATOM     91  C   UNL     1      -0.847   0.089   7.182  1.00  0.00     0.002 A 
ENDBRANCH  83  85
BRANCH  83  92
ATOM     92  O   UNL     1       3.596  -0.102   9.256  1.00  0.00    -0.382 OA
ATOM     93  H   UNL     1       4.506  -0.265   9.552  1.00  0.00     0.212 HD
ENDBRANCH  83  92
BRANCH  84  94
ATOM     94  C   UNL     1       5.896   0.714   7.659  1.00  0.00     0.003 A 
ATOM     95  C   UNL     1       6.600   0.053   8.680  1.00  0.00     0.008 A 
ATOM     96  C   UNL     1       6.472   1.903   7.156  1.00  0.00     0.046 A 
ATOM     97  C   UNL     1       7.861   0.484   9.104  1.00  0.00     0.000 A 
ATOM     98  C   UNL     1       7.725   2.348   7.600  1.00  0.00     0.021 A 
ATOM     99  Cl  UNL     1       5.694   2.900   5.974  1.00  0.00    -0.084 Cl
ATOM    100  C   UNL     1       8.433   1.622   8.552  1.00  0.00     0.002 A 
ENDBRANCH  84  94
ENDBRANCH  78  80
ENDBRANCH  77  78
ENDBRANCH  76  77
ENDBRANCH  75  76
ENDBRANCH  74  75
ENDBRANCH  73  74
ENDBRANCH  72  73
ENDBRANCH  71  72
ENDBRANCH   1  71
TORSDOF 26
