REMARK SMILES O=C(OCCOCCOCCOCCOC(=O)[C@H]1CC[NH2+][C@@H]1c1cccc(F)c1)c1ccc(-c2c3nc(c(-c4ccc(S(=O)(=O)[O-])cc4)c4ccc([nH]4)c(-c4ccc(S(=O)(=O)[O-])cc4)c4nc(c(-c5ccc(S(=O)(=O)[O-])cc5)c5ccc2[nH]5)C=C4)C=C3)cc1
REMARK SMILES IDX 8 1 7 2 6 3 5 4 4 5 3 6 2 7 1 8 30 9 31 10 89 11 32 12 88 13
REMARK SMILES IDX 33 14 34 15 35 16 82 17 36 18 87 19 81 20 83 21 37 22 86 23
REMARK SMILES IDX 80 24 79 25 38 27 68 28 49 29 67 30 50 31 53 32 66 33 84 34
REMARK SMILES IDX 51 35 52 36 65 38 85 39 54 40 39 41 40 42 48 43 41 44 47 45
REMARK SMILES IDX 42 46 43 47 44 48 45 49 46 50 69 51 70 52 78 53 71 54 77 55
REMARK SMILES IDX 72 56 73 57 74 58 75 59 76 60 55 61 56 62 64 63 57 64 63 65
REMARK SMILES IDX 58 66 59 67 60 68 61 69 62 70 9 71 10 72 11 73 12 74 13 75
REMARK SMILES IDX 14 76 15 77 16 78 17 79 18 80 19 81 22 82 20 83 21 84 23 87
REMARK SMILES IDX 24 88 29 89 25 90 27 91 26 92 28 93
REMARK H PARENT 83 26 53 37 21 85 21 86
REMARK Flexibility Score: inf
ROOT
ATOM      1  C   UNL     1       4.663  -5.585   8.245  1.00  0.00     0.188 C 
ENDROOT
BRANCH   1   2
ATOM      2  C   UNL     1       4.569  -4.244   8.970  1.00  0.00     0.188 C 
BRANCH   2   3
ATOM      3  O   UNL     1       3.656  -3.354   8.326  1.00  0.00    -0.376 OA
BRANCH   3   4
ATOM      4  C   UNL     1       4.109  -2.017   8.107  1.00  0.00     0.202 C 
BRANCH   4   5
ATOM      5  C   UNL     1       3.971  -1.094   9.315  1.00  0.00     0.261 C 
BRANCH   5   6
ATOM      6  O   UNL     1       4.214  -1.772  10.551  1.00  0.00    -0.460 OA
BRANCH   6   7
ATOM      7  C   UNL     1       3.345  -2.520  11.275  1.00  0.00     0.338 C 
ATOM      8  O   UNL     1       3.780  -3.062  12.292  1.00  0.00    -0.246 OA
BRANCH   7   9
ATOM      9  C   UNL     1       1.905  -2.770  10.915  1.00  0.00     0.060 A 
ATOM     10  C   UNL     1       1.304  -2.542   9.673  1.00  0.00     0.016 A 
ATOM     11  C   UNL     1       1.107  -3.344  11.922  1.00  0.00     0.016 A 
ATOM     12  C   UNL     1      -0.024  -2.853   9.428  1.00  0.00     0.010 A 
ATOM     13  C   UNL     1      -0.242  -3.635  11.700  1.00  0.00     0.010 A 
ATOM     14  C   UNL     1      -0.809  -3.360  10.453  1.00  0.00    -0.014 A 
BRANCH  14  15
ATOM     15  C   UNL     1      -2.262  -3.317  10.250  1.00  0.00     0.031 A 
ATOM     16  C   UNL     1      -2.981  -2.116  10.788  1.00  0.00     0.074 A 
ATOM     17  C   UNL     1      -2.863  -4.219   9.457  1.00  0.00     0.049 A 
ATOM     18  N   UNL     1      -4.253  -1.840  10.781  1.00  0.00    -0.248 NA
ATOM     19  C   UNL     1      -2.139  -1.066  11.398  1.00  0.00     0.031 C 
ATOM     20  C   UNL     1      -2.183  -5.303   8.743  1.00  0.00     0.029 A 
ATOM     21  N   UNL     1      -4.173  -4.346   9.090  1.00  0.00    -0.354 N 
ATOM     22  C   UNL     1      -4.368  -0.607  11.412  1.00  0.00     0.074 A 
ATOM     23  C   UNL     1      -3.041  -0.182  11.788  1.00  0.00     0.031 C 
ATOM     24  C   UNL     1      -3.088  -5.983   8.018  1.00  0.00     0.029 A 
ATOM     25  C   UNL     1      -4.411  -5.426   8.274  1.00  0.00     0.049 A 
ATOM     26  H   UNL     1      -4.878  -3.724   9.382  1.00  0.00     0.167 HD
ATOM     27  C   UNL     1      -5.494   0.095  11.664  1.00  0.00     0.031 A 
ATOM     28  C   UNL     1      -5.582  -5.920   7.831  1.00  0.00     0.031 A 
ATOM     29  C   UNL     1      -6.795  -0.381  11.292  1.00  0.00     0.049 A 
ATOM     30  C   UNL     1      -6.838  -5.202   8.251  1.00  0.00     0.074 A 
ATOM     31  C   UNL     1      -8.031   0.170  11.563  1.00  0.00     0.029 A 
ATOM     32  N   UNL     1      -7.018  -1.543  10.561  1.00  0.00    -0.354 N 
ATOM     33  N   UNL     1      -6.958  -4.087   8.938  1.00  0.00    -0.248 NA
ATOM     34  C   UNL     1      -8.114  -5.808   7.856  1.00  0.00     0.031 C 
ATOM     35  C   UNL     1      -9.004  -0.691  11.044  1.00  0.00     0.029 A 
ATOM     36  C   UNL     1      -8.372  -1.740  10.389  1.00  0.00     0.049 A 
ATOM     37  H   UNL     1      -6.312  -2.137  10.217  1.00  0.00     0.167 HD
ATOM     38  C   UNL     1      -8.321  -3.846   9.040  1.00  0.00     0.074 A 
ATOM     39  C   UNL     1      -8.983  -4.924   8.329  1.00  0.00     0.031 C 
ATOM     40  C   UNL     1      -8.975  -2.833   9.664  1.00  0.00     0.031 A 
BRANCH  27  41
ATOM     41  C   UNL     1      -5.348   1.368  12.453  1.00  0.00    -0.014 A 
ATOM     42  C   UNL     1      -4.756   2.518  11.901  1.00  0.00     0.010 A 
ATOM     43  C   UNL     1      -5.774   1.395  13.793  1.00  0.00     0.010 A 
ATOM     44  C   UNL     1      -4.556   3.657  12.687  1.00  0.00     0.020 A 
ATOM     45  C   UNL     1      -5.600   2.540  14.575  1.00  0.00     0.020 A 
ATOM     46  C   UNL     1      -4.975   3.659  14.021  1.00  0.00     0.054 A 
BRANCH  46  47
ATOM     47  S   UNL     1      -4.707   5.150  15.018  1.00  0.00     0.124 S 
ATOM     48  O   UNL     1      -3.258   5.132  15.206  1.00  0.00    -0.237 OA
ATOM     49  O   UNL     1      -5.214   6.210  14.150  1.00  0.00    -0.237 OA
ATOM     50  O   UNL     1      -5.493   4.908  16.225  1.00  0.00    -0.744 OA
ENDBRANCH  46  47
ENDBRANCH  27  41
BRANCH  28  51
ATOM     51  C   UNL     1      -5.620  -7.174   7.027  1.00  0.00    -0.014 A 
ATOM     52  C   UNL     1      -6.091  -7.179   5.702  1.00  0.00     0.010 A 
ATOM     53  C   UNL     1      -5.181  -8.388   7.592  1.00  0.00     0.010 A 
ATOM     54  C   UNL     1      -6.138  -8.370   4.968  1.00  0.00     0.020 A 
ATOM     55  C   UNL     1      -5.197  -9.575   6.853  1.00  0.00     0.020 A 
ATOM     56  C   UNL     1      -5.688  -9.561   5.548  1.00  0.00     0.054 A 
BRANCH  56  57
ATOM     57  S   UNL     1      -5.728 -11.087   4.567  1.00  0.00     0.124 S 
ATOM     58  O   UNL     1      -7.160 -11.362   4.490  1.00  0.00    -0.237 OA
ATOM     59  O   UNL     1      -5.094 -10.675   3.317  1.00  0.00    -0.237 OA
ATOM     60  O   UNL     1      -4.952 -12.031   5.368  1.00  0.00    -0.744 OA
ENDBRANCH  56  57
ENDBRANCH  28  51
BRANCH  40  61
ATOM     61  C   UNL     1     -10.473  -2.828   9.565  1.00  0.00    -0.014 A 
ATOM     62  C   UNL     1     -11.254  -3.742  10.291  1.00  0.00     0.010 A 
ATOM     63  C   UNL     1     -11.103  -1.834   8.794  1.00  0.00     0.010 A 
ATOM     64  C   UNL     1     -12.646  -3.676  10.229  1.00  0.00     0.020 A 
ATOM     65  C   UNL     1     -12.493  -1.744   8.756  1.00  0.00     0.020 A 
ATOM     66  C   UNL     1     -13.256  -2.674   9.465  1.00  0.00     0.054 A 
BRANCH  66  67
ATOM     67  S   UNL     1     -15.065  -2.570   9.454  1.00  0.00     0.124 S 
ATOM     68  O   UNL     1     -15.429  -3.721   8.633  1.00  0.00    -0.237 OA
ATOM     69  O   UNL     1     -15.399  -2.677  10.872  1.00  0.00    -0.237 OA
ATOM     70  O   UNL     1     -15.333  -1.266   8.853  1.00  0.00    -0.744 OA
ENDBRANCH  66  67
ENDBRANCH  40  61
ENDBRANCH  14  15
ENDBRANCH   7   9
ENDBRANCH   6   7
ENDBRANCH   5   6
ENDBRANCH   4   5
ENDBRANCH   3   4
ENDBRANCH   2   3
ENDBRANCH   1   2
BRANCH   1  71
ATOM     71  O   UNL     1       5.231  -5.516   6.944  1.00  0.00    -0.377 OA
BRANCH  71  72
ATOM     72  C   UNL     1       4.667  -4.552   6.068  1.00  0.00     0.188 C 
BRANCH  72  73
ATOM     73  C   UNL     1       3.138  -4.537   5.825  1.00  0.00     0.188 C 
BRANCH  73  74
ATOM     74  O   UNL     1       2.471  -5.673   6.337  1.00  0.00    -0.376 OA
BRANCH  74  75
ATOM     75  C   UNL     1       2.159  -6.679   5.381  1.00  0.00     0.202 C 
BRANCH  75  76
ATOM     76  C   UNL     1       3.365  -7.332   4.692  1.00  0.00     0.261 C 
BRANCH  76  77
ATOM     77  O   UNL     1       4.252  -6.449   3.965  1.00  0.00    -0.463 OA
BRANCH  77  78
ATOM     78  C   UNL     1       3.817  -5.693   2.930  1.00  0.00     0.315 C 
ATOM     79  O   UNL     1       2.678  -5.739   2.476  1.00  0.00    -0.252 OA
BRANCH  78  80
ATOM     80  C   UNL     1       4.876  -4.708   2.430  1.00  0.00     0.167 C 
ATOM     81  C   UNL     1       4.759  -3.260   2.893  1.00  0.00     0.083 C 
ATOM     82  C   UNL     1       6.323  -5.116   2.771  1.00  0.00     0.228 C 
ATOM     83  C   UNL     1       6.173  -2.737   2.744  1.00  0.00     0.262 C 
ATOM     84  N   UNL     1       7.052  -3.856   3.080  1.00  0.00    -0.339 N 
ATOM     85  H   UNL     1       7.287  -3.825   4.072  1.00  0.00     0.346 HD
ATOM     86  H   UNL     1       7.917  -3.803   2.542  1.00  0.00     0.346 HD
BRANCH  82  87
ATOM     87  C   UNL     1       7.018  -5.933   1.695  1.00  0.00     0.013 A 
ATOM     88  C   UNL     1       8.406  -6.145   1.762  1.00  0.00     0.010 A 
ATOM     89  C   UNL     1       6.308  -6.556   0.656  1.00  0.00     0.049 A 
ATOM     90  C   UNL     1       9.066  -6.902   0.790  1.00  0.00     0.004 A 
ATOM     91  C   UNL     1       6.974  -7.285  -0.319  1.00  0.00     0.123 A 
ATOM     92  C   UNL     1       8.347  -7.459  -0.265  1.00  0.00     0.039 A 
ATOM     93  F   UNL     1       6.272  -7.824  -1.323  1.00  0.00    -0.207 F 
ENDBRANCH  82  87
ENDBRANCH  78  80
ENDBRANCH  77  78
ENDBRANCH  76  77
ENDBRANCH  75  76
ENDBRANCH  74  75
ENDBRANCH  73  74
ENDBRANCH  72  73
ENDBRANCH  71  72
ENDBRANCH   1  71
TORSDOF 24
