REMARK SMILES O=C(OCCOCCOCCOCCOC(=O)c1ccc(-c2c3nc(c(-c4ccc(S(=O)(=O)[O-])cc4)c4ccc([nH]4)c(-c4ccc(S(=O)(=O)[O-])cc4)c4nc(c(-c5ccc(S(=O)(=O)[O-])cc5)c5ccc2[nH]5)C=C4)C=C3)cc1)c1ccc(N[C@H]2OC[C@@H](O)[C@@H](O)[C@H]2O)cc1
REMARK SMILES IDX 9 1 8 2 7 3 6 4 5 5 4 6 3 7 2 8 1 9 78 10 79 11 93 12 80 13
REMARK SMILES IDX 92 14 81 15 82 16 83 18 84 19 90 20 85 21 88 22 86 23 91 24
REMARK SMILES IDX 89 26 87 28 10 30 11 31 12 32 13 33 14 34 15 35 16 36 17 37
REMARK SMILES IDX 18 38 19 39 77 40 20 41 76 42 21 43 22 44 23 45 70 46 24 47
REMARK SMILES IDX 75 48 69 49 71 50 25 51 74 52 68 53 67 54 26 56 56 57 37 58
REMARK SMILES IDX 55 59 38 60 41 61 54 62 72 63 39 64 40 65 53 67 73 68 42 69
REMARK SMILES IDX 27 70 28 71 36 72 29 73 35 74 30 75 31 76 32 77 33 78 34 79
REMARK SMILES IDX 57 80 58 81 66 82 59 83 65 84 60 85 61 86 62 87 63 88 64 89
REMARK SMILES IDX 43 90 44 91 52 92 45 93 51 94 46 95 47 96 48 97 49 98 50 99
REMARK H PARENT 82 17 91 25 89 27 87 29 71 55 41 66
REMARK Flexibility Score: inf
ROOT
ATOM      1  O   UNL     1       1.504  -3.560 -11.558  1.00  0.00    -0.377 OA
ENDROOT
BRANCH   1   2
ATOM      2  C   UNL     1       2.920  -3.594 -11.735  1.00  0.00     0.188 C 
BRANCH   2   3
ATOM      3  C   UNL     1       3.586  -2.224 -11.867  1.00  0.00     0.188 C 
BRANCH   3   4
ATOM      4  O   UNL     1       3.580  -1.564 -10.598  1.00  0.00    -0.376 OA
BRANCH   4   5
ATOM      5  C   UNL     1       3.412  -0.150 -10.640  1.00  0.00     0.202 C 
BRANCH   5   6
ATOM      6  C   UNL     1       4.693   0.625 -10.938  1.00  0.00     0.261 C 
BRANCH   6   7
ATOM      7  O   UNL     1       5.653  -0.154 -11.665  1.00  0.00    -0.460 OA
BRANCH   7   8
ATOM      8  C   UNL     1       6.629  -0.934 -11.143  1.00  0.00     0.338 C 
ATOM      9  O   UNL     1       7.382  -1.539 -11.905  1.00  0.00    -0.246 OA
BRANCH   8  10
ATOM     10  C   UNL     1       6.903  -1.043  -9.681  1.00  0.00     0.060 A 
ATOM     11  C   UNL     1       5.947  -1.258  -8.690  1.00  0.00     0.018 A 
ATOM     12  C   UNL     1       8.249  -1.099  -9.305  1.00  0.00     0.018 A 
ATOM     13  C   UNL     1       6.316  -1.475  -7.356  1.00  0.00     0.026 A 
ATOM     14  C   UNL     1       8.616  -1.340  -7.976  1.00  0.00     0.026 A 
ATOM     15  C   UNL     1       7.654  -1.511  -6.973  1.00  0.00     0.036 A 
BRANCH  15  16
ATOM     16  N   UNL     1       8.066  -1.743  -5.673  1.00  0.00    -0.358 N 
ATOM     17  H   UNL     1       8.966  -2.113  -5.522  1.00  0.00     0.163 HD
BRANCH  16  18
ATOM     18  C   UNL     1       7.224  -1.464  -4.521  1.00  0.00     0.244 C 
ATOM     19  O   UNL     1       6.228  -2.482  -4.399  1.00  0.00    -0.353 OA
ATOM     20  C   UNL     1       8.115  -1.517  -3.260  1.00  0.00     0.195 C 
ATOM     21  C   UNL     1       5.324  -2.237  -3.310  1.00  0.00     0.197 C 
ATOM     22  C   UNL     1       7.247  -1.249  -2.028  1.00  0.00     0.178 C 
ATOM     23  C   UNL     1       6.060  -2.223  -1.964  1.00  0.00     0.171 C 
BRANCH  20  24
ATOM     24  O   UNL     1       8.718  -2.834  -3.150  1.00  0.00    -0.386 OA
ATOM     25  H   UNL     1       8.021  -3.505  -3.088  1.00  0.00     0.211 HD
ENDBRANCH  20  24
BRANCH  22  26
ATOM     26  O   UNL     1       8.045  -1.357  -0.846  1.00  0.00    -0.387 OA
ATOM     27  H   UNL     1       8.405  -2.255  -0.779  1.00  0.00     0.211 HD
ENDBRANCH  22  26
BRANCH  23  28
ATOM     28  O   UNL     1       6.523  -3.546  -1.652  1.00  0.00    -0.388 OA
ATOM     29  H   UNL     1       7.133  -3.846  -2.343  1.00  0.00     0.211 HD
ENDBRANCH  23  28
ENDBRANCH  16  18
ENDBRANCH  15  16
ENDBRANCH   8  10
ENDBRANCH   7   8
ENDBRANCH   6   7
ENDBRANCH   5   6
ENDBRANCH   4   5
ENDBRANCH   3   4
ENDBRANCH   2   3
ENDBRANCH   1   2
BRANCH   1  30
ATOM     30  C   UNL     1       1.008  -2.657 -10.577  1.00  0.00     0.188 C 
BRANCH  30  31
ATOM     31  C   UNL     1       1.420  -2.870  -9.104  1.00  0.00     0.188 C 
BRANCH  31  32
ATOM     32  O   UNL     1       2.343  -3.929  -8.877  1.00  0.00    -0.376 OA
BRANCH  32  33
ATOM     33  C   UNL     1       1.788  -5.100  -8.281  1.00  0.00     0.202 C 
BRANCH  33  34
ATOM     34  C   UNL     1       0.948  -5.965  -9.232  1.00  0.00     0.261 C 
BRANCH  34  35
ATOM     35  O   UNL     1      -0.227  -5.323  -9.754  1.00  0.00    -0.460 OA
BRANCH  35  36
ATOM     36  C   UNL     1      -1.170  -4.913  -8.877  1.00  0.00     0.338 C 
ATOM     37  O   UNL     1      -1.191  -5.120  -7.676  1.00  0.00    -0.246 OA
BRANCH  36  38
ATOM     38  C   UNL     1      -2.040  -3.943  -9.585  1.00  0.00     0.060 A 
ATOM     39  C   UNL     1      -2.317  -2.718  -8.960  1.00  0.00     0.016 A 
ATOM     40  C   UNL     1      -2.470  -4.174 -10.898  1.00  0.00     0.016 A 
ATOM     41  C   UNL     1      -3.044  -1.735  -9.638  1.00  0.00     0.010 A 
ATOM     42  C   UNL     1      -3.210  -3.196 -11.569  1.00  0.00     0.010 A 
ATOM     43  C   UNL     1      -3.529  -1.986 -10.930  1.00  0.00    -0.014 A 
BRANCH  43  44
ATOM     44  C   UNL     1      -4.593  -1.117 -11.492  1.00  0.00     0.031 A 
ATOM     45  C   UNL     1      -6.018  -1.519 -11.219  1.00  0.00     0.074 A 
ATOM     46  C   UNL     1      -4.328  -0.005 -12.202  1.00  0.00     0.049 A 
ATOM     47  N   UNL     1      -7.130  -0.936 -11.581  1.00  0.00    -0.248 NA
ATOM     48  C   UNL     1      -6.210  -2.748 -10.428  1.00  0.00     0.031 C 
ATOM     49  C   UNL     1      -2.998   0.513 -12.516  1.00  0.00     0.029 A 
ATOM     50  N   UNL     1      -5.186   0.892 -12.794  1.00  0.00    -0.354 N 
ATOM     51  C   UNL     1      -8.150  -1.724 -11.060  1.00  0.00     0.074 A 
ATOM     52  C   UNL     1      -7.528  -2.843 -10.389  1.00  0.00     0.031 C 
ATOM     53  C   UNL     1      -3.129   1.636 -13.247  1.00  0.00     0.029 A 
ATOM     54  C   UNL     1      -4.550   1.905 -13.473  1.00  0.00     0.049 A 
ATOM     55  H   UNL     1      -6.166   0.816 -12.736  1.00  0.00     0.167 HD
ATOM     56  C   UNL     1      -9.488  -1.534 -11.123  1.00  0.00     0.031 A 
ATOM     57  C   UNL     1      -5.059   2.922 -14.200  1.00  0.00     0.031 A 
ATOM     58  C   UNL     1     -10.114  -0.444 -11.816  1.00  0.00     0.049 A 
ATOM     59  C   UNL     1      -6.557   3.071 -14.324  1.00  0.00     0.074 A 
ATOM     60  C   UNL     1     -11.463  -0.164 -11.935  1.00  0.00     0.029 A 
ATOM     61  N   UNL     1      -9.435   0.537 -12.520  1.00  0.00    -0.354 N 
ATOM     62  N   UNL     1      -7.508   2.341 -13.789  1.00  0.00    -0.248 NA
ATOM     63  C   UNL     1      -7.049   4.190 -15.142  1.00  0.00     0.031 C 
ATOM     64  C   UNL     1     -11.602   0.958 -12.758  1.00  0.00     0.029 A 
ATOM     65  C   UNL     1     -10.338   1.412 -13.097  1.00  0.00     0.049 A 
ATOM     66  H   UNL     1      -8.456   0.602 -12.597  1.00  0.00     0.167 HD
ATOM     67  C   UNL     1      -8.707   2.932 -14.181  1.00  0.00     0.074 A 
ATOM     68  C   UNL     1      -8.362   4.084 -14.987  1.00  0.00     0.031 C 
ATOM     69  C   UNL     1      -9.979   2.557 -13.895  1.00  0.00     0.031 A 
BRANCH  56  70
ATOM     70  C   UNL     1     -10.356  -2.559 -10.448  1.00  0.00    -0.014 A 
ATOM     71  C   UNL     1     -10.421  -2.643  -9.045  1.00  0.00     0.010 A 
ATOM     72  C   UNL     1     -11.121  -3.445 -11.226  1.00  0.00     0.010 A 
ATOM     73  C   UNL     1     -11.206  -3.622  -8.433  1.00  0.00     0.020 A 
ATOM     74  C   UNL     1     -11.929  -4.408 -10.617  1.00  0.00     0.020 A 
ATOM     75  C   UNL     1     -11.953  -4.501  -9.224  1.00  0.00     0.054 A 
BRANCH  75  76
ATOM     76  S   UNL     1     -12.978  -5.750  -8.403  1.00  0.00     0.124 S 
ATOM     77  O   UNL     1     -11.973  -6.694  -7.920  1.00  0.00    -0.237 OA
ATOM     78  O   UNL     1     -13.661  -4.976  -7.369  1.00  0.00    -0.237 OA
ATOM     79  O   UNL     1     -13.838  -6.250  -9.473  1.00  0.00    -0.744 OA
ENDBRANCH  75  76
ENDBRANCH  56  70
BRANCH  57  80
ATOM     80  C   UNL     1      -4.150   3.887 -14.882  1.00  0.00    -0.014 A 
ATOM     81  C   UNL     1      -4.068   5.224 -14.453  1.00  0.00     0.010 A 
ATOM     82  C   UNL     1      -3.377   3.477 -15.984  1.00  0.00     0.010 A 
ATOM     83  C   UNL     1      -3.244   6.136 -15.122  1.00  0.00     0.020 A 
ATOM     84  C   UNL     1      -2.532   4.379 -16.639  1.00  0.00     0.020 A 
ATOM     85  C   UNL     1      -2.478   5.706 -16.210  1.00  0.00     0.054 A 
BRANCH  85  86
ATOM     86  S   UNL     1      -1.374   6.893 -17.027  1.00  0.00     0.124 S 
ATOM     87  O   UNL     1      -2.316   7.731 -17.760  1.00  0.00    -0.237 OA
ATOM     88  O   UNL     1      -0.706   7.530 -15.895  1.00  0.00    -0.237 OA
ATOM     89  O   UNL     1      -0.514   6.046 -17.851  1.00  0.00    -0.744 OA
ENDBRANCH  85  86
ENDBRANCH  57  80
BRANCH  69  90
ATOM     90  C   UNL     1     -11.100   3.420 -14.416  1.00  0.00    -0.014 A 
ATOM     91  C   UNL     1     -11.439   3.437 -15.780  1.00  0.00     0.010 A 
ATOM     92  C   UNL     1     -11.868   4.174 -13.510  1.00  0.00     0.010 A 
ATOM     93  C   UNL     1     -12.505   4.220 -16.233  1.00  0.00     0.020 A 
ATOM     94  C   UNL     1     -12.953   4.935 -13.954  1.00  0.00     0.020 A 
ATOM     95  C   UNL     1     -13.255   4.965 -15.317  1.00  0.00     0.054 A 
BRANCH  95  96
ATOM     96  S   UNL     1     -14.658   5.942 -15.923  1.00  0.00     0.124 S 
ATOM     97  O   UNL     1     -13.988   7.064 -16.573  1.00  0.00    -0.237 OA
ATOM     98  O   UNL     1     -15.336   5.009 -16.819  1.00  0.00    -0.237 OA
ATOM     99  O   UNL     1     -15.398   6.277 -14.707  1.00  0.00    -0.744 OA
ENDBRANCH  95  96
ENDBRANCH  69  90
ENDBRANCH  43  44
ENDBRANCH  36  38
ENDBRANCH  35  36
ENDBRANCH  34  35
ENDBRANCH  33  34
ENDBRANCH  32  33
ENDBRANCH  31  32
ENDBRANCH  30  31
ENDBRANCH   1  30
TORSDOF 28
