REMARK SMILES CC(C)C[C@H](Nc1ncnc2scc(-c3ccccc3)c12)C(=O)OCCOCCOCCOCCOC(=O)c1ccc(-c2c3nc(c(-c4ccc(S(=O)(=O)[O-])cc4)c4ccc([nH]4)c(-c4ccc(S(=O)(=O)[O-])cc4)c4nc(c(-c5ccc(S(=O)(=O)[O-])cc5)c5ccc2[nH]5)C=C4)C=C3)cc1
REMARK SMILES IDX 30 1 29 2 28 3 27 4 26 5 25 6 24 7 22 8 23 9 5 10 4 11 2 12
REMARK SMILES IDX 1 13 3 14 6 15 7 17 8 18 21 19 9 20 11 21 14 22 10 23 12 24
REMARK SMILES IDX 13 25 15 26 16 27 20 28 17 29 19 30 18 31 31 32 32 33 33 34
REMARK SMILES IDX 34 35 35 36 36 37 37 38 38 39 39 40 40 41 98 42 41 43 97 44
REMARK SMILES IDX 42 45 43 46 44 47 91 48 45 49 96 50 90 51 92 52 46 53 95 54
REMARK SMILES IDX 89 55 88 56 47 58 77 59 58 60 76 61 59 62 62 63 75 64 93 65
REMARK SMILES IDX 60 66 61 67 74 69 94 70 63 71 48 72 49 73 57 74 50 75 56 76
REMARK SMILES IDX 51 77 52 78 53 79 54 80 55 81 78 82 79 83 87 84 80 85 86 86
REMARK SMILES IDX 81 87 82 88 83 89 84 90 85 91 64 92 65 93 73 94 66 95 72 96
REMARK SMILES IDX 67 97 68 98 69 99 70 100 71 101
REMARK H PARENT 6 16 92 57 62 68
REMARK Flexibility Score: inf
ROOT
ATOM      1  O   UNL     1      -2.887   1.433  -1.950  1.00  0.00    -0.377 OA
ENDROOT
BRANCH   1   2
ATOM      2  C   UNL     1      -2.467   0.139  -0.935  1.00  0.00     0.188 C 
BRANCH   2   3
ATOM      3  C   UNL     1      -3.462  -0.810   0.060  1.00  0.00     0.188 C 
BRANCH   3   4
ATOM      4  O   UNL     1      -4.880  -0.713   0.271  1.00  0.00    -0.376 OA
BRANCH   4   5
ATOM      5  C   UNL     1      -5.580   0.030   1.280  1.00  0.00     0.202 C 
BRANCH   5   6
ATOM      6  C   UNL     1      -4.989   1.249   2.005  1.00  0.00     0.261 C 
BRANCH   6   7
ATOM      7  O   UNL     1      -3.708   1.690   1.554  1.00  0.00    -0.462 OA
BRANCH   7   8
ATOM      8  C   UNL     1      -2.635   1.096   2.142  1.00  0.00     0.328 C 
ATOM      9  O   UNL     1      -2.724   0.161   2.933  1.00  0.00    -0.250 OA
BRANCH   8  10
ATOM     10  C   UNL     1      -1.302   1.771   1.770  1.00  0.00     0.191 C 
BRANCH  10  11
ATOM     11  C   UNL     1      -0.864   2.537   3.013  1.00  0.00     0.040 C 
BRANCH  11  12
ATOM     12  C   UNL     1      -1.874   3.615   3.463  1.00  0.00    -0.015 C 
ATOM     13  C   UNL     1      -2.866   3.093   4.508  1.00  0.00     0.007 C 
ATOM     14  C   UNL     1      -1.107   4.789   4.057  1.00  0.00     0.007 C 
ENDBRANCH  11  12
ENDBRANCH  10  11
BRANCH  10  15
ATOM     15  N   UNL     1      -1.382   2.624   0.575  1.00  0.00    -0.356 N 
ATOM     16  H   UNL     1      -2.273   2.736   0.172  1.00  0.00     0.163 HD
BRANCH  15  17
ATOM     17  C   UNL     1      -0.339   3.281  -0.039  1.00  0.00     0.139 A 
ATOM     18  N   UNL     1       0.894   3.179   0.504  1.00  0.00    -0.219 NA
ATOM     19  C   UNL     1      -0.505   4.094  -1.199  1.00  0.00     0.062 A 
ATOM     20  C   UNL     1       1.895   3.905  -0.010  1.00  0.00     0.225 A 
ATOM     21  C   UNL     1       0.615   4.827  -1.575  1.00  0.00     0.129 A 
ATOM     22  C   UNL     1      -1.581   4.301  -2.174  1.00  0.00     0.006 A 
ATOM     23  N   UNL     1       1.839   4.769  -1.022  1.00  0.00    -0.225 NA
ATOM     24  S   UNL     1       0.328   5.871  -2.890  1.00  0.00    -0.123 S 
ATOM     25  C   UNL     1      -1.254   5.263  -3.111  1.00  0.00     0.076 A 
BRANCH  22  26
ATOM     26  C   UNL     1      -2.655   3.336  -2.460  1.00  0.00    -0.017 A 
ATOM     27  C   UNL     1      -2.180   2.148  -3.673  1.00  0.00     0.009 A 
ATOM     28  C   UNL     1      -3.869   2.976  -1.240  1.00  0.00     0.009 A 
ATOM     29  C   UNL     1      -2.824   0.500  -3.675  1.00  0.00     0.001 A 
ATOM     30  C   UNL     1      -4.593   1.343  -1.211  1.00  0.00     0.001 A 
ATOM     31  C   UNL     1      -4.055   0.046  -2.442  1.00  0.00     0.000 A 
ENDBRANCH  22  26
ENDBRANCH  15  17
ENDBRANCH  10  15
ENDBRANCH   8  10
ENDBRANCH   7   8
ENDBRANCH   6   7
ENDBRANCH   5   6
ENDBRANCH   4   5
ENDBRANCH   3   4
ENDBRANCH   2   3
ENDBRANCH   1   2
BRANCH   1  32
ATOM     32  C   UNL     1      -4.440   1.885  -3.153  1.00  0.00     0.188 C 
BRANCH  32  33
ATOM     33  C   UNL     1      -6.084   1.058  -3.092  1.00  0.00     0.188 C 
BRANCH  33  34
ATOM     34  O   UNL     1      -6.373  -0.356  -3.098  1.00  0.00    -0.376 OA
BRANCH  34  35
ATOM     35  C   UNL     1      -5.995  -1.343  -4.058  1.00  0.00     0.202 C 
BRANCH  35  36
ATOM     36  C   UNL     1      -5.160  -1.050  -5.313  1.00  0.00     0.261 C 
BRANCH  36  37
ATOM     37  O   UNL     1      -5.204   0.301  -5.775  1.00  0.00    -0.460 OA
BRANCH  37  38
ATOM     38  C   UNL     1      -6.432   0.711  -6.177  1.00  0.00     0.338 C 
ATOM     39  O   UNL     1      -7.397  -0.014  -6.350  1.00  0.00    -0.246 OA
BRANCH  38  40
ATOM     40  C   UNL     1      -6.510   2.198  -6.074  1.00  0.00     0.060 A 
ATOM     41  C   UNL     1      -7.652   2.717  -5.439  1.00  0.00     0.016 A 
ATOM     42  C   UNL     1      -5.460   3.058  -6.411  1.00  0.00     0.016 A 
ATOM     43  C   UNL     1      -7.742   4.069  -5.119  1.00  0.00     0.010 A 
ATOM     44  C   UNL     1      -5.592   4.438  -6.173  1.00  0.00     0.010 A 
ATOM     45  C   UNL     1      -6.749   4.953  -5.551  1.00  0.00    -0.014 A 
BRANCH  45  46
ATOM     46  C   UNL     1      -7.134   6.388  -5.653  1.00  0.00     0.031 A 
ATOM     47  C   UNL     1      -7.760   6.825  -6.957  1.00  0.00     0.074 A 
ATOM     48  C   UNL     1      -7.098   7.249  -4.617  1.00  0.00     0.049 A 
ATOM     49  N   UNL     1      -8.252   7.988  -7.297  1.00  0.00    -0.248 NA
ATOM     50  C   UNL     1      -7.859   5.800  -8.012  1.00  0.00     0.031 C 
ATOM     51  C   UNL     1      -6.624   6.948  -3.267  1.00  0.00     0.029 A 
ATOM     52  N   UNL     1      -7.495   8.566  -4.543  1.00  0.00    -0.354 N 
ATOM     53  C   UNL     1      -8.709   7.834  -8.601  1.00  0.00     0.074 A 
ATOM     54  C   UNL     1      -8.417   6.477  -9.001  1.00  0.00     0.031 C 
ATOM     55  C   UNL     1      -6.752   8.051  -2.504  1.00  0.00     0.029 A 
ATOM     56  C   UNL     1      -7.286   9.149  -3.313  1.00  0.00     0.049 A 
ATOM     57  H   UNL     1      -7.893   9.049  -5.304  1.00  0.00     0.167 HD
ATOM     58  C   UNL     1      -9.321   8.736  -9.401  1.00  0.00     0.031 A 
ATOM     59  C   UNL     1      -7.482  10.420  -2.895  1.00  0.00     0.031 A 
ATOM     60  C   UNL     1      -9.613  10.091  -9.021  1.00  0.00     0.049 A 
ATOM     61  C   UNL     1      -8.060  11.443  -3.850  1.00  0.00     0.074 A 
ATOM     62  C   UNL     1     -10.231  11.073  -9.775  1.00  0.00     0.029 A 
ATOM     63  N   UNL     1      -9.301  10.660  -7.798  1.00  0.00    -0.354 N 
ATOM     64  N   UNL     1      -8.496  11.279  -5.076  1.00  0.00    -0.248 NA
ATOM     65  C   UNL     1      -8.178  12.826  -3.358  1.00  0.00     0.031 C 
ATOM     66  C   UNL     1     -10.218  12.260  -9.038  1.00  0.00     0.029 A 
ATOM     67  C   UNL     1      -9.676  11.993  -7.792  1.00  0.00     0.049 A 
ATOM     68  H   UNL     1      -8.877  10.187  -7.046  1.00  0.00     0.167 HD
ATOM     69  C   UNL     1      -8.968  12.526  -5.485  1.00  0.00     0.074 A 
ATOM     70  C   UNL     1      -8.787  13.428  -4.370  1.00  0.00     0.031 C 
ATOM     71  C   UNL     1      -9.502  12.890  -6.678  1.00  0.00     0.031 A 
BRANCH  58  72
ATOM     72  C   UNL     1      -9.671   8.306 -10.801  1.00  0.00    -0.014 A 
ATOM     73  C   UNL     1     -10.710   7.392 -11.055  1.00  0.00     0.010 A 
ATOM     74  C   UNL     1      -8.985   8.884 -11.885  1.00  0.00     0.010 A 
ATOM     75  C   UNL     1     -11.043   7.053 -12.368  1.00  0.00     0.020 A 
ATOM     76  C   UNL     1      -9.338   8.574 -13.199  1.00  0.00     0.020 A 
ATOM     77  C   UNL     1     -10.361   7.653 -13.432  1.00  0.00     0.054 A 
BRANCH  77  78
ATOM     78  S   UNL     1     -10.858   7.241 -15.126  1.00  0.00     0.124 S 
ATOM     79  O   UNL     1     -10.437   5.846 -15.233  1.00  0.00    -0.237 OA
ATOM     80  O   UNL     1     -12.302   7.460 -15.094  1.00  0.00    -0.237 OA
ATOM     81  O   UNL     1     -10.105   8.183 -15.950  1.00  0.00    -0.744 OA
ENDBRANCH  77  78
ENDBRANCH  58  72
BRANCH  59  82
ATOM     82  C   UNL     1      -7.076  10.841  -1.518  1.00  0.00    -0.014 A 
ATOM     83  C   UNL     1      -8.017  11.327  -0.591  1.00  0.00     0.010 A 
ATOM     84  C   UNL     1      -5.716  10.825  -1.152  1.00  0.00     0.010 A 
ATOM     85  C   UNL     1      -7.605  11.816   0.656  1.00  0.00     0.020 A 
ATOM     86  C   UNL     1      -5.304  11.276   0.106  1.00  0.00     0.020 A 
ATOM     87  C   UNL     1      -6.250  11.782   0.997  1.00  0.00     0.054 A 
BRANCH  87  88
ATOM     88  S   UNL     1      -5.742  12.386   2.632  1.00  0.00     0.124 S 
ATOM     89  O   UNL     1      -5.970  13.823   2.512  1.00  0.00    -0.237 OA
ATOM     90  O   UNL     1      -6.651  11.672   3.525  1.00  0.00    -0.237 OA
ATOM     91  O   UNL     1      -4.341  11.981   2.727  1.00  0.00    -0.744 OA
ENDBRANCH  87  88
ENDBRANCH  59  82
BRANCH  71  92
ATOM     92  C   UNL     1      -9.979  14.314  -6.842  1.00  0.00    -0.014 A 
ATOM     93  C   UNL     1      -9.079  15.394  -6.883  1.00  0.00     0.010 A 
ATOM     94  C   UNL     1     -11.352  14.568  -7.026  1.00  0.00     0.010 A 
ATOM     95  C   UNL     1      -9.546  16.700  -7.067  1.00  0.00     0.020 A 
ATOM     96  C   UNL     1     -11.819  15.866  -7.248  1.00  0.00     0.020 A 
ATOM     97  C   UNL     1     -10.914  16.928  -7.252  1.00  0.00     0.054 A 
BRANCH  97  98
ATOM     98  S   UNL     1     -11.486  18.627  -7.530  1.00  0.00     0.124 S 
ATOM     99  O   UNL     1     -11.262  19.242  -6.225  1.00  0.00    -0.237 OA
ATOM    100  O   UNL     1     -10.607  19.087  -8.602  1.00  0.00    -0.237 OA
ATOM    101  O   UNL     1     -12.888  18.464  -7.909  1.00  0.00    -0.744 OA
ENDBRANCH  97  98
ENDBRANCH  71  92
ENDBRANCH  45  46
ENDBRANCH  38  40
ENDBRANCH  37  38
ENDBRANCH  36  37
ENDBRANCH  35  36
ENDBRANCH  34  35
ENDBRANCH  33  34
ENDBRANCH  32  33
ENDBRANCH   1  32
TORSDOF 28
