REMARK SMILES Cc1nsc(N(C)C(=O)C2CCCCCCC2)c1C(=O)OCCOCCOCCOCCOC(=O)c1ccc(-c2c3nc(c(-c4ccc(S(=O)(=O)[O-])cc4)c4ccc([nH]4)c(-c4ccc(S(=O)(=O)[O-])cc4)c4nc(c(-c5ccc(S(=O)(=O)[O-])cc5)c5ccc2[nH]5)C=C4)C=C3)cc1
REMARK SMILES IDX 25 1 24 2 23 3 22 4 21 5 19 6 20 7 18 8 1 9 2 10 3 11 4 12
REMARK SMILES IDX 5 13 6 14 7 15 8 16 9 17 10 18 11 19 12 20 13 21 14 22 17 24
REMARK SMILES IDX 16 25 15 26 26 28 27 29 28 30 29 31 30 32 31 33 32 34 33 35
REMARK SMILES IDX 34 36 35 37 36 38 37 39 95 40 38 41 94 42 39 43 40 44 41 45
REMARK SMILES IDX 88 46 42 47 93 48 87 49 89 50 43 51 92 52 86 53 85 54 44 56
REMARK SMILES IDX 74 57 55 58 73 59 56 60 59 61 72 62 90 63 57 64 58 65 71 67
REMARK SMILES IDX 91 68 60 69 45 70 46 71 54 72 47 73 53 74 48 75 49 76 50 77
REMARK SMILES IDX 51 78 52 79 75 80 76 81 84 82 77 83 83 84 78 85 79 86 80 87
REMARK SMILES IDX 81 88 82 89 61 90 62 91 70 92 63 93 69 94 64 95 65 96 66 97
REMARK SMILES IDX 67 98 68 99
REMARK H PARENT 89 55 59 66
REMARK Flexibility Score: 80.00
ROOT
ATOM      1  C   UNL     1      -2.211   1.616   2.858  1.00  0.00     0.188 C 
ENDROOT
BRANCH   1   2
ATOM      2  O   UNL     1      -2.170   3.027   2.827  1.00  0.00    -0.376 OA
BRANCH   2   3
ATOM      3  C   UNL     1      -0.981   3.731   3.118  1.00  0.00     0.202 C 
BRANCH   3   4
ATOM      4  C   UNL     1       0.239   3.416   2.251  1.00  0.00     0.261 C 
BRANCH   4   5
ATOM      5  O   UNL     1       0.373   2.015   2.014  1.00  0.00    -0.460 OA
BRANCH   5   6
ATOM      6  C   UNL     1       1.173   1.280   2.836  1.00  0.00     0.343 C 
ATOM      7  O   UNL     1       2.083   1.718   3.512  1.00  0.00    -0.246 OA
BRANCH   6   8
ATOM      8  C   UNL     1       0.821  -0.130   2.709  1.00  0.00     0.117 A 
ATOM      9  C   UNL     1       1.270  -0.206   0.099  1.00  0.00     0.069 C 
ATOM     10  C   UNL     1       0.909  -0.811   1.421  1.00  0.00     0.068 A 
ATOM     11  N   UNL     1       0.614  -2.105   1.424  1.00  0.00    -0.195 NA
ATOM     12  S   UNL     1       0.127  -2.538   2.919  1.00  0.00    -0.017 S 
ATOM     13  C   UNL     1       0.269  -0.981   3.681  1.00  0.00     0.133 A 
BRANCH  13  14
ATOM     14  N   UNL     1      -0.276  -0.901   5.014  1.00  0.00    -0.305 N 
ATOM     15  C   UNL     1      -0.454  -2.117   5.798  1.00  0.00     0.154 C 
BRANCH  14  16
ATOM     16  C   UNL     1      -0.586   0.341   5.587  1.00  0.00     0.230 C 
ATOM     17  O   UNL     1      -0.018   1.372   5.207  1.00  0.00    -0.274 OA
BRANCH  16  18
ATOM     18  C   UNL     1      -1.664   0.545   6.747  1.00  0.00     0.079 C 
BRANCH  18  19
ATOM     19  C   UNL     1      -2.572   1.761   6.374  1.00  0.00     0.013 C 
BRANCH  19  20
ATOM     20  C   UNL     1      -3.392   2.432   7.482  1.00  0.00     0.001 C 
BRANCH  20  21
ATOM     21  C   UNL     1      -4.563   1.681   8.126  1.00  0.00     0.000 C 
BRANCH  21  22
ATOM     22  C   UNL     1      -5.434   0.843   7.189  1.00  0.00     0.000 CG0
ATOM     23  G   UNL     1      -5.082  -0.646   7.128  1.00  0.00     0.000 G0
ENDBRANCH  21  22
ENDBRANCH  20  21
ENDBRANCH  19  20
ENDBRANCH  18  19
BRANCH  18  24
ATOM     24  C   UNL     1      -2.524  -0.585   7.333  1.00  0.00     0.013 C 
BRANCH  24  25
ATOM     25  C   UNL     1      -3.735  -1.010   6.497  1.00  0.00     0.001 C 
BRANCH  25  26
ATOM     26  C   UNL     1      -5.082  -0.646   7.128  1.00  0.00     0.000 CG0
ATOM     27  G   UNL     1      -5.434   0.843   7.189  1.00  0.00     0.000 G0
ENDBRANCH  25  26
ENDBRANCH  24  25
ENDBRANCH  18  24
ENDBRANCH  16  18
ENDBRANCH  14  16
ENDBRANCH  13  14
ENDBRANCH   6   8
ENDBRANCH   5   6
ENDBRANCH   4   5
ENDBRANCH   3   4
ENDBRANCH   2   3
ENDBRANCH   1   2
BRANCH   1  28
ATOM     28  C   UNL     1      -2.532   0.912   1.528  1.00  0.00     0.188 C 
BRANCH  28  29
ATOM     29  O   UNL     1      -2.949   1.626   0.377  1.00  0.00    -0.377 OA
BRANCH  29  30
ATOM     30  C   UNL     1      -3.354   2.977   0.500  1.00  0.00     0.188 C 
BRANCH  30  31
ATOM     31  C   UNL     1      -4.498   3.365   1.479  1.00  0.00     0.188 C 
BRANCH  31  32
ATOM     32  O   UNL     1      -4.774   2.540   2.598  1.00  0.00    -0.376 OA
BRANCH  32  33
ATOM     33  C   UNL     1      -5.632   1.417   2.632  1.00  0.00     0.202 C 
BRANCH  33  34
ATOM     34  C   UNL     1      -6.146   0.647   1.427  1.00  0.00     0.261 C 
BRANCH  34  35
ATOM     35  O   UNL     1      -5.696   1.119   0.187  1.00  0.00    -0.460 OA
BRANCH  35  36
ATOM     36  C   UNL     1      -6.476   2.087  -0.324  1.00  0.00     0.338 C 
ATOM     37  O   UNL     1      -7.344   2.719   0.252  1.00  0.00    -0.246 OA
BRANCH  36  38
ATOM     38  C   UNL     1      -6.201   2.166  -1.756  1.00  0.00     0.060 A 
ATOM     39  C   UNL     1      -6.853   3.190  -2.437  1.00  0.00     0.016 A 
ATOM     40  C   UNL     1      -5.719   1.009  -2.388  1.00  0.00     0.016 A 
ATOM     41  C   UNL     1      -7.309   2.904  -3.697  1.00  0.00     0.010 A 
ATOM     42  C   UNL     1      -6.195   0.718  -3.634  1.00  0.00     0.010 A 
ATOM     43  C   UNL     1      -7.074   1.623  -4.214  1.00  0.00    -0.014 A 
BRANCH  43  44
ATOM     44  C   UNL     1      -7.702   1.274  -5.459  1.00  0.00     0.031 A 
ATOM     45  C   UNL     1      -7.035   1.927  -6.595  1.00  0.00     0.074 A 
ATOM     46  C   UNL     1      -8.724   0.406  -5.555  1.00  0.00     0.049 A 
ATOM     47  N   UNL     1      -7.440   2.984  -7.212  1.00  0.00    -0.248 NA
ATOM     48  C   UNL     1      -5.656   1.525  -6.910  1.00  0.00     0.031 C 
ATOM     49  C   UNL     1      -9.289  -0.485  -4.540  1.00  0.00     0.029 A 
ATOM     50  N   UNL     1      -9.426   0.080  -6.666  1.00  0.00    -0.354 N 
ATOM     51  C   UNL     1      -6.473   3.234  -8.169  1.00  0.00     0.074 A 
ATOM     52  C   UNL     1      -5.312   2.471  -7.784  1.00  0.00     0.031 C 
ATOM     53  C   UNL     1     -10.070  -1.412  -5.149  1.00  0.00     0.029 A 
ATOM     54  C   UNL     1     -10.173  -1.085  -6.564  1.00  0.00     0.049 A 
ATOM     55  H   UNL     1      -9.409   0.628  -7.483  1.00  0.00     0.167 HD
ATOM     56  C   UNL     1      -6.800   3.809  -9.356  1.00  0.00     0.031 A 
ATOM     57  C   UNL     1     -10.765  -1.740  -7.597  1.00  0.00     0.031 A 
ATOM     58  C   UNL     1      -8.118   4.391  -9.320  1.00  0.00     0.049 A 
ATOM     59  C   UNL     1     -10.907  -0.755  -8.704  1.00  0.00     0.074 A 
ATOM     60  C   UNL     1      -8.717   5.381  -8.565  1.00  0.00     0.029 A 
ATOM     61  N   UNL     1      -9.144   3.642  -9.852  1.00  0.00    -0.354 N 
ATOM     62  N   UNL     1     -11.694   0.283  -8.634  1.00  0.00    -0.248 NA
ATOM     63  C   UNL     1      -9.820  -0.645  -9.667  1.00  0.00     0.031 C 
ATOM     64  C   UNL     1     -10.034   4.902  -8.306  1.00  0.00     0.029 A 
ATOM     65  C   UNL     1     -10.199   3.688  -8.976  1.00  0.00     0.049 A 
ATOM     66  H   UNL     1      -9.123   3.158 -10.710  1.00  0.00     0.167 HD
ATOM     67  C   UNL     1     -10.964   1.323  -9.194  1.00  0.00     0.074 A 
ATOM     68  C   UNL     1      -9.854   0.674  -9.891  1.00  0.00     0.031 C 
ATOM     69  C   UNL     1     -11.162   2.618  -8.802  1.00  0.00     0.031 A 
BRANCH  56  70
ATOM     70  C   UNL     1      -6.108   3.455 -10.641  1.00  0.00    -0.014 A 
ATOM     71  C   UNL     1      -6.433   4.174 -11.804  1.00  0.00     0.010 A 
ATOM     72  C   UNL     1      -5.349   2.275 -10.801  1.00  0.00     0.010 A 
ATOM     73  C   UNL     1      -6.055   3.707 -13.068  1.00  0.00     0.020 A 
ATOM     74  C   UNL     1      -4.928   1.826 -12.050  1.00  0.00     0.020 A 
ATOM     75  C   UNL     1      -5.309   2.532 -13.180  1.00  0.00     0.054 A 
BRANCH  75  76
ATOM     76  S   UNL     1      -4.892   1.901 -14.820  1.00  0.00     0.124 S 
ATOM     77  O   UNL     1      -6.207   1.565 -15.357  1.00  0.00    -0.237 OA
ATOM     78  O   UNL     1      -4.230   3.050 -15.431  1.00  0.00    -0.237 OA
ATOM     79  O   UNL     1      -4.019   0.763 -14.538  1.00  0.00    -0.744 OA
ENDBRANCH  75  76
ENDBRANCH  56  70
BRANCH  57  80
ATOM     80  C   UNL     1     -10.874  -3.206  -7.820  1.00  0.00    -0.014 A 
ATOM     81  C   UNL     1     -11.683  -3.724  -8.851  1.00  0.00     0.010 A 
ATOM     82  C   UNL     1      -9.948  -4.082  -7.218  1.00  0.00     0.010 A 
ATOM     83  C   UNL     1     -11.522  -5.045  -9.310  1.00  0.00     0.020 A 
ATOM     84  C   UNL     1      -9.784  -5.400  -7.667  1.00  0.00     0.020 A 
ATOM     85  C   UNL     1     -10.555  -5.868  -8.729  1.00  0.00     0.054 A 
BRANCH  85  86
ATOM     86  S   UNL     1     -10.217  -7.504  -9.451  1.00  0.00     0.124 S 
ATOM     87  O   UNL     1     -11.419  -8.255  -9.099  1.00  0.00    -0.237 OA
ATOM     88  O   UNL     1     -10.055  -7.199 -10.870  1.00  0.00    -0.237 OA
ATOM     89  O   UNL     1      -8.996  -7.935  -8.771  1.00  0.00    -0.744 OA
ENDBRANCH  85  86
ENDBRANCH  57  80
BRANCH  69  90
ATOM     90  C   UNL     1     -12.371   2.935  -7.948  1.00  0.00    -0.014 A 
ATOM     91  C   UNL     1     -12.604   2.391  -6.668  1.00  0.00     0.010 A 
ATOM     92  C   UNL     1     -13.236   3.941  -8.411  1.00  0.00     0.010 A 
ATOM     93  C   UNL     1     -13.693   2.824  -5.891  1.00  0.00     0.020 A 
ATOM     94  C   UNL     1     -14.308   4.389  -7.637  1.00  0.00     0.020 A 
ATOM     95  C   UNL     1     -14.540   3.820  -6.385  1.00  0.00     0.054 A 
BRANCH  95  96
ATOM     96  S   UNL     1     -15.935   4.398  -5.375  1.00  0.00     0.124 S 
ATOM     97  O   UNL     1     -16.817   3.234  -5.356  1.00  0.00    -0.237 OA
ATOM     98  O   UNL     1     -15.300   4.729  -4.102  1.00  0.00    -0.237 OA
ATOM     99  O   UNL     1     -16.449   5.549  -6.117  1.00  0.00    -0.744 OA
ENDBRANCH  95  96
ENDBRANCH  69  90
ENDBRANCH  43  44
ENDBRANCH  36  38
ENDBRANCH  35  36
ENDBRANCH  34  35
ENDBRANCH  33  34
ENDBRANCH  32  33
ENDBRANCH  31  32
ENDBRANCH  30  31
ENDBRANCH  29  30
ENDBRANCH  28  29
ENDBRANCH   1  28
TORSDOF 26
