REMARK SMILES Cc1ccc(N2C(=O)N=C(OCCOCCOCCOCCOC(=O)c3ccc(-c4c5nc(c(-c6ccc(S(=O)(=O)[O-])cc6)c6ccc([nH]6)c(-c6ccc(S(=O)(=O)[O-])cc6)c6nc(c(-c7ccc(S(=O)(=O)[O-])cc7)c7ccc4[nH]7)C=C6)C=C5)cc3)/C(=C\c3ccccc3OCc3cccc(C(=O)[O-])c3)C2=O)cc1
REMARK SMILES IDX 16 1 15 2 14 3 13 4 12 5 11 6 10 7 6 8 7 9 105 10 8 11 9 12
REMARK SMILES IDX 86 13 106 14 87 15 5 16 1 17 2 18 3 19 108 20 4 21 107 22
REMARK SMILES IDX 88 23 89 24 93 25 90 26 92 27 91 28 94 29 95 30 96 31 97 32
REMARK SMILES IDX 104 33 98 34 100 35 99 36 101 37 102 38 103 39 17 40 18 41
REMARK SMILES IDX 19 42 20 43 21 44 22 45 23 46 24 47 25 48 26 49 27 50 85 51
REMARK SMILES IDX 28 52 84 53 29 54 30 55 31 56 78 57 32 58 83 59 77 60 79 61
REMARK SMILES IDX 33 62 82 63 76 64 75 65 34 67 64 68 45 69 63 70 46 71 49 72
REMARK SMILES IDX 62 73 80 74 47 75 48 76 61 78 81 79 50 80 35 81 36 82 44 83
REMARK SMILES IDX 37 84 43 85 38 86 39 87 40 88 41 89 42 90 65 91 66 92 74 93
REMARK SMILES IDX 67 94 73 95 68 96 69 97 70 98 71 99 72 100 51 101 52 102
REMARK SMILES IDX 60 103 53 104 59 105 54 106 55 107 56 108 57 109 58 110
REMARK H PARENT 79 66 49 77
REMARK Flexibility Score: inf
ROOT
ATOM      1  C   UNL     1      -5.199   3.671   2.481  1.00  0.00     0.188 C 
ENDROOT
BRANCH   1   2
ATOM      2  C   UNL     1      -5.250   3.641   0.983  1.00  0.00     0.188 C 
BRANCH   2   3
ATOM      3  O   UNL     1      -6.731   3.841   0.393  1.00  0.00    -0.376 OA
BRANCH   3   4
ATOM      4  C   UNL     1      -8.110   2.935   0.290  1.00  0.00     0.201 C 
BRANCH   4   5
ATOM      5  C   UNL     1      -8.187   1.307  -0.672  1.00  0.00     0.260 C 
BRANCH   5   6
ATOM      6  O   UNL     1      -7.013  -0.020  -0.451  1.00  0.00    -0.475 OA
BRANCH   6   7
ATOM      7  C   UNL     1      -5.573  -0.383  -0.524  1.00  0.00     0.231 C 
ATOM      8  N   UNL     1      -2.763  -0.186  -0.459  1.00  0.00    -0.226 N 
ATOM      9  C   UNL     1      -3.483  -0.853   0.511  1.00  0.00     0.358 C 
ATOM     10  C   UNL     1      -3.354   0.009  -1.676  1.00  0.00     0.272 C 
ATOM     11  O   UNL     1      -2.948  -1.165   1.579  1.00  0.00    -0.245 OA
ATOM     12  N   UNL     1      -4.852  -1.041   0.356  1.00  0.00    -0.156 NA
ATOM     13  C   UNL     1      -4.847  -0.086  -1.667  1.00  0.00     0.103 C 
ATOM     14  O   UNL     1      -2.711   0.236  -2.695  1.00  0.00    -0.268 OA
ATOM     15  C   UNL     1      -5.643  -0.333  -2.693  1.00  0.00     0.031 C 
BRANCH   8  16
ATOM     16  C   UNL     1      -1.341  -0.037  -0.314  1.00  0.00     0.054 A 
ATOM     17  C   UNL     1       2.976   0.136   0.011  1.00  0.00     0.044 C 
ATOM     18  C   UNL     1       1.476   0.118  -0.040  1.00  0.00    -0.051 A 
ATOM     19  C   UNL     1       0.819  -1.113   0.015  1.00  0.00     0.005 A 
ATOM     20  C   UNL     1       0.712   1.281  -0.205  1.00  0.00     0.005 A 
ATOM     21  C   UNL     1      -0.568  -1.184  -0.106  1.00  0.00     0.027 A 
ATOM     22  C   UNL     1      -0.689   1.207  -0.363  1.00  0.00     0.027 A 
ENDBRANCH   8  16
BRANCH  15  23
ATOM     23  C   UNL     1      -7.096  -0.309  -3.052  1.00  0.00     0.018 A 
ATOM     24  C   UNL     1      -7.845   0.472  -4.027  1.00  0.00     0.012 A 
ATOM     25  C   UNL     1      -7.785  -1.198  -2.329  1.00  0.00     0.127 A 
ATOM     26  C   UNL     1      -9.236   0.513  -4.132  1.00  0.00     0.001 A 
ATOM     27  C   UNL     1      -9.218  -1.089  -2.414  1.00  0.00     0.047 A 
ATOM     28  C   UNL     1      -9.944  -0.278  -3.287  1.00  0.00     0.004 A 
BRANCH  25  29
ATOM     29  O   UNL     1      -7.051  -1.974  -1.420  1.00  0.00    -0.488 OA
BRANCH  29  30
ATOM     30  C   UNL     1      -5.886  -2.876  -1.238  1.00  0.00     0.265 C 
BRANCH  30  31
ATOM     31  C   UNL     1      -5.275  -3.534   0.062  1.00  0.00    -0.010 A 
ATOM     32  C   UNL     1      -3.889  -3.794  -0.041  1.00  0.00     0.007 A 
ATOM     33  C   UNL     1      -6.061  -4.435   0.758  1.00  0.00     0.017 A 
ATOM     34  C   UNL     1      -3.388  -5.054   0.214  1.00  0.00     0.001 A 
ATOM     35  C   UNL     1      -5.653  -5.754   0.675  1.00  0.00    -0.002 A 
ATOM     36  C   UNL     1      -4.306  -6.068   0.441  1.00  0.00     0.010 A 
BRANCH  35  37
ATOM     37  C   UNL     1      -6.677  -6.808   0.412  1.00  0.00     0.071 C 
ATOM     38  O   UNL     1      -6.454  -7.889  -0.027  1.00  0.00    -0.545 OA
ATOM     39  O   UNL     1      -7.942  -6.335   0.552  1.00  0.00    -0.545 OA
ENDBRANCH  35  37
ENDBRANCH  30  31
ENDBRANCH  29  30
ENDBRANCH  25  29
ENDBRANCH  15  23
ENDBRANCH   6   7
ENDBRANCH   5   6
ENDBRANCH   4   5
ENDBRANCH   3   4
ENDBRANCH   2   3
ENDBRANCH   1   2
BRANCH   1  40
ATOM     40  O   UNL     1      -6.347   4.283   2.988  1.00  0.00    -0.377 OA
BRANCH  40  41
ATOM     41  C   UNL     1      -6.919   5.290   2.143  1.00  0.00     0.188 C 
BRANCH  41  42
ATOM     42  C   UNL     1      -5.890   6.135   1.179  1.00  0.00     0.188 C 
BRANCH  42  43
ATOM     43  O   UNL     1      -4.771   6.646   1.844  1.00  0.00    -0.376 OA
BRANCH  43  44
ATOM     44  C   UNL     1      -5.360   7.226   2.978  1.00  0.00     0.202 C 
BRANCH  44  45
ATOM     45  C   UNL     1      -6.827   7.908   2.751  1.00  0.00     0.261 C 
BRANCH  45  46
ATOM     46  O   UNL     1      -7.918   7.668   1.451  1.00  0.00    -0.460 OA
BRANCH  46  47
ATOM     47  C   UNL     1      -8.571   7.226   0.275  1.00  0.00     0.338 C 
ATOM     48  O   UNL     1      -9.696   7.693   0.061  1.00  0.00    -0.246 OA
BRANCH  47  49
ATOM     49  C   UNL     1      -8.122   6.202  -0.886  1.00  0.00     0.060 A 
ATOM     50  C   UNL     1      -8.944   5.204  -1.446  1.00  0.00     0.016 A 
ATOM     51  C   UNL     1      -6.894   6.205  -1.531  1.00  0.00     0.016 A 
ATOM     52  C   UNL     1      -8.364   3.991  -2.058  1.00  0.00     0.010 A 
ATOM     53  C   UNL     1      -6.298   4.973  -1.986  1.00  0.00     0.010 A 
ATOM     54  C   UNL     1      -6.972   3.742  -1.917  1.00  0.00    -0.014 A 
BRANCH  54  55
ATOM     55  C   UNL     1      -6.019   2.370  -1.164  1.00  0.00     0.031 A 
ATOM     56  C   UNL     1      -5.129   2.220  -2.739  1.00  0.00     0.074 A 
ATOM     57  C   UNL     1      -6.126   1.677   0.413  1.00  0.00     0.049 A 
ATOM     58  N   UNL     1      -5.626   1.611  -3.823  1.00  0.00    -0.248 NA
ATOM     59  C   UNL     1      -3.932   2.898  -3.244  1.00  0.00     0.031 C 
ATOM     60  C   UNL     1      -5.419   0.794   1.579  1.00  0.00     0.029 A 
ATOM     61  N   UNL     1      -7.364   1.414   1.460  1.00  0.00    -0.354 N 
ATOM     62  C   UNL     1      -4.639   1.169  -4.737  1.00  0.00     0.074 A 
ATOM     63  C   UNL     1      -3.736   2.323  -4.471  1.00  0.00     0.031 C 
ATOM     64  C   UNL     1      -6.254  -0.185   2.162  1.00  0.00     0.029 A 
ATOM     65  C   UNL     1      -7.631   0.066   1.857  1.00  0.00     0.049 A 
ATOM     66  H   UNL     1      -7.906   2.161   1.804  1.00  0.00     0.167 HD
ATOM     67  C   UNL     1      -4.428  -0.164  -5.371  1.00  0.00     0.031 A 
ATOM     68  C   UNL     1      -8.866  -0.584   1.683  1.00  0.00     0.031 A 
ATOM     69  C   UNL     1      -5.182  -1.701  -4.971  1.00  0.00     0.049 A 
ATOM     70  C   UNL     1      -9.159  -2.042   0.666  1.00  0.00     0.074 A 
ATOM     71  C   UNL     1      -4.566  -2.821  -4.349  1.00  0.00     0.029 A 
ATOM     72  N   UNL     1      -6.617  -2.176  -4.753  1.00  0.00    -0.354 N 
ATOM     73  N   UNL     1      -8.274  -2.746  -0.045  1.00  0.00    -0.248 NA
ATOM     74  C   UNL     1     -10.430  -2.768   0.358  1.00  0.00     0.031 C 
ATOM     75  C   UNL     1      -5.487  -3.805  -3.788  1.00  0.00     0.029 A 
ATOM     76  C   UNL     1      -6.783  -3.253  -3.631  1.00  0.00     0.049 A 
ATOM     77  H   UNL     1      -7.377  -1.831  -5.277  1.00  0.00     0.167 HD
ATOM     78  C   UNL     1      -8.781  -3.566  -1.257  1.00  0.00     0.074 A 
ATOM     79  C   UNL     1     -10.156  -3.686  -0.645  1.00  0.00     0.031 C 
ATOM     80  C   UNL     1      -8.215  -3.832  -2.739  1.00  0.00     0.031 A 
BRANCH  67  81
ATOM     81  C   UNL     1      -2.979  -0.269  -6.034  1.00  0.00    -0.014 A 
ATOM     82  C   UNL     1      -2.174  -1.424  -5.939  1.00  0.00     0.010 A 
ATOM     83  C   UNL     1      -2.361   0.793  -6.733  1.00  0.00     0.010 A 
ATOM     84  C   UNL     1      -0.837  -1.497  -6.375  1.00  0.00     0.020 A 
ATOM     85  C   UNL     1      -1.011   0.751  -7.169  1.00  0.00     0.020 A 
ATOM     86  C   UNL     1      -0.254  -0.400  -6.984  1.00  0.00     0.054 A 
BRANCH  86  87
ATOM     87  S   UNL     1       1.429  -0.569  -7.643  1.00  0.00     0.124 S 
ATOM     88  O   UNL     1       2.227  -0.803  -6.442  1.00  0.00    -0.237 OA
ATOM     89  O   UNL     1       1.298  -1.715  -8.540  1.00  0.00    -0.237 OA
ATOM     90  O   UNL     1       1.669   0.710  -8.308  1.00  0.00    -0.744 OA
ENDBRANCH  86  87
ENDBRANCH  67  81
BRANCH  68  91
ATOM     91  C   UNL     1      -9.905   0.535   2.325  1.00  0.00    -0.014 A 
ATOM     92  C   UNL     1      -9.516   0.968   3.648  1.00  0.00     0.010 A 
ATOM     93  C   UNL     1     -10.699   1.516   1.658  1.00  0.00     0.010 A 
ATOM     94  C   UNL     1      -9.680   2.291   4.161  1.00  0.00     0.020 A 
ATOM     95  C   UNL     1     -10.926   2.854   2.205  1.00  0.00     0.020 A 
ATOM     96  C   UNL     1     -10.372   3.246   3.434  1.00  0.00     0.054 A 
BRANCH  96  97
ATOM     97  S   UNL     1     -10.369   4.998   4.037  1.00  0.00     0.124 S 
ATOM     98  O   UNL     1     -11.460   5.002   5.007  1.00  0.00    -0.237 OA
ATOM     99  O   UNL     1      -9.040   5.169   4.621  1.00  0.00    -0.237 OA
ATOM    100  O   UNL     1     -10.602   5.771   2.821  1.00  0.00    -0.744 OA
ENDBRANCH  96  97
ENDBRANCH  68  91
BRANCH  80 101
ATOM    101  C   UNL     1      -8.890  -4.805  -3.722  1.00  0.00    -0.014 A 
ATOM    102  C   UNL     1     -10.094  -5.469  -3.538  1.00  0.00     0.010 A 
ATOM    103  C   UNL     1      -8.202  -5.114  -4.936  1.00  0.00     0.010 A 
ATOM    104  C   UNL     1     -10.574  -6.370  -4.506  1.00  0.00     0.020 A 
ATOM    105  C   UNL     1      -8.659  -5.987  -5.905  1.00  0.00     0.020 A 
ATOM    106  C   UNL     1      -9.851  -6.623  -5.676  1.00  0.00     0.054 A 
BRANCH 106 107
ATOM    107  S   UNL     1     -10.455  -7.811  -6.880  1.00  0.00     0.124 S 
ATOM    108  O   UNL     1     -10.472  -9.044  -6.100  1.00  0.00    -0.237 OA
ATOM    109  O   UNL     1     -11.761  -7.255  -7.222  1.00  0.00    -0.237 OA
ATOM    110  O   UNL     1      -9.461  -7.764  -7.951  1.00  0.00    -0.744 OA
ENDBRANCH 106 107
ENDBRANCH  80 101
ENDBRANCH  54  55
ENDBRANCH  47  49
ENDBRANCH  46  47
ENDBRANCH  45  46
ENDBRANCH  44  45
ENDBRANCH  43  44
ENDBRANCH  42  43
ENDBRANCH  41  42
ENDBRANCH  40  41
ENDBRANCH   1  40
TORSDOF 28
