REMARK SMILES CCN1C(=O)C[C@H](C(=O)Nc2cccc(C(=O)OCCOCCOCCOCCOC(=O)c3ccc(-c4c5nc(c(-c6ccc(S(=O)(=O)[O-])cc6)c6ccc([nH]6)c(-c6ccc(S(=O)(=O)[O-])cc6)c6nc(c(-c7ccc(S(=O)(=O)[O-])cc7)c7ccc4[nH]7)C=C6)C=C5)cc3)c2)S/C1=[NH+]/c1cccc(C(F)(F)F)c1
REMARK SMILES IDX 23 1 22 2 21 3 20 4 19 5 18 6 16 7 17 8 15 9 11 10 12 11
REMARK SMILES IDX 93 12 13 13 14 14 10 15 8 16 9 17 7 19 3 20 4 21 95 22 5 23
REMARK SMILES IDX 6 24 94 25 96 26 2 28 1 29 97 30 98 31 106 32 99 33 101 34
REMARK SMILES IDX 100 35 102 36 103 37 104 38 105 39 24 40 25 41 26 42 27 43
REMARK SMILES IDX 28 44 29 45 30 46 31 47 32 48 33 49 34 50 92 51 35 52 91 53
REMARK SMILES IDX 36 54 37 55 38 56 85 57 39 58 90 59 84 60 86 61 40 62 89 63
REMARK SMILES IDX 83 64 82 65 41 67 71 68 52 69 70 70 53 71 56 72 69 73 87 74
REMARK SMILES IDX 54 75 55 76 68 78 88 79 57 80 42 81 43 82 51 83 44 84 50 85
REMARK SMILES IDX 45 86 46 87 47 88 48 89 49 90 72 91 73 92 81 93 74 94 80 95
REMARK SMILES IDX 75 96 76 97 77 98 78 99 79 100 58 101 59 102 67 103 60 104
REMARK SMILES IDX 66 105 61 106 62 107 63 108 64 109 65 110
REMARK H PARENT 10 18 96 27 86 66 56 77
REMARK Flexibility Score: inf
ROOT
ATOM      1  C   UNL     1      -2.510  -9.008   1.248  1.00  0.00     0.188 C 
ENDROOT
BRANCH   1   2
ATOM      2  C   UNL     1      -3.446  -8.700   0.061  1.00  0.00     0.188 C 
BRANCH   2   3
ATOM      3  O   UNL     1      -3.231  -9.252  -1.231  1.00  0.00    -0.376 OA
BRANCH   3   4
ATOM      4  C   UNL     1      -1.954  -9.345  -1.847  1.00  0.00     0.202 C 
BRANCH   4   5
ATOM      5  C   UNL     1      -0.878  -8.247  -1.790  1.00  0.00     0.261 C 
BRANCH   5   6
ATOM      6  O   UNL     1      -0.836  -7.464  -0.603  1.00  0.00    -0.460 OA
BRANCH   6   7
ATOM      7  C   UNL     1      -1.593  -6.347  -0.613  1.00  0.00     0.338 C 
ATOM      8  O   UNL     1      -2.218  -5.892  -1.559  1.00  0.00    -0.246 OA
BRANCH   7   9
ATOM      9  C   UNL     1      -1.669  -5.823   0.772  1.00  0.00     0.062 A 
ATOM     10  C   UNL     1      -0.535  -5.136   2.761  1.00  0.00     0.042 A 
ATOM     11  C   UNL     1      -1.722  -4.577   3.245  1.00  0.00     0.026 A 
ATOM     12  C   UNL     1      -0.570  -5.925   1.631  1.00  0.00     0.041 A 
ATOM     13  C   UNL     1      -2.880  -4.612   2.465  1.00  0.00     0.003 A 
ATOM     14  C   UNL     1      -2.832  -5.172   1.191  1.00  0.00     0.016 A 
BRANCH  10  15
ATOM     15  N   UNL     1       0.660  -4.780   3.382  1.00  0.00    -0.325 N 
ATOM     16  C   UNL     1       1.923  -4.566   2.913  1.00  0.00     0.238 C 
ATOM     17  O   UNL     1       2.737  -4.296   3.812  1.00  0.00    -0.273 OA
ATOM     18  H   UNL     1       0.576  -4.659   4.356  1.00  0.00     0.169 HD
BRANCH  16  19
ATOM     19  C   UNL     1       2.403  -4.632   1.429  1.00  0.00     0.160 C 
ATOM     20  N   UNL     1       1.436  -1.972   0.457  1.00  0.00    -0.191 N 
ATOM     21  C   UNL     1       0.722  -3.158   0.337  1.00  0.00     0.311 C 
ATOM     22  C   UNL     1       2.630  -1.903   1.169  1.00  0.00     0.319 C 
ATOM     23  O   UNL     1      -0.503  -3.180   0.230  1.00  0.00    -0.247 OA
ATOM     24  C   UNL     1       1.541  -4.401   0.217  1.00  0.00     0.153 C 
ATOM     25  S   UNL     1       3.673  -3.329   1.160  1.00  0.00    -0.024 SA
ATOM     26  N   UNL     1       3.104  -0.951   1.900  1.00  0.00    -0.235 N 
ATOM     27  H   UNL     1       4.043  -1.020   2.188  1.00  0.00     0.313 HD
BRANCH  20  28
ATOM     28  C   UNL     1       0.928  -1.001  -0.524  1.00  0.00     0.243 C 
ATOM     29  C   UNL     1       1.224   0.474  -0.476  1.00  0.00     0.054 C 
ENDBRANCH  20  28
BRANCH  26  30
ATOM     30  C   UNL     1       2.385   0.162   2.311  1.00  0.00     0.126 A 
ATOM     31  C   UNL     1       2.942   1.425   2.104  1.00  0.00     0.052 A 
ATOM     32  C   UNL     1       1.168   0.049   2.991  1.00  0.00     0.064 A 
ATOM     33  C   UNL     1       2.250   2.574   2.478  1.00  0.00     0.005 A 
ATOM     34  C   UNL     1       0.460   1.195   3.380  1.00  0.00     0.060 A 
ATOM     35  C   UNL     1       1.008   2.459   3.103  1.00  0.00     0.013 A 
BRANCH  34  36
ATOM     36  C   UNL     1      -0.877   1.083   4.062  1.00  0.00     0.416 C 
ATOM     37  F   UNL     1      -0.907   1.725   5.263  1.00  0.00    -0.166 F 
ATOM     38  F   UNL     1      -1.881   1.634   3.323  1.00  0.00    -0.166 F 
ATOM     39  F   UNL     1      -1.263  -0.199   4.316  1.00  0.00    -0.166 F 
ENDBRANCH  34  36
ENDBRANCH  26  30
ENDBRANCH  16  19
ENDBRANCH  10  15
ENDBRANCH   7   9
ENDBRANCH   6   7
ENDBRANCH   5   6
ENDBRANCH   4   5
ENDBRANCH   3   4
ENDBRANCH   2   3
ENDBRANCH   1   2
BRANCH   1  40
ATOM     40  O   UNL     1      -1.327  -9.688   0.882  1.00  0.00    -0.377 OA
BRANCH  40  41
ATOM     41  C   UNL     1      -1.361 -11.104   1.012  1.00  0.00     0.188 C 
BRANCH  41  42
ATOM     42  C   UNL     1      -2.668 -11.839   0.642  1.00  0.00     0.188 C 
BRANCH  42  43
ATOM     43  O   UNL     1      -3.838 -11.310   1.259  1.00  0.00    -0.376 OA
BRANCH  43  44
ATOM     44  C   UNL     1      -4.360 -11.963   2.406  1.00  0.00     0.202 C 
BRANCH  44  45
ATOM     45  C   UNL     1      -3.533 -11.857   3.697  1.00  0.00     0.261 C 
BRANCH  45  46
ATOM     46  O   UNL     1      -2.210 -12.408   3.637  1.00  0.00    -0.460 OA
BRANCH  46  47
ATOM     47  C   UNL     1      -2.099 -13.712   3.303  1.00  0.00     0.338 C 
ATOM     48  O   UNL     1      -3.005 -14.499   3.109  1.00  0.00    -0.246 OA
BRANCH  47  49
ATOM     49  C   UNL     1      -0.677 -13.981   3.009  1.00  0.00     0.060 A 
ATOM     50  C   UNL     1      -0.335 -14.491   1.750  1.00  0.00     0.016 A 
ATOM     51  C   UNL     1       0.307 -13.734   3.968  1.00  0.00     0.016 A 
ATOM     52  C   UNL     1       0.992 -14.804   1.464  1.00  0.00     0.010 A 
ATOM     53  C   UNL     1       1.634 -14.067   3.687  1.00  0.00     0.010 A 
ATOM     54  C   UNL     1       1.974 -14.641   2.450  1.00  0.00    -0.014 A 
BRANCH  54  55
ATOM     55  C   UNL     1       3.301 -15.274   2.269  1.00  0.00     0.031 A 
ATOM     56  C   UNL     1       3.535 -16.622   2.897  1.00  0.00     0.074 A 
ATOM     57  C   UNL     1       4.269 -14.684   1.545  1.00  0.00     0.049 A 
ATOM     58  N   UNL     1       4.615 -17.358   2.903  1.00  0.00    -0.248 NA
ATOM     59  C   UNL     1       2.395 -17.217   3.616  1.00  0.00     0.031 C 
ATOM     60  C   UNL     1       4.147 -13.404   0.849  1.00  0.00     0.029 A 
ATOM     61  N   UNL     1       5.553 -15.091   1.282  1.00  0.00    -0.354 N 
ATOM     62  C   UNL     1       4.288 -18.497   3.631  1.00  0.00     0.074 A 
ATOM     63  C   UNL     1       2.922 -18.341   4.077  1.00  0.00     0.031 C 
ATOM     64  C   UNL     1       5.315 -13.127   0.241  1.00  0.00     0.029 A 
ATOM     65  C   UNL     1       6.274 -14.191   0.535  1.00  0.00     0.049 A 
ATOM     66  H   UNL     1       5.922 -15.947   1.598  1.00  0.00     0.167 HD
ATOM     67  C   UNL     1       5.056 -19.579   3.901  1.00  0.00     0.031 A 
ATOM     68  C   UNL     1       7.567 -14.215   0.151  1.00  0.00     0.031 A 
ATOM     69  C   UNL     1       6.421 -19.722   3.473  1.00  0.00     0.049 A 
ATOM     70  C   UNL     1       8.427 -15.395   0.532  1.00  0.00     0.074 A 
ATOM     71  C   UNL     1       7.282 -20.784   3.687  1.00  0.00     0.029 A 
ATOM     72  N   UNL     1       7.128 -18.771   2.751  1.00  0.00    -0.354 N 
ATOM     73  N   UNL     1       8.098 -16.475   1.200  1.00  0.00    -0.248 NA
ATOM     74  C   UNL     1       9.830 -15.361   0.095  1.00  0.00     0.031 C 
ATOM     75  C   UNL     1       8.529 -20.448   3.149  1.00  0.00     0.029 A 
ATOM     76  C   UNL     1       8.423 -19.209   2.536  1.00  0.00     0.049 A 
ATOM     77  H   UNL     1       6.762 -17.913   2.439  1.00  0.00     0.167 HD
ATOM     78  C   UNL     1       9.245 -17.264   1.235  1.00  0.00     0.074 A 
ATOM     79  C   UNL     1      10.270 -16.542   0.509  1.00  0.00     0.031 C 
ATOM     80  C   UNL     1       9.433 -18.478   1.811  1.00  0.00     0.031 A 
BRANCH  67  81
ATOM     81  C   UNL     1       4.444 -20.674   4.734  1.00  0.00    -0.014 A 
ATOM     82  C   UNL     1       3.424 -21.498   4.225  1.00  0.00     0.010 A 
ATOM     83  C   UNL     1       4.919 -20.901   6.039  1.00  0.00     0.010 A 
ATOM     84  C   UNL     1       2.864 -22.503   5.019  1.00  0.00     0.020 A 
ATOM     85  C   UNL     1       4.383 -21.924   6.825  1.00  0.00     0.020 A 
ATOM     86  C   UNL     1       3.348 -22.709   6.315  1.00  0.00     0.054 A 
BRANCH  86  87
ATOM     87  S   UNL     1       2.620 -24.036   7.314  1.00  0.00     0.124 S 
ATOM     88  O   UNL     1       1.297 -23.494   7.617  1.00  0.00    -0.237 OA
ATOM     89  O   UNL     1       2.636 -25.172   6.396  1.00  0.00    -0.237 OA
ATOM     90  O   UNL     1       3.523 -24.147   8.456  1.00  0.00    -0.744 OA
ENDBRANCH  86  87
ENDBRANCH  67  81
BRANCH  68  91
ATOM     91  C   UNL     1       8.136 -13.079  -0.625  1.00  0.00    -0.014 A 
ATOM     92  C   UNL     1       8.528 -13.247  -1.965  1.00  0.00     0.010 A 
ATOM     93  C   UNL     1       8.296 -11.817  -0.021  1.00  0.00     0.010 A 
ATOM     94  C   UNL     1       9.083 -12.181  -2.680  1.00  0.00     0.020 A 
ATOM     95  C   UNL     1       8.823 -10.742  -0.742  1.00  0.00     0.020 A 
ATOM     96  C   UNL     1       9.223 -10.934  -2.065  1.00  0.00     0.054 A 
BRANCH  96  97
ATOM     97  S   UNL     1       9.894  -9.553  -3.032  1.00  0.00     0.124 S 
ATOM     98  O   UNL     1      11.302  -9.918  -3.149  1.00  0.00    -0.237 OA
ATOM     99  O   UNL     1       9.115  -9.627  -4.266  1.00  0.00    -0.237 OA
ATOM    100  O   UNL     1       9.615  -8.385  -2.199  1.00  0.00    -0.744 OA
ENDBRANCH  96  97
ENDBRANCH  68  91
BRANCH  80 101
ATOM    101  C   UNL     1      10.782 -19.130   1.643  1.00  0.00    -0.014 A 
ATOM    102  C   UNL     1      11.924 -18.638   2.300  1.00  0.00     0.010 A 
ATOM    103  C   UNL     1      10.894 -20.291   0.855  1.00  0.00     0.010 A 
ATOM    104  C   UNL     1      13.159 -19.273   2.140  1.00  0.00     0.020 A 
ATOM    105  C   UNL     1      12.119 -20.947   0.719  1.00  0.00     0.020 A 
ATOM    106  C   UNL     1      13.249 -20.423   1.350  1.00  0.00     0.054 A 
BRANCH 106 107
ATOM    107  S   UNL     1      14.856 -21.248   1.187  1.00  0.00     0.124 S 
ATOM    108  O   UNL     1      15.586 -20.323   0.324  1.00  0.00    -0.237 OA
ATOM    109  O   UNL     1      15.322 -21.318   2.569  1.00  0.00    -0.237 OA
ATOM    110  O   UNL     1      14.526 -22.536   0.580  1.00  0.00    -0.744 OA
ENDBRANCH 106 107
ENDBRANCH  80 101
ENDBRANCH  54  55
ENDBRANCH  47  49
ENDBRANCH  46  47
ENDBRANCH  45  46
ENDBRANCH  44  45
ENDBRANCH  43  44
ENDBRANCH  42  43
ENDBRANCH  41  42
ENDBRANCH  40  41
ENDBRANCH   1  40
TORSDOF 28
