REMARK SMILES CCCC[C@@H](Sc1nc(OCCC2CCCCC2)cc(OCCC2CCCCC2)n1)C(=O)OCCOCCOCCOCCOC(=O)c1ccc(-c2c3nc(c(-c4ccc(S(=O)(=O)[O-])cc4)c4ccc([nH]4)c(-c4ccc(S(=O)(=O)[O-])cc4)c4nc(c(-c5ccc(S(=O)(=O)[O-])cc5)c5ccc2[nH]5)C=C4)C=C3)cc1
REMARK SMILES IDX 37 1 36 2 35 3 34 4 33 5 31 6 32 7 5 8 4 9 3 10 2 11 1 12
REMARK SMILES IDX 6 13 7 14 8 15 30 16 9 17 20 18 19 19 10 20 11 21 12 22
REMARK SMILES IDX 13 23 14 24 18 25 15 26 17 27 16 28 21 29 22 30 23 31 24 32
REMARK SMILES IDX 25 33 29 34 26 35 28 36 27 37 38 38 39 39 40 40 41 41 42 42
REMARK SMILES IDX 43 43 44 44 45 45 46 46 47 47 48 48 49 49 107 50 50 51
REMARK SMILES IDX 106 52 51 53 52 54 53 55 100 56 54 57 105 58 99 59 101 60
REMARK SMILES IDX 55 61 104 62 98 63 97 64 56 66 86 67 67 68 85 69 68 70 71 71
REMARK SMILES IDX 84 72 102 73 69 74 70 75 83 77 103 78 72 79 57 80 58 81
REMARK SMILES IDX 66 82 59 83 65 84 60 85 61 86 62 87 63 88 64 89 87 90 88 91
REMARK SMILES IDX 96 92 89 93 95 94 90 95 91 96 92 97 93 98 94 99 73 100
REMARK SMILES IDX 74 101 82 102 75 103 81 104 76 105 77 106 78 107 79 108
REMARK SMILES IDX 80 109
REMARK H PARENT 101 65 71 76
REMARK Flexibility Score: inf
ROOT
ATOM      1  C   UNL     1      -1.861   3.101  -2.869  1.00  0.00     0.188 C 
ENDROOT
BRANCH   1   2
ATOM      2  O   UNL     1      -2.566   4.212  -3.399  1.00  0.00    -0.376 OA
BRANCH   2   3
ATOM      3  C   UNL     1      -2.516   5.500  -2.799  1.00  0.00     0.202 C 
BRANCH   3   4
ATOM      4  C   UNL     1      -2.772   5.727  -1.303  1.00  0.00     0.261 C 
BRANCH   4   5
ATOM      5  O   UNL     1      -1.901   5.038  -0.398  1.00  0.00    -0.462 OA
BRANCH   5   6
ATOM      6  C   UNL     1      -2.435   3.940   0.184  1.00  0.00     0.319 C 
ATOM      7  O   UNL     1      -3.551   3.493  -0.076  1.00  0.00    -0.251 OA
BRANCH   6   8
ATOM      8  C   UNL     1      -1.569   3.334   1.276  1.00  0.00     0.164 C 
BRANCH   8   9
ATOM      9  C   UNL     1      -0.030   3.410   1.128  1.00  0.00     0.027 C 
BRANCH   9  10
ATOM     10  C   UNL     1       0.762   2.135   1.501  1.00  0.00     0.001 C 
BRANCH  10  11
ATOM     11  C   UNL     1       0.356   0.772   0.905  1.00  0.00    -0.003 C 
ATOM     12  C   UNL     1       1.110   0.347  -0.345  1.00  0.00     0.004 C 
ENDBRANCH  10  11
ENDBRANCH   9  10
ENDBRANCH   8   9
BRANCH   8  13
ATOM     13  S   UNL     1      -2.187   4.137   2.819  1.00  0.00    -0.071 SA
BRANCH  13  14
ATOM     14  C   UNL     1      -2.096   2.774   3.928  1.00  0.00     0.195 A 
ATOM     15  N   UNL     1      -2.292   3.040   5.221  1.00  0.00    -0.187 NA
ATOM     16  N   UNL     1      -1.680   1.600   3.445  1.00  0.00    -0.187 NA
ATOM     17  C   UNL     1      -1.857   2.124   6.084  1.00  0.00     0.221 A 
ATOM     18  C   UNL     1      -1.226   0.714   4.322  1.00  0.00     0.221 A 
ATOM     19  C   UNL     1      -1.186   1.006   5.656  1.00  0.00     0.136 A 
BRANCH  17  20
ATOM     20  O   UNL     1      -2.241   2.370   7.373  1.00  0.00    -0.477 OA
BRANCH  20  21
ATOM     21  C   UNL     1      -1.531   1.796   8.463  1.00  0.00     0.231 C 
BRANCH  21  22
ATOM     22  C   UNL     1      -2.155   0.531   9.103  1.00  0.00     0.045 C 
BRANCH  22  23
ATOM     23  C   UNL     1      -2.549  -0.578   8.121  1.00  0.00    -0.008 C 
ATOM     24  C   UNL     1      -2.467  -2.008   8.662  1.00  0.00     0.004 C 
ATOM     25  C   UNL     1      -3.927  -0.342   7.497  1.00  0.00     0.004 C 
ATOM     26  C   UNL     1      -2.671  -3.005   7.509  1.00  0.00     0.000 C 
ATOM     27  C   UNL     1      -4.126  -1.264   6.302  1.00  0.00     0.000 C 
ATOM     28  C   UNL     1      -3.923  -2.731   6.671  1.00  0.00     0.000 C 
ENDBRANCH  22  23
ENDBRANCH  21  22
ENDBRANCH  20  21
ENDBRANCH  17  20
BRANCH  18  29
ATOM     29  O   UNL     1      -0.727  -0.407   3.728  1.00  0.00    -0.477 OA
BRANCH  29  30
ATOM     30  C   UNL     1      -0.500  -1.578   4.496  1.00  0.00     0.231 C 
BRANCH  30  31
ATOM     31  C   UNL     1       0.977  -2.012   4.552  1.00  0.00     0.045 C 
BRANCH  31  32
ATOM     32  C   UNL     1       2.057  -1.012   5.046  1.00  0.00    -0.008 C 
ATOM     33  C   UNL     1       2.306   0.105   4.037  1.00  0.00     0.004 C 
ATOM     34  C   UNL     1       1.866  -0.575   6.507  1.00  0.00     0.004 C 
ATOM     35  C   UNL     1       3.079   1.284   4.591  1.00  0.00     0.000 C 
ATOM     36  C   UNL     1       2.110   0.895   6.874  1.00  0.00     0.000 C 
ATOM     37  C   UNL     1       2.303   1.890   5.741  1.00  0.00     0.000 C 
ENDBRANCH  31  32
ENDBRANCH  30  31
ENDBRANCH  29  30
ENDBRANCH  18  29
ENDBRANCH  13  14
ENDBRANCH   8  13
ENDBRANCH   6   8
ENDBRANCH   5   6
ENDBRANCH   4   5
ENDBRANCH   3   4
ENDBRANCH   2   3
ENDBRANCH   1   2
BRANCH   1  38
ATOM     38  C   UNL     1      -0.420   3.231  -2.364  1.00  0.00     0.188 C 
BRANCH  38  39
ATOM     39  O   UNL     1       0.017   4.553  -2.138  1.00  0.00    -0.377 OA
BRANCH  39  40
ATOM     40  C   UNL     1       0.810   5.168  -3.146  1.00  0.00     0.188 C 
BRANCH  40  41
ATOM     41  C   UNL     1       0.506   4.805  -4.611  1.00  0.00     0.188 C 
BRANCH  41  42
ATOM     42  O   UNL     1       0.582   3.408  -4.876  1.00  0.00    -0.376 OA
BRANCH  42  43
ATOM     43  C   UNL     1       1.805   2.894  -5.387  1.00  0.00     0.202 C 
BRANCH  43  44
ATOM     44  C   UNL     1       3.034   2.956  -4.463  1.00  0.00     0.261 C 
BRANCH  44  45
ATOM     45  O   UNL     1       3.513   4.266  -4.110  1.00  0.00    -0.460 OA
BRANCH  45  46
ATOM     46  C   UNL     1       3.758   5.150  -5.095  1.00  0.00     0.338 C 
ATOM     47  O   UNL     1       3.712   4.940  -6.301  1.00  0.00    -0.246 OA
BRANCH  46  48
ATOM     48  C   UNL     1       3.897   6.488  -4.490  1.00  0.00     0.060 A 
ATOM     49  C   UNL     1       3.048   7.517  -4.918  1.00  0.00     0.016 A 
ATOM     50  C   UNL     1       4.880   6.736  -3.529  1.00  0.00     0.016 A 
ATOM     51  C   UNL     1       3.216   8.812  -4.428  1.00  0.00     0.010 A 
ATOM     52  C   UNL     1       5.061   8.038  -3.053  1.00  0.00     0.010 A 
ATOM     53  C   UNL     1       4.260   9.089  -3.536  1.00  0.00    -0.014 A 
BRANCH  53  54
ATOM     54  C   UNL     1       4.664  10.497  -3.298  1.00  0.00     0.031 A 
ATOM     55  C   UNL     1       5.811  11.049  -4.105  1.00  0.00     0.074 A 
ATOM     56  C   UNL     1       4.018  11.280  -2.416  1.00  0.00     0.049 A 
ATOM     57  N   UNL     1       6.373  12.228  -4.051  1.00  0.00    -0.248 NA
ATOM     58  C   UNL     1       6.403  10.145  -5.107  1.00  0.00     0.031 C 
ATOM     59  C   UNL     1       2.861  10.882  -1.617  1.00  0.00     0.029 A 
ATOM     60  N   UNL     1       4.255  12.580  -2.045  1.00  0.00    -0.354 N 
ATOM     61  C   UNL     1       7.389  12.203  -5.000  1.00  0.00     0.074 A 
ATOM     62  C   UNL     1       7.387  10.885  -5.594  1.00  0.00     0.031 C 
ATOM     63  C   UNL     1       2.492  11.918  -0.841  1.00  0.00     0.029 A 
ATOM     64  C   UNL     1       3.408  13.037  -1.062  1.00  0.00     0.049 A 
ATOM     65  H   UNL     1       4.964  13.134  -2.444  1.00  0.00     0.167 HD
ATOM     66  C   UNL     1       8.246  13.191  -5.352  1.00  0.00     0.031 A 
ATOM     67  C   UNL     1       3.390  14.213  -0.404  1.00  0.00     0.031 A 
ATOM     68  C   UNL     1       8.255  14.497  -4.751  1.00  0.00     0.049 A 
ATOM     69  C   UNL     1       4.408  15.271  -0.753  1.00  0.00     0.074 A 
ATOM     70  C   UNL     1       9.078  15.571  -5.042  1.00  0.00     0.029 A 
ATOM     71  N   UNL     1       7.408  14.905  -3.732  1.00  0.00    -0.354 N 
ATOM     72  N   UNL     1       5.352  15.241  -1.665  1.00  0.00    -0.248 NA
ATOM     73  C   UNL     1       4.353  16.526   0.011  1.00  0.00     0.031 C 
ATOM     74  C   UNL     1       8.770  16.608  -4.155  1.00  0.00     0.029 A 
ATOM     75  C   UNL     1       7.707  16.206  -3.362  1.00  0.00     0.049 A 
ATOM     76  H   UNL     1       6.699  14.353  -3.331  1.00  0.00     0.167 HD
ATOM     77  C   UNL     1       5.978  16.483  -1.607  1.00  0.00     0.074 A 
ATOM     78  C   UNL     1       5.299  17.244  -0.579  1.00  0.00     0.031 C 
ATOM     79  C   UNL     1       7.018  16.953  -2.340  1.00  0.00     0.031 A 
BRANCH  66  80
ATOM     80  C   UNL     1       9.271  12.880  -6.411  1.00  0.00    -0.014 A 
ATOM     81  C   UNL     1       8.902  12.697  -7.756  1.00  0.00     0.010 A 
ATOM     82  C   UNL     1      10.630  12.800  -6.057  1.00  0.00     0.010 A 
ATOM     83  C   UNL     1       9.870  12.405  -8.721  1.00  0.00     0.020 A 
ATOM     84  C   UNL     1      11.604  12.538  -7.024  1.00  0.00     0.020 A 
ATOM     85  C   UNL     1      11.215  12.327  -8.348  1.00  0.00     0.054 A 
BRANCH  85  86
ATOM     86  S   UNL     1      12.452  11.971  -9.626  1.00  0.00     0.124 S 
ATOM     87  O   UNL     1      12.185  10.566  -9.921  1.00  0.00    -0.237 OA
ATOM     88  O   UNL     1      12.097  12.914 -10.684  1.00  0.00    -0.237 OA
ATOM     89  O   UNL     1      13.726  12.236  -8.961  1.00  0.00    -0.744 OA
ENDBRANCH  85  86
ENDBRANCH  66  80
BRANCH  67  90
ATOM     90  C   UNL     1       2.388  14.453   0.673  1.00  0.00    -0.014 A 
ATOM     91  C   UNL     1       1.373  15.413   0.512  1.00  0.00     0.010 A 
ATOM     92  C   UNL     1       2.455  13.729   1.878  1.00  0.00     0.010 A 
ATOM     93  C   UNL     1       0.459  15.659   1.542  1.00  0.00     0.020 A 
ATOM     94  C   UNL     1       1.525  13.950   2.898  1.00  0.00     0.020 A 
ATOM     95  C   UNL     1       0.540  14.923   2.728  1.00  0.00     0.054 A 
BRANCH  95  96
ATOM     96  S   UNL     1      -0.682  15.232   4.034  1.00  0.00     0.124 S 
ATOM     97  O   UNL     1      -0.273  16.543   4.529  1.00  0.00    -0.237 OA
ATOM     98  O   UNL     1      -1.943  15.198   3.298  1.00  0.00    -0.237 OA
ATOM     99  O   UNL     1      -0.479  14.121   4.962  1.00  0.00    -0.744 OA
ENDBRANCH  95  96
ENDBRANCH  67  90
BRANCH  79 100
ATOM    100  C   UNL     1       7.462  18.373  -2.097  1.00  0.00    -0.014 A 
ATOM    101  C   UNL     1       8.134  18.743  -0.919  1.00  0.00     0.010 A 
ATOM    102  C   UNL     1       7.259  19.340  -3.100  1.00  0.00     0.010 A 
ATOM    103  C   UNL     1       8.565  20.060  -0.734  1.00  0.00     0.020 A 
ATOM    104  C   UNL     1       7.716  20.650  -2.933  1.00  0.00     0.020 A 
ATOM    105  C   UNL     1       8.354  21.005  -1.744  1.00  0.00     0.054 A 
BRANCH 105 106
ATOM    106  S   UNL     1       8.963  22.696  -1.498  1.00  0.00     0.124 S 
ATOM    107  O   UNL     1       8.031  23.213  -0.500  1.00  0.00    -0.237 OA
ATOM    108  O   UNL     1      10.330  22.479  -1.030  1.00  0.00    -0.237 OA
ATOM    109  O   UNL     1       8.854  23.301  -2.824  1.00  0.00    -0.744 OA
ENDBRANCH 105 106
ENDBRANCH  79 100
ENDBRANCH  53  54
ENDBRANCH  46  48
ENDBRANCH  45  46
ENDBRANCH  44  45
ENDBRANCH  43  44
ENDBRANCH  42  43
ENDBRANCH  41  42
ENDBRANCH  40  41
ENDBRANCH  39  40
ENDBRANCH  38  39
ENDBRANCH   1  38
TORSDOF 36
