REMARK SMILES O=C(Cn1c(=O)[nH]c2ccccc2c1=O)NC[C@H]1CC[C@@H](C(=O)N2CCC(C(=O)OCCOCCOCCOCCOC(=O)c3ccc(-c4c5nc(c(-c6ccc(S(=O)(=O)[O-])cc6)c6ccc([nH]6)c(-c6ccc(S(=O)(=O)[O-])cc6)c6nc(c(-c7ccc(S(=O)(=O)[O-])cc7)c7ccc4[nH]7)C=C6)C=C5)cc3)CC2)CC1
REMARK SMILES IDX 35 1 34 2 33 3 32 4 31 5 30 6 28 7 29 8 27 9 22 10 23 11
REMARK SMILES IDX 24 12 25 13 106 14 26 15 105 16 21 17 18 18 19 19 108 20
REMARK SMILES IDX 20 21 107 22 17 23 16 24 1 25 2 26 3 28 4 29 5 30 14 31 6 32
REMARK SMILES IDX 7 33 13 34 15 35 8 36 12 38 9 39 11 40 10 41 36 42 37 43
REMARK SMILES IDX 38 44 39 45 40 46 41 47 42 48 43 49 44 50 45 51 46 52 104 53
REMARK SMILES IDX 47 54 103 55 48 56 49 57 50 58 97 59 51 60 102 61 96 62
REMARK SMILES IDX 98 63 52 64 101 65 95 66 94 67 53 69 83 70 64 71 82 72 65 73
REMARK SMILES IDX 68 74 81 75 99 76 66 77 67 78 80 80 100 81 69 82 54 83 55 84
REMARK SMILES IDX 63 85 56 86 62 87 57 88 58 89 59 90 60 91 61 92 84 93 85 94
REMARK SMILES IDX 93 95 86 96 92 97 87 98 88 99 89 100 90 101 91 102 70 103
REMARK SMILES IDX 71 104 79 105 72 106 78 107 73 108 74 109 75 110 76 111
REMARK SMILES IDX 77 112
REMARK H PARENT 16 27 7 37 98 68 68 79
REMARK Flexibility Score: inf
ROOT
ATOM      1  C   UNL     1      -5.304   0.638   1.529  1.00  0.00     0.188 C 
ENDROOT
BRANCH   1   2
ATOM      2  C   UNL     1      -5.320   0.214   0.058  1.00  0.00     0.188 C 
BRANCH   2   3
ATOM      3  O   UNL     1      -5.947  -0.985  -0.363  1.00  0.00    -0.376 OA
BRANCH   3   4
ATOM      4  C   UNL     1      -5.824  -2.188   0.384  1.00  0.00     0.202 C 
BRANCH   4   5
ATOM      5  C   UNL     1      -4.460  -2.741   0.824  1.00  0.00     0.261 C 
BRANCH   5   6
ATOM      6  O   UNL     1      -3.676  -1.897   1.682  1.00  0.00    -0.463 OA
BRANCH   6   7
ATOM      7  C   UNL     1      -2.627  -1.272   1.101  1.00  0.00     0.309 C 
ATOM      8  O   UNL     1      -2.352  -1.342  -0.093  1.00  0.00    -0.252 OA
BRANCH   7   9
ATOM      9  C   UNL     1      -1.739  -0.544   2.091  1.00  0.00     0.103 C 
ATOM     10  C   UNL     1       0.372   0.140   5.750  1.00  0.00     0.225 C 
ATOM     11  O   UNL     1      -0.324   0.404   6.740  1.00  0.00    -0.275 OA
ATOM     12  N   UNL     1      -0.228  -0.059   4.525  1.00  0.00    -0.342 N 
ATOM     13  C   UNL     1      -1.336   0.815   4.183  1.00  0.00     0.120 C 
ATOM     14  C   UNL     1       0.312  -0.862   3.450  1.00  0.00     0.120 C 
ATOM     15  C   UNL     1      -2.380   0.173   3.284  1.00  0.00     0.037 C 
ATOM     16  C   UNL     1      -0.744  -1.565   2.622  1.00  0.00     0.037 C 
BRANCH  10  17
ATOM     17  C   UNL     1       1.896   0.357   5.872  1.00  0.00     0.078 C 
ATOM     18  C   UNL     1       3.186   1.485   3.368  1.00  0.00     0.008 C 
ATOM     19  C   UNL     1       2.234   2.292   4.270  1.00  0.00     0.006 C 
ATOM     20  C   UNL     1       3.314  -0.012   3.704  1.00  0.00     0.006 C 
ATOM     21  C   UNL     1       2.207   1.849   5.722  1.00  0.00     0.014 C 
ATOM     22  C   UNL     1       2.929  -0.469   5.115  1.00  0.00     0.014 C 
BRANCH  18  23
ATOM     23  C   UNL     1       2.784   1.763   1.898  1.00  0.00     0.119 C 
BRANCH  23  24
ATOM     24  N   UNL     1       3.303   0.843   0.905  1.00  0.00    -0.354 N 
ATOM     25  O   UNL     1       1.292  -0.209   0.547  1.00  0.00    -0.273 OA
ATOM     26  C   UNL     1       2.435   0.048   0.173  1.00  0.00     0.240 C 
ATOM     27  H   UNL     1       4.273   0.783   0.750  1.00  0.00     0.163 HD
BRANCH  26  28
ATOM     28  C   UNL     1       3.005  -0.624  -1.071  1.00  0.00     0.230 C 
BRANCH  28  29
ATOM     29  N   UNL     1       3.850   0.219  -1.909  1.00  0.00    -0.250 N 
ATOM     30  C   UNL     1       4.781  -0.432  -2.702  1.00  0.00     0.329 A 
ATOM     31  C   UNL     1       3.435   1.526  -2.153  1.00  0.00     0.264 A 
ATOM     32  O   UNL     1       5.020  -1.636  -2.643  1.00  0.00    -0.248 OA
ATOM     33  N   UNL     1       5.440   0.326  -3.631  1.00  0.00    -0.307 N 
ATOM     34  C   UNL     1       4.297   2.343  -3.016  1.00  0.00     0.064 A 
ATOM     35  O   UNL     1       2.412   2.037  -1.708  1.00  0.00    -0.268 OA
ATOM     36  C   UNL     1       5.251   1.695  -3.788  1.00  0.00     0.055 A 
ATOM     37  H   UNL     1       6.085  -0.124  -4.223  1.00  0.00     0.171 HD
ATOM     38  C   UNL     1       4.137   3.729  -3.091  1.00  0.00     0.016 A 
ATOM     39  C   UNL     1       6.011   2.418  -4.705  1.00  0.00     0.027 A 
ATOM     40  C   UNL     1       4.921   4.460  -3.980  1.00  0.00     0.001 A 
ATOM     41  C   UNL     1       5.841   3.803  -4.799  1.00  0.00     0.002 A 
ENDBRANCH  28  29
ENDBRANCH  26  28
ENDBRANCH  23  24
ENDBRANCH  18  23
ENDBRANCH  10  17
ENDBRANCH   7   9
ENDBRANCH   6   7
ENDBRANCH   5   6
ENDBRANCH   4   5
ENDBRANCH   3   4
ENDBRANCH   2   3
ENDBRANCH   1   2
BRANCH   1  42
ATOM     42  O   UNL     1      -5.653  -0.359   2.464  1.00  0.00    -0.377 OA
BRANCH  42  43
ATOM     43  C   UNL     1      -6.980  -0.338   2.977  1.00  0.00     0.188 C 
BRANCH  43  44
ATOM     44  C   UNL     1      -8.105   0.117   2.027  1.00  0.00     0.188 C 
BRANCH  44  45
ATOM     45  O   UNL     1      -7.861   1.371   1.402  1.00  0.00    -0.376 OA
BRANCH  45  46
ATOM     46  C   UNL     1      -8.362   2.556   2.004  1.00  0.00     0.202 C 
BRANCH  46  47
ATOM     47  C   UNL     1      -7.858   2.944   3.405  1.00  0.00     0.261 C 
BRANCH  47  48
ATOM     48  O   UNL     1      -8.113   2.018   4.472  1.00  0.00    -0.460 OA
BRANCH  48  49
ATOM     49  C   UNL     1      -9.371   1.571   4.661  1.00  0.00     0.338 C 
ATOM     50  O   UNL     1     -10.375   1.929   4.068  1.00  0.00    -0.246 OA
BRANCH  49  51
ATOM     51  C   UNL     1      -9.294   0.403   5.568  1.00  0.00     0.060 A 
ATOM     52  C   UNL     1      -8.596   0.486   6.775  1.00  0.00     0.016 A 
ATOM     53  C   UNL     1      -9.915  -0.795   5.192  1.00  0.00     0.016 A 
ATOM     54  C   UNL     1      -8.569  -0.617   7.630  1.00  0.00     0.010 A 
ATOM     55  C   UNL     1      -9.885  -1.900   6.048  1.00  0.00     0.010 A 
ATOM     56  C   UNL     1      -9.245  -1.805   7.291  1.00  0.00    -0.014 A 
BRANCH  56  57
ATOM     57  C   UNL     1      -9.463  -2.838   8.335  1.00  0.00     0.031 A 
ATOM     58  C   UNL     1      -8.713  -4.134   8.357  1.00  0.00     0.074 A 
ATOM     59  C   UNL     1     -10.367  -2.560   9.296  1.00  0.00     0.049 A 
ATOM     60  N   UNL     1      -8.699  -5.048   9.293  1.00  0.00    -0.248 NA
ATOM     61  C   UNL     1      -7.881  -4.455   7.188  1.00  0.00     0.031 C 
ATOM     62  C   UNL     1     -11.180  -1.341   9.344  1.00  0.00     0.029 A 
ATOM     63  N   UNL     1     -10.734  -3.248  10.425  1.00  0.00    -0.354 N 
ATOM     64  C   UNL     1      -7.831  -6.037   8.850  1.00  0.00     0.074 A 
ATOM     65  C   UNL     1      -7.388  -5.642   7.529  1.00  0.00     0.031 C 
ATOM     66  C   UNL     1     -11.896  -1.336  10.476  1.00  0.00     0.029 A 
ATOM     67  C   UNL     1     -11.626  -2.564  11.218  1.00  0.00     0.049 A 
ATOM     68  H   UNL     1     -10.392  -4.145  10.646  1.00  0.00     0.167 HD
ATOM     69  C   UNL     1      -7.428  -7.153   9.503  1.00  0.00     0.031 A 
ATOM     70  C   UNL     1     -12.152  -2.869  12.421  1.00  0.00     0.031 A 
ATOM     71  C   UNL     1      -7.901  -7.538  10.812  1.00  0.00     0.049 A 
ATOM     72  C   UNL     1     -11.713  -4.133  13.106  1.00  0.00     0.074 A 
ATOM     73  C   UNL     1      -7.528  -8.639  11.566  1.00  0.00     0.029 A 
ATOM     74  N   UNL     1      -8.842  -6.847  11.561  1.00  0.00    -0.354 N 
ATOM     75  N   UNL     1     -10.828  -5.016  12.709  1.00  0.00    -0.248 NA
ATOM     76  C   UNL     1     -12.324  -4.435  14.407  1.00  0.00     0.031 C 
ATOM     77  C   UNL     1      -8.298  -8.655  12.730  1.00  0.00     0.029 A 
ATOM     78  C   UNL     1      -9.085  -7.515  12.751  1.00  0.00     0.049 A 
ATOM     79  H   UNL     1      -9.275  -6.006  11.287  1.00  0.00     0.167 HD
ATOM     80  C   UNL     1     -10.752  -5.961  13.726  1.00  0.00     0.074 A 
ATOM     81  C   UNL     1     -11.668  -5.533  14.763  1.00  0.00     0.031 C 
ATOM     82  C   UNL     1      -9.991  -7.081  13.789  1.00  0.00     0.031 A 
BRANCH  69  83
ATOM     83  C   UNL     1      -6.391  -8.039   8.853  1.00  0.00    -0.014 A 
ATOM     84  C   UNL     1      -6.702  -9.373   8.527  1.00  0.00     0.010 A 
ATOM     85  C   UNL     1      -5.060  -7.601   8.726  1.00  0.00     0.010 A 
ATOM     86  C   UNL     1      -5.696 -10.264   8.136  1.00  0.00     0.020 A 
ATOM     87  C   UNL     1      -4.057  -8.480   8.305  1.00  0.00     0.020 A 
ATOM     88  C   UNL     1      -4.377  -9.813   8.041  1.00  0.00     0.054 A 
BRANCH  88  89
ATOM     89  S   UNL     1      -3.077 -10.999   7.595  1.00  0.00     0.124 S 
ATOM     90  O   UNL     1      -2.987 -11.826   8.794  1.00  0.00    -0.237 OA
ATOM     91  O   UNL     1      -3.638 -11.655   6.416  1.00  0.00    -0.237 OA
ATOM     92  O   UNL     1      -1.915 -10.152   7.332  1.00  0.00    -0.744 OA
ENDBRANCH  88  89
ENDBRANCH  69  83
BRANCH  70  93
ATOM     93  C   UNL     1     -13.084  -1.907  13.075  1.00  0.00    -0.014 A 
ATOM     94  C   UNL     1     -14.335  -1.616  12.498  1.00  0.00     0.010 A 
ATOM     95  C   UNL     1     -12.691  -1.213  14.234  1.00  0.00     0.010 A 
ATOM     96  C   UNL     1     -15.148  -0.614  13.033  1.00  0.00     0.020 A 
ATOM     97  C   UNL     1     -13.521  -0.236  14.795  1.00  0.00     0.020 A 
ATOM     98  C   UNL     1     -14.731   0.077  14.172  1.00  0.00     0.054 A 
BRANCH  98  99
ATOM     99  S   UNL     1     -15.787   1.401  14.820  1.00  0.00     0.124 S 
ATOM    100  O   UNL     1     -15.587   2.455  13.829  1.00  0.00    -0.237 OA
ATOM    101  O   UNL     1     -17.109   0.781  14.822  1.00  0.00    -0.237 OA
ATOM    102  O   UNL     1     -15.227   1.672  16.142  1.00  0.00    -0.744 OA
ENDBRANCH  98  99
ENDBRANCH  70  93
BRANCH  82 103
ATOM    103  C   UNL     1     -10.086  -7.945  15.023  1.00  0.00    -0.014 A 
ATOM    104  C   UNL     1      -8.953  -8.116  15.842  1.00  0.00     0.010 A 
ATOM    105  C   UNL     1     -11.240  -8.701  15.292  1.00  0.00     0.010 A 
ATOM    106  C   UNL     1      -8.954  -9.059  16.873  1.00  0.00     0.020 A 
ATOM    107  C   UNL     1     -11.258  -9.621  16.346  1.00  0.00     0.020 A 
ATOM    108  C   UNL     1     -10.104  -9.816  17.109  1.00  0.00     0.054 A 
BRANCH 108 109
ATOM    109  S   UNL     1     -10.067 -11.077  18.412  1.00  0.00     0.124 S 
ATOM    110  O   UNL     1      -9.240 -12.118  17.810  1.00  0.00    -0.237 OA
ATOM    111  O   UNL     1      -9.462 -10.362  19.534  1.00  0.00    -0.237 OA
ATOM    112  O   UNL     1     -11.474 -11.426  18.594  1.00  0.00    -0.744 OA
ENDBRANCH 108 109
ENDBRANCH  82 103
ENDBRANCH  56  57
ENDBRANCH  49  51
ENDBRANCH  48  49
ENDBRANCH  47  48
ENDBRANCH  46  47
ENDBRANCH  45  46
ENDBRANCH  44  45
ENDBRANCH  43  44
ENDBRANCH  42  43
ENDBRANCH   1  42
TORSDOF 28
