REMARK SMILES C[C@H](C(=O)OCCOCCOCCOCCOC(=O)c1ccc(-c2c3nc(c(-c4ccc(S(=O)(=O)[O-])cc4)c4ccc([nH]4)c(-c4ccc(S(=O)(=O)[O-])cc4)c4nc(c(-c5ccc(S(=O)(=O)[O-])cc5)c5ccc2[nH]5)C=C4)C=C3)cc1)[C@H](C)[N@@H+]1CC[C@H]([NH+]2CCCCC2)C1
REMARK SMILES IDX 11 1 10 2 9 3 8 4 7 5 6 6 5 7 3 8 4 9 2 10 1 11 80 12 81 13
REMARK SMILES IDX 82 14 83 15 92 16 84 18 85 19 86 20 87 21 91 22 88 24 90 25
REMARK SMILES IDX 89 26 12 27 13 28 14 29 15 30 16 31 17 32 18 33 19 34 20 35
REMARK SMILES IDX 21 36 79 37 22 38 78 39 23 40 24 41 25 42 72 43 26 44 77 45
REMARK SMILES IDX 71 46 73 47 27 48 76 49 70 50 69 51 28 53 58 54 39 55 57 56
REMARK SMILES IDX 40 57 43 58 56 59 74 60 41 61 42 62 55 64 75 65 44 66 29 67
REMARK SMILES IDX 30 68 38 69 31 70 37 71 32 72 33 73 34 74 35 75 36 76 59 77
REMARK SMILES IDX 60 78 68 79 61 80 67 81 62 82 63 83 64 84 65 85 66 86 45 87
REMARK SMILES IDX 46 88 54 89 47 90 53 91 48 92 49 93 50 94 51 95 52 96
REMARK H PARENT 82 17 86 23 73 52 43 63
REMARK Flexibility Score: inf
ROOT
ATOM      1  O   UNL     1      -5.469   1.054   0.716  1.00  0.00    -0.377 OA
ENDROOT
BRANCH   1   2
ATOM      2  C   UNL     1      -4.335   0.359   1.208  1.00  0.00     0.188 C 
BRANCH   2   3
ATOM      3  C   UNL     1      -4.355  -0.381   2.566  1.00  0.00     0.188 C 
BRANCH   3   4
ATOM      4  O   UNL     1      -4.931   0.368   3.627  1.00  0.00    -0.376 OA
BRANCH   4   5
ATOM      5  C   UNL     1      -4.074   0.991   4.572  1.00  0.00     0.202 C 
BRANCH   5   6
ATOM      6  C   UNL     1      -3.113   2.067   4.058  1.00  0.00     0.261 C 
BRANCH   6   7
ATOM      7  O   UNL     1      -2.351   1.684   2.909  1.00  0.00    -0.463 OA
BRANCH   7   8
ATOM      8  C   UNL     1      -1.287   0.873   3.044  1.00  0.00     0.314 C 
ATOM      9  O   UNL     1      -0.948   0.372   4.112  1.00  0.00    -0.252 OA
BRANCH   8  10
ATOM     10  C   UNL     1      -0.619   0.507   1.716  1.00  0.00     0.154 C 
ATOM     11  C   UNL     1      -1.102  -0.859   1.204  1.00  0.00     0.026 C 
BRANCH  10  12
ATOM     12  C   UNL     1      -0.555   1.532   0.525  1.00  0.00     0.195 C 
ATOM     13  C   UNL     1       0.931   1.776   0.228  1.00  0.00     0.076 C 
BRANCH  12  14
ATOM     14  N   UNL     1      -1.418   2.719   0.647  1.00  0.00    -0.327 N 
ATOM     15  C   UNL     1      -2.424   2.865  -0.418  1.00  0.00     0.269 C 
ATOM     16  C   UNL     1      -0.812   4.056   0.790  1.00  0.00     0.328 C 
ATOM     17  H   UNL     1      -1.817   2.466   1.551  1.00  0.00     0.348 HD
ATOM     18  C   UNL     1      -1.798   3.818  -1.413  1.00  0.00     0.132 C 
ATOM     19  C   UNL     1      -1.119   4.852  -0.511  1.00  0.00     0.245 C 
BRANCH  19  20
ATOM     20  N   UNL     1      -0.034   5.650  -1.124  1.00  0.00    -0.328 N 
ATOM     21  C   UNL     1       1.190   4.890  -1.384  1.00  0.00     0.262 C 
ATOM     22  C   UNL     1      -0.506   6.349  -2.333  1.00  0.00     0.262 C 
ATOM     23  H   UNL     1       0.226   6.348  -0.427  1.00  0.00     0.348 HD
ATOM     24  C   UNL     1       2.307   5.744  -1.981  1.00  0.00     0.062 C 
ATOM     25  C   UNL     1       0.574   7.236  -2.954  1.00  0.00     0.062 C 
ATOM     26  C   UNL     1       1.838   6.439  -3.248  1.00  0.00     0.012 C 
ENDBRANCH  19  20
ENDBRANCH  12  14
ENDBRANCH  10  12
ENDBRANCH   8  10
ENDBRANCH   7   8
ENDBRANCH   6   7
ENDBRANCH   5   6
ENDBRANCH   4   5
ENDBRANCH   3   4
ENDBRANCH   2   3
ENDBRANCH   1   2
BRANCH   1  27
ATOM     27  C   UNL     1      -6.332   1.618   1.685  1.00  0.00     0.188 C 
BRANCH  27  28
ATOM     28  C   UNL     1      -7.387   0.610   2.170  1.00  0.00     0.188 C 
BRANCH  28  29
ATOM     29  O   UNL     1      -7.176  -0.751   1.842  1.00  0.00    -0.376 OA
BRANCH  29  30
ATOM     30  C   UNL     1      -7.234  -1.240   0.511  1.00  0.00     0.202 C 
BRANCH  30  31
ATOM     31  C   UNL     1      -7.480  -0.439  -0.786  1.00  0.00     0.261 C 
BRANCH  31  32
ATOM     32  O   UNL     1      -7.831   0.939  -0.709  1.00  0.00    -0.460 OA
BRANCH  32  33
ATOM     33  C   UNL     1      -9.122   1.225  -0.438  1.00  0.00     0.338 C 
ATOM     34  O   UNL     1     -10.024   0.443  -0.235  1.00  0.00    -0.246 OA
BRANCH  33  35
ATOM     35  C   UNL     1      -9.191   2.689  -0.240  1.00  0.00     0.060 A 
ATOM     36  C   UNL     1      -9.559   3.184   1.017  1.00  0.00     0.016 A 
ATOM     37  C   UNL     1      -8.855   3.561  -1.279  1.00  0.00     0.016 A 
ATOM     38  C   UNL     1      -9.617   4.557   1.236  1.00  0.00     0.010 A 
ATOM     39  C   UNL     1      -8.953   4.938  -1.072  1.00  0.00     0.010 A 
ATOM     40  C   UNL     1      -9.365   5.436   0.176  1.00  0.00    -0.014 A 
BRANCH  40  41
ATOM     41  C   UNL     1      -9.763   6.854   0.311  1.00  0.00     0.031 A 
ATOM     42  C   UNL     1     -11.114   7.254  -0.214  1.00  0.00     0.074 A 
ATOM     43  C   UNL     1      -8.965   7.753   0.909  1.00  0.00     0.049 A 
ATOM     44  N   UNL     1     -11.671   8.434  -0.254  1.00  0.00    -0.248 NA
ATOM     45  C   UNL     1     -11.948   6.173  -0.770  1.00  0.00     0.031 C 
ATOM     46  C   UNL     1      -7.661   7.467   1.506  1.00  0.00     0.029 A 
ATOM     47  N   UNL     1      -9.139   9.100   1.106  1.00  0.00    -0.354 N 
ATOM     48  C   UNL     1     -12.915   8.241  -0.844  1.00  0.00     0.074 A 
ATOM     49  C   UNL     1     -13.018   6.838  -1.175  1.00  0.00     0.031 C 
ATOM     50  C   UNL     1      -7.145   8.611   1.990  1.00  0.00     0.029 A 
ATOM     51  C   UNL     1      -8.064   9.712   1.704  1.00  0.00     0.049 A 
ATOM     52  H   UNL     1      -9.957   9.582   0.844  1.00  0.00     0.167 HD
ATOM     53  C   UNL     1     -13.886   9.152  -1.084  1.00  0.00     0.031 A 
ATOM     54  C   UNL     1      -7.841  11.015   1.964  1.00  0.00     0.031 A 
ATOM     55  C   UNL     1     -13.765  10.550  -0.773  1.00  0.00     0.049 A 
ATOM     56  C   UNL     1      -8.900  12.027   1.605  1.00  0.00     0.074 A 
ATOM     57  C   UNL     1     -14.689  11.559  -0.975  1.00  0.00     0.029 A 
ATOM     58  N   UNL     1     -12.646  11.139  -0.203  1.00  0.00    -0.354 N 
ATOM     59  N   UNL     1     -10.080  11.831   1.062  1.00  0.00    -0.248 NA
ATOM     60  C   UNL     1      -8.602  13.435   1.902  1.00  0.00     0.031 C 
ATOM     61  C   UNL     1     -14.104  12.768  -0.588  1.00  0.00     0.029 A 
ATOM     62  C   UNL     1     -12.844  12.502  -0.072  1.00  0.00     0.049 A 
ATOM     63  H   UNL     1     -11.831  10.658   0.069  1.00  0.00     0.167 HD
ATOM     64  C   UNL     1     -10.676  13.087   0.984  1.00  0.00     0.074 A 
ATOM     65  C   UNL     1      -9.733  14.031   1.548  1.00  0.00     0.031 C 
ATOM     66  C   UNL     1     -11.894  13.428   0.493  1.00  0.00     0.031 A 
BRANCH  53  67
ATOM     67  C   UNL     1     -15.145   8.665  -1.751  1.00  0.00    -0.014 A 
ATOM     68  C   UNL     1     -16.053   7.827  -1.078  1.00  0.00     0.010 A 
ATOM     69  C   UNL     1     -15.439   9.078  -3.063  1.00  0.00     0.010 A 
ATOM     70  C   UNL     1     -17.212   7.382  -1.719  1.00  0.00     0.020 A 
ATOM     71  C   UNL     1     -16.613   8.661  -3.696  1.00  0.00     0.020 A 
ATOM     72  C   UNL     1     -17.485   7.803  -3.024  1.00  0.00     0.054 A 
BRANCH  72  73
ATOM     73  S   UNL     1     -19.013   7.234  -3.818  1.00  0.00     0.124 S 
ATOM     74  O   UNL     1     -18.728   5.818  -4.041  1.00  0.00    -0.237 OA
ATOM     75  O   UNL     1     -20.024   7.518  -2.804  1.00  0.00    -0.237 OA
ATOM     76  O   UNL     1     -19.100   8.048  -5.028  1.00  0.00    -0.744 OA
ENDBRANCH  72  73
ENDBRANCH  53  67
BRANCH  54  77
ATOM     77  C   UNL     1      -6.549  11.444   2.570  1.00  0.00    -0.014 A 
ATOM     78  C   UNL     1      -6.503  11.981   3.868  1.00  0.00     0.010 A 
ATOM     79  C   UNL     1      -5.351  11.321   1.841  1.00  0.00     0.010 A 
ATOM     80  C   UNL     1      -5.289  12.405   4.417  1.00  0.00     0.020 A 
ATOM     81  C   UNL     1      -4.131  11.713   2.398  1.00  0.00     0.020 A 
ATOM     82  C   UNL     1      -4.110  12.264   3.679  1.00  0.00     0.054 A 
BRANCH  82  83
ATOM     83  S   UNL     1      -2.541  12.778   4.433  1.00  0.00     0.124 S 
ATOM     84  O   UNL     1      -2.671  14.231   4.445  1.00  0.00    -0.237 OA
ATOM     85  O   UNL     1      -2.593  12.126   5.739  1.00  0.00    -0.237 OA
ATOM     86  O   UNL     1      -1.532  12.247   3.519  1.00  0.00    -0.744 OA
ENDBRANCH  82  83
ENDBRANCH  54  77
BRANCH  66  87
ATOM     87  C   UNL     1     -12.303  14.877   0.582  1.00  0.00    -0.014 A 
ATOM     88  C   UNL     1     -11.698  15.862  -0.218  1.00  0.00     0.010 A 
ATOM     89  C   UNL     1     -13.359  15.244   1.437  1.00  0.00     0.010 A 
ATOM     90  C   UNL     1     -12.119  17.193  -0.139  1.00  0.00     0.020 A 
ATOM     91  C   UNL     1     -13.805  16.567   1.495  1.00  0.00     0.020 A 
ATOM     92  C   UNL     1     -13.171  17.536   0.716  1.00  0.00     0.054 A 
BRANCH  92  93
ATOM     93  S   UNL     1     -13.727  19.262   0.766  1.00  0.00     0.124 S 
ATOM     94  O   UNL     1     -12.620  19.918   1.456  1.00  0.00    -0.237 OA
ATOM     95  O   UNL     1     -13.871  19.592  -0.649  1.00  0.00    -0.237 OA
ATOM     96  O   UNL     1     -14.980  19.202   1.517  1.00  0.00    -0.744 OA
ENDBRANCH  92  93
ENDBRANCH  66  87
ENDBRANCH  40  41
ENDBRANCH  33  35
ENDBRANCH  32  33
ENDBRANCH  31  32
ENDBRANCH  30  31
ENDBRANCH  29  30
ENDBRANCH  28  29
ENDBRANCH  27  28
ENDBRANCH   1  27
TORSDOF 26
