REMARK SMILES O=C(OCCOCCOCCOCCOC(=O)c1ccc2nc(Cl)sc2c1)c1ccc(-c2c3nc(c(-c4ccc(S(=O)(=O)[O-])cc4)c4ccc([nH]4)c(-c4ccc(S(=O)(=O)[O-])cc4)c4nc(c(-c5ccc(S(=O)(=O)[O-])cc5)c5ccc2[nH]5)C=C4)C=C3)cc1
REMARK SMILES IDX 7 1 6 2 5 3 4 4 3 5 2 6 1 7 28 8 29 9 87 10 30 11 86 12
REMARK SMILES IDX 31 13 32 14 33 15 80 16 34 17 85 18 79 19 81 20 35 21 84 22
REMARK SMILES IDX 78 23 77 24 36 26 66 27 47 28 65 29 48 30 51 31 64 32 82 33
REMARK SMILES IDX 49 34 50 35 63 37 83 38 52 39 37 40 38 41 46 42 39 43 45 44
REMARK SMILES IDX 40 45 41 46 42 47 43 48 44 49 67 50 68 51 76 52 69 53 75 54
REMARK SMILES IDX 70 55 71 56 72 57 73 58 74 59 53 60 54 61 62 62 55 63 61 64
REMARK SMILES IDX 56 65 57 66 58 67 59 68 60 69 8 70 9 71 10 72 11 73 12 74
REMARK SMILES IDX 13 75 14 76 15 77 16 78 17 79 18 80 19 81 27 82 20 83 26 84
REMARK SMILES IDX 21 85 25 86 22 87 23 88 24 89
REMARK H PARENT 81 25 51 36
REMARK Flexibility Score: inf
ROOT
ATOM      1  C   UNL     1       2.369   0.780  -0.740  1.00  0.00     0.188 C 
ENDROOT
BRANCH   1   2
ATOM      2  O   UNL     1       3.708   0.831  -0.264  1.00  0.00    -0.376 OA
BRANCH   2   3
ATOM      3  C   UNL     1       4.521  -0.309  -0.526  1.00  0.00     0.202 C 
BRANCH   3   4
ATOM      4  C   UNL     1       4.098  -1.545   0.269  1.00  0.00     0.261 C 
BRANCH   4   5
ATOM      5  O   UNL     1       4.022  -1.191   1.657  1.00  0.00    -0.460 OA
BRANCH   5   6
ATOM      6  C   UNL     1       2.770  -0.885   2.082  1.00  0.00     0.338 C 
ATOM      7  O   UNL     1       1.747  -1.484   1.789  1.00  0.00    -0.246 OA
BRANCH   6   8
ATOM      8  C   UNL     1       2.798   0.385   2.847  1.00  0.00     0.060 A 
ATOM      9  C   UNL     1       1.728   0.727   3.676  1.00  0.00     0.016 A 
ATOM     10  C   UNL     1       3.825   1.306   2.623  1.00  0.00     0.016 A 
ATOM     11  C   UNL     1       1.726   1.967   4.323  1.00  0.00     0.010 A 
ATOM     12  C   UNL     1       3.780   2.562   3.200  1.00  0.00     0.010 A 
ATOM     13  C   UNL     1       2.767   2.885   4.102  1.00  0.00    -0.014 A 
BRANCH  13  14
ATOM     14  C   UNL     1       2.908   4.073   4.971  1.00  0.00     0.031 A 
ATOM     15  C   UNL     1       4.330   4.552   5.156  1.00  0.00     0.074 A 
ATOM     16  C   UNL     1       1.907   4.968   5.067  1.00  0.00     0.049 A 
ATOM     17  N   UNL     1       4.972   5.359   4.357  1.00  0.00    -0.248 NA
ATOM     18  C   UNL     1       5.201   3.854   6.108  1.00  0.00     0.031 C 
ATOM     19  C   UNL     1       1.316   5.656   3.916  1.00  0.00     0.029 A 
ATOM     20  N   UNL     1       1.489   5.691   6.159  1.00  0.00    -0.354 N 
ATOM     21  C   UNL     1       6.324   5.264   4.679  1.00  0.00     0.074 A 
ATOM     22  C   UNL     1       6.413   4.308   5.759  1.00  0.00     0.031 C 
ATOM     23  C   UNL     1       0.747   6.800   4.348  1.00  0.00     0.029 A 
ATOM     24  C   UNL     1       0.856   6.880   5.805  1.00  0.00     0.049 A 
ATOM     25  H   UNL     1       1.623   5.400   7.089  1.00  0.00     0.167 HD
ATOM     26  C   UNL     1       7.316   5.973   4.070  1.00  0.00     0.031 A 
ATOM     27  C   UNL     1       0.934   8.014   6.558  1.00  0.00     0.031 A 
ATOM     28  C   UNL     1       6.886   6.930   3.099  1.00  0.00     0.049 A 
ATOM     29  C   UNL     1       2.221   8.603   6.021  1.00  0.00     0.074 A 
ATOM     30  C   UNL     1       6.825   7.065   1.730  1.00  0.00     0.029 A 
ATOM     31  N   UNL     1       6.380   8.115   3.574  1.00  0.00    -0.354 N 
ATOM     32  N   UNL     1       2.387   9.268   4.907  1.00  0.00    -0.248 NA
ATOM     33  C   UNL     1       3.459   8.077   6.604  1.00  0.00     0.031 C 
ATOM     34  C   UNL     1       5.865   8.101   1.492  1.00  0.00     0.029 A 
ATOM     35  C   UNL     1       5.367   8.492   2.735  1.00  0.00     0.049 A 
ATOM     36  H   UNL     1       6.689   8.604   4.371  1.00  0.00     0.167 HD
ATOM     37  C   UNL     1       3.692   8.978   4.494  1.00  0.00     0.074 A 
ATOM     38  C   UNL     1       4.302   8.272   5.602  1.00  0.00     0.031 C 
ATOM     39  C   UNL     1       4.163   9.140   3.221  1.00  0.00     0.031 A 
BRANCH  26  40
ATOM     40  C   UNL     1       8.730   5.978   4.527  1.00  0.00    -0.014 A 
ATOM     41  C   UNL     1       9.663   5.000   4.153  1.00  0.00     0.010 A 
ATOM     42  C   UNL     1       9.173   7.100   5.252  1.00  0.00     0.010 A 
ATOM     43  C   UNL     1      11.018   5.158   4.489  1.00  0.00     0.020 A 
ATOM     44  C   UNL     1      10.517   7.267   5.579  1.00  0.00     0.020 A 
ATOM     45  C   UNL     1      11.435   6.295   5.193  1.00  0.00     0.054 A 
BRANCH  45  46
ATOM     46  S   UNL     1      13.196   6.516   5.571  1.00  0.00     0.124 S 
ATOM     47  O   UNL     1      13.450   5.414   6.494  1.00  0.00    -0.237 OA
ATOM     48  O   UNL     1      13.820   6.394   4.256  1.00  0.00    -0.237 OA
ATOM     49  O   UNL     1      13.259   7.850   6.164  1.00  0.00    -0.744 OA
ENDBRANCH  45  46
ENDBRANCH  26  40
BRANCH  27  50
ATOM     50  C   UNL     1       0.650   7.799   8.022  1.00  0.00    -0.014 A 
ATOM     51  C   UNL     1       1.536   8.082   9.074  1.00  0.00     0.010 A 
ATOM     52  C   UNL     1      -0.565   7.154   8.355  1.00  0.00     0.010 A 
ATOM     53  C   UNL     1       1.328   7.544  10.352  1.00  0.00     0.020 A 
ATOM     54  C   UNL     1      -0.797   6.641   9.634  1.00  0.00     0.020 A 
ATOM     55  C   UNL     1       0.186   6.783  10.608  1.00  0.00     0.054 A 
BRANCH  55  56
ATOM     56  S   UNL     1       0.047   5.912  12.192  1.00  0.00     0.124 S 
ATOM     57  O   UNL     1       1.128   4.936  12.088  1.00  0.00    -0.237 OA
ATOM     58  O   UNL     1       0.251   6.983  13.163  1.00  0.00    -0.237 OA
ATOM     59  O   UNL     1      -1.302   5.349  12.161  1.00  0.00    -0.744 OA
ENDBRANCH  55  56
ENDBRANCH  27  50
BRANCH  39  60
ATOM     60  C   UNL     1       3.313   9.882   2.240  1.00  0.00    -0.014 A 
ATOM     61  C   UNL     1       2.894   9.266   1.046  1.00  0.00     0.010 A 
ATOM     62  C   UNL     1       3.105  11.258   2.409  1.00  0.00     0.010 A 
ATOM     63  C   UNL     1       2.399  10.032  -0.010  1.00  0.00     0.020 A 
ATOM     64  C   UNL     1       2.586  12.027   1.365  1.00  0.00     0.020 A 
ATOM     65  C   UNL     1       2.281  11.415   0.147  1.00  0.00     0.054 A 
BRANCH  65  66
ATOM     66  S   UNL     1       1.806  12.409  -1.290  1.00  0.00     0.124 S 
ATOM     67  O   UNL     1       2.924  12.188  -2.204  1.00  0.00    -0.237 OA
ATOM     68  O   UNL     1       0.540  11.800  -1.694  1.00  0.00    -0.237 OA
ATOM     69  O   UNL     1       1.699  13.766  -0.759  1.00  0.00    -0.744 OA
ENDBRANCH  65  66
ENDBRANCH  39  60
ENDBRANCH  13  14
ENDBRANCH   6   8
ENDBRANCH   5   6
ENDBRANCH   4   5
ENDBRANCH   3   4
ENDBRANCH   2   3
ENDBRANCH   1   2
BRANCH   1  70
ATOM     70  C   UNL     1       2.082   1.841  -1.796  1.00  0.00     0.188 C 
BRANCH  70  71
ATOM     71  O   UNL     1       3.017   1.858  -2.859  1.00  0.00    -0.377 OA
BRANCH  71  72
ATOM     72  C   UNL     1       4.330   2.362  -2.628  1.00  0.00     0.188 C 
BRANCH  72  73
ATOM     73  C   UNL     1       4.760   3.229  -1.417  1.00  0.00     0.188 C 
BRANCH  73  74
ATOM     74  O   UNL     1       3.701   3.771  -0.650  1.00  0.00    -0.376 OA
BRANCH  74  75
ATOM     75  C   UNL     1       3.692   5.188  -0.522  1.00  0.00     0.202 C 
BRANCH  75  76
ATOM     76  C   UNL     1       3.047   5.896  -1.721  1.00  0.00     0.261 C 
BRANCH  76  77
ATOM     77  O   UNL     1       3.532   5.475  -3.010  1.00  0.00    -0.460 OA
BRANCH  77  78
ATOM     78  C   UNL     1       4.742   5.955  -3.403  1.00  0.00     0.338 C 
ATOM     79  O   UNL     1       5.491   6.658  -2.782  1.00  0.00    -0.246 OA
BRANCH  78  80
ATOM     80  C   UNL     1       5.101   5.236  -4.657  1.00  0.00     0.061 A 
ATOM     81  C   UNL     1       4.208   5.155  -5.726  1.00  0.00     0.018 A 
ATOM     82  C   UNL     1       6.307   4.517  -4.663  1.00  0.00     0.037 A 
ATOM     83  C   UNL     1       4.487   4.319  -6.815  1.00  0.00     0.031 A 
ATOM     84  C   UNL     1       6.535   3.630  -5.729  1.00  0.00     0.057 A 
ATOM     85  C   UNL     1       5.648   3.517  -6.807  1.00  0.00     0.083 A 
ATOM     86  S   UNL     1       7.825   2.503  -5.948  1.00  0.00    -0.102 S 
ATOM     87  N   UNL     1       6.001   2.587  -7.773  1.00  0.00    -0.225 NA
ATOM     88  C   UNL     1       7.109   2.000  -7.399  1.00  0.00     0.184 A 
ATOM     89  Cl  UNL     1       7.838   0.749  -8.323  1.00  0.00    -0.050 Cl
ENDBRANCH  78  80
ENDBRANCH  77  78
ENDBRANCH  76  77
ENDBRANCH  75  76
ENDBRANCH  74  75
ENDBRANCH  73  74
ENDBRANCH  72  73
ENDBRANCH  71  72
ENDBRANCH  70  71
ENDBRANCH   1  70
TORSDOF 23
