REMARK SMILES Cc1ncccc1NC(=O)NC[C@H]1CCC[C@H]1C(=O)OCCOCCOCCOCCOC(=O)c1ccc(-c2c3nc(c(-c4ccc(S(=O)(=O)[O-])cc4)c4ccc([nH]4)c(-c4ccc(S(=O)(=O)[O-])cc4)c4nc(c(-c5ccc(S(=O)(=O)[O-])cc5)c5ccc2[nH]5)C=C4)C=C3)cc1
REMARK SMILES IDX 26 1 25 2 24 3 23 4 22 5 21 6 20 7 18 8 19 9 17 10 13 11
REMARK SMILES IDX 14 12 15 13 16 14 12 15 11 16 8 17 9 18 10 20 7 22 1 23 2 24
REMARK SMILES IDX 3 25 4 26 6 27 5 28 27 29 28 30 29 31 30 32 31 33 32 34
REMARK SMILES IDX 33 35 34 36 35 37 36 38 94 39 37 40 93 41 38 42 39 43 40 44
REMARK SMILES IDX 87 45 41 46 92 47 86 48 88 49 42 50 91 51 85 52 84 53 43 55
REMARK SMILES IDX 73 56 54 57 72 58 55 59 58 60 71 61 89 62 56 63 57 64 70 66
REMARK SMILES IDX 90 67 59 68 44 69 45 70 53 71 46 72 52 73 47 74 48 75 49 76
REMARK SMILES IDX 50 77 51 78 74 79 75 80 83 81 76 82 82 83 77 84 78 85 79 86
REMARK SMILES IDX 80 87 81 88 60 89 61 90 69 91 62 92 68 93 63 94 64 95 65 96
REMARK SMILES IDX 66 97 67 98
REMARK H PARENT 8 19 11 21 88 54 58 65
REMARK Flexibility Score: inf
ROOT
ATOM      1  O   UNL     1      -3.582  -0.478   1.308  1.00  0.00    -0.377 OA
ENDROOT
BRANCH   1   2
ATOM      2  C   UNL     1      -2.240  -0.154   0.997  1.00  0.00     0.188 C 
BRANCH   2   3
ATOM      3  C   UNL     1      -1.943   1.017   0.057  1.00  0.00     0.188 C 
BRANCH   3   4
ATOM      4  O   UNL     1      -2.529   2.265   0.347  1.00  0.00    -0.376 OA
BRANCH   4   5
ATOM      5  C   UNL     1      -3.645   2.796  -0.358  1.00  0.00     0.202 C 
BRANCH   5   6
ATOM      6  C   UNL     1      -4.259   2.249  -1.663  1.00  0.00     0.261 C 
BRANCH   6   7
ATOM      7  O   UNL     1      -3.970   0.888  -1.990  1.00  0.00    -0.463 OA
BRANCH   7   8
ATOM      8  C   UNL     1      -3.124   0.722  -3.039  1.00  0.00     0.309 C 
ATOM      9  O   UNL     1      -2.655   1.637  -3.710  1.00  0.00    -0.252 OA
BRANCH   8  10
ATOM     10  C   UNL     1      -2.694  -0.710  -3.263  1.00  0.00     0.104 C 
ATOM     11  C   UNL     1      -2.774  -1.807  -2.198  1.00  0.00     0.022 C 
ATOM     12  C   UNL     1      -2.285  -3.005  -3.041  1.00  0.00     0.006 C 
ATOM     13  C   UNL     1      -3.032  -2.839  -4.364  1.00  0.00     0.001 C 
ATOM     14  C   UNL     1      -3.284  -1.336  -4.516  1.00  0.00     0.016 C 
BRANCH  11  15
ATOM     15  C   UNL     1      -4.092  -2.227  -1.524  1.00  0.00     0.122 C 
BRANCH  15  16
ATOM     16  N   UNL     1      -5.284  -1.462  -1.746  1.00  0.00    -0.338 N 
ATOM     17  N   UNL     1      -7.040  -3.056  -2.064  1.00  0.00    -0.306 N 
ATOM     18  C   UNL     1      -6.567  -1.797  -1.956  1.00  0.00     0.319 C 
ATOM     19  H   UNL     1      -7.923  -3.080  -2.498  1.00  0.00     0.171 HD
ATOM     20  O   UNL     1      -7.353  -0.869  -2.169  1.00  0.00    -0.249 OA
ATOM     21  H   UNL     1      -5.130  -0.489  -1.743  1.00  0.00     0.165 HD
BRANCH  17  22
ATOM     22  C   UNL     1      -6.593  -4.346  -1.713  1.00  0.00     0.064 A 
ATOM     23  C   UNL     1      -8.082  -5.435  -3.491  1.00  0.00     0.069 C 
ATOM     24  C   UNL     1      -7.006  -5.474  -2.444  1.00  0.00     0.061 A 
ATOM     25  N   UNL     1      -6.494  -6.720  -2.229  1.00  0.00    -0.259 NA
ATOM     26  C   UNL     1      -5.591  -6.870  -1.241  1.00  0.00     0.111 A 
ATOM     27  C   UNL     1      -5.759  -4.581  -0.618  1.00  0.00     0.030 A 
ATOM     28  C   UNL     1      -5.215  -5.845  -0.399  1.00  0.00     0.022 A 
ENDBRANCH  17  22
ENDBRANCH  15  16
ENDBRANCH  11  15
ENDBRANCH   8  10
ENDBRANCH   7   8
ENDBRANCH   6   7
ENDBRANCH   5   6
ENDBRANCH   4   5
ENDBRANCH   3   4
ENDBRANCH   2   3
ENDBRANCH   1   2
BRANCH   1  29
ATOM     29  C   UNL     1      -4.400   0.502   1.931  1.00  0.00     0.188 C 
BRANCH  29  30
ATOM     30  C   UNL     1      -3.809   1.422   3.022  1.00  0.00     0.188 C 
BRANCH  30  31
ATOM     31  O   UNL     1      -2.461   1.173   3.382  1.00  0.00    -0.376 OA
BRANCH  31  32
ATOM     32  C   UNL     1      -2.224   0.305   4.488  1.00  0.00     0.202 C 
BRANCH  32  33
ATOM     33  C   UNL     1      -2.766  -1.134   4.399  1.00  0.00     0.261 C 
BRANCH  33  34
ATOM     34  O   UNL     1      -4.195  -1.259   4.314  1.00  0.00    -0.460 OA
BRANCH  34  35
ATOM     35  C   UNL     1      -4.917  -0.718   5.316  1.00  0.00     0.338 C 
ATOM     36  O   UNL     1      -4.494  -0.173   6.323  1.00  0.00    -0.246 OA
BRANCH  35  37
ATOM     37  C   UNL     1      -6.332  -0.729   4.913  1.00  0.00     0.060 A 
ATOM     38  C   UNL     1      -6.992   0.493   4.733  1.00  0.00     0.016 A 
ATOM     39  C   UNL     1      -7.008  -1.939   4.745  1.00  0.00     0.016 A 
ATOM     40  C   UNL     1      -8.350   0.509   4.425  1.00  0.00     0.010 A 
ATOM     41  C   UNL     1      -8.374  -1.920   4.460  1.00  0.00     0.010 A 
ATOM     42  C   UNL     1      -9.057  -0.697   4.340  1.00  0.00    -0.014 A 
BRANCH  42  43
ATOM     43  C   UNL     1     -10.538  -0.670   4.347  1.00  0.00     0.031 A 
ATOM     44  C   UNL     1     -11.246  -0.883   5.658  1.00  0.00     0.074 A 
ATOM     45  C   UNL     1     -11.238  -0.431   3.225  1.00  0.00     0.049 A 
ATOM     46  N   UNL     1     -12.528  -0.932   5.910  1.00  0.00    -0.248 NA
ATOM     47  C   UNL     1     -10.391  -1.067   6.843  1.00  0.00     0.031 C 
ATOM     48  C   UNL     1     -10.664  -0.152   1.910  1.00  0.00     0.029 A 
ATOM     49  N   UNL     1     -12.594  -0.386   3.019  1.00  0.00    -0.354 N 
ATOM     50  C   UNL     1     -12.633  -1.167   7.276  1.00  0.00     0.074 A 
ATOM     51  C   UNL     1     -11.287  -1.278   7.794  1.00  0.00     0.031 C 
ATOM     52  C   UNL     1     -11.664   0.031   1.030  1.00  0.00     0.029 A 
ATOM     53  C   UNL     1     -12.945  -0.156   1.711  1.00  0.00     0.049 A 
ATOM     54  H   UNL     1     -13.253  -0.507   3.741  1.00  0.00     0.167 HD
ATOM     55  C   UNL     1     -13.750  -1.277   8.033  1.00  0.00     0.031 A 
ATOM     56  C   UNL     1     -14.160  -0.123   1.128  1.00  0.00     0.031 A 
ATOM     57  C   UNL     1     -15.086  -1.184   7.508  1.00  0.00     0.049 A 
ATOM     58  C   UNL     1     -15.389  -0.337   1.975  1.00  0.00     0.074 A 
ATOM     59  C   UNL     1     -16.286  -1.268   8.191  1.00  0.00     0.029 A 
ATOM     60  N   UNL     1     -15.400  -1.001   6.169  1.00  0.00    -0.354 N 
ATOM     61  N   UNL     1     -15.477  -0.534   3.270  1.00  0.00    -0.248 NA
ATOM     62  C   UNL     1     -16.685  -0.315   1.282  1.00  0.00     0.031 C 
ATOM     63  C   UNL     1     -17.325  -1.207   7.257  1.00  0.00     0.029 A 
ATOM     64  C   UNL     1     -16.775  -1.005   6.001  1.00  0.00     0.049 A 
ATOM     65  H   UNL     1     -14.743  -0.885   5.445  1.00  0.00     0.167 HD
ATOM     66  C   UNL     1     -16.838  -0.627   3.550  1.00  0.00     0.074 A 
ATOM     67  C   UNL     1     -17.534  -0.453   2.291  1.00  0.00     0.031 C 
ATOM     68  C   UNL     1     -17.455  -0.833   4.740  1.00  0.00     0.031 A 
BRANCH  55  69
ATOM     69  C   UNL     1     -13.570  -1.564   9.501  1.00  0.00    -0.014 A 
ATOM     70  C   UNL     1     -13.026  -0.607  10.378  1.00  0.00     0.010 A 
ATOM     71  C   UNL     1     -13.973  -2.810  10.016  1.00  0.00     0.010 A 
ATOM     72  C   UNL     1     -12.847  -0.908  11.731  1.00  0.00     0.020 A 
ATOM     73  C   UNL     1     -13.826  -3.103  11.374  1.00  0.00     0.020 A 
ATOM     74  C   UNL     1     -13.246  -2.156  12.220  1.00  0.00     0.054 A 
BRANCH  74  75
ATOM     75  S   UNL     1     -13.012  -2.515  13.982  1.00  0.00     0.124 S 
ATOM     76  O   UNL     1     -11.559  -2.643  14.073  1.00  0.00    -0.237 OA
ATOM     77  O   UNL     1     -13.579  -1.333  14.627  1.00  0.00    -0.237 OA
ATOM     78  O   UNL     1     -13.759  -3.753  14.187  1.00  0.00    -0.744 OA
ENDBRANCH  74  75
ENDBRANCH  55  69
BRANCH  56  79
ATOM     79  C   UNL     1     -14.274   0.107  -0.339  1.00  0.00    -0.014 A 
ATOM     80  C   UNL     1     -14.844   1.291  -0.839  1.00  0.00     0.010 A 
ATOM     81  C   UNL     1     -13.806  -0.861  -1.248  1.00  0.00     0.010 A 
ATOM     82  C   UNL     1     -14.954   1.498  -2.217  1.00  0.00     0.020 A 
ATOM     83  C   UNL     1     -13.886  -0.644  -2.626  1.00  0.00     0.020 A 
ATOM     84  C   UNL     1     -14.469   0.531  -3.103  1.00  0.00     0.054 A 
BRANCH  84  85
ATOM     85  S   UNL     1     -14.571   0.849  -4.886  1.00  0.00     0.124 S 
ATOM     86  O   UNL     1     -16.006   0.743  -5.132  1.00  0.00    -0.237 OA
ATOM     87  O   UNL     1     -14.007   2.192  -4.998  1.00  0.00    -0.237 OA
ATOM     88  O   UNL     1     -13.756  -0.213  -5.472  1.00  0.00    -0.744 OA
ENDBRANCH  84  85
ENDBRANCH  56  79
BRANCH  68  89
ATOM     89  C   UNL     1     -18.964  -0.840   4.756  1.00  0.00    -0.014 A 
ATOM     90  C   UNL     1     -19.701  -1.892   4.184  1.00  0.00     0.010 A 
ATOM     91  C   UNL     1     -19.652   0.199   5.412  1.00  0.00     0.010 A 
ATOM     92  C   UNL     1     -21.098  -1.888   4.240  1.00  0.00     0.020 A 
ATOM     93  C   UNL     1     -21.046   0.189   5.499  1.00  0.00     0.020 A 
ATOM     94  C   UNL     1     -21.762  -0.848   4.899  1.00  0.00     0.054 A 
BRANCH  94  95
ATOM     95  S   UNL     1     -23.573  -0.890   4.996  1.00  0.00     0.124 S 
ATOM     96  O   UNL     1     -23.958  -0.599   3.618  1.00  0.00    -0.237 OA
ATOM     97  O   UNL     1     -23.837  -2.255   5.447  1.00  0.00    -0.237 OA
ATOM     98  O   UNL     1     -23.894   0.154   5.966  1.00  0.00    -0.744 OA
ENDBRANCH  94  95
ENDBRANCH  68  89
ENDBRANCH  42  43
ENDBRANCH  35  37
ENDBRANCH  34  35
ENDBRANCH  33  34
ENDBRANCH  32  33
ENDBRANCH  31  32
ENDBRANCH  30  31
ENDBRANCH  29  30
ENDBRANCH   1  29
TORSDOF 26
