REMARK SMILES O=C(OCCOCCOCCOCCOC(=O)c1nnn(-c2cccc(C(F)(F)F)c2)c1[C@@H]1COc2ccccc2O1)c1ccc(-c2c3nc(c(-c4ccc(S(=O)(=O)[O-])cc4)c4ccc([nH]4)c(-c4ccc(S(=O)(=O)[O-])cc4)c4nc(c(-c5ccc(S(=O)(=O)[O-])cc5)c5ccc2[nH]5)C=C4)C=C3)cc1
REMARK SMILES IDX 8 1 7 2 6 3 5 4 4 5 3 6 2 7 1 8 43 9 44 10 102 11 45 12
REMARK SMILES IDX 101 13 46 14 47 15 48 16 95 17 49 18 100 19 94 20 96 21
REMARK SMILES IDX 50 22 99 23 93 24 92 25 51 27 81 28 62 29 80 30 63 31 66 32
REMARK SMILES IDX 79 33 97 34 64 35 65 36 78 38 98 39 67 40 52 41 53 42 61 43
REMARK SMILES IDX 54 44 60 45 55 46 56 47 57 48 58 49 59 50 82 51 83 52 91 53
REMARK SMILES IDX 84 54 90 55 85 56 86 57 87 58 88 59 89 60 68 61 69 62 77 63
REMARK SMILES IDX 70 64 76 65 71 66 72 67 73 68 74 69 75 70 9 71 10 72 11 73
REMARK SMILES IDX 12 74 13 75 14 76 15 77 16 78 17 79 18 80 19 81 32 82 20 83
REMARK SMILES IDX 21 84 33 85 34 86 42 87 35 88 41 89 36 90 40 91 37 92 39 93
REMARK SMILES IDX 38 94 22 95 23 96 31 97 24 98 26 99 25 100 27 101 28 102
REMARK SMILES IDX 29 103 30 104
REMARK H PARENT 96 26 66 37
REMARK Flexibility Score: inf
ROOT
ATOM      1  C   UNL     1       2.379  -0.465   2.085  1.00  0.00     0.188 C 
ENDROOT
BRANCH   1   2
ATOM      2  C   UNL     1       2.999  -1.177   0.876  1.00  0.00     0.188 C 
BRANCH   2   3
ATOM      3  O   UNL     1       4.397  -0.961   0.822  1.00  0.00    -0.376 OA
BRANCH   3   4
ATOM      4  C   UNL     1       4.959  -0.006  -0.055  1.00  0.00     0.202 C 
BRANCH   4   5
ATOM      5  C   UNL     1       4.470   1.447  -0.042  1.00  0.00     0.261 C 
BRANCH   5   6
ATOM      6  O   UNL     1       3.061   1.700   0.092  1.00  0.00    -0.460 OA
BRANCH   6   7
ATOM      7  C   UNL     1       2.010   1.569  -0.739  1.00  0.00     0.338 C 
ATOM      8  O   UNL     1       0.923   2.023  -0.389  1.00  0.00    -0.246 OA
BRANCH   7   9
ATOM      9  C   UNL     1       2.064   0.743  -1.969  1.00  0.00     0.060 A 
ATOM     10  C   UNL     1       3.198   0.567  -2.758  1.00  0.00     0.016 A 
ATOM     11  C   UNL     1       0.854   0.136  -2.359  1.00  0.00     0.016 A 
ATOM     12  C   UNL     1       3.125  -0.180  -3.927  1.00  0.00     0.010 A 
ATOM     13  C   UNL     1       0.769  -0.589  -3.542  1.00  0.00     0.010 A 
ATOM     14  C   UNL     1       1.900  -0.700  -4.349  1.00  0.00    -0.014 A 
BRANCH  14  15
ATOM     15  C   UNL     1       1.835  -1.166  -5.729  1.00  0.00     0.031 A 
ATOM     16  C   UNL     1       2.554  -2.408  -6.109  1.00  0.00     0.074 A 
ATOM     17  C   UNL     1       1.164  -0.464  -6.663  1.00  0.00     0.049 A 
ATOM     18  N   UNL     1       3.530  -2.541  -6.950  1.00  0.00    -0.248 NA
ATOM     19  C   UNL     1       2.136  -3.659  -5.464  1.00  0.00     0.031 C 
ATOM     20  C   UNL     1       0.194   0.615  -6.449  1.00  0.00     0.029 A 
ATOM     21  N   UNL     1       1.148  -0.644  -8.014  1.00  0.00    -0.354 N 
ATOM     22  C   UNL     1       3.754  -3.910  -7.069  1.00  0.00     0.074 A 
ATOM     23  C   UNL     1       2.923  -4.547  -6.075  1.00  0.00     0.031 C 
ATOM     24  C   UNL     1      -0.477   0.835  -7.598  1.00  0.00     0.029 A 
ATOM     25  C   UNL     1       0.116   0.025  -8.648  1.00  0.00     0.049 A 
ATOM     26  H   UNL     1       1.807  -1.197  -8.493  1.00  0.00     0.167 HD
ATOM     27  C   UNL     1       4.492  -4.463  -8.071  1.00  0.00     0.031 A 
ATOM     28  C   UNL     1      -0.283  -0.127  -9.929  1.00  0.00     0.031 A 
ATOM     29  C   UNL     1       5.306  -3.510  -8.768  1.00  0.00     0.049 A 
ATOM     30  C   UNL     1       0.843  -0.690 -10.706  1.00  0.00     0.074 A 
ATOM     31  C   UNL     1       6.377  -2.706  -8.435  1.00  0.00     0.029 A 
ATOM     32  N   UNL     1       4.862  -3.064  -9.988  1.00  0.00    -0.354 N 
ATOM     33  N   UNL     1       1.948  -0.044 -10.953  1.00  0.00    -0.248 NA
ATOM     34  C   UNL     1       0.896  -2.122 -10.955  1.00  0.00     0.031 C 
ATOM     35  C   UNL     1       6.261  -1.554  -9.265  1.00  0.00     0.029 A 
ATOM     36  C   UNL     1       5.122  -1.717 -10.057  1.00  0.00     0.049 A 
ATOM     37  H   UNL     1       4.434  -3.610 -10.687  1.00  0.00     0.167 HD
ATOM     38  C   UNL     1       2.933  -1.017 -11.002  1.00  0.00     0.074 A 
ATOM     39  C   UNL     1       2.209  -2.273 -11.147  1.00  0.00     0.031 C 
ATOM     40  C   UNL     1       4.221  -0.740 -10.642  1.00  0.00     0.031 A 
BRANCH  27  41
ATOM     41  C   UNL     1       4.266  -5.857  -8.595  1.00  0.00    -0.014 A 
ATOM     42  C   UNL     1       5.243  -6.478  -9.399  1.00  0.00     0.010 A 
ATOM     43  C   UNL     1       3.004  -6.482  -8.514  1.00  0.00     0.010 A 
ATOM     44  C   UNL     1       4.963  -7.662 -10.098  1.00  0.00     0.020 A 
ATOM     45  C   UNL     1       2.728  -7.682  -9.175  1.00  0.00     0.020 A 
ATOM     46  C   UNL     1       3.701  -8.250  -9.987  1.00  0.00     0.054 A 
BRANCH  46  47
ATOM     47  S   UNL     1       3.320  -9.733 -10.956  1.00  0.00     0.124 S 
ATOM     48  O   UNL     1       3.222  -9.192 -12.308  1.00  0.00    -0.237 OA
ATOM     49  O   UNL     1       4.477 -10.586 -10.697  1.00  0.00    -0.237 OA
ATOM     50  O   UNL     1       2.064 -10.206 -10.376  1.00  0.00    -0.744 OA
ENDBRANCH  46  47
ENDBRANCH  27  41
BRANCH  28  51
ATOM     51  C   UNL     1      -1.683  -0.097 -10.406  1.00  0.00    -0.014 A 
ATOM     52  C   UNL     1      -1.989   0.037 -11.769  1.00  0.00     0.010 A 
ATOM     53  C   UNL     1      -2.728  -0.449  -9.523  1.00  0.00     0.010 A 
ATOM     54  C   UNL     1      -3.288  -0.219 -12.238  1.00  0.00     0.020 A 
ATOM     55  C   UNL     1      -4.024  -0.691  -9.980  1.00  0.00     0.020 A 
ATOM     56  C   UNL     1      -4.293  -0.597 -11.341  1.00  0.00     0.054 A 
BRANCH  56  57
ATOM     57  S   UNL     1      -5.920  -1.089 -11.974  1.00  0.00     0.124 S 
ATOM     58  O   UNL     1      -6.481   0.187 -12.408  1.00  0.00    -0.237 OA
ATOM     59  O   UNL     1      -5.574  -2.025 -13.041  1.00  0.00    -0.237 OA
ATOM     60  O   UNL     1      -6.573  -1.692 -10.813  1.00  0.00    -0.744 OA
ENDBRANCH  56  57
ENDBRANCH  28  51
BRANCH  40  61
ATOM     61  C   UNL     1       4.634   0.713 -10.535  1.00  0.00    -0.014 A 
ATOM     62  C   UNL     1       4.035   1.607  -9.626  1.00  0.00     0.010 A 
ATOM     63  C   UNL     1       5.751   1.155 -11.267  1.00  0.00     0.010 A 
ATOM     64  C   UNL     1       4.520   2.913  -9.473  1.00  0.00     0.020 A 
ATOM     65  C   UNL     1       6.253   2.452 -11.105  1.00  0.00     0.020 A 
ATOM     66  C   UNL     1       5.629   3.327 -10.214  1.00  0.00     0.054 A 
BRANCH  66  67
ATOM     67  S   UNL     1       6.295   4.995  -9.948  1.00  0.00     0.124 S 
ATOM     68  O   UNL     1       5.292   5.842 -10.588  1.00  0.00    -0.237 OA
ATOM     69  O   UNL     1       6.361   5.091  -8.491  1.00  0.00    -0.237 OA
ATOM     70  O   UNL     1       7.595   4.961 -10.615  1.00  0.00    -0.744 OA
ENDBRANCH  66  67
ENDBRANCH  40  61
ENDBRANCH  14  15
ENDBRANCH   7   9
ENDBRANCH   6   7
ENDBRANCH   5   6
ENDBRANCH   4   5
ENDBRANCH   3   4
ENDBRANCH   2   3
ENDBRANCH   1   2
BRANCH   1  71
ATOM     71  O   UNL     1       2.953  -0.861   3.338  1.00  0.00    -0.377 OA
BRANCH  71  72
ATOM     72  C   UNL     1       4.323  -0.503   3.501  1.00  0.00     0.188 C 
BRANCH  72  73
ATOM     73  C   UNL     1       5.382  -1.629   3.381  1.00  0.00     0.188 C 
BRANCH  73  74
ATOM     74  O   UNL     1       5.114  -3.017   3.562  1.00  0.00    -0.376 OA
BRANCH  74  75
ATOM     75  C   UNL     1       3.796  -3.491   3.753  1.00  0.00     0.202 C 
BRANCH  75  76
ATOM     76  C   UNL     1       3.344  -3.469   5.216  1.00  0.00     0.261 C 
BRANCH  76  77
ATOM     77  O   UNL     1       3.666  -2.244   5.890  1.00  0.00    -0.458 OA
BRANCH  77  78
ATOM     78  C   UNL     1       4.881  -2.231   6.522  1.00  0.00     0.361 C 
ATOM     79  O   UNL     1       5.584  -3.208   6.695  1.00  0.00    -0.244 OA
BRANCH  78  80
ATOM     80  C   UNL     1       5.279  -0.883   6.922  1.00  0.00     0.198 A 
ATOM     81  N   UNL     1       6.598  -0.504   6.852  1.00  0.00    -0.122 NA
ATOM     82  C   UNL     1       4.516   0.216   7.307  1.00  0.00     0.123 A 
ATOM     83  N   UNL     1       6.680   0.776   7.173  1.00  0.00    -0.061 NA
ATOM     84  N   UNL     1       5.475   1.159   7.652  1.00  0.00    -0.213 N 
BRANCH  82  85
ATOM     85  C   UNL     1       3.034   0.459   7.301  1.00  0.00     0.262 C 
ATOM     86  C   UNL     1       2.568   1.543   6.316  1.00  0.00     0.281 C 
ATOM     87  O   UNL     1       2.567   0.655   8.640  1.00  0.00    -0.477 OA
ATOM     88  O   UNL     1       2.849   2.863   6.786  1.00  0.00    -0.485 OA
ATOM     89  C   UNL     1       2.198   1.942   8.934  1.00  0.00     0.162 A 
ATOM     90  C   UNL     1       2.360   3.016   8.055  1.00  0.00     0.161 A 
ATOM     91  C   UNL     1       1.715   2.169  10.221  1.00  0.00     0.050 A 
ATOM     92  C   UNL     1       2.088   4.317   8.474  1.00  0.00     0.050 A 
ATOM     93  C   UNL     1       1.424   3.469  10.637  1.00  0.00     0.004 A 
ATOM     94  C   UNL     1       1.619   4.543   9.768  1.00  0.00     0.004 A 
ENDBRANCH  82  85
BRANCH  84  95
ATOM     95  C   UNL     1       5.483   2.038   8.749  1.00  0.00     0.067 A 
ATOM     96  C   UNL     1       5.778   3.388   8.557  1.00  0.00     0.028 A 
ATOM     97  C   UNL     1       5.304   1.508  10.034  1.00  0.00     0.041 A 
ATOM     98  C   UNL     1       5.809   4.234   9.665  1.00  0.00     0.003 A 
ATOM     99  C   UNL     1       5.391   2.345  11.151  1.00  0.00     0.058 A 
ATOM    100  C   UNL     1       5.615   3.718  10.952  1.00  0.00     0.013 A 
BRANCH  99 101
ATOM    101  C   UNL     1       5.236   1.783  12.540  1.00  0.00     0.416 C 
ATOM    102  F   UNL     1       6.141   2.295  13.421  1.00  0.00    -0.166 F 
ATOM    103  F   UNL     1       4.010   2.039  13.076  1.00  0.00    -0.166 F 
ATOM    104  F   UNL     1       5.392   0.430  12.600  1.00  0.00    -0.166 F 
ENDBRANCH  99 101
ENDBRANCH  84  95
ENDBRANCH  78  80
ENDBRANCH  77  78
ENDBRANCH  76  77
ENDBRANCH  75  76
ENDBRANCH  74  75
ENDBRANCH  73  74
ENDBRANCH  72  73
ENDBRANCH  71  72
ENDBRANCH   1  71
TORSDOF 26
