REMARK SMILES Cc1ccc(C(=O)OCCOCCOCCOCCOC(=O)c2ccc(-c3c4nc(c(-c5ccc(S(=O)(=O)[O-])cc5)c5ccc([nH]5)c(-c5ccc(S(=O)(=O)[O-])cc5)c5nc(c(-c6ccc(S(=O)(=O)[O-])cc6)c6ccc3[nH]6)C=C5)C=C4)cc2)c(Oc2cccc(F)c2C(N)=O)c1
REMARK SMILES IDX 14 1 13 2 12 3 11 4 10 5 9 6 8 7 6 8 7 9 5 10 1 11 2 12 3 13
REMARK SMILES IDX 95 14 4 15 83 16 84 17 85 18 86 19 91 20 87 21 89 22 88 23
REMARK SMILES IDX 90 24 92 25 93 26 94 27 15 30 16 31 17 32 18 33 19 34 20 35
REMARK SMILES IDX 21 36 22 37 23 38 24 39 82 40 25 41 81 42 26 43 27 44 28 45
REMARK SMILES IDX 75 46 29 47 80 48 74 49 76 50 30 51 79 52 73 53 72 54 31 56
REMARK SMILES IDX 61 57 42 58 60 59 43 60 46 61 59 62 77 63 44 64 45 65 58 67
REMARK SMILES IDX 78 68 47 69 32 70 33 71 41 72 34 73 40 74 35 75 36 76 37 77
REMARK SMILES IDX 38 78 39 79 62 80 63 81 71 82 64 83 70 84 65 85 66 86 67 87
REMARK SMILES IDX 68 88 69 89 48 90 49 91 57 92 50 93 56 94 51 95 52 96 53 97
REMARK SMILES IDX 54 98 55 99
REMARK H PARENT 93 28 93 29 76 55 46 66
REMARK Flexibility Score: inf
ROOT
ATOM      1  O   UNL     1      -2.483   0.639  -2.324  1.00  0.00    -0.377 OA
ENDROOT
BRANCH   1   2
ATOM      2  C   UNL     1      -1.828  -0.532  -2.789  1.00  0.00     0.188 C 
BRANCH   2   3
ATOM      3  C   UNL     1      -2.166  -1.904  -2.183  1.00  0.00     0.188 C 
BRANCH   3   4
ATOM      4  O   UNL     1      -3.515  -2.292  -2.003  1.00  0.00    -0.376 OA
BRANCH   4   5
ATOM      5  C   UNL     1      -4.191  -1.662  -0.917  1.00  0.00     0.202 C 
BRANCH   5   6
ATOM      6  C   UNL     1      -3.458  -1.595   0.410  1.00  0.00     0.261 C 
BRANCH   6   7
ATOM      7  O   UNL     1      -2.494  -0.540   0.315  1.00  0.00    -0.460 OA
BRANCH   7   8
ATOM      8  C   UNL     1      -1.561  -0.566   1.277  1.00  0.00     0.342 C 
ATOM      9  O   UNL     1      -1.605  -1.111   2.358  1.00  0.00    -0.246 OA
BRANCH   8  10
ATOM     10  C   UNL     1      -0.281  -0.268   0.630  1.00  0.00     0.102 A 
ATOM     11  C   UNL     1       3.843   0.123  -0.303  1.00  0.00     0.044 C 
ATOM     12  C   UNL     1       2.372  -0.016  -0.073  1.00  0.00    -0.047 A 
ATOM     13  C   UNL     1       1.833  -1.291   0.084  1.00  0.00     0.004 A 
ATOM     14  C   UNL     1       1.546   1.120   0.015  1.00  0.00     0.051 A 
ATOM     15  C   UNL     1       0.517  -1.414   0.478  1.00  0.00     0.020 A 
ATOM     16  C   UNL     1       0.179   1.007   0.284  1.00  0.00     0.142 A 
BRANCH  16  17
ATOM     17  O   UNL     1      -0.723   2.047   0.219  1.00  0.00    -0.455 OA
BRANCH  17  18
ATOM     18  C   UNL     1      -0.309   3.335  -0.062  1.00  0.00     0.143 A 
ATOM     19  C   UNL     1      -0.618   4.270   0.939  1.00  0.00     0.048 A 
ATOM     20  C   UNL     1       0.315   3.787  -1.240  1.00  0.00     0.117 A 
ATOM     21  C   UNL     1      -0.244   5.611   0.813  1.00  0.00     0.007 A 
ATOM     22  C   UNL     1       0.699   5.129  -1.344  1.00  0.00     0.139 A 
ATOM     23  C   UNL     1       0.432   6.037  -0.325  1.00  0.00     0.040 A 
ATOM     24  F   UNL     1       1.315   5.594  -2.442  1.00  0.00    -0.206 F 
BRANCH  20  25
ATOM     25  C   UNL     1       0.618   2.960  -2.421  1.00  0.00     0.255 C 
ATOM     26  N   UNL     1      -0.402   2.222  -2.915  1.00  0.00    -0.365 N 
ATOM     27  O   UNL     1       1.722   2.966  -2.951  1.00  0.00    -0.269 OA
ATOM     28  H   UNL     1      -1.280   2.235  -2.470  1.00  0.00     0.159 HD
ATOM     29  H   UNL     1      -0.266   1.671  -3.720  1.00  0.00     0.159 HD
ENDBRANCH  20  25
ENDBRANCH  17  18
ENDBRANCH  16  17
ENDBRANCH   8  10
ENDBRANCH   7   8
ENDBRANCH   6   7
ENDBRANCH   5   6
ENDBRANCH   4   5
ENDBRANCH   3   4
ENDBRANCH   2   3
ENDBRANCH   1   2
BRANCH   1  30
ATOM     30  C   UNL     1      -3.556   1.196  -3.098  1.00  0.00     0.188 C 
BRANCH  30  31
ATOM     31  C   UNL     1      -3.742   0.747  -4.536  1.00  0.00     0.188 C 
BRANCH  31  32
ATOM     32  O   UNL     1      -4.150  -0.620  -4.485  1.00  0.00    -0.376 OA
BRANCH  32  33
ATOM     33  C   UNL     1      -4.008  -1.350  -5.687  1.00  0.00     0.202 C 
BRANCH  33  34
ATOM     34  C   UNL     1      -4.781  -0.753  -6.865  1.00  0.00     0.261 C 
BRANCH  34  35
ATOM     35  O   UNL     1      -6.188  -1.091  -6.804  1.00  0.00    -0.460 OA
BRANCH  35  36
ATOM     36  C   UNL     1      -7.069  -0.093  -6.493  1.00  0.00     0.338 C 
ATOM     37  O   UNL     1      -7.741   0.485  -7.331  1.00  0.00    -0.246 OA
BRANCH  36  38
ATOM     38  C   UNL     1      -7.294   0.025  -5.025  1.00  0.00     0.060 A 
ATOM     39  C   UNL     1      -7.804   1.188  -4.429  1.00  0.00     0.016 A 
ATOM     40  C   UNL     1      -6.945  -1.038  -4.213  1.00  0.00     0.016 A 
ATOM     41  C   UNL     1      -7.793   1.346  -3.026  1.00  0.00     0.010 A 
ATOM     42  C   UNL     1      -6.881  -0.856  -2.845  1.00  0.00     0.010 A 
ATOM     43  C   UNL     1      -7.259   0.344  -2.220  1.00  0.00    -0.014 A 
BRANCH  43  44
ATOM     44  C   UNL     1      -6.926   0.447  -0.777  1.00  0.00     0.031 A 
ATOM     45  C   UNL     1      -7.307  -0.690   0.142  1.00  0.00     0.074 A 
ATOM     46  C   UNL     1      -5.947   1.312  -0.388  1.00  0.00     0.049 A 
ATOM     47  N   UNL     1      -6.919  -0.822   1.366  1.00  0.00    -0.248 NA
ATOM     48  C   UNL     1      -8.114  -1.842  -0.273  1.00  0.00     0.031 C 
ATOM     49  C   UNL     1      -5.062   1.167   0.770  1.00  0.00     0.029 A 
ATOM     50  N   UNL     1      -5.430   2.461  -0.960  1.00  0.00    -0.354 N 
ATOM     51  C   UNL     1      -7.033  -2.149   1.729  1.00  0.00     0.074 A 
ATOM     52  C   UNL     1      -7.877  -2.721   0.710  1.00  0.00     0.031 C 
ATOM     53  C   UNL     1      -4.225   2.207   0.889  1.00  0.00     0.029 A 
ATOM     54  C   UNL     1      -4.742   3.211  -0.002  1.00  0.00     0.049 A 
ATOM     55  H   UNL     1      -5.532   2.714  -1.906  1.00  0.00     0.167 HD
ATOM     56  C   UNL     1      -6.266  -2.624   2.760  1.00  0.00     0.031 A 
ATOM     57  C   UNL     1      -5.227   4.403   0.463  1.00  0.00     0.031 A 
ATOM     58  C   UNL     1      -5.589  -1.524   3.486  1.00  0.00     0.049 A 
ATOM     59  C   UNL     1      -5.661   4.230   1.924  1.00  0.00     0.074 A 
ATOM     60  C   UNL     1      -4.277  -1.267   3.842  1.00  0.00     0.029 A 
ATOM     61  N   UNL     1      -6.290  -0.348   3.791  1.00  0.00    -0.354 N 
ATOM     62  N   UNL     1      -6.149   3.106   2.407  1.00  0.00    -0.248 NA
ATOM     63  C   UNL     1      -5.311   5.172   2.991  1.00  0.00     0.031 C 
ATOM     64  C   UNL     1      -4.164   0.121   4.149  1.00  0.00     0.029 A 
ATOM     65  C   UNL     1      -5.429   0.692   4.090  1.00  0.00     0.049 A 
ATOM     66  H   UNL     1      -7.272  -0.272   3.791  1.00  0.00     0.167 HD
ATOM     67  C   UNL     1      -5.960   3.078   3.767  1.00  0.00     0.074 A 
ATOM     68  C   UNL     1      -5.527   4.431   4.096  1.00  0.00     0.031 C 
ATOM     69  C   UNL     1      -5.931   1.972   4.575  1.00  0.00     0.031 A 
BRANCH  56  70
ATOM     70  C   UNL     1      -5.926  -4.107   3.002  1.00  0.00    -0.014 A 
ATOM     71  C   UNL     1      -5.037  -4.464   4.044  1.00  0.00     0.010 A 
ATOM     72  C   UNL     1      -6.364  -5.189   2.207  1.00  0.00     0.010 A 
ATOM     73  C   UNL     1      -4.599  -5.786   4.265  1.00  0.00     0.020 A 
ATOM     74  C   UNL     1      -5.963  -6.525   2.437  1.00  0.00     0.020 A 
ATOM     75  C   UNL     1      -5.071  -6.816   3.462  1.00  0.00     0.054 A 
BRANCH  75  76
ATOM     76  S   UNL     1      -4.538  -8.521   3.796  1.00  0.00     0.124 S 
ATOM     77  O   UNL     1      -3.122  -8.486   3.439  1.00  0.00    -0.237 OA
ATOM     78  O   UNL     1      -4.824  -8.673   5.220  1.00  0.00    -0.237 OA
ATOM     79  O   UNL     1      -5.378  -9.327   2.911  1.00  0.00    -0.744 OA
ENDBRANCH  75  76
ENDBRANCH  56  70
BRANCH  57  80
ATOM     80  C   UNL     1      -5.747   5.237  -0.670  1.00  0.00    -0.014 A 
ATOM     81  C   UNL     1      -4.727   5.726  -1.530  1.00  0.00     0.010 A 
ATOM     82  C   UNL     1      -7.012   4.975  -1.235  1.00  0.00     0.010 A 
ATOM     83  C   UNL     1      -4.879   5.693  -2.922  1.00  0.00     0.020 A 
ATOM     84  C   UNL     1      -7.173   4.967  -2.638  1.00  0.00     0.020 A 
ATOM     85  C   UNL     1      -6.081   5.249  -3.468  1.00  0.00     0.054 A 
BRANCH  85  86
ATOM     86  S   UNL     1      -6.094   4.812  -5.239  1.00  0.00     0.124 S 
ATOM     87  O   UNL     1      -5.869   6.100  -5.883  1.00  0.00    -0.237 OA
ATOM     88  O   UNL     1      -4.987   3.858  -5.320  1.00  0.00    -0.237 OA
ATOM     89  O   UNL     1      -7.419   4.235  -5.435  1.00  0.00    -0.744 OA
ENDBRANCH  85  86
ENDBRANCH  57  80
BRANCH  69  90
ATOM     90  C   UNL     1      -6.326   2.014   6.031  1.00  0.00    -0.014 A 
ATOM     91  C   UNL     1      -7.091   3.057   6.567  1.00  0.00     0.010 A 
ATOM     92  C   UNL     1      -6.143   0.858   6.834  1.00  0.00     0.010 A 
ATOM     93  C   UNL     1      -7.624   2.964   7.853  1.00  0.00     0.020 A 
ATOM     94  C   UNL     1      -6.709   0.738   8.100  1.00  0.00     0.020 A 
ATOM     95  C   UNL     1      -7.437   1.803   8.607  1.00  0.00     0.054 A 
BRANCH  95  96
ATOM     96  S   UNL     1      -8.219   1.681  10.227  1.00  0.00     0.124 S 
ATOM     97  O   UNL     1      -7.341   2.516  11.043  1.00  0.00    -0.237 OA
ATOM     98  O   UNL     1      -9.553   2.225   9.980  1.00  0.00    -0.237 OA
ATOM     99  O   UNL     1      -8.181   0.252  10.527  1.00  0.00    -0.744 OA
ENDBRANCH  95  96
ENDBRANCH  69  90
ENDBRANCH  43  44
ENDBRANCH  36  38
ENDBRANCH  35  36
ENDBRANCH  34  35
ENDBRANCH  33  34
ENDBRANCH  32  33
ENDBRANCH  31  32
ENDBRANCH  30  31
ENDBRANCH   1  30
TORSDOF 26
