REMARK SMILES O=C(CCCCCN1C(=O)[C@@H]2CC=CC[C@H]2C1=O)OCCOCCOCCOCCOC(=O)c1ccc(-c2c3nc(c(-c4ccc(S(=O)(=O)[O-])cc4)c4ccc([nH]4)c(-c4ccc(S(=O)(=O)[O-])cc4)c4nc(c(-c5ccc(S(=O)(=O)[O-])cc5)c5ccc2[nH]5)C=C4)C=C3)cc1
REMARK SMILES IDX 24 1 23 2 22 3 21 4 20 5 19 6 2 7 1 8 3 9 4 10 5 11 6 12
REMARK SMILES IDX 7 13 8 14 9 15 17 16 10 17 11 18 16 19 18 20 12 21 15 22
REMARK SMILES IDX 13 23 14 24 25 25 26 26 27 27 28 28 29 29 30 30 31 31 32 32
REMARK SMILES IDX 33 33 34 34 35 35 93 36 36 37 92 38 37 39 38 40 39 41 86 42
REMARK SMILES IDX 40 43 91 44 85 45 87 46 41 47 90 48 84 49 83 50 42 52 72 53
REMARK SMILES IDX 53 54 71 55 54 56 57 57 70 58 88 59 55 60 56 61 69 63 89 64
REMARK SMILES IDX 58 65 43 66 44 67 52 68 45 69 51 70 46 71 47 72 48 73 49 74
REMARK SMILES IDX 50 75 73 76 74 77 82 78 75 79 81 80 76 81 77 82 78 83 79 84
REMARK SMILES IDX 80 85 59 86 60 87 68 88 61 89 67 90 62 91 63 92 64 93 65 94
REMARK SMILES IDX 66 95
REMARK H PARENT 87 51 57 62
REMARK Flexibility Score: inf
ROOT
ATOM      1  C   UNL     1       2.245  -2.603   1.661  1.00  0.00     0.188 C 
ENDROOT
BRANCH   1   2
ATOM      2  C   UNL     1       2.420  -1.671   0.470  1.00  0.00     0.188 C 
BRANCH   2   3
ATOM      3  O   UNL     1       3.463  -0.703   0.580  1.00  0.00    -0.376 OA
BRANCH   3   4
ATOM      4  C   UNL     1       3.598   0.007   1.793  1.00  0.00     0.202 C 
BRANCH   4   5
ATOM      5  C   UNL     1       3.101   1.440   1.703  1.00  0.00     0.261 C 
BRANCH   5   6
ATOM      6  O   UNL     1       1.988   1.681   0.819  1.00  0.00    -0.463 OA
BRANCH   6   7
ATOM      7  C   UNL     1       1.743   1.457  -0.480  1.00  0.00     0.305 C 
ATOM      8  O   UNL     1       0.569   1.572  -0.851  1.00  0.00    -0.252 OA
BRANCH   7   9
ATOM      9  C   UNL     1       2.764   0.997  -1.510  1.00  0.00     0.123 C 
BRANCH   9  10
ATOM     10  C   UNL     1       4.025   1.793  -1.791  1.00  0.00     0.012 C 
BRANCH  10  11
ATOM     11  C   UNL     1       5.251   1.511  -0.920  1.00  0.00     0.002 C 
BRANCH  11  12
ATOM     12  C   UNL     1       6.030   0.208  -1.159  1.00  0.00     0.022 C 
BRANCH  12  13
ATOM     13  C   UNL     1       6.732   0.052  -2.516  1.00  0.00     0.128 C 
BRANCH  13  14
ATOM     14  N   UNL     1       7.685   1.117  -2.761  1.00  0.00    -0.282 N 
ATOM     15  C   UNL     1       7.328   2.418  -3.006  1.00  0.00     0.233 C 
ATOM     16  C   UNL     1       9.057   0.982  -2.833  1.00  0.00     0.233 C 
ATOM     17  O   UNL     1       6.281   2.857  -3.459  1.00  0.00    -0.274 OA
ATOM     18  C   UNL     1       8.518   3.211  -2.598  1.00  0.00     0.095 C 
ATOM     19  C   UNL     1       9.572   2.340  -3.260  1.00  0.00     0.095 C 
ATOM     20  O   UNL     1       9.724  -0.025  -2.683  1.00  0.00    -0.274 OA
ATOM     21  C   UNL     1       8.577   4.665  -2.988  1.00  0.00     0.041 C 
ATOM     22  C   UNL     1      10.963   2.788  -2.874  1.00  0.00     0.041 C 
ATOM     23  C   UNL     1      10.009   5.123  -3.062  1.00  0.00    -0.030 C 
ATOM     24  C   UNL     1      11.069   4.294  -2.991  1.00  0.00    -0.030 C 
ENDBRANCH  13  14
ENDBRANCH  12  13
ENDBRANCH  11  12
ENDBRANCH  10  11
ENDBRANCH   9  10
ENDBRANCH   7   9
ENDBRANCH   6   7
ENDBRANCH   5   6
ENDBRANCH   4   5
ENDBRANCH   3   4
ENDBRANCH   2   3
ENDBRANCH   1   2
BRANCH   1  25
ATOM     25  O   UNL     1       3.344  -3.419   2.053  1.00  0.00    -0.377 OA
BRANCH  25  26
ATOM     26  C   UNL     1       4.658  -3.164   1.586  1.00  0.00     0.188 C 
BRANCH  26  27
ATOM     27  C   UNL     1       5.265  -4.290   0.739  1.00  0.00     0.188 C 
BRANCH  27  28
ATOM     28  O   UNL     1       4.481  -4.809  -0.326  1.00  0.00    -0.376 OA
BRANCH  28  29
ATOM     29  C   UNL     1       3.238  -5.431  -0.006  1.00  0.00     0.202 C 
BRANCH  29  30
ATOM     30  C   UNL     1       3.155  -6.483   1.123  1.00  0.00     0.261 C 
BRANCH  30  31
ATOM     31  O   UNL     1       3.421  -5.979   2.449  1.00  0.00    -0.460 OA
BRANCH  31  32
ATOM     32  C   UNL     1       4.547  -6.432   3.052  1.00  0.00     0.338 C 
ATOM     33  O   UNL     1       5.299  -7.295   2.628  1.00  0.00    -0.246 OA
BRANCH  32  34
ATOM     34  C   UNL     1       4.895  -5.593   4.223  1.00  0.00     0.060 A 
ATOM     35  C   UNL     1       6.158  -4.979   4.245  1.00  0.00     0.016 A 
ATOM     36  C   UNL     1       4.056  -5.496   5.334  1.00  0.00     0.016 A 
ATOM     37  C   UNL     1       6.602  -4.301   5.383  1.00  0.00     0.010 A 
ATOM     38  C   UNL     1       4.517  -4.846   6.489  1.00  0.00     0.010 A 
ATOM     39  C   UNL     1       5.807  -4.282   6.534  1.00  0.00    -0.014 A 
BRANCH  39  40
ATOM     40  C   UNL     1       6.422  -3.912   7.837  1.00  0.00     0.031 A 
ATOM     41  C   UNL     1       6.964  -5.022   8.703  1.00  0.00     0.074 A 
ATOM     42  C   UNL     1       6.537  -2.634   8.241  1.00  0.00     0.049 A 
ATOM     43  N   UNL     1       7.510  -4.962   9.890  1.00  0.00    -0.248 NA
ATOM     44  C   UNL     1       6.876  -6.385   8.151  1.00  0.00     0.031 C 
ATOM     45  C   UNL     1       6.117  -1.460   7.478  1.00  0.00     0.029 A 
ATOM     46  N   UNL     1       7.044  -2.111   9.408  1.00  0.00    -0.354 N 
ATOM     47  C   UNL     1       7.818  -6.275  10.231  1.00  0.00     0.074 A 
ATOM     48  C   UNL     1       7.374  -7.112   9.139  1.00  0.00     0.031 C 
ATOM     49  C   UNL     1       6.372  -0.355   8.203  1.00  0.00     0.029 A 
ATOM     50  C   UNL     1       6.941  -0.743   9.494  1.00  0.00     0.049 A 
ATOM     51  H   UNL     1       7.444  -2.666  10.116  1.00  0.00     0.167 HD
ATOM     52  C   UNL     1       8.419  -6.746  11.350  1.00  0.00     0.031 A 
ATOM     53  C   UNL     1       7.249   0.097  10.505  1.00  0.00     0.031 A 
ATOM     54  C   UNL     1       8.843  -5.918  12.448  1.00  0.00     0.049 A 
ATOM     55  C   UNL     1       7.835  -0.459  11.781  1.00  0.00     0.074 A 
ATOM     56  C   UNL     1       9.466  -6.301  13.623  1.00  0.00     0.029 A 
ATOM     57  N   UNL     1       8.678  -4.543  12.513  1.00  0.00    -0.354 N 
ATOM     58  N   UNL     1       8.137  -1.700  12.080  1.00  0.00    -0.248 NA
ATOM     59  C   UNL     1       8.130   0.504  12.852  1.00  0.00     0.031 C 
ATOM     60  C   UNL     1       9.616  -5.167  14.427  1.00  0.00     0.029 A 
ATOM     61  C   UNL     1       9.159  -4.066  13.721  1.00  0.00     0.049 A 
ATOM     62  H   UNL     1       8.277  -3.988  11.805  1.00  0.00     0.167 HD
ATOM     63  C   UNL     1       8.690  -1.660  13.358  1.00  0.00     0.074 A 
ATOM     64  C   UNL     1       8.693  -0.272  13.768  1.00  0.00     0.031 C 
ATOM     65  C   UNL     1       9.159  -2.681  14.120  1.00  0.00     0.031 A 
BRANCH  52  66
ATOM     66  C   UNL     1       8.611  -8.237  11.461  1.00  0.00    -0.014 A 
ATOM     67  C   UNL     1       9.530  -8.921  10.644  1.00  0.00     0.010 A 
ATOM     68  C   UNL     1       7.879  -8.961  12.420  1.00  0.00     0.010 A 
ATOM     69  C   UNL     1       9.682 -10.306  10.757  1.00  0.00     0.020 A 
ATOM     70  C   UNL     1       8.052 -10.340  12.558  1.00  0.00     0.020 A 
ATOM     71  C   UNL     1       8.941 -11.007  11.713  1.00  0.00     0.054 A 
BRANCH  71  72
ATOM     72  S   UNL     1       9.177 -12.800  11.853  1.00  0.00     0.124 S 
ATOM     73  O   UNL     1       8.554 -13.282  10.623  1.00  0.00    -0.237 OA
ATOM     74  O   UNL     1      10.631 -12.926  11.911  1.00  0.00    -0.237 OA
ATOM     75  O   UNL     1       8.474 -13.148  13.085  1.00  0.00    -0.744 OA
ENDBRANCH  71  72
ENDBRANCH  52  66
BRANCH  53  76
ATOM     76  C   UNL     1       6.993   1.560  10.368  1.00  0.00    -0.014 A 
ATOM     77  C   UNL     1       8.059   2.477  10.320  1.00  0.00     0.010 A 
ATOM     78  C   UNL     1       5.674   2.047  10.304  1.00  0.00     0.010 A 
ATOM     79  C   UNL     1       7.810   3.851  10.225  1.00  0.00     0.020 A 
ATOM     80  C   UNL     1       5.422   3.416  10.177  1.00  0.00     0.020 A 
ATOM     81  C   UNL     1       6.493   4.311  10.147  1.00  0.00     0.054 A 
BRANCH  81  82
ATOM     82  S   UNL     1       6.198   6.092   9.961  1.00  0.00     0.124 S 
ATOM     83  O   UNL     1       6.568   6.602  11.277  1.00  0.00    -0.237 OA
ATOM     84  O   UNL     1       7.099   6.445   8.867  1.00  0.00    -0.237 OA
ATOM     85  O   UNL     1       4.775   6.170   9.635  1.00  0.00    -0.744 OA
ENDBRANCH  81  82
ENDBRANCH  53  76
BRANCH  65  86
ATOM     86  C   UNL     1       9.762  -2.338  15.460  1.00  0.00    -0.014 A 
ATOM     87  C   UNL     1       8.972  -1.885  16.532  1.00  0.00     0.010 A 
ATOM     88  C   UNL     1      11.142  -2.527  15.664  1.00  0.00     0.010 A 
ATOM     89  C   UNL     1       9.557  -1.591  17.768  1.00  0.00     0.020 A 
ATOM     90  C   UNL     1      11.725  -2.267  16.907  1.00  0.00     0.020 A 
ATOM     91  C   UNL     1      10.930  -1.784  17.947  1.00  0.00     0.054 A 
BRANCH  91  92
ATOM     92  S   UNL     1      11.658  -1.427  19.570  1.00  0.00     0.124 S 
ATOM     93  O   UNL     1      11.609   0.032  19.611  1.00  0.00    -0.237 OA
ATOM     94  O   UNL     1      10.750  -2.112  20.486  1.00  0.00    -0.237 OA
ATOM     95  O   UNL     1      12.999  -2.002  19.484  1.00  0.00    -0.744 OA
ENDBRANCH  91  92
ENDBRANCH  65  86
ENDBRANCH  39  40
ENDBRANCH  32  34
ENDBRANCH  31  32
ENDBRANCH  30  31
ENDBRANCH  29  30
ENDBRANCH  28  29
ENDBRANCH  27  28
ENDBRANCH  26  27
ENDBRANCH  25  26
ENDBRANCH   1  25
TORSDOF 28
