REMARK SMILES O=C(OCCOCCOCCOCCOC(=O)[C@@H](Cc1ccccc1)/N=C1\C(=O)c2ccccc2C(=O)[C@H]1Cl)c1ccc(-c2c3nc(c(-c4ccc(S(=O)(=O)[O-])cc4)c4ccc([nH]4)c(-c4ccc(S(=O)(=O)[O-])cc4)c4nc(c(-c5ccc(S(=O)(=O)[O-])cc5)c5ccc2[nH]5)C=C4)C=C3)cc1
REMARK SMILES IDX 8 1 7 2 6 3 5 4 4 5 3 6 2 7 1 8 40 9 41 10 99 11 42 12 98 13
REMARK SMILES IDX 43 14 44 15 45 16 92 17 46 18 97 19 91 20 93 21 47 22 96 23
REMARK SMILES IDX 90 24 89 25 48 27 78 28 59 29 77 30 60 31 63 32 76 33 94 34
REMARK SMILES IDX 61 35 62 36 75 38 95 39 64 40 49 41 50 42 58 43 51 44 57 45
REMARK SMILES IDX 52 46 53 47 54 48 55 49 56 50 79 51 80 52 88 53 81 54 87 55
REMARK SMILES IDX 82 56 83 57 84 58 85 59 86 60 65 61 66 62 74 63 67 64 73 65
REMARK SMILES IDX 68 66 69 67 70 68 71 69 72 70 9 71 10 72 11 73 12 74 13 75
REMARK SMILES IDX 14 76 15 77 16 78 17 79 18 80 19 81 20 82 21 83 25 84 22 85
REMARK SMILES IDX 24 86 23 87 26 88 27 89 28 90 38 91 29 92 30 93 36 94 39 95
REMARK SMILES IDX 31 96 35 97 37 98 32 99 34 100 33 101
REMARK H PARENT 93 26 63 37
REMARK Flexibility Score: inf
ROOT
ATOM      1  C   UNL     1       2.912  -1.209   1.445  1.00  0.00     0.188 C 
ENDROOT
BRANCH   1   2
ATOM      2  C   UNL     1       3.120   0.305   1.530  1.00  0.00     0.188 C 
BRANCH   2   3
ATOM      3  O   UNL     1       4.335   0.675   0.862  1.00  0.00    -0.376 OA
BRANCH   3   4
ATOM      4  C   UNL     1       4.391   2.065   0.529  1.00  0.00     0.202 C 
BRANCH   4   5
ATOM      5  C   UNL     1       3.997   2.301  -0.934  1.00  0.00     0.261 C 
BRANCH   5   6
ATOM      6  O   UNL     1       2.597   1.990  -1.102  1.00  0.00    -0.460 OA
BRANCH   6   7
ATOM      7  C   UNL     1       2.043   0.967  -1.792  1.00  0.00     0.338 C 
ATOM      8  O   UNL     1       0.824   0.813  -1.775  1.00  0.00    -0.246 OA
BRANCH   7   9
ATOM      9  C   UNL     1       2.853   0.054  -2.635  1.00  0.00     0.060 A 
ATOM     10  C   UNL     1       3.986  -0.622  -2.172  1.00  0.00     0.016 A 
ATOM     11  C   UNL     1       2.365  -0.236  -3.916  1.00  0.00     0.016 A 
ATOM     12  C   UNL     1       4.659  -1.529  -2.993  1.00  0.00     0.010 A 
ATOM     13  C   UNL     1       3.021  -1.161  -4.732  1.00  0.00     0.010 A 
ATOM     14  C   UNL     1       4.180  -1.804  -4.278  1.00  0.00    -0.014 A 
BRANCH  14  15
ATOM     15  C   UNL     1       4.901  -2.748  -5.159  1.00  0.00     0.031 A 
ATOM     16  C   UNL     1       5.769  -2.219  -6.261  1.00  0.00     0.074 A 
ATOM     17  C   UNL     1       4.783  -4.075  -4.970  1.00  0.00     0.049 A 
ATOM     18  N   UNL     1       6.401  -2.875  -7.199  1.00  0.00    -0.248 NA
ATOM     19  C   UNL     1       5.954  -0.761  -6.307  1.00  0.00     0.031 C 
ATOM     20  C   UNL     1       4.011  -4.717  -3.906  1.00  0.00     0.029 A 
ATOM     21  N   UNL     1       5.316  -5.120  -5.678  1.00  0.00    -0.354 N 
ATOM     22  C   UNL     1       7.047  -1.910  -7.959  1.00  0.00     0.074 A 
ATOM     23  C   UNL     1       6.733  -0.624  -7.370  1.00  0.00     0.031 C 
ATOM     24  C   UNL     1       4.125  -6.051  -4.029  1.00  0.00     0.029 A 
ATOM     25  C   UNL     1       4.946  -6.352  -5.199  1.00  0.00     0.049 A 
ATOM     26  H   UNL     1       5.909  -5.000  -6.456  1.00  0.00     0.167 HD
ATOM     27  C   UNL     1       7.833  -2.075  -9.050  1.00  0.00     0.031 A 
ATOM     28  C   UNL     1       5.212  -7.585  -5.669  1.00  0.00     0.031 A 
ATOM     29  C   UNL     1       8.162  -3.345  -9.633  1.00  0.00     0.049 A 
ATOM     30  C   UNL     1       6.006  -7.743  -6.933  1.00  0.00     0.074 A 
ATOM     31  C   UNL     1       8.966  -3.615 -10.726  1.00  0.00     0.029 A 
ATOM     32  N   UNL     1       7.696  -4.563  -9.166  1.00  0.00    -0.354 N 
ATOM     33  N   UNL     1       6.583  -6.818  -7.661  1.00  0.00    -0.248 NA
ATOM     34  C   UNL     1       6.156  -9.109  -7.453  1.00  0.00     0.031 C 
ATOM     35  C   UNL     1       8.970  -5.002 -10.931  1.00  0.00     0.029 A 
ATOM     36  C   UNL     1       8.174  -5.590  -9.961  1.00  0.00     0.049 A 
ATOM     37  H   UNL     1       7.111  -4.682  -8.383  1.00  0.00     0.167 HD
ATOM     38  C   UNL     1       7.154  -7.489  -8.736  1.00  0.00     0.074 A 
ATOM     39  C   UNL     1       6.862  -8.897  -8.557  1.00  0.00     0.031 C 
ATOM     40  C   UNL     1       7.854  -6.981  -9.779  1.00  0.00     0.031 A 
BRANCH  27  41
ATOM     41  C   UNL     1       8.362  -0.820  -9.674  1.00  0.00    -0.014 A 
ATOM     42  C   UNL     1       9.556  -0.243  -9.209  1.00  0.00     0.010 A 
ATOM     43  C   UNL     1       7.620  -0.170 -10.675  1.00  0.00     0.010 A 
ATOM     44  C   UNL     1       9.974   0.997  -9.699  1.00  0.00     0.020 A 
ATOM     45  C   UNL     1       8.036   1.069 -11.168  1.00  0.00     0.020 A 
ATOM     46  C   UNL     1       9.196   1.656 -10.656  1.00  0.00     0.054 A 
BRANCH  46  47
ATOM     47  S   UNL     1       9.703   3.300 -11.233  1.00  0.00     0.124 S 
ATOM     48  O   UNL     1       9.094   4.167 -10.227  1.00  0.00    -0.237 OA
ATOM     49  O   UNL     1      11.161   3.229 -11.199  1.00  0.00    -0.237 OA
ATOM     50  O   UNL     1       9.118   3.385 -12.569  1.00  0.00    -0.744 OA
ENDBRANCH  46  47
ENDBRANCH  27  41
BRANCH  28  51
ATOM     51  C   UNL     1       4.667  -8.768  -4.962  1.00  0.00    -0.014 A 
ATOM     52  C   UNL     1       5.453  -9.457  -4.025  1.00  0.00     0.010 A 
ATOM     53  C   UNL     1       3.345  -9.185  -5.199  1.00  0.00     0.010 A 
ATOM     54  C   UNL     1       4.925 -10.548  -3.328  1.00  0.00     0.020 A 
ATOM     55  C   UNL     1       2.814 -10.271  -4.501  1.00  0.00     0.020 A 
ATOM     56  C   UNL     1       3.608 -10.949  -3.572  1.00  0.00     0.054 A 
BRANCH  56  57
ATOM     57  S   UNL     1       2.883 -12.318  -2.628  1.00  0.00     0.124 S 
ATOM     58  O   UNL     1       2.994 -13.427  -3.570  1.00  0.00    -0.237 OA
ATOM     59  O   UNL     1       3.740 -12.406  -1.448  1.00  0.00    -0.237 OA
ATOM     60  O   UNL     1       1.526 -11.845  -2.366  1.00  0.00    -0.744 OA
ENDBRANCH  56  57
ENDBRANCH  28  51
BRANCH  40  61
ATOM     61  C   UNL     1       8.328  -7.953 -10.817  1.00  0.00    -0.014 A 
ATOM     62  C   UNL     1       7.499  -8.281 -11.903  1.00  0.00     0.010 A 
ATOM     63  C   UNL     1       9.614  -8.514 -10.731  1.00  0.00     0.010 A 
ATOM     64  C   UNL     1       7.944  -9.167 -12.887  1.00  0.00     0.020 A 
ATOM     65  C   UNL     1      10.062  -9.397 -11.716  1.00  0.00     0.020 A 
ATOM     66  C   UNL     1       9.221  -9.726 -12.783  1.00  0.00     0.054 A 
BRANCH  66  67
ATOM     67  S   UNL     1       9.821 -10.840 -14.084  1.00  0.00     0.124 S 
ATOM     68  O   UNL     1       9.438 -12.149 -13.562  1.00  0.00    -0.237 OA
ATOM     69  O   UNL     1       9.088 -10.399 -15.269  1.00  0.00    -0.237 OA
ATOM     70  O   UNL     1      11.257 -10.573 -14.116  1.00  0.00    -0.744 OA
ENDBRANCH  66  67
ENDBRANCH  40  61
ENDBRANCH  14  15
ENDBRANCH   7   9
ENDBRANCH   6   7
ENDBRANCH   5   6
ENDBRANCH   4   5
ENDBRANCH   3   4
ENDBRANCH   2   3
ENDBRANCH   1   2
BRANCH   1  71
ATOM     71  O   UNL     1       3.671  -1.887   2.439  1.00  0.00    -0.377 OA
BRANCH  71  72
ATOM     72  C   UNL     1       4.980  -2.279   2.057  1.00  0.00     0.188 C 
BRANCH  72  73
ATOM     73  C   UNL     1       5.050  -3.458   1.080  1.00  0.00     0.188 C 
BRANCH  73  74
ATOM     74  O   UNL     1       3.981  -4.393   1.049  1.00  0.00    -0.376 OA
BRANCH  74  75
ATOM     75  C   UNL     1       3.449  -4.930   2.258  1.00  0.00     0.202 C 
BRANCH  75  76
ATOM     76  C   UNL     1       4.442  -5.392   3.328  1.00  0.00     0.261 C 
BRANCH  76  77
ATOM     77  O   UNL     1       4.515  -4.374   4.351  1.00  0.00    -0.462 OA
BRANCH  77  78
ATOM     78  C   UNL     1       4.463  -4.792   5.644  1.00  0.00     0.331 C 
ATOM     79  O   UNL     1       4.576  -5.958   6.008  1.00  0.00    -0.250 OA
BRANCH  78  80
ATOM     80  C   UNL     1       4.337  -3.619   6.623  1.00  0.00     0.219 C 
BRANCH  80  81
ATOM     81  C   UNL     1       4.192  -2.182   6.089  1.00  0.00     0.074 C 
BRANCH  81  82
ATOM     82  C   UNL     1       2.811  -1.570   5.998  1.00  0.00    -0.045 A 
ATOM     83  C   UNL     1       2.413  -0.574   6.901  1.00  0.00     0.004 A 
ATOM     84  C   UNL     1       1.933  -1.924   4.971  1.00  0.00     0.004 A 
ATOM     85  C   UNL     1       1.172   0.053   6.769  1.00  0.00     0.000 A 
ATOM     86  C   UNL     1       0.694  -1.296   4.835  1.00  0.00     0.000 A 
ATOM     87  C   UNL     1       0.312  -0.307   5.734  1.00  0.00     0.000 A 
ENDBRANCH  81  82
ENDBRANCH  80  81
BRANCH  80  88
ATOM     88  N   UNL     1       3.477  -3.874   7.797  1.00  0.00    -0.268 NA
ATOM     89  C   UNL     1       2.255  -4.284   7.782  1.00  0.00     0.110 C 
ATOM     90  C   UNL     1       1.394  -4.609   6.578  1.00  0.00     0.209 C 
ATOM     91  C   UNL     1       1.534  -4.399   9.095  1.00  0.00     0.205 C 
ATOM     92  O   UNL     1       1.863  -5.095   5.564  1.00  0.00    -0.287 OA
ATOM     93  C   UNL     1      -0.048  -4.302   6.658  1.00  0.00     0.035 A 
ATOM     94  C   UNL     1       0.174  -3.753   9.089  1.00  0.00     0.187 C 
ATOM     95  Cl  UNL     1       1.336  -6.121   9.501  1.00  0.00    -0.107 Cl
ATOM     96  C   UNL     1      -0.841  -4.452   5.510  1.00  0.00     0.013 A 
ATOM     97  C   UNL     1      -0.620  -3.836   7.841  1.00  0.00     0.031 A 
ATOM     98  O   UNL     1      -0.314  -3.230  10.088  1.00  0.00    -0.292 OA
ATOM     99  C   UNL     1      -2.192  -4.109   5.542  1.00  0.00     0.001 A 
ATOM    100  C   UNL     1      -1.977  -3.484   7.867  1.00  0.00     0.012 A 
ATOM    101  C   UNL     1      -2.758  -3.618   6.717  1.00  0.00     0.001 A 
ENDBRANCH  80  88
ENDBRANCH  78  80
ENDBRANCH  77  78
ENDBRANCH  76  77
ENDBRANCH  75  76
ENDBRANCH  74  75
ENDBRANCH  73  74
ENDBRANCH  72  73
ENDBRANCH  71  72
ENDBRANCH   1  71
TORSDOF 26
