REMARK SMILES COc1ccccc1[C@@H]1C[N@@H+](Cc2cc(C(C)=O)cn2C)C[C@H]1C(=O)OCCOCCOCCOCCOC(=O)c1ccc(-c2c3nc(c(-c4ccc(S(=O)(=O)[O-])cc4)c4ccc([nH]4)c(-c4ccc(S(=O)(=O)[O-])cc4)c4nc(c(-c5ccc(S(=O)(=O)[O-])cc5)c5ccc2[nH]5)C=C4)C=C3)cc1
REMARK SMILES IDX 32 1 31 2 30 3 29 4 28 5 27 6 26 7 24 8 25 9 23 10 9 11
REMARK SMILES IDX 10 12 11 13 22 14 8 16 3 17 4 18 5 19 7 20 6 21 2 22 1 23
REMARK SMILES IDX 12 24 13 25 14 26 20 27 15 28 19 29 21 30 16 31 17 32 18 33
REMARK SMILES IDX 33 34 34 35 35 36 36 37 37 38 38 39 39 40 40 41 41 42 42 43
REMARK SMILES IDX 100 44 43 45 99 46 44 47 45 48 46 49 93 50 47 51 98 52 92 53
REMARK SMILES IDX 94 54 48 55 97 56 91 57 90 58 49 60 79 61 60 62 78 63 61 64
REMARK SMILES IDX 64 65 77 66 95 67 62 68 63 69 76 71 96 72 65 73 50 74 51 75
REMARK SMILES IDX 59 76 52 77 58 78 53 79 54 80 55 81 56 82 57 83 80 84 81 85
REMARK SMILES IDX 89 86 82 87 88 88 83 89 84 90 85 91 86 92 87 93 66 94 67 95
REMARK SMILES IDX 75 96 68 97 74 98 69 99 70 100 71 101 72 102 73 103
REMARK H PARENT 11 15 94 59 64 70
REMARK Flexibility Score: inf
ROOT
ATOM      1  O   UNL     1       3.255  -4.552  -0.638  1.00  0.00    -0.377 OA
ENDROOT
BRANCH   1   2
ATOM      2  C   UNL     1       1.925  -4.213  -1.002  1.00  0.00     0.188 C 
BRANCH   2   3
ATOM      3  C   UNL     1       1.421  -4.242  -2.452  1.00  0.00     0.188 C 
BRANCH   3   4
ATOM      4  O   UNL     1       2.271  -4.866  -3.379  1.00  0.00    -0.376 OA
BRANCH   4   5
ATOM      5  C   UNL     1       3.191  -4.107  -4.132  1.00  0.00     0.202 C 
BRANCH   5   6
ATOM      6  C   UNL     1       3.789  -2.763  -3.681  1.00  0.00     0.261 C 
BRANCH   6   7
ATOM      7  O   UNL     1       3.490  -2.270  -2.363  1.00  0.00    -0.463 OA
BRANCH   7   8
ATOM      8  C   UNL     1       2.810  -1.105  -2.321  1.00  0.00     0.315 C 
ATOM      9  O   UNL     1       2.380  -0.540  -3.329  1.00  0.00    -0.252 OA
BRANCH   8  10
ATOM     10  C   UNL     1       2.591  -0.466  -0.964  1.00  0.00     0.167 C 
ATOM     11  C   UNL     1       2.925  -1.092   0.396  1.00  0.00     0.098 C 
ATOM     12  C   UNL     1       3.554   0.062   1.204  1.00  0.00     0.272 C 
ATOM     13  N   UNL     1       4.158   0.970   0.235  1.00  0.00    -0.329 N 
ATOM     14  C   UNL     1       3.345   0.871  -0.977  1.00  0.00     0.278 C 
ATOM     15  H   UNL     1       4.138   1.927   0.587  1.00  0.00     0.348 HD
BRANCH  11  16
ATOM     16  C   UNL     1       1.863  -1.757   1.286  1.00  0.00     0.004 A 
ATOM     17  C   UNL     1       0.469  -1.556   1.324  1.00  0.00     0.122 A 
ATOM     18  C   UNL     1      -0.329  -2.380   2.148  1.00  0.00     0.047 A 
ATOM     19  C   UNL     1       0.221  -3.383   2.948  1.00  0.00     0.004 A 
ATOM     20  C   UNL     1       2.394  -2.761   2.145  1.00  0.00     0.008 A 
ATOM     21  C   UNL     1       1.591  -3.569   2.952  1.00  0.00     0.001 A 
BRANCH  17  22
ATOM     22  O   UNL     1      -0.286  -0.786   0.481  1.00  0.00    -0.496 OA
ATOM     23  C   UNL     1      -0.070   0.620   0.454  1.00  0.00     0.278 C 
ENDBRANCH  17  22
ENDBRANCH  11  16
BRANCH  13  24
ATOM     24  C   UNL     1       5.609   0.822   0.048  1.00  0.00     0.317 C 
BRANCH  24  25
ATOM     25  C   UNL     1       6.116  -0.574  -0.143  1.00  0.00     0.073 A 
ATOM     26  C   UNL     1       6.467  -1.509   0.824  1.00  0.00     0.041 A 
ATOM     27  N   UNL     1       6.400  -1.150  -1.361  1.00  0.00    -0.349 N 
ATOM     28  C   UNL     1       6.817  -2.723   0.179  1.00  0.00     0.035 A 
ATOM     29  C   UNL     1       6.732  -2.465  -1.176  1.00  0.00     0.097 A 
ATOM     30  C   UNL     1       6.419  -0.498  -2.651  1.00  0.00     0.149 C 
BRANCH  28  31
ATOM     31  C   UNL     1       7.198  -4.017   0.733  1.00  0.00     0.161 C 
ATOM     32  C   UNL     1       7.519  -4.139   2.201  1.00  0.00     0.093 C 
ATOM     33  O   UNL     1       7.253  -5.012   0.010  1.00  0.00    -0.294 OA
ENDBRANCH  28  31
ENDBRANCH  24  25
ENDBRANCH  13  24
ENDBRANCH   8  10
ENDBRANCH   7   8
ENDBRANCH   6   7
ENDBRANCH   5   6
ENDBRANCH   4   5
ENDBRANCH   3   4
ENDBRANCH   2   3
ENDBRANCH   1   2
BRANCH   1  34
ATOM     34  C   UNL     1       3.916  -5.646  -1.261  1.00  0.00     0.188 C 
BRANCH  34  35
ATOM     35  C   UNL     1       3.105  -6.910  -1.595  1.00  0.00     0.188 C 
BRANCH  35  36
ATOM     36  O   UNL     1       1.794  -6.913  -1.056  1.00  0.00    -0.376 OA
BRANCH  36  37
ATOM     37  C   UNL     1       1.608  -7.531   0.209  1.00  0.00     0.202 C 
BRANCH  37  38
ATOM     38  C   UNL     1       2.500  -7.111   1.387  1.00  0.00     0.261 C 
BRANCH  38  39
ATOM     39  O   UNL     1       3.919  -7.272   1.241  1.00  0.00    -0.460 OA
BRANCH  39  40
ATOM     40  C   UNL     1       4.409  -8.494   0.948  1.00  0.00     0.338 C 
ATOM     41  O   UNL     1       3.782  -9.530   0.812  1.00  0.00    -0.246 OA
BRANCH  40  42
ATOM     42  C   UNL     1       5.847  -8.323   0.661  1.00  0.00     0.060 A 
ATOM     43  C   UNL     1       6.332  -8.591  -0.625  1.00  0.00     0.016 A 
ATOM     44  C   UNL     1       6.707  -7.880   1.668  1.00  0.00     0.016 A 
ATOM     45  C   UNL     1       7.691  -8.433  -0.903  1.00  0.00     0.010 A 
ATOM     46  C   UNL     1       8.068  -7.738   1.393  1.00  0.00     0.010 A 
ATOM     47  C   UNL     1       8.571  -8.040   0.114  1.00  0.00    -0.014 A 
BRANCH  47  48
ATOM     48  C   UNL     1      10.035  -8.170  -0.087  1.00  0.00     0.031 A 
ATOM     49  C   UNL     1      10.707  -9.388   0.485  1.00  0.00     0.074 A 
ATOM     50  C   UNL     1      10.751  -7.254  -0.764  1.00  0.00     0.049 A 
ATOM     51  N   UNL     1      11.972  -9.719   0.484  1.00  0.00    -0.248 NA
ATOM     52  C   UNL     1       9.829 -10.361   1.158  1.00  0.00     0.031 C 
ATOM     53  C   UNL     1      10.211  -6.051  -1.395  1.00  0.00     0.029 A 
ATOM     54  N   UNL     1      12.098  -7.194  -1.026  1.00  0.00    -0.354 N 
ATOM     55  C   UNL     1      12.039 -10.934   1.155  1.00  0.00     0.074 A 
ATOM     56  C   UNL     1      10.700 -11.255   1.596  1.00  0.00     0.031 C 
ATOM     57  C   UNL     1      11.220  -5.362  -1.956  1.00  0.00     0.029 A 
ATOM     58  C   UNL     1      12.479  -6.061  -1.705  1.00  0.00     0.049 A 
ATOM     59  H   UNL     1      12.731  -7.897  -0.752  1.00  0.00     0.167 HD
ATOM     60  C   UNL     1      13.115 -11.725   1.372  1.00  0.00     0.031 A 
ATOM     61  C   UNL     1      13.706  -5.631  -2.066  1.00  0.00     0.031 A 
ATOM     62  C   UNL     1      14.448 -11.390   0.954  1.00  0.00     0.049 A 
ATOM     63  C   UNL     1      14.906  -6.489  -1.752  1.00  0.00     0.074 A 
ATOM     64  C   UNL     1      15.613 -12.117   1.125  1.00  0.00     0.029 A 
ATOM     65  N   UNL     1      14.796 -10.225   0.286  1.00  0.00    -0.354 N 
ATOM     66  N   UNL     1      14.953  -7.649  -1.139  1.00  0.00    -0.248 NA
ATOM     67  C   UNL     1      16.216  -5.988  -2.190  1.00  0.00     0.031 C 
ATOM     68  C   UNL     1      16.673 -11.363   0.612  1.00  0.00     0.029 A 
ATOM     69  C   UNL     1      16.160 -10.199   0.059  1.00  0.00     0.049 A 
ATOM     70  H   UNL     1      14.164  -9.520   0.014  1.00  0.00     0.167 HD
ATOM     71  C   UNL     1      16.292  -8.028  -1.141  1.00  0.00     0.074 A 
ATOM     72  C   UNL     1      17.019  -6.981  -1.829  1.00  0.00     0.031 C 
ATOM     73  C   UNL     1      16.867  -9.143  -0.625  1.00  0.00     0.031 A 
BRANCH  60  74
ATOM     74  C   UNL     1      12.881 -13.005   2.129  1.00  0.00    -0.014 A 
ATOM     75  C   UNL     1      12.139 -14.060   1.565  1.00  0.00     0.010 A 
ATOM     76  C   UNL     1      13.395 -13.151   3.430  1.00  0.00     0.010 A 
ATOM     77  C   UNL     1      11.866 -15.211   2.308  1.00  0.00     0.020 A 
ATOM     78  C   UNL     1      13.153 -14.315   4.164  1.00  0.00     0.020 A 
ATOM     79  C   UNL     1      12.371 -15.328   3.607  1.00  0.00     0.054 A 
BRANCH  79  80
ATOM     80  S   UNL     1      11.999 -16.831   4.551  1.00  0.00     0.124 S 
ATOM     81  O   UNL     1      10.583 -16.649   4.861  1.00  0.00    -0.237 OA
ATOM     82  O   UNL     1      12.301 -17.893   3.595  1.00  0.00    -0.237 OA
ATOM     83  O   UNL     1      12.902 -16.753   5.697  1.00  0.00    -0.744 OA
ENDBRANCH  79  80
ENDBRANCH  60  74
BRANCH  61  84
ATOM     84  C   UNL     1      13.859  -4.315  -2.750  1.00  0.00    -0.014 A 
ATOM     85  C   UNL     1      14.242  -4.238  -4.100  1.00  0.00     0.010 A 
ATOM     86  C   UNL     1      13.602  -3.123  -2.046  1.00  0.00     0.010 A 
ATOM     87  C   UNL     1      14.368  -2.995  -4.732  1.00  0.00     0.020 A 
ATOM     88  C   UNL     1      13.701  -1.881  -2.682  1.00  0.00     0.020 A 
ATOM     89  C   UNL     1      14.089  -1.825  -4.021  1.00  0.00     0.054 A 
BRANCH  89  90
ATOM     90  S   UNL     1      14.181  -0.230  -4.883  1.00  0.00     0.124 S 
ATOM     91  O   UNL     1      15.620  -0.059  -5.057  1.00  0.00    -0.237 OA
ATOM     92  O   UNL     1      13.420  -0.488  -6.103  1.00  0.00    -0.237 OA
ATOM     93  O   UNL     1      13.548   0.701  -3.950  1.00  0.00    -0.744 OA
ENDBRANCH  89  90
ENDBRANCH  61  84
BRANCH  73  94
ATOM     94  C   UNL     1      18.354  -9.312  -0.809  1.00  0.00    -0.014 A 
ATOM     95  C   UNL     1      19.274  -8.521  -0.100  1.00  0.00     0.010 A 
ATOM     96  C   UNL     1      18.834 -10.330  -1.654  1.00  0.00     0.010 A 
ATOM     97  C   UNL     1      20.648  -8.725  -0.257  1.00  0.00     0.020 A 
ATOM     98  C   UNL     1      20.205 -10.558  -1.790  1.00  0.00     0.020 A 
ATOM     99  C   UNL     1      21.105  -9.744  -1.100  1.00  0.00     0.054 A 
BRANCH  99 100
ATOM    100  S   UNL     1      22.892 -10.019  -1.248  1.00  0.00     0.124 S 
ATOM    101  O   UNL     1      23.312  -8.864  -2.036  1.00  0.00    -0.237 OA
ATOM    102  O   UNL     1      23.331 -10.023   0.145  1.00  0.00    -0.237 OA
ATOM    103  O   UNL     1      22.989 -11.307  -1.931  1.00  0.00    -0.744 OA
ENDBRANCH  99 100
ENDBRANCH  73  94
ENDBRANCH  47  48
ENDBRANCH  40  42
ENDBRANCH  39  40
ENDBRANCH  38  39
ENDBRANCH  37  38
ENDBRANCH  36  37
ENDBRANCH  35  36
ENDBRANCH  34  35
ENDBRANCH   1  34
TORSDOF 28
