REMARK SMILES COc1cc(Nc2cn[nH]c(=O)n2)c(C(=O)OCCOCCOCCOCCOC(=O)c2ccc(-c3c4nc(c(-c5ccc(S(=O)(=O)[O-])cc5)c5ccc([nH]5)c(-c5ccc(S(=O)(=O)[O-])cc5)c5nc(c(-c6ccc(S(=O)(=O)[O-])cc6)c6ccc3[nH]6)C=C5)C=C4)cc2)cc1OC
REMARK SMILES IDX 24 1 23 2 22 3 21 4 20 5 19 6 18 7 17 8 15 9 16 10 14 11
REMARK SMILES IDX 3 12 4 13 93 14 5 15 92 16 2 17 1 18 94 19 95 20 6 21 7 23
REMARK SMILES IDX 8 24 13 25 9 26 11 27 10 28 12 29 25 31 26 32 27 33 28 34
REMARK SMILES IDX 29 35 30 36 31 37 32 38 33 39 91 40 34 41 90 42 35 43 36 44
REMARK SMILES IDX 37 45 84 46 38 47 89 48 83 49 85 50 39 51 88 52 82 53 81 54
REMARK SMILES IDX 40 56 70 57 51 58 69 59 52 60 55 61 68 62 86 63 53 64 54 65
REMARK SMILES IDX 67 67 87 68 56 69 41 70 42 71 50 72 43 73 49 74 44 75 45 76
REMARK SMILES IDX 46 77 47 78 48 79 71 80 72 81 80 82 73 83 79 84 74 85 75 86
REMARK SMILES IDX 76 87 77 88 78 89 57 90 58 91 66 92 59 93 65 94 60 95 61 96
REMARK SMILES IDX 62 97 63 98 64 99
REMARK H PARENT 6 22 10 30 85 55 55 66
REMARK Flexibility Score: inf
ROOT
ATOM      1  C   UNL     1       4.551  -0.029  -8.477  1.00  0.00     0.188 C 
ENDROOT
BRANCH   1   2
ATOM      2  O   UNL     1       3.935  -0.043  -7.194  1.00  0.00    -0.377 OA
BRANCH   2   3
ATOM      3  C   UNL     1       2.532  -0.193  -7.089  1.00  0.00     0.188 C 
BRANCH   3   4
ATOM      4  C   UNL     1       1.652   0.782  -7.889  1.00  0.00     0.188 C 
BRANCH   4   5
ATOM      5  O   UNL     1       2.384   1.732  -8.653  1.00  0.00    -0.376 OA
BRANCH   5   6
ATOM      6  C   UNL     1       2.364   3.076  -8.195  1.00  0.00     0.202 C 
BRANCH   6   7
ATOM      7  C   UNL     1       3.199   3.353  -6.941  1.00  0.00     0.261 C 
BRANCH   7   8
ATOM      8  O   UNL     1       2.842   2.594  -5.777  1.00  0.00    -0.460 OA
BRANCH   8   9
ATOM      9  C   UNL     1       1.590   2.717  -5.283  1.00  0.00     0.340 C 
ATOM     10  O   UNL     1       0.684   3.391  -5.725  1.00  0.00    -0.246 OA
BRANCH   9  11
ATOM     11  C   UNL     1       1.416   1.729  -4.189  1.00  0.00     0.087 A 
ATOM     12  C   UNL     1       1.129  -0.043  -2.066  1.00  0.00     0.162 A 
ATOM     13  C   UNL     1       0.079   0.136  -2.986  1.00  0.00     0.077 A 
ATOM     14  C   UNL     1       2.364   0.579  -2.261  1.00  0.00     0.161 A 
ATOM     15  C   UNL     1       0.194   1.035  -4.056  1.00  0.00     0.058 A 
ATOM     16  C   UNL     1       2.489   1.474  -3.324  1.00  0.00     0.068 A 
BRANCH  12  17
ATOM     17  O   UNL     1       0.894  -0.876  -1.005  1.00  0.00    -0.493 OA
ATOM     18  C   UNL     1       0.177  -0.177   0.019  1.00  0.00     0.278 C 
ENDBRANCH  12  17
BRANCH  14  19
ATOM     19  O   UNL     1       3.523   0.445  -1.555  1.00  0.00    -0.493 OA
ATOM     20  C   UNL     1       3.517  -0.269  -0.332  1.00  0.00     0.278 C 
ENDBRANCH  14  19
BRANCH  15  21
ATOM     21  N   UNL     1      -0.814   1.148  -5.048  1.00  0.00    -0.338 N 
ATOM     22  H   UNL     1      -0.644   1.768  -5.793  1.00  0.00     0.168 HD
BRANCH  21  23
ATOM     23  C   UNL     1      -2.005   0.465  -5.057  1.00  0.00     0.156 A 
ATOM     24  C   UNL     1      -2.093  -0.757  -5.943  1.00  0.00     0.180 A 
ATOM     25  N   UNL     1      -3.037   0.850  -4.375  1.00  0.00    -0.173 NA
ATOM     26  N   UNL     1      -3.182  -1.444  -6.051  1.00  0.00    -0.176 NA
ATOM     27  C   UNL     1      -4.191   0.116  -4.461  1.00  0.00     0.363 A 
ATOM     28  N   UNL     1      -4.218  -0.982  -5.297  1.00  0.00    -0.227 N 
ATOM     29  O   UNL     1      -5.199   0.402  -3.821  1.00  0.00    -0.244 OA
ATOM     30  H   UNL     1      -5.067  -1.478  -5.354  1.00  0.00     0.195 HD
ENDBRANCH  21  23
ENDBRANCH  15  21
ENDBRANCH   9  11
ENDBRANCH   8   9
ENDBRANCH   7   8
ENDBRANCH   6   7
ENDBRANCH   5   6
ENDBRANCH   4   5
ENDBRANCH   3   4
ENDBRANCH   2   3
ENDBRANCH   1   2
BRANCH   1  31
ATOM     31  C   UNL     1       3.815  -0.516  -9.745  1.00  0.00     0.188 C 
BRANCH  31  32
ATOM     32  O   UNL     1       2.732  -1.409  -9.508  1.00  0.00    -0.376 OA
BRANCH  32  33
ATOM     33  C   UNL     1       2.930  -2.759  -9.901  1.00  0.00     0.202 C 
BRANCH  33  34
ATOM     34  C   UNL     1       3.818  -3.551  -8.937  1.00  0.00     0.261 C 
BRANCH  34  35
ATOM     35  O   UNL     1       5.172  -3.083  -8.842  1.00  0.00    -0.460 OA
BRANCH  35  36
ATOM     36  C   UNL     1       5.905  -3.091  -9.978  1.00  0.00     0.338 C 
ATOM     37  O   UNL     1       5.560  -3.483 -11.077  1.00  0.00    -0.246 OA
BRANCH  36  38
ATOM     38  C   UNL     1       7.157  -2.363  -9.702  1.00  0.00     0.060 A 
ATOM     39  C   UNL     1       7.487  -1.254 -10.491  1.00  0.00     0.016 A 
ATOM     40  C   UNL     1       7.991  -2.773  -8.660  1.00  0.00     0.016 A 
ATOM     41  C   UNL     1       8.680  -0.570 -10.258  1.00  0.00     0.010 A 
ATOM     42  C   UNL     1       9.193  -2.101  -8.442  1.00  0.00     0.010 A 
ATOM     43  C   UNL     1       9.557  -1.019  -9.261  1.00  0.00    -0.014 A 
BRANCH  43  44
ATOM     44  C   UNL     1      10.945  -0.504  -9.212  1.00  0.00     0.031 A 
ATOM     45  C   UNL     1      12.010  -1.283  -9.936  1.00  0.00     0.074 A 
ATOM     46  C   UNL     1      11.255   0.624  -8.548  1.00  0.00     0.049 A 
ATOM     47  N   UNL     1      13.298  -1.073  -9.987  1.00  0.00    -0.248 NA
ATOM     48  C   UNL     1      11.557  -2.455 -10.707  1.00  0.00     0.031 C 
ATOM     49  C   UNL     1      10.305   1.485  -7.844  1.00  0.00     0.029 A 
ATOM     50  N   UNL     1      12.470   1.232  -8.354  1.00  0.00    -0.354 N 
ATOM     51  C   UNL     1      13.809  -2.077 -10.801  1.00  0.00     0.074 A 
ATOM     52  C   UNL     1      12.700  -2.918 -11.191  1.00  0.00     0.031 C 
ATOM     53  C   UNL     1      10.979   2.504  -7.280  1.00  0.00     0.029 A 
ATOM     54  C   UNL     1      12.406   2.350  -7.557  1.00  0.00     0.049 A 
ATOM     55  H   UNL     1      13.308   0.898  -8.748  1.00  0.00     0.167 HD
ATOM     56  C   UNL     1      15.086  -2.276 -11.200  1.00  0.00     0.031 A 
ATOM     57  C   UNL     1      13.392   3.141  -7.088  1.00  0.00     0.031 A 
ATOM     58  C   UNL     1      16.194  -1.459 -10.787  1.00  0.00     0.049 A 
ATOM     59  C   UNL     1      14.822   2.839  -7.467  1.00  0.00     0.074 A 
ATOM     60  C   UNL     1      17.532  -1.596 -11.112  1.00  0.00     0.029 A 
ATOM     61  N   UNL     1      16.092  -0.353  -9.958  1.00  0.00    -0.354 N 
ATOM     62  N   UNL     1      15.289   1.890  -8.244  1.00  0.00    -0.248 NA
ATOM     63  C   UNL     1      15.858   3.721  -6.910  1.00  0.00     0.031 C 
ATOM     64  C   UNL     1      18.246  -0.596 -10.445  1.00  0.00     0.029 A 
ATOM     65  C   UNL     1      17.345   0.196  -9.751  1.00  0.00     0.049 A 
ATOM     66  H   UNL     1      15.253  -0.010  -9.574  1.00  0.00     0.167 HD
ATOM     67  C   UNL     1      16.666   2.084  -8.295  1.00  0.00     0.074 A 
ATOM     68  C   UNL     1      16.956   3.247  -7.483  1.00  0.00     0.031 C 
ATOM     69  C   UNL     1      17.610   1.365  -8.953  1.00  0.00     0.031 A 
BRANCH  56  70
ATOM     70  C   UNL     1      15.352  -3.432 -12.123  1.00  0.00    -0.014 A 
ATOM     71  C   UNL     1      14.958  -3.378 -13.472  1.00  0.00     0.010 A 
ATOM     72  C   UNL     1      16.043  -4.563 -11.654  1.00  0.00     0.010 A 
ATOM     73  C   UNL     1      15.232  -4.444 -14.332  1.00  0.00     0.020 A 
ATOM     74  C   UNL     1      16.340  -5.622 -12.517  1.00  0.00     0.020 A 
ATOM     75  C   UNL     1      15.923  -5.559 -13.848  1.00  0.00     0.054 A 
BRANCH  75  76
ATOM     76  S   UNL     1      16.305  -6.908 -14.999  1.00  0.00     0.124 S 
ATOM     77  O   UNL     1      14.990  -7.512 -15.201  1.00  0.00    -0.237 OA
ATOM     78  O   UNL     1      16.853  -6.199 -16.152  1.00  0.00    -0.237 OA
ATOM     79  O   UNL     1      17.262  -7.731 -14.264  1.00  0.00    -0.744 OA
ENDBRANCH  75  76
ENDBRANCH  56  70
BRANCH  57  80
ATOM     80  C   UNL     1      13.083   4.276  -6.173  1.00  0.00    -0.014 A 
ATOM     81  C   UNL     1      13.294   5.606  -6.577  1.00  0.00     0.010 A 
ATOM     82  C   UNL     1      12.628   4.025  -4.865  1.00  0.00     0.010 A 
ATOM     83  C   UNL     1      13.098   6.660  -5.678  1.00  0.00     0.020 A 
ATOM     84  C   UNL     1      12.402   5.077  -3.974  1.00  0.00     0.020 A 
ATOM     85  C   UNL     1      12.659   6.387  -4.380  1.00  0.00     0.054 A 
BRANCH  85  86
ATOM     86  S   UNL     1      12.406   7.767  -3.229  1.00  0.00     0.124 S 
ATOM     87  O   UNL     1      13.776   8.117  -2.869  1.00  0.00    -0.237 OA
ATOM     88  O   UNL     1      11.698   8.743  -4.054  1.00  0.00    -0.237 OA
ATOM     89  O   UNL     1      11.607   7.175  -2.157  1.00  0.00    -0.744 OA
ENDBRANCH  85  86
ENDBRANCH  57  80
BRANCH  69  90
ATOM     90  C   UNL     1      19.035   1.842  -8.870  1.00  0.00    -0.014 A 
ATOM     91  C   UNL     1      19.790   1.692  -7.693  1.00  0.00     0.010 A 
ATOM     92  C   UNL     1      19.647   2.391 -10.012  1.00  0.00     0.010 A 
ATOM     93  C   UNL     1      21.122   2.113  -7.651  1.00  0.00     0.020 A 
ATOM     94  C   UNL     1      20.986   2.788  -9.982  1.00  0.00     0.020 A 
ATOM     95  C   UNL     1      21.711   2.659  -8.796  1.00  0.00     0.054 A 
BRANCH  95  96
ATOM     96  S   UNL     1      23.455   3.156  -8.729  1.00  0.00     0.124 S 
ATOM     97  O   UNL     1      23.390   4.389  -7.949  1.00  0.00    -0.237 OA
ATOM     98  O   UNL     1      24.087   2.021  -8.059  1.00  0.00    -0.237 OA
ATOM     99  O   UNL     1      23.821   3.325 -10.133  1.00  0.00    -0.744 OA
ENDBRANCH  95  96
ENDBRANCH  69  90
ENDBRANCH  43  44
ENDBRANCH  36  38
ENDBRANCH  35  36
ENDBRANCH  34  35
ENDBRANCH  33  34
ENDBRANCH  32  33
ENDBRANCH  31  32
ENDBRANCH   1  31
TORSDOF 27
