REMARK SMILES CC(C)(C)c1cc2c(cc1Cl)C=C(C(=O)OCCOCCOCCOCCOC(=O)c1ccc(-c3c4nc(c(-c5ccc(S(=O)(=O)[O-])cc5)c5ccc([nH]5)c(-c5ccc(S(=O)(=O)[O-])cc5)c5nc(c(-c6ccc(S(=O)(=O)[O-])cc6)c6ccc3[nH]6)C=C5)C=C4)cc1)[C@@H](C(F)(F)F)O2
REMARK SMILES IDX 23 1 22 2 21 3 20 4 19 5 18 6 17 7 16 8 14 9 15 10 13 11
REMARK SMILES IDX 5 12 6 13 10 14 7 15 9 16 11 17 8 18 96 19 12 20 91 21 2 22
REMARK SMILES IDX 1 23 3 24 4 25 92 26 93 27 94 28 95 29 24 30 25 31 26 32
REMARK SMILES IDX 27 33 28 34 29 35 30 36 31 37 32 38 90 39 33 40 89 41 34 42
REMARK SMILES IDX 35 43 36 44 83 45 37 46 88 47 82 48 84 49 38 50 87 51 81 52
REMARK SMILES IDX 80 53 39 55 69 56 50 57 68 58 51 59 54 60 67 61 85 62 52 63
REMARK SMILES IDX 53 64 66 66 86 67 55 68 40 69 41 70 49 71 42 72 48 73 43 74
REMARK SMILES IDX 44 75 45 76 46 77 47 78 70 79 71 80 79 81 72 82 78 83 73 84
REMARK SMILES IDX 74 85 75 86 76 87 77 88 56 89 57 90 65 91 58 92 64 93 59 94
REMARK SMILES IDX 60 95 61 96 62 97 63 98
REMARK H PARENT 84 54 54 65
REMARK Flexibility Score: inf
ROOT
ATOM      1  C   UNL     1       2.812  10.445   0.671  1.00  0.00     0.188 C 
ENDROOT
BRANCH   1   2
ATOM      2  O   UNL     1       2.250   9.381  -0.096  1.00  0.00    -0.377 OA
BRANCH   2   3
ATOM      3  C   UNL     1       3.115   8.343  -0.520  1.00  0.00     0.188 C 
BRANCH   3   4
ATOM      4  C   UNL     1       3.913   8.704  -1.785  1.00  0.00     0.188 C 
BRANCH   4   5
ATOM      5  O   UNL     1       3.839  10.087  -2.122  1.00  0.00    -0.376 OA
BRANCH   5   6
ATOM      6  C   UNL     1       2.953  10.460  -3.173  1.00  0.00     0.202 C 
BRANCH   6   7
ATOM      7  C   UNL     1       1.446  10.275  -2.932  1.00  0.00     0.261 C 
BRANCH   7   8
ATOM      8  O   UNL     1       1.040   8.937  -2.605  1.00  0.00    -0.460 OA
BRANCH   8   9
ATOM      9  C   UNL     1       1.210   7.983  -3.538  1.00  0.00     0.338 C 
ATOM     10  O   UNL     1       1.630   8.130  -4.672  1.00  0.00    -0.246 OA
BRANCH   9  11
ATOM     11  C   UNL     1       0.976   6.674  -2.890  1.00  0.00     0.087 C 
ATOM     12  C   UNL     1       1.046   1.796  -1.580  1.00  0.00    -0.020 A 
ATOM     13  C   UNL     1       0.234   2.916  -1.282  1.00  0.00     0.053 A 
ATOM     14  C   UNL     1       2.280   2.084  -2.203  1.00  0.00     0.045 A 
ATOM     15  C   UNL     1       0.535   4.204  -1.733  1.00  0.00     0.128 A 
ATOM     16  C   UNL     1       2.571   3.376  -2.676  1.00  0.00     0.032 A 
ATOM     17  Cl  UNL     1       3.555   0.935  -2.412  1.00  0.00    -0.084 Cl
ATOM     18  C   UNL     1       1.671   4.423  -2.496  1.00  0.00     0.019 A 
ATOM     19  O   UNL     1      -0.360   5.177  -1.401  1.00  0.00    -0.475 OA
ATOM     20  C   UNL     1       1.879   5.713  -3.127  1.00  0.00     0.027 C 
ATOM     21  C   UNL     1      -0.191   6.516  -1.946  1.00  0.00     0.316 C 
BRANCH  12  22
ATOM     22  C   UNL     1       0.525   0.377  -1.239  1.00  0.00    -0.012 C 
ATOM     23  C   UNL     1       1.102  -0.073   0.114  1.00  0.00     0.016 C 
ATOM     24  C   UNL     1       0.862  -0.676  -2.325  1.00  0.00     0.016 C 
ATOM     25  C   UNL     1      -1.027   0.332  -1.129  1.00  0.00     0.016 C 
ENDBRANCH  12  22
BRANCH  21  26
ATOM     26  C   UNL     1      -1.526   6.926  -2.585  1.00  0.00     0.430 C 
ATOM     27  F   UNL     1      -2.556   6.734  -1.726  1.00  0.00    -0.167 F 
ATOM     28  F   UNL     1      -1.545   8.229  -2.940  1.00  0.00    -0.167 F 
ATOM     29  F   UNL     1      -1.784   6.198  -3.697  1.00  0.00    -0.167 F 
ENDBRANCH  21  26
ENDBRANCH   9  11
ENDBRANCH   8   9
ENDBRANCH   7   8
ENDBRANCH   6   7
ENDBRANCH   5   6
ENDBRANCH   4   5
ENDBRANCH   3   4
ENDBRANCH   2   3
ENDBRANCH   1   2
BRANCH   1  30
ATOM     30  C   UNL     1       4.325  10.764   0.638  1.00  0.00     0.188 C 
BRANCH  30  31
ATOM     31  O   UNL     1       5.165   9.619   0.777  1.00  0.00    -0.376 OA
BRANCH  31  32
ATOM     32  C   UNL     1       5.855   9.482   2.012  1.00  0.00     0.202 C 
BRANCH  32  33
ATOM     33  C   UNL     1       4.980   8.954   3.155  1.00  0.00     0.261 C 
BRANCH  33  34
ATOM     34  O   UNL     1       3.894   9.811   3.538  1.00  0.00    -0.460 OA
BRANCH  34  35
ATOM     35  C   UNL     1       4.197  11.063   3.950  1.00  0.00     0.338 C 
ATOM     36  O   UNL     1       5.308  11.539   4.098  1.00  0.00    -0.246 OA
BRANCH  35  37
ATOM     37  C   UNL     1       2.934  11.831   3.988  1.00  0.00     0.060 A 
ATOM     38  C   UNL     1       1.815  11.318   4.649  1.00  0.00     0.016 A 
ATOM     39  C   UNL     1       2.863  13.061   3.321  1.00  0.00     0.016 A 
ATOM     40  C   UNL     1       0.631  12.056   4.673  1.00  0.00     0.010 A 
ATOM     41  C   UNL     1       1.675  13.795   3.340  1.00  0.00     0.010 A 
ATOM     42  C   UNL     1       0.560  13.310   4.041  1.00  0.00    -0.014 A 
BRANCH  42  43
ATOM     43  C   UNL     1      -0.601  14.194   4.304  1.00  0.00     0.031 A 
ATOM     44  C   UNL     1      -1.722  14.361   3.327  1.00  0.00     0.074 A 
ATOM     45  C   UNL     1      -0.618  14.854   5.479  1.00  0.00     0.049 A 
ATOM     46  N   UNL     1      -2.840  15.024   3.481  1.00  0.00    -0.248 NA
ATOM     47  C   UNL     1      -1.581  13.711   2.016  1.00  0.00     0.031 C 
ATOM     48  C   UNL     1       0.436  14.775   6.494  1.00  0.00     0.029 A 
ATOM     49  N   UNL     1      -1.547  15.701   6.026  1.00  0.00    -0.354 N 
ATOM     50  C   UNL     1      -3.551  14.854   2.300  1.00  0.00     0.074 A 
ATOM     51  C   UNL     1      -2.717  14.062   1.420  1.00  0.00     0.031 C 
ATOM     52  C   UNL     1       0.081  15.518   7.551  1.00  0.00     0.029 A 
ATOM     53  C   UNL     1      -1.208  16.149   7.281  1.00  0.00     0.049 A 
ATOM     54  H   UNL     1      -2.376  15.963   5.565  1.00  0.00     0.167 HD
ATOM     55  C   UNL     1      -4.791  15.307   1.996  1.00  0.00     0.031 A 
ATOM     56  C   UNL     1      -1.860  16.966   8.131  1.00  0.00     0.031 A 
ATOM     57  C   UNL     1      -5.600  16.113   2.881  1.00  0.00     0.049 A 
ATOM     58  C   UNL     1      -3.214  17.488   7.750  1.00  0.00     0.074 A 
ATOM     59  C   UNL     1      -6.889  16.575   2.673  1.00  0.00     0.029 A 
ATOM     60  N   UNL     1      -5.205  16.584   4.124  1.00  0.00    -0.354 N 
ATOM     61  N   UNL     1      -3.908  17.247   6.664  1.00  0.00    -0.248 NA
ATOM     62  C   UNL     1      -3.884  18.375   8.711  1.00  0.00     0.031 C 
ATOM     63  C   UNL     1      -7.244  17.387   3.753  1.00  0.00     0.029 A 
ATOM     64  C   UNL     1      -6.210  17.366   4.675  1.00  0.00     0.049 A 
ATOM     65  H   UNL     1      -4.340  16.393   4.553  1.00  0.00     0.167 HD
ATOM     66  C   UNL     1      -5.103  17.939   6.816  1.00  0.00     0.074 A 
ATOM     67  C   UNL     1      -5.047  18.591   8.109  1.00  0.00     0.031 C 
ATOM     68  C   UNL     1      -6.148  18.024   5.957  1.00  0.00     0.031 A 
BRANCH  55  69
ATOM     69  C   UNL     1      -5.393  14.936   0.664  1.00  0.00    -0.014 A 
ATOM     70  C   UNL     1      -5.672  15.938  -0.285  1.00  0.00     0.010 A 
ATOM     71  C   UNL     1      -5.843  13.626   0.424  1.00  0.00     0.010 A 
ATOM     72  C   UNL     1      -6.428  15.648  -1.425  1.00  0.00     0.020 A 
ATOM     73  C   UNL     1      -6.577  13.325  -0.728  1.00  0.00     0.020 A 
ATOM     74  C   UNL     1      -6.888  14.345  -1.631  1.00  0.00     0.054 A 
BRANCH  74  75
ATOM     75  S   UNL     1      -7.919  14.001  -3.084  1.00  0.00     0.124 S 
ATOM     76  O   UNL     1      -9.187  14.625  -2.719  1.00  0.00    -0.237 OA
ATOM     77  O   UNL     1      -7.179  14.655  -4.161  1.00  0.00    -0.237 OA
ATOM     78  O   UNL     1      -7.938  12.541  -3.152  1.00  0.00    -0.744 OA
ENDBRANCH  74  75
ENDBRANCH  55  69
BRANCH  56  79
ATOM     79  C   UNL     1      -1.237  17.282   9.445  1.00  0.00    -0.014 A 
ATOM     80  C   UNL     1      -0.059  18.050   9.507  1.00  0.00     0.010 A 
ATOM     81  C   UNL     1      -1.759  16.733  10.629  1.00  0.00     0.010 A 
ATOM     82  C   UNL     1       0.617  18.216  10.717  1.00  0.00     0.020 A 
ATOM     83  C   UNL     1      -1.102  16.925  11.848  1.00  0.00     0.020 A 
ATOM     84  C   UNL     1       0.098  17.640  11.879  1.00  0.00     0.054 A 
BRANCH  84  85
ATOM     85  S   UNL     1       1.020  17.823  13.429  1.00  0.00     0.124 S 
ATOM     86  O   UNL     1       2.109  16.867  13.243  1.00  0.00    -0.237 OA
ATOM     87  O   UNL     1       1.407  19.231  13.406  1.00  0.00    -0.237 OA
ATOM     88  O   UNL     1       0.042  17.465  14.453  1.00  0.00    -0.744 OA
ENDBRANCH  84  85
ENDBRANCH  56  79
BRANCH  68  89
ATOM     89  C   UNL     1      -7.334  18.863   6.361  1.00  0.00    -0.014 A 
ATOM     90  C   UNL     1      -8.579  18.250   6.596  1.00  0.00     0.010 A 
ATOM     91  C   UNL     1      -7.250  20.267   6.378  1.00  0.00     0.010 A 
ATOM     92  C   UNL     1      -9.725  19.023   6.799  1.00  0.00     0.020 A 
ATOM     93  C   UNL     1      -8.388  21.044   6.612  1.00  0.00     0.020 A 
ATOM     94  C   UNL     1      -9.624  20.417   6.794  1.00  0.00     0.054 A 
BRANCH  94  95
ATOM     95  S   UNL     1     -11.129  21.405   7.016  1.00  0.00     0.124 S 
ATOM     96  O   UNL     1     -11.776  21.278   5.714  1.00  0.00    -0.237 OA
ATOM     97  O   UNL     1     -11.799  20.725   8.122  1.00  0.00    -0.237 OA
ATOM     98  O   UNL     1     -10.620  22.738   7.333  1.00  0.00    -0.744 OA
ENDBRANCH  94  95
ENDBRANCH  68  89
ENDBRANCH  42  43
ENDBRANCH  35  37
ENDBRANCH  34  35
ENDBRANCH  33  34
ENDBRANCH  32  33
ENDBRANCH  31  32
ENDBRANCH  30  31
ENDBRANCH   1  30
TORSDOF 25
