REMARK SMILES O=C(OCCOCCOCCOCCOC(=O)c1cccc(-c2cc(NCc3ccccn3)nc3[nH]ccc23)c1)c1ccc(-c2c3nc(c(-c4ccc(S(=O)(=O)[O-])cc4)c4ccc([nH]4)c(-c4ccc(S(=O)(=O)[O-])cc4)c4nc(c(-c5ccc(S(=O)(=O)[O-])cc5)c5ccc2[nH]5)C=C4)C=C3)cc1
REMARK SMILES IDX 10 1 9 2 8 3 7 4 6 5 5 6 4 7 3 8 2 9 1 10 41 11 42 12 100 13
REMARK SMILES IDX 43 14 99 15 44 16 45 17 46 18 93 19 47 20 98 21 92 22 94 23
REMARK SMILES IDX 48 24 97 25 91 26 90 27 49 29 79 30 60 31 78 32 61 33 64 34
REMARK SMILES IDX 77 35 95 36 62 37 63 38 76 40 96 41 65 42 50 43 51 44 59 45
REMARK SMILES IDX 52 46 58 47 53 48 54 49 55 50 56 51 57 52 80 53 81 54 89 55
REMARK SMILES IDX 82 56 88 57 83 58 84 59 85 60 86 61 87 62 66 63 67 64 75 65
REMARK SMILES IDX 68 66 74 67 69 68 70 69 71 70 72 71 73 72 11 73 12 74 13 75
REMARK SMILES IDX 14 76 15 77 16 78 17 79 18 80 19 81 40 82 20 83 22 84 21 85
REMARK SMILES IDX 23 86 24 87 39 88 25 89 35 90 38 91 34 92 36 93 37 94 26 96
REMARK SMILES IDX 27 98 28 99 29 100 33 101 30 102 32 103 31 104
REMARK H PARENT 94 28 64 39 36 95 26 97
REMARK Flexibility Score: inf
ROOT
ATOM      1  C   UNL     1       3.989  -0.431  -3.808  1.00  0.00     0.188 C 
ENDROOT
BRANCH   1   2
ATOM      2  O   UNL     1       2.566  -0.441  -3.863  1.00  0.00    -0.377 OA
BRANCH   2   3
ATOM      3  C   UNL     1       1.879   0.014  -2.701  1.00  0.00     0.188 C 
BRANCH   3   4
ATOM      4  C   UNL     1       2.322  -0.641  -1.395  1.00  0.00     0.188 C 
BRANCH   4   5
ATOM      5  O   UNL     1       3.658  -0.263  -1.053  1.00  0.00    -0.376 OA
BRANCH   5   6
ATOM      6  C   UNL     1       4.477  -1.309  -0.530  1.00  0.00     0.202 C 
BRANCH   6   7
ATOM      7  C   UNL     1       4.314  -1.536   0.973  1.00  0.00     0.261 C 
BRANCH   7   8
ATOM      8  O   UNL     1       2.957  -1.357   1.401  1.00  0.00    -0.460 OA
BRANCH   8   9
ATOM      9  C   UNL     1       2.354  -0.206   1.795  1.00  0.00     0.338 C 
ATOM     10  O   UNL     1       1.162  -0.260   2.100  1.00  0.00    -0.246 OA
BRANCH   9  11
ATOM     11  C   UNL     1       3.042   1.123   1.904  1.00  0.00     0.060 A 
ATOM     12  C   UNL     1       4.213   1.501   1.242  1.00  0.00     0.016 A 
ATOM     13  C   UNL     1       2.426   2.081   2.730  1.00  0.00     0.016 A 
ATOM     14  C   UNL     1       4.820   2.727   1.473  1.00  0.00     0.010 A 
ATOM     15  C   UNL     1       3.016   3.329   2.956  1.00  0.00     0.010 A 
ATOM     16  C   UNL     1       4.250   3.623   2.369  1.00  0.00    -0.014 A 
BRANCH  16  17
ATOM     17  C   UNL     1       5.112   4.708   2.867  1.00  0.00     0.031 A 
ATOM     18  C   UNL     1       5.791   4.486   4.189  1.00  0.00     0.074 A 
ATOM     19  C   UNL     1       5.418   5.751   2.077  1.00  0.00     0.049 A 
ATOM     20  N   UNL     1       6.607   5.264   4.845  1.00  0.00    -0.248 NA
ATOM     21  C   UNL     1       5.529   3.195   4.854  1.00  0.00     0.031 C 
ATOM     22  C   UNL     1       4.930   5.945   0.709  1.00  0.00     0.029 A 
ATOM     23  N   UNL     1       6.249   6.816   2.291  1.00  0.00    -0.354 N 
ATOM     24  C   UNL     1       6.919   4.576   6.013  1.00  0.00     0.074 A 
ATOM     25  C   UNL     1       6.212   3.319   5.979  1.00  0.00     0.031 C 
ATOM     26  C   UNL     1       5.498   7.050   0.196  1.00  0.00     0.029 A 
ATOM     27  C   UNL     1       6.334   7.670   1.218  1.00  0.00     0.049 A 
ATOM     28  H   UNL     1       6.740   6.956   3.133  1.00  0.00     0.167 HD
ATOM     29  C   UNL     1       7.715   4.974   7.031  1.00  0.00     0.031 A 
ATOM     30  C   UNL     1       7.000   8.835   1.099  1.00  0.00     0.031 A 
ATOM     31  C   UNL     1       8.394   6.238   7.035  1.00  0.00     0.049 A 
ATOM     32  C   UNL     1       7.798   9.308   2.286  1.00  0.00     0.074 A 
ATOM     33  C   UNL     1       9.168   6.805   8.029  1.00  0.00     0.029 A 
ATOM     34  N   UNL     1       8.374   7.134   5.973  1.00  0.00    -0.354 N 
ATOM     35  N   UNL     1       8.011   8.697   3.430  1.00  0.00    -0.248 NA
ATOM     36  C   UNL     1       8.434  10.624   2.174  1.00  0.00     0.031 C 
ATOM     37  C   UNL     1       9.574   8.069   7.585  1.00  0.00     0.029 A 
ATOM     38  C   UNL     1       9.108   8.260   6.291  1.00  0.00     0.049 A 
ATOM     39  H   UNL     1       7.906   6.988   5.120  1.00  0.00     0.167 HD
ATOM     40  C   UNL     1       8.828   9.545   4.168  1.00  0.00     0.074 A 
ATOM     41  C   UNL     1       9.078  10.705   3.332  1.00  0.00     0.031 C 
ATOM     42  C   UNL     1       9.330   9.387   5.418  1.00  0.00     0.031 A 
BRANCH  29  43
ATOM     43  C   UNL     1       7.778   4.076   8.238  1.00  0.00    -0.014 A 
ATOM     44  C   UNL     1       8.437   2.833   8.210  1.00  0.00     0.010 A 
ATOM     45  C   UNL     1       7.097   4.460   9.407  1.00  0.00     0.010 A 
ATOM     46  C   UNL     1       8.362   1.967   9.306  1.00  0.00     0.020 A 
ATOM     47  C   UNL     1       7.043   3.610  10.515  1.00  0.00     0.020 A 
ATOM     48  C   UNL     1       7.654   2.357  10.448  1.00  0.00     0.054 A 
BRANCH  48  49
ATOM     49  S   UNL     1       7.540   1.205  11.845  1.00  0.00     0.124 S 
ATOM     50  O   UNL     1       6.592   0.214  11.341  1.00  0.00    -0.237 OA
ATOM     51  O   UNL     1       8.916   0.739  11.990  1.00  0.00    -0.237 OA
ATOM     52  O   UNL     1       7.048   2.037  12.941  1.00  0.00    -0.744 OA
ENDBRANCH  48  49
ENDBRANCH  29  43
BRANCH  30  53
ATOM     53  C   UNL     1       6.903   9.636  -0.154  1.00  0.00    -0.014 A 
ATOM     54  C   UNL     1       8.027   9.847  -0.972  1.00  0.00     0.010 A 
ATOM     55  C   UNL     1       5.669  10.190  -0.546  1.00  0.00     0.010 A 
ATOM     56  C   UNL     1       7.922  10.603  -2.146  1.00  0.00     0.020 A 
ATOM     57  C   UNL     1       5.552  10.921  -1.732  1.00  0.00     0.020 A 
ATOM     58  C   UNL     1       6.683  11.133  -2.520  1.00  0.00     0.054 A 
BRANCH  58  59
ATOM     59  S   UNL     1       6.558  12.072  -4.069  1.00  0.00     0.124 S 
ATOM     60  O   UNL     1       7.241  13.315  -3.727  1.00  0.00    -0.237 OA
ATOM     61  O   UNL     1       7.254  11.208  -5.019  1.00  0.00    -0.237 OA
ATOM     62  O   UNL     1       5.117  12.188  -4.284  1.00  0.00    -0.744 OA
ENDBRANCH  58  59
ENDBRANCH  30  53
BRANCH  42  63
ATOM     63  C   UNL     1      10.239  10.469   5.927  1.00  0.00    -0.014 A 
ATOM     64  C   UNL     1       9.736  11.718   6.328  1.00  0.00     0.010 A 
ATOM     65  C   UNL     1      11.613  10.197   6.063  1.00  0.00     0.010 A 
ATOM     66  C   UNL     1      10.602  12.693   6.826  1.00  0.00     0.020 A 
ATOM     67  C   UNL     1      12.475  11.159   6.588  1.00  0.00     0.020 A 
ATOM     68  C   UNL     1      11.966  12.407   6.952  1.00  0.00     0.054 A 
BRANCH  68  69
ATOM     69  S   UNL     1      13.064  13.673   7.642  1.00  0.00     0.124 S 
ATOM     70  O   UNL     1      13.193  14.603   6.524  1.00  0.00    -0.237 OA
ATOM     71  O   UNL     1      12.304  14.167   8.788  1.00  0.00    -0.237 OA
ATOM     72  O   UNL     1      14.276  12.931   7.980  1.00  0.00    -0.744 OA
ENDBRANCH  68  69
ENDBRANCH  42  63
ENDBRANCH  16  17
ENDBRANCH   9  11
ENDBRANCH   8   9
ENDBRANCH   7   8
ENDBRANCH   6   7
ENDBRANCH   5   6
ENDBRANCH   4   5
ENDBRANCH   3   4
ENDBRANCH   2   3
ENDBRANCH   1   2
BRANCH   1  73
ATOM     73  C   UNL     1       4.717   0.894  -3.483  1.00  0.00     0.188 C 
BRANCH  73  74
ATOM     74  O   UNL     1       3.861   2.014  -3.322  1.00  0.00    -0.376 OA
BRANCH  74  75
ATOM     75  C   UNL     1       3.879   2.965  -4.382  1.00  0.00     0.202 C 
BRANCH  75  76
ATOM     76  C   UNL     1       3.212   2.495  -5.681  1.00  0.00     0.261 C 
BRANCH  76  77
ATOM     77  O   UNL     1       3.776   1.306  -6.265  1.00  0.00    -0.460 OA
BRANCH  77  78
ATOM     78  C   UNL     1       5.061   1.336  -6.682  1.00  0.00     0.338 C 
ATOM     79  O   UNL     1       5.810   2.296  -6.716  1.00  0.00    -0.246 OA
BRANCH  78  80
ATOM     80  C   UNL     1       5.474  -0.071  -6.891  1.00  0.00     0.060 A 
ATOM     81  C   UNL     1       6.594  -0.585  -6.231  1.00  0.00     0.016 A 
ATOM     82  C   UNL     1       4.688  -0.911  -7.674  1.00  0.00     0.024 A 
ATOM     83  C   UNL     1       6.878  -1.952  -6.312  1.00  0.00     0.002 A 
ATOM     84  C   UNL     1       5.043  -2.259  -7.873  1.00  0.00    -0.017 A 
ATOM     85  C   UNL     1       6.110  -2.786  -7.135  1.00  0.00     0.009 A 
BRANCH  84  86
ATOM     86  C   UNL     1       4.455  -2.951  -9.017  1.00  0.00    -0.004 A 
ATOM     87  C   UNL     1       4.531  -2.313 -10.266  1.00  0.00     0.056 A 
ATOM     88  C   UNL     1       3.824  -4.205  -8.997  1.00  0.00     0.027 A 
ATOM     89  C   UNL     1       3.942  -2.838 -11.405  1.00  0.00     0.129 A 
ATOM     90  C   UNL     1       3.303  -4.652 -10.212  1.00  0.00     0.140 A 
ATOM     91  C   UNL     1       3.529  -5.217  -8.037  1.00  0.00     0.030 A 
ATOM     92  N   UNL     1       3.322  -4.031 -11.409  1.00  0.00    -0.213 NA
ATOM     93  N   UNL     1       2.738  -5.881 -10.004  1.00  0.00    -0.346 N 
ATOM     94  C   UNL     1       2.872  -6.242  -8.688  1.00  0.00     0.085 A 
ATOM     95  H   UNL     1       2.301  -6.426 -10.697  1.00  0.00     0.167 HD
BRANCH  89  96
ATOM     96  N   UNL     1       4.104  -2.093 -12.564  1.00  0.00    -0.364 N 
ATOM     97  H   UNL     1       4.731  -1.334 -12.563  1.00  0.00     0.162 HD
BRANCH  96  98
ATOM     98  C   UNL     1       3.373  -2.404 -13.771  1.00  0.00     0.170 C 
BRANCH  98  99
ATOM     99  C   UNL     1       2.345  -1.314 -14.028  1.00  0.00     0.059 A 
ATOM    100  C   UNL     1       1.057  -1.646 -14.438  1.00  0.00     0.026 A 
ATOM    101  N   UNL     1       2.748  -0.020 -13.867  1.00  0.00    -0.259 NA
ATOM    102  C   UNL     1       0.149  -0.622 -14.693  1.00  0.00     0.004 A 
ATOM    103  C   UNL     1       1.842   0.951 -14.115  1.00  0.00     0.111 A 
ATOM    104  C   UNL     1       0.546   0.701 -14.531  1.00  0.00     0.020 A 
ENDBRANCH  98  99
ENDBRANCH  96  98
ENDBRANCH  89  96
ENDBRANCH  84  86
ENDBRANCH  78  80
ENDBRANCH  77  78
ENDBRANCH  76  77
ENDBRANCH  75  76
ENDBRANCH  74  75
ENDBRANCH  73  74
ENDBRANCH   1  73
TORSDOF 27
