REMARK SMILES CC(C)CCc1cc2c(cc1Cl)C=C(C(=O)OCCOCCOCCOCCOC(=O)c1ccc(-c3c4nc(c(-c5ccc(S(=O)(=O)[O-])cc5)c5ccc([nH]5)c(-c5ccc(S(=O)(=O)[O-])cc5)c5nc(c(-c6ccc(S(=O)(=O)[O-])cc6)c6ccc3[nH]6)C=C5)C=C4)cc1)[C@@H](C(F)(F)F)O2
REMARK SMILES IDX 23 1 22 2 21 3 20 4 19 5 18 6 17 7 15 8 16 9 14 10 6 11 7 12
REMARK SMILES IDX 11 13 8 14 10 15 12 16 9 17 97 18 13 19 92 20 5 21 4 22 2 23
REMARK SMILES IDX 1 24 3 25 93 26 94 27 95 28 96 29 24 30 25 31 26 32 27 33
REMARK SMILES IDX 28 34 29 35 30 36 31 37 32 38 33 39 91 40 34 41 90 42 35 43
REMARK SMILES IDX 36 44 37 45 84 46 38 47 89 48 83 49 85 50 39 51 88 52 82 53
REMARK SMILES IDX 81 54 40 56 70 57 51 58 69 59 52 60 55 61 68 62 86 63 53 64
REMARK SMILES IDX 54 65 67 67 87 68 56 69 41 70 42 71 50 72 43 73 49 74 44 75
REMARK SMILES IDX 45 76 46 77 47 78 48 79 71 80 72 81 80 82 73 83 79 84 74 85
REMARK SMILES IDX 75 86 76 87 77 88 78 89 57 90 58 91 66 92 59 93 65 94 60 95
REMARK SMILES IDX 61 96 62 97 63 98 64 99
REMARK H PARENT 85 55 55 66
REMARK Flexibility Score: inf
ROOT
ATOM      1  O   UNL     1      -0.841   3.277  10.177  1.00  0.00    -0.377 OA
ENDROOT
BRANCH   1   2
ATOM      2  C   UNL     1      -0.949   1.956   9.675  1.00  0.00     0.188 C 
BRANCH   2   3
ATOM      3  C   UNL     1       0.117   1.011  10.260  1.00  0.00     0.188 C 
BRANCH   3   4
ATOM      4  O   UNL     1       0.790   1.560  11.390  1.00  0.00    -0.376 OA
BRANCH   4   5
ATOM      5  C   UNL     1       2.087   2.109  11.187  1.00  0.00     0.202 C 
BRANCH   5   6
ATOM      6  C   UNL     1       2.227   3.341  10.278  1.00  0.00     0.261 C 
BRANCH   6   7
ATOM      7  O   UNL     1       1.686   3.198   8.957  1.00  0.00    -0.460 OA
BRANCH   7   8
ATOM      8  C   UNL     1       2.256   2.301   8.133  1.00  0.00     0.338 C 
ATOM      9  O   UNL     1       3.237   1.614   8.359  1.00  0.00    -0.246 OA
BRANCH   8  10
ATOM     10  C   UNL     1       1.364   2.142   6.962  1.00  0.00     0.087 C 
ATOM     11  C   UNL     1      -1.153   0.430   2.975  1.00  0.00    -0.026 A 
ATOM     12  C   UNL     1      -1.030   1.685   3.601  1.00  0.00     0.052 A 
ATOM     13  C   UNL     1      -0.690  -0.698   3.671  1.00  0.00     0.045 A 
ATOM     14  C   UNL     1      -0.316   1.830   4.790  1.00  0.00     0.128 A 
ATOM     15  C   UNL     1       0.006  -0.554   4.876  1.00  0.00     0.032 A 
ATOM     16  Cl  UNL     1      -0.910  -2.307   3.078  1.00  0.00    -0.084 Cl
ATOM     17  C   UNL     1       0.248   0.716   5.404  1.00  0.00     0.019 A 
ATOM     18  O   UNL     1      -0.194   3.104   5.258  1.00  0.00    -0.475 OA
ATOM     19  C   UNL     1       1.126   0.891   6.546  1.00  0.00     0.027 C 
ATOM     20  C   UNL     1       0.712   3.366   6.366  1.00  0.00     0.316 C 
BRANCH  11  21
ATOM     21  C   UNL     1      -1.713   0.361   1.570  1.00  0.00     0.037 C 
BRANCH  21  22
ATOM     22  C   UNL     1      -1.084   1.371   0.587  1.00  0.00     0.008 C 
BRANCH  22  23
ATOM     23  C   UNL     1       0.460   1.357   0.511  1.00  0.00    -0.017 C 
ATOM     24  C   UNL     1       1.006   0.036  -0.029  1.00  0.00     0.007 C 
ATOM     25  C   UNL     1       0.951   2.520  -0.354  1.00  0.00     0.007 C 
ENDBRANCH  22  23
ENDBRANCH  21  22
ENDBRANCH  11  21
BRANCH  20  26
ATOM     26  C   UNL     1       1.744   4.408   5.911  1.00  0.00     0.430 C 
ATOM     27  F   UNL     1       1.142   5.469   5.324  1.00  0.00    -0.167 F 
ATOM     28  F   UNL     1       2.471   4.884   6.945  1.00  0.00    -0.167 F 
ATOM     29  F   UNL     1       2.611   3.884   5.012  1.00  0.00    -0.167 F 
ENDBRANCH  20  26
ENDBRANCH   8  10
ENDBRANCH   7   8
ENDBRANCH   6   7
ENDBRANCH   5   6
ENDBRANCH   4   5
ENDBRANCH   3   4
ENDBRANCH   2   3
ENDBRANCH   1   2
BRANCH   1  30
ATOM     30  C   UNL     1      -1.461   3.558  11.432  1.00  0.00     0.188 C 
BRANCH  30  31
ATOM     31  C   UNL     1      -1.716   2.446  12.477  1.00  0.00     0.188 C 
BRANCH  31  32
ATOM     32  O   UNL     1      -2.322   1.271  11.939  1.00  0.00    -0.376 OA
BRANCH  32  33
ATOM     33  C   UNL     1      -3.683   1.041  12.277  1.00  0.00     0.202 C 
BRANCH  33  34
ATOM     34  C   UNL     1      -4.676   1.898  11.484  1.00  0.00     0.261 C 
BRANCH  34  35
ATOM     35  O   UNL     1      -4.569   3.313  11.697  1.00  0.00    -0.460 OA
BRANCH  35  36
ATOM     36  C   UNL     1      -4.720   3.776  12.959  1.00  0.00     0.338 C 
ATOM     37  O   UNL     1      -4.997   3.127  13.951  1.00  0.00    -0.246 OA
BRANCH  36  38
ATOM     38  C   UNL     1      -4.281   5.187  12.960  1.00  0.00     0.060 A 
ATOM     39  C   UNL     1      -4.782   6.080  12.009  1.00  0.00     0.016 A 
ATOM     40  C   UNL     1      -3.327   5.607  13.896  1.00  0.00     0.016 A 
ATOM     41  C   UNL     1      -4.348   7.405  12.014  1.00  0.00     0.010 A 
ATOM     42  C   UNL     1      -2.890   6.934  13.896  1.00  0.00     0.010 A 
ATOM     43  C   UNL     1      -3.416   7.847  12.970  1.00  0.00    -0.014 A 
BRANCH  43  44
ATOM     44  C   UNL     1      -3.160   9.300  13.116  1.00  0.00     0.031 A 
ATOM     45  C   UNL     1      -1.935   9.958  12.562  1.00  0.00     0.074 A 
ATOM     46  C   UNL     1      -4.090  10.029  13.762  1.00  0.00     0.049 A 
ATOM     47  N   UNL     1      -1.647  11.234  12.519  1.00  0.00    -0.248 NA
ATOM     48  C   UNL     1      -0.902   9.086  11.986  1.00  0.00     0.031 C 
ATOM     49  C   UNL     1      -5.314   9.482  14.354  1.00  0.00     0.029 A 
ATOM     50  N   UNL     1      -4.168  11.374  14.015  1.00  0.00    -0.354 N 
ATOM     51  C   UNL     1      -0.414  11.327  11.889  1.00  0.00     0.074 A 
ATOM     52  C   UNL     1       0.016   9.971  11.610  1.00  0.00     0.031 C 
ATOM     53  C   UNL     1      -6.036  10.486  14.869  1.00  0.00     0.029 A 
ATOM     54  C   UNL     1      -5.318  11.742  14.672  1.00  0.00     0.049 A 
ATOM     55  H   UNL     1      -3.468  12.015  13.752  1.00  0.00     0.167 HD
ATOM     56  C   UNL     1       0.280  12.444  11.562  1.00  0.00     0.031 A 
ATOM     57  C   UNL     1      -5.760  12.953  15.064  1.00  0.00     0.031 A 
ATOM     58  C   UNL     1      -0.154  13.786  11.870  1.00  0.00     0.049 A 
ATOM     59  C   UNL     1      -4.948  14.171  14.732  1.00  0.00     0.074 A 
ATOM     60  C   UNL     1       0.463  14.981  11.538  1.00  0.00     0.029 A 
ATOM     61  N   UNL     1      -1.294  14.117  12.588  1.00  0.00    -0.354 N 
ATOM     62  N   UNL     1      -3.822  14.247  14.062  1.00  0.00    -0.248 NA
ATOM     63  C   UNL     1      -5.467  15.466  15.191  1.00  0.00     0.031 C 
ATOM     64  C   UNL     1      -0.260  16.025  12.118  1.00  0.00     0.029 A 
ATOM     65  C   UNL     1      -1.374  15.492  12.745  1.00  0.00     0.049 A 
ATOM     66  H   UNL     1      -1.950  13.470  12.935  1.00  0.00     0.167 HD
ATOM     67  C   UNL     1      -3.504  15.599  14.009  1.00  0.00     0.074 A 
ATOM     68  C   UNL     1      -4.569  16.306  14.692  1.00  0.00     0.031 C 
ATOM     69  C   UNL     1      -2.425  16.194  13.444  1.00  0.00     0.031 A 
BRANCH  56  70
ATOM     70  C   UNL     1       1.579  12.292  10.811  1.00  0.00    -0.014 A 
ATOM     71  C   UNL     1       2.789  12.691  11.409  1.00  0.00     0.010 A 
ATOM     72  C   UNL     1       1.583  11.901   9.460  1.00  0.00     0.010 A 
ATOM     73  C   UNL     1       3.971  12.738  10.662  1.00  0.00     0.020 A 
ATOM     74  C   UNL     1       2.768  11.920   8.716  1.00  0.00     0.020 A 
ATOM     75  C   UNL     1       3.950  12.363   9.316  1.00  0.00     0.054 A 
BRANCH  75  76
ATOM     76  S   UNL     1       5.484  12.471   8.353  1.00  0.00     0.124 S 
ATOM     77  O   UNL     1       5.629  13.911   8.164  1.00  0.00    -0.237 OA
ATOM     78  O   UNL     1       6.462  11.848   9.242  1.00  0.00    -0.237 OA
ATOM     79  O   UNL     1       5.182  11.710   7.143  1.00  0.00    -0.744 OA
ENDBRANCH  75  76
ENDBRANCH  56  70
BRANCH  57  80
ATOM     80  C   UNL     1      -7.069  13.047  15.764  1.00  0.00    -0.014 A 
ATOM     81  C   UNL     1      -7.228  12.496  17.050  1.00  0.00     0.010 A 
ATOM     82  C   UNL     1      -8.188  13.586  15.107  1.00  0.00     0.010 A 
ATOM     83  C   UNL     1      -8.492  12.426  17.639  1.00  0.00     0.020 A 
ATOM     84  C   UNL     1      -9.450  13.546  15.707  1.00  0.00     0.020 A 
ATOM     85  C   UNL     1      -9.598  12.936  16.955  1.00  0.00     0.054 A 
BRANCH  85  86
ATOM     86  S   UNL     1     -11.240  12.771  17.709  1.00  0.00     0.124 S 
ATOM     87  O   UNL     1     -11.524  11.354  17.496  1.00  0.00    -0.237 OA
ATOM     88  O   UNL     1     -10.995  13.162  19.095  1.00  0.00    -0.237 OA
ATOM     89  O   UNL     1     -12.065  13.697  16.939  1.00  0.00    -0.744 OA
ENDBRANCH  85  86
ENDBRANCH  57  80
BRANCH  69  90
ATOM     90  C   UNL     1      -2.306  17.694  13.551  1.00  0.00    -0.014 A 
ATOM     91  C   UNL     1      -2.375  18.489  12.392  1.00  0.00     0.010 A 
ATOM     92  C   UNL     1      -2.004  18.305  14.781  1.00  0.00     0.010 A 
ATOM     93  C   UNL     1      -2.107  19.860  12.453  1.00  0.00     0.020 A 
ATOM     94  C   UNL     1      -1.767  19.681  14.852  1.00  0.00     0.020 A 
ATOM     95  C   UNL     1      -1.793  20.445  13.683  1.00  0.00     0.054 A 
BRANCH  95  96
ATOM     96  S   UNL     1      -1.414  22.218  13.737  1.00  0.00     0.124 S 
ATOM     97  O   UNL     1      -0.064  22.261  13.181  1.00  0.00    -0.237 OA
ATOM     98  O   UNL     1      -2.460  22.797  12.897  1.00  0.00    -0.237 OA
ATOM     99  O   UNL     1      -1.514  22.547  15.158  1.00  0.00    -0.744 OA
ENDBRANCH  95  96
ENDBRANCH  69  90
ENDBRANCH  43  44
ENDBRANCH  36  38
ENDBRANCH  35  36
ENDBRANCH  34  35
ENDBRANCH  33  34
ENDBRANCH  32  33
ENDBRANCH  31  32
ENDBRANCH  30  31
ENDBRANCH   1  30
TORSDOF 27
