REMARK SMILES Cc1cccc(OC2(C(=O)OCCOCCOCCOCCOC(=O)c3ccc(-c4c5nc(c(-c6ccc(S(=O)(=O)[O-])cc6)c6ccc([nH]6)c(-c6ccc(S(=O)(=O)[O-])cc6)c6nc(c(-c7ccc(S(=O)(=O)[O-])cc7)c7ccc4[nH]7)C=C6)C=C5)cc3)CCN(C(=O)c3cnc[nH]c3=O)CC2)c1
REMARK SMILES IDX 18 1 17 2 16 3 15 4 14 5 13 6 12 7 11 8 9 9 10 10 8 11 86 12
REMARK SMILES IDX 99 13 87 14 98 15 88 16 89 17 90 18 7 19 6 20 1 21 2 22 3 23
REMARK SMILES IDX 100 24 4 25 5 26 91 27 92 28 96 29 93 30 95 31 97 32 94 33
REMARK SMILES IDX 19 35 20 36 21 37 22 38 23 39 24 40 25 41 26 42 27 43 85 44
REMARK SMILES IDX 28 45 84 46 29 47 30 48 31 49 78 50 32 51 83 52 77 53 79 54
REMARK SMILES IDX 33 55 82 56 76 57 75 58 34 60 64 61 45 62 63 63 46 64 49 65
REMARK SMILES IDX 62 66 80 67 47 68 48 69 61 71 81 72 50 73 35 74 36 75 44 76
REMARK SMILES IDX 37 77 43 78 38 79 39 80 40 81 41 82 42 83 65 84 66 85 74 86
REMARK SMILES IDX 67 87 73 88 68 89 69 90 70 91 71 92 72 93 51 94 52 95 60 96
REMARK SMILES IDX 53 97 59 98 54 99 55 100 56 101 57 102 58 103
REMARK H PARENT 95 34 79 59 49 70
REMARK Flexibility Score: inf
ROOT
ATOM      1  C   UNL     1       5.201   3.355  -2.661  1.00  0.00     0.188 C 
ENDROOT
BRANCH   1   2
ATOM      2  O   UNL     1       4.449   3.361  -1.468  1.00  0.00    -0.377 OA
BRANCH   2   3
ATOM      3  C   UNL     1       3.047   3.532  -1.661  1.00  0.00     0.188 C 
BRANCH   3   4
ATOM      4  C   UNL     1       2.372   3.649  -3.137  1.00  0.00     0.188 C 
BRANCH   4   5
ATOM      5  O   UNL     1       1.546   4.835  -3.623  1.00  0.00    -0.376 OA
BRANCH   5   6
ATOM      6  C   UNL     1       0.057   5.028  -4.111  1.00  0.00     0.202 C 
BRANCH   6   7
ATOM      7  C   UNL     1      -1.688   4.826  -3.526  1.00  0.00     0.261 C 
BRANCH   7   8
ATOM      8  O   UNL     1      -2.577   3.720  -2.337  1.00  0.00    -0.460 OA
BRANCH   8   9
ATOM      9  C   UNL     1      -2.717   2.765  -1.165  1.00  0.00     0.350 C 
ATOM     10  O   UNL     1      -3.662   1.961  -1.245  1.00  0.00    -0.247 OA
BRANCH   9  11
ATOM     11  C   UNL     1      -1.799   2.683   0.415  1.00  0.00     0.209 C 
ATOM     12  C   UNL     1      -0.228   2.856   0.596  1.00  0.00     0.082 C 
ATOM     13  C   UNL     1      -2.530   3.630   1.481  1.00  0.00     0.082 C 
ATOM     14  C   UNL     1       0.365   3.168   1.961  1.00  0.00     0.124 C 
ATOM     15  C   UNL     1      -1.786   3.870   2.824  1.00  0.00     0.124 C 
ATOM     16  N   UNL     1      -0.386   4.202   2.622  1.00  0.00    -0.338 N 
ATOM     17  C   UNL     1       0.286   5.339   3.037  1.00  0.00     0.261 C 
ATOM     18  O   UNL     1       1.168   5.897   2.385  1.00  0.00    -0.269 OA
BRANCH  11  19
ATOM     19  O   UNL     1      -2.112   1.360   1.052  1.00  0.00    -0.475 OA
BRANCH  19  20
ATOM     20  C   UNL     1      -1.403   0.271   0.626  1.00  0.00     0.121 A 
ATOM     21  C   UNL     1       2.100  -1.124   1.023  1.00  0.00     0.044 C 
ATOM     22  C   UNL     1       0.656  -1.040   0.623  1.00  0.00    -0.047 A 
ATOM     23  C   UNL     1       0.062  -1.947  -0.248  1.00  0.00     0.003 A 
ATOM     24  C   UNL     1      -0.136  -0.017   1.142  1.00  0.00     0.050 A 
ATOM     25  C   UNL     1      -1.270  -1.764  -0.644  1.00  0.00     0.004 A 
ATOM     26  C   UNL     1      -1.992  -0.639  -0.232  1.00  0.00     0.046 A 
ENDBRANCH  19  20
ENDBRANCH  11  19
BRANCH  17  27
ATOM     27  C   UNL     1       0.081   5.762   4.434  1.00  0.00     0.123 A 
ATOM     28  C   UNL     1      -0.328   7.007   4.721  1.00  0.00     0.132 A 
ATOM     29  C   UNL     1       0.597   4.956   5.557  1.00  0.00     0.263 A 
ATOM     30  N   UNL     1      -0.405   7.547   5.987  1.00  0.00    -0.246 NA
ATOM     31  N   UNL     1       0.544   5.559   6.783  1.00  0.00    -0.312 N 
ATOM     32  O   UNL     1       1.072   3.829   5.432  1.00  0.00    -0.269 OA
ATOM     33  C   UNL     1       0.042   6.814   6.950  1.00  0.00     0.199 A 
ATOM     34  H   UNL     1       0.877   5.070   7.570  1.00  0.00     0.171 HD
ENDBRANCH  17  27
ENDBRANCH   9  11
ENDBRANCH   8   9
ENDBRANCH   7   8
ENDBRANCH   6   7
ENDBRANCH   5   6
ENDBRANCH   4   5
ENDBRANCH   3   4
ENDBRANCH   2   3
ENDBRANCH   1   2
BRANCH   1  35
ATOM     35  C   UNL     1       5.321   1.958  -3.272  1.00  0.00     0.188 C 
BRANCH  35  36
ATOM     36  O   UNL     1       4.132   1.172  -3.113  1.00  0.00    -0.376 OA
BRANCH  36  37
ATOM     37  C   UNL     1       4.392  -0.205  -2.834  1.00  0.00     0.202 C 
BRANCH  37  38
ATOM     38  C   UNL     1       4.924  -0.973  -4.054  1.00  0.00     0.261 C 
BRANCH  38  39
ATOM     39  O   UNL     1       3.872  -1.267  -4.994  1.00  0.00    -0.460 OA
BRANCH  39  40
ATOM     40  C   UNL     1       3.553  -0.234  -5.816  1.00  0.00     0.338 C 
ATOM     41  O   UNL     1       4.279   0.210  -6.689  1.00  0.00    -0.246 OA
BRANCH  40  42
ATOM     42  C   UNL     1       2.245   0.340  -5.390  1.00  0.00     0.060 A 
ATOM     43  C   UNL     1       1.863   1.580  -5.871  1.00  0.00     0.016 A 
ATOM     44  C   UNL     1       1.514  -0.237  -4.343  1.00  0.00     0.016 A 
ATOM     45  C   UNL     1       0.856   2.278  -5.193  1.00  0.00     0.010 A 
ATOM     46  C   UNL     1       0.654   0.541  -3.562  1.00  0.00     0.010 A 
ATOM     47  C   UNL     1       0.370   1.860  -3.922  1.00  0.00    -0.014 A 
BRANCH  47  48
ATOM     48  C   UNL     1      -0.574   2.703  -2.979  1.00  0.00     0.031 A 
ATOM     49  C   UNL     1      -2.032   2.132  -3.863  1.00  0.00     0.074 A 
ATOM     50  C   UNL     1      -0.356   3.908  -1.905  1.00  0.00     0.049 A 
ATOM     51  N   UNL     1      -3.000   2.896  -4.307  1.00  0.00    -0.248 NA
ATOM     52  C   UNL     1      -2.240   0.806  -4.503  1.00  0.00     0.031 C 
ATOM     53  C   UNL     1      -1.394   4.867  -0.961  1.00  0.00     0.029 A 
ATOM     54  N   UNL     1       0.690   4.903  -1.560  1.00  0.00    -0.354 N 
ATOM     55  C   UNL     1      -4.078   2.167  -4.654  1.00  0.00     0.074 A 
ATOM     56  C   UNL     1      -3.477   0.911  -5.027  1.00  0.00     0.031 C 
ATOM     57  C   UNL     1      -0.899   5.931  -0.342  1.00  0.00     0.029 A 
ATOM     58  C   UNL     1       0.265   6.180  -1.062  1.00  0.00     0.049 A 
ATOM     59  H   UNL     1       1.646   4.693  -1.669  1.00  0.00     0.167 HD
ATOM     60  C   UNL     1      -5.342   2.636  -4.405  1.00  0.00     0.031 A 
ATOM     61  C   UNL     1       0.426   7.407  -1.652  1.00  0.00     0.031 A 
ATOM     62  C   UNL     1      -5.381   3.908  -3.593  1.00  0.00     0.049 A 
ATOM     63  C   UNL     1      -0.959   8.019  -2.079  1.00  0.00     0.074 A 
ATOM     64  C   UNL     1      -5.688   4.123  -2.254  1.00  0.00     0.029 A 
ATOM     65  N   UNL     1      -4.835   5.144  -4.021  1.00  0.00    -0.354 N 
ATOM     66  N   UNL     1      -2.050   7.304  -2.268  1.00  0.00    -0.248 NA
ATOM     67  C   UNL     1      -1.273   9.433  -2.240  1.00  0.00     0.031 C 
ATOM     68  C   UNL     1      -5.236   5.419  -1.857  1.00  0.00     0.029 A 
ATOM     69  C   UNL     1      -4.691   6.072  -2.955  1.00  0.00     0.049 A 
ATOM     70  H   UNL     1      -4.583   5.338  -4.952  1.00  0.00     0.167 HD
ATOM     71  C   UNL     1      -3.127   8.045  -2.693  1.00  0.00     0.074 A 
ATOM     72  C   UNL     1      -2.589   9.400  -2.556  1.00  0.00     0.031 C 
ATOM     73  C   UNL     1      -4.339   7.522  -3.139  1.00  0.00     0.031 A 
BRANCH  60  74
ATOM     74  C   UNL     1      -6.480   1.619  -4.534  1.00  0.00    -0.014 A 
ATOM     75  C   UNL     1      -7.503   1.512  -3.573  1.00  0.00     0.010 A 
ATOM     76  C   UNL     1      -6.507   0.655  -5.570  1.00  0.00     0.010 A 
ATOM     77  C   UNL     1      -8.405   0.426  -3.561  1.00  0.00     0.020 A 
ATOM     78  C   UNL     1      -7.364  -0.460  -5.542  1.00  0.00     0.020 A 
ATOM     79  C   UNL     1      -8.302  -0.579  -4.523  1.00  0.00     0.054 A 
BRANCH  79  80
ATOM     80  S   UNL     1      -9.372  -2.044  -4.416  1.00  0.00     0.124 S 
ATOM     81  O   UNL     1      -9.169  -2.496  -3.041  1.00  0.00    -0.237 OA
ATOM     82  O   UNL     1     -10.692  -1.492  -4.707  1.00  0.00    -0.237 OA
ATOM     83  O   UNL     1      -8.837  -2.942  -5.438  1.00  0.00    -0.744 OA
ENDBRANCH  79  80
ENDBRANCH  60  74
BRANCH  61  84
ATOM     84  C   UNL     1       1.803   7.641  -2.190  1.00  0.00    -0.014 A 
ATOM     85  C   UNL     1       2.877   7.359  -1.301  1.00  0.00     0.010 A 
ATOM     86  C   UNL     1       2.121   7.822  -3.542  1.00  0.00     0.010 A 
ATOM     87  C   UNL     1       4.181   7.115  -1.755  1.00  0.00     0.020 A 
ATOM     88  C   UNL     1       3.434   7.574  -4.007  1.00  0.00     0.020 A 
ATOM     89  C   UNL     1       4.448   7.194  -3.117  1.00  0.00     0.054 A 
BRANCH  89  90
ATOM     90  S   UNL     1       6.087   6.726  -3.765  1.00  0.00     0.124 S 
ATOM     91  O   UNL     1       6.570   7.979  -4.336  1.00  0.00    -0.237 OA
ATOM     92  O   UNL     1       6.814   6.263  -2.585  1.00  0.00    -0.237 OA
ATOM     93  O   UNL     1       5.773   5.680  -4.735  1.00  0.00    -0.744 OA
ENDBRANCH  89  90
ENDBRANCH  61  84
BRANCH  73  94
ATOM     94  C   UNL     1      -5.474   8.377  -3.714  1.00  0.00    -0.014 A 
ATOM     95  C   UNL     1      -5.317   9.662  -4.251  1.00  0.00     0.010 A 
ATOM     96  C   UNL     1      -6.777   7.817  -3.814  1.00  0.00     0.010 A 
ATOM     97  C   UNL     1      -6.401  10.370  -4.797  1.00  0.00     0.020 A 
ATOM     98  C   UNL     1      -7.853   8.489  -4.403  1.00  0.00     0.020 A 
ATOM     99  C   UNL     1      -7.661   9.777  -4.874  1.00  0.00     0.054 A 
BRANCH  99 100
ATOM    100  S   UNL     1      -9.020  10.662  -5.678  1.00  0.00     0.124 S 
ATOM    101  O   UNL     1      -9.524  11.495  -4.590  1.00  0.00    -0.237 OA
ATOM    102  O   UNL     1      -8.345  11.380  -6.757  1.00  0.00    -0.237 OA
ATOM    103  O   UNL     1      -9.914   9.593  -6.118  1.00  0.00    -0.744 OA
ENDBRANCH  99 100
ENDBRANCH  73  94
ENDBRANCH  47  48
ENDBRANCH  40  42
ENDBRANCH  39  40
ENDBRANCH  38  39
ENDBRANCH  37  38
ENDBRANCH  36  37
ENDBRANCH  35  36
ENDBRANCH   1  35
TORSDOF 26
