REMARK SMILES Cc1c(Cl)cc2c(c1C)O[C@@H](C(F)(F)F)C(C(=O)OCCOCCOCCOCCOC(=O)c1ccc(-c3c4nc(c(-c5ccc(S(=O)(=O)[O-])cc5)c5ccc([nH]5)c(-c5ccc(S(=O)(=O)[O-])cc5)c5nc(c(-c6ccc(S(=O)(=O)[O-])cc6)c6ccc3[nH]6)C=C5)C=C4)cc1)=C2
REMARK SMILES IDX 26 1 25 2 24 3 23 4 22 5 21 6 20 7 19 8 17 9 18 10 16 11
REMARK SMILES IDX 1 12 2 13 3 14 8 15 4 16 5 17 7 18 9 19 6 20 10 21 94 22
REMARK SMILES IDX 11 23 12 24 13 25 14 26 15 27 27 28 28 29 29 30 30 31 31 32
REMARK SMILES IDX 32 33 33 34 34 35 35 36 93 37 36 38 92 39 37 40 38 41 39 42
REMARK SMILES IDX 86 43 40 44 91 45 85 46 87 47 41 48 90 49 84 50 83 51 42 53
REMARK SMILES IDX 72 54 53 55 71 56 54 57 57 58 70 59 88 60 55 61 56 62 69 64
REMARK SMILES IDX 89 65 58 66 43 67 44 68 52 69 45 70 51 71 46 72 47 73 48 74
REMARK SMILES IDX 49 75 50 76 73 77 74 78 82 79 75 80 81 81 76 82 77 83 78 84
REMARK SMILES IDX 79 85 80 86 59 87 60 88 68 89 61 90 67 91 62 92 63 93 64 94
REMARK SMILES IDX 65 95 66 96
REMARK H PARENT 87 52 57 63
REMARK Flexibility Score: inf
ROOT
ATOM      1  C   UNL     1      -3.846   8.315   3.551  1.00  0.00     0.188 C 
ENDROOT
BRANCH   1   2
ATOM      2  O   UNL     1      -3.050   7.272   3.011  1.00  0.00    -0.377 OA
BRANCH   2   3
ATOM      3  C   UNL     1      -1.857   7.540   2.299  1.00  0.00     0.188 C 
BRANCH   3   4
ATOM      4  C   UNL     1      -1.726   8.755   1.369  1.00  0.00     0.188 C 
BRANCH   4   5
ATOM      5  O   UNL     1      -2.814   9.642   1.461  1.00  0.00    -0.376 OA
BRANCH   5   6
ATOM      6  C   UNL     1      -3.670   9.837   0.357  1.00  0.00     0.202 C 
BRANCH   6   7
ATOM      7  C   UNL     1      -4.331   8.648  -0.359  1.00  0.00     0.261 C 
BRANCH   7   8
ATOM      8  O   UNL     1      -3.823   7.347  -0.042  1.00  0.00    -0.460 OA
BRANCH   8   9
ATOM      9  C   UNL     1      -3.029   6.775  -0.967  1.00  0.00     0.338 C 
ATOM     10  O   UNL     1      -2.644   7.287  -2.006  1.00  0.00    -0.246 OA
BRANCH   9  11
ATOM     11  C   UNL     1      -2.539   5.473  -0.483  1.00  0.00     0.087 C 
ATOM     12  C   UNL     1       0.953   0.019   0.208  1.00  0.00     0.046 C 
ATOM     13  C   UNL     1       0.391   1.417   0.141  1.00  0.00    -0.026 A 
ATOM     14  C   UNL     1       1.234   2.544   0.071  1.00  0.00     0.045 A 
ATOM     15  C   UNL     1      -1.016   1.615   0.096  1.00  0.00    -0.004 A 
ATOM     16  Cl  UNL     1       2.960   2.428   0.137  1.00  0.00    -0.084 Cl
ATOM     17  C   UNL     1       0.705   3.826  -0.088  1.00  0.00     0.032 A 
ATOM     18  C   UNL     1      -1.532   2.915  -0.082  1.00  0.00     0.131 A 
ATOM     19  C   UNL     1      -1.996   0.477   0.249  1.00  0.00     0.049 C 
ATOM     20  C   UNL     1      -0.672   4.009  -0.197  1.00  0.00     0.019 A 
ATOM     21  O   UNL     1      -2.893   3.042  -0.230  1.00  0.00    -0.475 OA
ATOM     22  C   UNL     1      -1.210   5.313  -0.535  1.00  0.00     0.027 C 
ATOM     23  C   UNL     1      -3.487   4.372  -0.093  1.00  0.00     0.316 C 
BRANCH  23  24
ATOM     24  C   UNL     1      -4.128   4.473   1.305  1.00  0.00     0.430 C 
ATOM     25  F   UNL     1      -3.205   4.419   2.292  1.00  0.00    -0.167 F 
ATOM     26  F   UNL     1      -4.862   5.593   1.465  1.00  0.00    -0.167 F 
ATOM     27  F   UNL     1      -4.980   3.433   1.504  1.00  0.00    -0.167 F 
ENDBRANCH  23  24
ENDBRANCH   9  11
ENDBRANCH   8   9
ENDBRANCH   7   8
ENDBRANCH   6   7
ENDBRANCH   5   6
ENDBRANCH   4   5
ENDBRANCH   3   4
ENDBRANCH   2   3
ENDBRANCH   1   2
BRANCH   1  28
ATOM     28  C   UNL     1      -3.189   9.515   4.262  1.00  0.00     0.188 C 
BRANCH  28  29
ATOM     29  O   UNL     1      -1.923   9.372   4.890  1.00  0.00    -0.376 OA
BRANCH  29  30
ATOM     30  C   UNL     1      -1.636   8.185   5.610  1.00  0.00     0.202 C 
BRANCH  30  31
ATOM     31  C   UNL     1      -2.420   7.894   6.887  1.00  0.00     0.261 C 
BRANCH  31  32
ATOM     32  O   UNL     1      -3.830   7.766   6.671  1.00  0.00    -0.460 OA
BRANCH  32  33
ATOM     33  C   UNL     1      -4.570   8.810   7.103  1.00  0.00     0.338 C 
ATOM     34  O   UNL     1      -4.167   9.826   7.658  1.00  0.00    -0.246 OA
BRANCH  33  35
ATOM     35  C   UNL     1      -5.964   8.640   6.666  1.00  0.00     0.060 A 
ATOM     36  C   UNL     1      -6.570   9.685   5.957  1.00  0.00     0.016 A 
ATOM     37  C   UNL     1      -6.688   7.500   7.020  1.00  0.00     0.016 A 
ATOM     38  C   UNL     1      -7.924   9.619   5.648  1.00  0.00     0.010 A 
ATOM     39  C   UNL     1      -8.051   7.444   6.727  1.00  0.00     0.010 A 
ATOM     40  C   UNL     1      -8.680   8.523   6.081  1.00  0.00    -0.014 A 
BRANCH  40  41
ATOM     41  C   UNL     1     -10.156   8.610   6.056  1.00  0.00     0.031 A 
ATOM     42  C   UNL     1     -10.863   9.025   7.318  1.00  0.00     0.074 A 
ATOM     43  C   UNL     1     -10.845   8.373   4.927  1.00  0.00     0.049 A 
ATOM     44  N   UNL     1     -12.144   9.138   7.549  1.00  0.00    -0.248 NA
ATOM     45  C   UNL     1     -10.011   9.361   8.473  1.00  0.00     0.031 C 
ATOM     46  C   UNL     1     -10.257   8.033   3.632  1.00  0.00     0.029 A 
ATOM     47  N   UNL     1     -12.196   8.387   4.692  1.00  0.00    -0.354 N 
ATOM     48  C   UNL     1     -12.252   9.555   8.871  1.00  0.00     0.074 A 
ATOM     49  C   UNL     1     -10.911   9.642   9.404  1.00  0.00     0.031 C 
ATOM     50  C   UNL     1     -11.246   7.872   2.735  1.00  0.00     0.029 A 
ATOM     51  C   UNL     1     -12.534   8.058   3.401  1.00  0.00     0.049 A 
ATOM     52  H   UNL     1     -12.861   8.612   5.382  1.00  0.00     0.167 HD
ATOM     53  C   UNL     1     -13.369   9.850   9.573  1.00  0.00     0.031 A 
ATOM     54  C   UNL     1     -13.746   7.906   2.832  1.00  0.00     0.031 A 
ATOM     55  C   UNL     1     -14.699   9.750   9.038  1.00  0.00     0.049 A 
ATOM     56  C   UNL     1     -14.979   8.137   3.668  1.00  0.00     0.074 A 
ATOM     57  C   UNL     1     -15.901  10.019   9.668  1.00  0.00     0.029 A 
ATOM     58  N   UNL     1     -15.003   9.349   7.746  1.00  0.00    -0.354 N 
ATOM     59  N   UNL     1     -15.068   8.531   4.917  1.00  0.00    -0.248 NA
ATOM     60  C   UNL     1     -16.277   7.905   3.017  1.00  0.00     0.031 C 
ATOM     61  C   UNL     1     -16.934   9.721   8.776  1.00  0.00     0.029 A 
ATOM     62  C   UNL     1     -16.375   9.335   7.568  1.00  0.00     0.049 A 
ATOM     63  H   UNL     1     -14.341   9.110   7.058  1.00  0.00     0.167 HD
ATOM     64  C   UNL     1     -16.429   8.620   5.192  1.00  0.00     0.074 A 
ATOM     65  C   UNL     1     -17.125   8.256   3.975  1.00  0.00     0.031 C 
ATOM     66  C   UNL     1     -17.049   8.970   6.346  1.00  0.00     0.031 A 
BRANCH  53  67
ATOM     67  C   UNL     1     -13.207  10.291  11.003  1.00  0.00    -0.014 A 
ATOM     68  C   UNL     1     -12.685  11.559  11.316  1.00  0.00     0.010 A 
ATOM     69  C   UNL     1     -13.649   9.456  12.046  1.00  0.00     0.010 A 
ATOM     70  C   UNL     1     -12.595  11.977  12.646  1.00  0.00     0.020 A 
ATOM     71  C   UNL     1     -13.586   9.882  13.375  1.00  0.00     0.020 A 
ATOM     72  C   UNL     1     -13.053  11.139  13.667  1.00  0.00     0.054 A 
BRANCH  72  73
ATOM     73  S   UNL     1     -12.977  11.736  15.378  1.00  0.00     0.124 S 
ATOM     74  O   UNL     1     -11.537  11.787  15.617  1.00  0.00    -0.237 OA
ATOM     75  O   UNL     1     -13.645  13.032  15.291  1.00  0.00    -0.237 OA
ATOM     76  O   UNL     1     -13.696  10.715  16.136  1.00  0.00    -0.744 OA
ENDBRANCH  72  73
ENDBRANCH  53  67
BRANCH  54  77
ATOM     77  C   UNL     1     -13.856   7.504   1.402  1.00  0.00    -0.014 A 
ATOM     78  C   UNL     1     -14.378   8.393   0.446  1.00  0.00     0.010 A 
ATOM     79  C   UNL     1     -13.439   6.225   0.987  1.00  0.00     0.010 A 
ATOM     80  C   UNL     1     -14.495   8.006  -0.892  1.00  0.00     0.020 A 
ATOM     81  C   UNL     1     -13.526   5.845  -0.355  1.00  0.00     0.020 A 
ATOM     82  C   UNL     1     -14.063   6.736  -1.285  1.00  0.00     0.054 A 
BRANCH  82  83
ATOM     83  S   UNL     1     -14.182   6.278  -3.037  1.00  0.00     0.124 S 
ATOM     84  O   UNL     1     -15.625   6.185  -3.231  1.00  0.00    -0.237 OA
ATOM     85  O   UNL     1     -13.525   7.403  -3.698  1.00  0.00    -0.237 OA
ATOM     86  O   UNL     1     -13.457   5.012  -3.111  1.00  0.00    -0.744 OA
ENDBRANCH  82  83
ENDBRANCH  54  77
BRANCH  66  87
ATOM     87  C   UNL     1     -18.554   9.005   6.353  1.00  0.00    -0.014 A 
ATOM     88  C   UNL     1     -19.308   7.819   6.322  1.00  0.00     0.010 A 
ATOM     89  C   UNL     1     -19.221  10.238   6.483  1.00  0.00     0.010 A 
ATOM     90  C   UNL     1     -20.703   7.867   6.396  1.00  0.00     0.020 A 
ATOM     91  C   UNL     1     -20.613  10.288   6.590  1.00  0.00     0.020 A 
ATOM     92  C   UNL     1     -21.346   9.101   6.535  1.00  0.00     0.054 A 
BRANCH  92  93
ATOM     93  S   UNL     1     -23.152   9.126   6.686  1.00  0.00     0.124 S 
ATOM     94  O   UNL     1     -23.575   8.716   5.350  1.00  0.00    -0.237 OA
ATOM     95  O   UNL     1     -23.396   8.154   7.748  1.00  0.00    -0.237 OA
ATOM     96  O   UNL     1     -23.454  10.513   7.035  1.00  0.00    -0.744 OA
ENDBRANCH  92  93
ENDBRANCH  66  87
ENDBRANCH  40  41
ENDBRANCH  33  35
ENDBRANCH  32  33
ENDBRANCH  31  32
ENDBRANCH  30  31
ENDBRANCH  29  30
ENDBRANCH  28  29
ENDBRANCH   1  28
TORSDOF 24
