REMARK SMILES Cc1cc(F)ccc1S(=O)(=O)Nc1ccc2oc(C)c(C(=O)OCCOCCOCCOCCOC(=O)c3ccc(-c4c5nc(c(-c6ccc(S(=O)(=O)[O-])cc6)c6ccc([nH]6)c(-c6ccc(S(=O)(=O)[O-])cc6)c6nc(c(-c7ccc(S(=O)(=O)[O-])cc7)c7ccc4[nH]7)C=C6)C=C5)cc3)c2c1
REMARK SMILES IDX 29 1 28 2 27 3 26 4 25 5 24 6 23 7 21 8 22 9 20 10 13 11
REMARK SMILES IDX 14 12 99 13 15 14 98 15 16 16 17 17 18 18 19 19 12 20 9 22
REMARK SMILES IDX 10 23 11 24 8 25 1 26 2 27 3 28 4 29 7 30 5 31 6 32 30 33
REMARK SMILES IDX 31 34 32 35 33 36 34 37 35 38 36 39 37 40 38 41 39 42 97 43
REMARK SMILES IDX 40 44 96 45 41 46 42 47 43 48 90 49 44 50 95 51 89 52 91 53
REMARK SMILES IDX 45 54 94 55 88 56 87 57 46 59 76 60 57 61 75 62 58 63 61 64
REMARK SMILES IDX 74 65 92 66 59 67 60 68 73 70 93 71 62 72 47 73 48 74 56 75
REMARK SMILES IDX 49 76 55 77 50 78 51 79 52 80 53 81 54 82 77 83 78 84 86 85
REMARK SMILES IDX 79 86 85 87 80 88 81 89 82 90 83 91 84 92 63 93 64 94 72 95
REMARK SMILES IDX 65 96 71 97 66 98 67 99 68 100 69 101 70 102
REMARK H PARENT 12 21 91 58 61 69
REMARK Flexibility Score: inf
ROOT
ATOM      1  O   UNL     1       7.981   5.662  -2.559  1.00  0.00    -0.377 OA
ENDROOT
BRANCH   1   2
ATOM      2  C   UNL     1       7.502   4.529  -1.866  1.00  0.00     0.188 C 
BRANCH   2   3
ATOM      3  C   UNL     1       7.381   3.257  -2.728  1.00  0.00     0.188 C 
BRANCH   3   4
ATOM      4  O   UNL     1       7.491   3.266  -4.149  1.00  0.00    -0.376 OA
BRANCH   4   5
ATOM      5  C   UNL     1       7.216   4.432  -4.912  1.00  0.00     0.202 C 
BRANCH   5   6
ATOM      6  C   UNL     1       5.767   4.934  -4.963  1.00  0.00     0.261 C 
BRANCH   6   7
ATOM      7  O   UNL     1       5.196   5.187  -3.671  1.00  0.00    -0.460 OA
BRANCH   7   8
ATOM      8  C   UNL     1       4.263   4.291  -3.252  1.00  0.00     0.342 C 
ATOM      9  O   UNL     1       3.776   3.406  -3.948  1.00  0.00    -0.246 OA
BRANCH   8  10
ATOM     10  C   UNL     1       4.043   4.340  -1.821  1.00  0.00     0.109 A 
ATOM     11  C   UNL     1       3.922   0.947  -0.116  1.00  0.00     0.050 A 
ATOM     12  C   UNL     1       3.713   1.435   1.174  1.00  0.00     0.030 A 
ATOM     13  C   UNL     1       4.197   1.824  -1.169  1.00  0.00     0.039 A 
ATOM     14  C   UNL     1       3.671   2.821   1.424  1.00  0.00     0.050 A 
ATOM     15  C   UNL     1       4.037   3.202  -0.964  1.00  0.00     0.037 A 
ATOM     16  C   UNL     1       3.799   3.661   0.318  1.00  0.00     0.135 A 
ATOM     17  O   UNL     1       3.704   5.020   0.307  1.00  0.00    -0.460 OA
ATOM     18  C   UNL     1       3.856   5.431  -0.992  1.00  0.00     0.116 A 
ATOM     19  C   UNL     1       3.771   6.888  -1.226  1.00  0.00     0.088 C 
BRANCH  11  20
ATOM     20  N   UNL     1       3.799  -0.408  -0.502  1.00  0.00    -0.280 N 
ATOM     21  H   UNL     1       4.399  -0.721  -1.217  1.00  0.00     0.180 HD
BRANCH  20  22
ATOM     22  S   UNL     1       2.747  -1.523   0.129  1.00  0.00     0.262 S 
ATOM     23  O   UNL     1       2.984  -1.612   1.556  1.00  0.00    -0.201 OA
ATOM     24  O   UNL     1       2.915  -2.694  -0.711  1.00  0.00    -0.201 OA
BRANCH  22  25
ATOM     25  C   UNL     1       1.023  -1.054  -0.064  1.00  0.00     0.090 A 
ATOM     26  C   UNL     1       1.184   1.099  -1.513  1.00  0.00     0.046 C 
ATOM     27  C   UNL     1       0.467   0.069  -0.705  1.00  0.00    -0.028 A 
ATOM     28  C   UNL     1      -0.925   0.288  -0.586  1.00  0.00     0.044 A 
ATOM     29  C   UNL     1      -1.750  -0.628   0.049  1.00  0.00     0.123 A 
ATOM     30  C   UNL     1       0.152  -1.987   0.548  1.00  0.00     0.025 A 
ATOM     31  F   UNL     1      -3.066  -0.394   0.119  1.00  0.00    -0.207 F 
ATOM     32  C   UNL     1      -1.226  -1.784   0.592  1.00  0.00     0.040 A 
ENDBRANCH  22  25
ENDBRANCH  20  22
ENDBRANCH  11  20
ENDBRANCH   8  10
ENDBRANCH   7   8
ENDBRANCH   6   7
ENDBRANCH   5   6
ENDBRANCH   4   5
ENDBRANCH   3   4
ENDBRANCH   2   3
ENDBRANCH   1   2
BRANCH   1  33
ATOM     33  C   UNL     1       9.342   5.987  -2.322  1.00  0.00     0.188 C 
BRANCH  33  34
ATOM     34  C   UNL     1      10.339   4.841  -2.538  1.00  0.00     0.188 C 
BRANCH  34  35
ATOM     35  O   UNL     1      10.218   3.811  -1.551  1.00  0.00    -0.376 OA
BRANCH  35  36
ATOM     36  C   UNL     1      11.201   3.819  -0.517  1.00  0.00     0.202 C 
BRANCH  36  37
ATOM     37  C   UNL     1      10.881   4.774   0.643  1.00  0.00     0.261 C 
BRANCH  37  38
ATOM     38  O   UNL     1      10.911   6.172   0.314  1.00  0.00    -0.460 OA
BRANCH  38  39
ATOM     39  C   UNL     1      12.057   6.663  -0.206  1.00  0.00     0.338 C 
ATOM     40  O   UNL     1      13.110   6.071  -0.350  1.00  0.00    -0.246 OA
BRANCH  39  41
ATOM     41  C   UNL     1      11.771   8.000  -0.766  1.00  0.00     0.060 A 
ATOM     42  C   UNL     1      12.150   8.264  -2.088  1.00  0.00     0.016 A 
ATOM     43  C   UNL     1      11.149   8.984   0.007  1.00  0.00     0.016 A 
ATOM     44  C   UNL     1      11.954   9.536  -2.626  1.00  0.00     0.010 A 
ATOM     45  C   UNL     1      10.974  10.262  -0.525  1.00  0.00     0.010 A 
ATOM     46  C   UNL     1      11.413  10.553  -1.828  1.00  0.00    -0.014 A 
BRANCH  46  47
ATOM     47  C   UNL     1      11.518  11.966  -2.257  1.00  0.00     0.031 A 
ATOM     48  C   UNL     1      12.737  12.740  -1.833  1.00  0.00     0.074 A 
ATOM     49  C   UNL     1      10.552  12.557  -2.981  1.00  0.00     0.049 A 
ATOM     50  N   UNL     1      13.022  14.002  -2.016  1.00  0.00    -0.248 NA
ATOM     51  C   UNL     1      13.770  11.986  -1.101  1.00  0.00     0.031 C 
ATOM     52  C   UNL     1       9.344  11.903  -3.481  1.00  0.00     0.029 A 
ATOM     53  N   UNL     1      10.436  13.856  -3.408  1.00  0.00    -0.354 N 
ATOM     54  C   UNL     1      14.262  14.195  -1.418  1.00  0.00     0.074 A 
ATOM     55  C   UNL     1      14.667  12.927  -0.852  1.00  0.00     0.031 C 
ATOM     56  C   UNL     1       8.597  12.812  -4.134  1.00  0.00     0.029 A 
ATOM     57  C   UNL     1       9.261  14.114  -4.072  1.00  0.00     0.049 A 
ATOM     58  H   UNL     1      11.129  14.538  -3.254  1.00  0.00     0.167 HD
ATOM     59  C   UNL     1      15.000  15.327  -1.344  1.00  0.00     0.031 A 
ATOM     60  C   UNL     1       8.770  15.274  -4.551  1.00  0.00     0.031 A 
ATOM     61  C   UNL     1      14.585  16.594  -1.877  1.00  0.00     0.049 A 
ATOM     62  C   UNL     1       9.576  16.538  -4.396  1.00  0.00     0.074 A 
ATOM     63  C   UNL     1      15.256  17.803  -1.847  1.00  0.00     0.029 A 
ATOM     64  N   UNL     1      13.381  16.816  -2.527  1.00  0.00    -0.354 N 
ATOM     65  N   UNL     1      10.755  16.701  -3.844  1.00  0.00    -0.248 NA
ATOM     66  C   UNL     1       8.985  17.773  -4.931  1.00  0.00     0.031 C 
ATOM     67  C   UNL     1      14.438  18.767  -2.447  1.00  0.00     0.029 A 
ATOM     68  C   UNL     1      13.280  18.147  -2.890  1.00  0.00     0.049 A 
ATOM     69  H   UNL     1      12.699  16.128  -2.705  1.00  0.00     0.167 HD
ATOM     70  C   UNL     1      11.059  18.052  -3.990  1.00  0.00     0.074 A 
ATOM     71  C   UNL     1       9.943  18.659  -4.686  1.00  0.00     0.031 C 
ATOM     72  C   UNL     1      12.163  18.728  -3.588  1.00  0.00     0.031 A 
BRANCH  59  73
ATOM     73  C   UNL     1      16.315  15.239  -0.623  1.00  0.00    -0.014 A 
ATOM     74  C   UNL     1      17.421  14.599  -1.211  1.00  0.00     0.010 A 
ATOM     75  C   UNL     1      16.447  15.802   0.659  1.00  0.00     0.010 A 
ATOM     76  C   UNL     1      18.625  14.488  -0.512  1.00  0.00     0.020 A 
ATOM     77  C   UNL     1      17.657  15.712   1.352  1.00  0.00     0.020 A 
ATOM     78  C   UNL     1      18.733  15.038   0.769  1.00  0.00     0.054 A 
BRANCH  78  79
ATOM     79  S   UNL     1      20.307  14.885   1.656  1.00  0.00     0.124 S 
ATOM     80  O   UNL     1      20.269  13.492   2.095  1.00  0.00    -0.237 OA
ATOM     81  O   UNL     1      21.292  15.190   0.622  1.00  0.00    -0.237 OA
ATOM     82  O   UNL     1      20.201  15.878   2.723  1.00  0.00    -0.744 OA
ENDBRANCH  78  79
ENDBRANCH  59  73
BRANCH  60  83
ATOM     83  C   UNL     1       7.435  15.303  -5.207  1.00  0.00    -0.014 A 
ATOM     84  C   UNL     1       7.325  15.481  -6.597  1.00  0.00     0.010 A 
ATOM     85  C   UNL     1       6.266  15.153  -4.440  1.00  0.00     0.010 A 
ATOM     86  C   UNL     1       6.067  15.520  -7.207  1.00  0.00     0.020 A 
ATOM     87  C   UNL     1       5.008  15.170  -5.049  1.00  0.00     0.020 A 
ATOM     88  C   UNL     1       4.917  15.364  -6.429  1.00  0.00     0.054 A 
BRANCH  88  89
ATOM     89  S   UNL     1       3.296  15.359  -7.246  1.00  0.00     0.124 S 
ATOM     90  O   UNL     1       3.075  16.780  -7.491  1.00  0.00    -0.237 OA
ATOM     91  O   UNL     1       3.541  14.541  -8.432  1.00  0.00    -0.237 OA
ATOM     92  O   UNL     1       2.417  14.748  -6.251  1.00  0.00    -0.744 OA
ENDBRANCH  88  89
ENDBRANCH  60  83
BRANCH  72  93
ATOM     93  C   UNL     1      12.242  20.192  -3.923  1.00  0.00    -0.014 A 
ATOM     94  C   UNL     1      11.503  21.145  -3.201  1.00  0.00     0.010 A 
ATOM     95  C   UNL     1      13.129  20.623  -4.927  1.00  0.00     0.010 A 
ATOM     96  C   UNL     1      11.634  22.505  -3.494  1.00  0.00     0.020 A 
ATOM     97  C   UNL     1      13.277  21.983  -5.207  1.00  0.00     0.020 A 
ATOM     98  C   UNL     1      12.520  22.916  -4.495  1.00  0.00     0.054 A 
BRANCH  98  99
ATOM     99  S   UNL     1      12.716  24.690  -4.820  1.00  0.00     0.124 S 
ATOM    100  O   UNL     1      11.519  24.989  -5.600  1.00  0.00    -0.237 OA
ATOM    101  O   UNL     1      12.752  25.263  -3.477  1.00  0.00    -0.237 OA
ATOM    102  O   UNL     1      13.976  24.768  -5.556  1.00  0.00    -0.744 OA
ENDBRANCH  98  99
ENDBRANCH  72  93
ENDBRANCH  46  47
ENDBRANCH  39  41
ENDBRANCH  38  39
ENDBRANCH  37  38
ENDBRANCH  36  37
ENDBRANCH  35  36
ENDBRANCH  34  35
ENDBRANCH  33  34
ENDBRANCH   1  33
TORSDOF 26
