REMARK SMILES CC[C@@](C)(NC(=O)N(C)CCO)C(=O)OCCOCCOCCOCCOC(=O)c1ccc(-c2c3nc(c(-c4ccc(S(=O)(=O)[O-])cc4)c4ccc([nH]4)c(-c4ccc(S(=O)(=O)[O-])cc4)c4nc(c(-c5ccc(S(=O)(=O)[O-])cc5)c5ccc2[nH]5)C=C4)C=C3)cc1
REMARK SMILES IDX 20 1 19 2 18 3 17 4 16 5 15 6 13 7 14 8 3 9 4 10 2 11 1 12
REMARK SMILES IDX 5 13 6 14 7 16 8 17 9 18 10 19 11 20 12 21 21 23 22 24 23 25
REMARK SMILES IDX 24 26 25 27 26 28 27 29 28 30 29 31 30 32 31 33 89 34 32 35
REMARK SMILES IDX 88 36 33 37 34 38 35 39 82 40 36 41 87 42 81 43 83 44 37 45
REMARK SMILES IDX 86 46 80 47 79 48 38 50 68 51 49 52 67 53 50 54 53 55 66 56
REMARK SMILES IDX 84 57 51 58 52 59 65 61 85 62 54 63 39 64 40 65 48 66 41 67
REMARK SMILES IDX 47 68 42 69 43 70 44 71 45 72 46 73 69 74 70 75 78 76 71 77
REMARK SMILES IDX 77 78 72 79 73 80 74 81 75 82 76 83 55 84 56 85 64 86 57 87
REMARK SMILES IDX 63 88 58 89 59 90 60 91 61 92 62 93
REMARK H PARENT 5 15 12 22 83 49 53 60
REMARK Flexibility Score: inf
ROOT
ATOM      1  C   UNL     1       3.612   1.146  -3.122  1.00  0.00     0.188 C 
ENDROOT
BRANCH   1   2
ATOM      2  C   UNL     1       4.176   1.157  -1.690  1.00  0.00     0.188 C 
BRANCH   2   3
ATOM      3  O   UNL     1       5.403   0.486  -1.417  1.00  0.00    -0.376 OA
BRANCH   3   4
ATOM      4  C   UNL     1       5.600  -0.826  -1.938  1.00  0.00     0.202 C 
BRANCH   4   5
ATOM      5  C   UNL     1       4.672  -1.883  -1.368  1.00  0.00     0.261 C 
BRANCH   5   6
ATOM      6  O   UNL     1       3.382  -1.680  -1.970  1.00  0.00    -0.462 OA
BRANCH   6   7
ATOM      7  C   UNL     1       2.311  -1.720  -1.167  1.00  0.00     0.331 C 
ATOM      8  O   UNL     1       2.391  -1.938   0.039  1.00  0.00    -0.249 OA
BRANCH   7   9
ATOM      9  C   UNL     1       0.965  -1.503  -1.917  1.00  0.00     0.136 C 
ATOM     10  C   UNL     1       0.149  -2.772  -1.629  1.00  0.00     0.047 C 
BRANCH   9  11
ATOM     11  C   UNL     1       0.287  -0.241  -1.241  1.00  0.00     0.037 C 
ATOM     12  C   UNL     1       0.355  -0.039   0.266  1.00  0.00     0.007 C 
ENDBRANCH   9  11
BRANCH   9  13
ATOM     13  N   UNL     1       0.781  -1.166  -3.389  1.00  0.00    -0.322 N 
ATOM     14  C   UNL     1       1.131  -1.312  -4.665  1.00  0.00     0.318 C 
ATOM     15  H   UNL     1       0.036  -0.522  -3.407  1.00  0.00     0.166 HD
ATOM     16  O   UNL     1       0.283  -0.877  -5.458  1.00  0.00    -0.249 OA
BRANCH  14  17
ATOM     17  N   UNL     1       2.323  -1.744  -5.123  1.00  0.00    -0.326 N 
ATOM     18  C   UNL     1       3.220  -2.674  -4.485  1.00  0.00     0.148 C 
BRANCH  17  19
ATOM     19  C   UNL     1       2.769  -1.261  -6.447  1.00  0.00     0.149 C 
BRANCH  19  20
ATOM     20  C   UNL     1       2.512  -2.277  -7.566  1.00  0.00     0.177 C 
BRANCH  20  21
ATOM     21  O   UNL     1       1.153  -2.256  -7.989  1.00  0.00    -0.395 OA
ATOM     22  H   UNL     1       0.578  -2.488  -7.243  1.00  0.00     0.210 HD
ENDBRANCH  20  21
ENDBRANCH  19  20
ENDBRANCH  17  19
ENDBRANCH  14  17
ENDBRANCH   9  13
ENDBRANCH   7   9
ENDBRANCH   6   7
ENDBRANCH   5   6
ENDBRANCH   4   5
ENDBRANCH   3   4
ENDBRANCH   2   3
ENDBRANCH   1   2
BRANCH   1  23
ATOM     23  O   UNL     1       4.482   1.181  -4.250  1.00  0.00    -0.377 OA
BRANCH  23  24
ATOM     24  C   UNL     1       5.780   1.724  -4.058  1.00  0.00     0.188 C 
BRANCH  24  25
ATOM     25  C   UNL     1       6.226   2.580  -5.239  1.00  0.00     0.188 C 
BRANCH  25  26
ATOM     26  O   UNL     1       5.559   3.829  -5.401  1.00  0.00    -0.376 OA
BRANCH  26  27
ATOM     27  C   UNL     1       4.150   3.787  -5.599  1.00  0.00     0.202 C 
BRANCH  27  28
ATOM     28  C   UNL     1       3.619   3.232  -6.930  1.00  0.00     0.261 C 
BRANCH  28  29
ATOM     29  O   UNL     1       4.136   1.950  -7.321  1.00  0.00    -0.460 OA
BRANCH  29  30
ATOM     30  C   UNL     1       4.994   1.971  -8.363  1.00  0.00     0.338 C 
ATOM     31  O   UNL     1       5.431   2.963  -8.954  1.00  0.00    -0.246 OA
BRANCH  30  32
ATOM     32  C   UNL     1       5.347   0.605  -8.761  1.00  0.00     0.060 A 
ATOM     33  C   UNL     1       6.420  -0.066  -8.161  1.00  0.00     0.016 A 
ATOM     34  C   UNL     1       4.663   0.026  -9.831  1.00  0.00     0.016 A 
ATOM     35  C   UNL     1       6.815  -1.319  -8.639  1.00  0.00     0.010 A 
ATOM     36  C   UNL     1       5.052  -1.231 -10.298  1.00  0.00     0.010 A 
ATOM     37  C   UNL     1       6.141  -1.907  -9.718  1.00  0.00    -0.014 A 
BRANCH  37  38
ATOM     38  C   UNL     1       6.600  -3.190 -10.310  1.00  0.00     0.031 A 
ATOM     39  C   UNL     1       7.268  -3.181 -11.659  1.00  0.00     0.074 A 
ATOM     40  C   UNL     1       6.373  -4.358  -9.678  1.00  0.00     0.049 A 
ATOM     41  N   UNL     1       7.614  -4.191 -12.414  1.00  0.00    -0.248 NA
ATOM     42  C   UNL     1       7.586  -1.862 -12.232  1.00  0.00     0.031 C 
ATOM     43  C   UNL     1       5.766  -4.503  -8.354  1.00  0.00     0.029 A 
ATOM     44  N   UNL     1       6.600  -5.651 -10.084  1.00  0.00    -0.354 N 
ATOM     45  C   UNL     1       8.166  -3.633 -13.562  1.00  0.00     0.074 A 
ATOM     46  C   UNL     1       8.101  -2.196 -13.409  1.00  0.00     0.031 C 
ATOM     47  C   UNL     1       5.638  -5.812  -8.073  1.00  0.00     0.029 A 
ATOM     48  C   UNL     1       6.114  -6.596  -9.211  1.00  0.00     0.049 A 
ATOM     49  H   UNL     1       7.067  -5.879 -10.921  1.00  0.00     0.167 HD
ATOM     50  C   UNL     1       8.679  -4.262 -14.645  1.00  0.00     0.031 A 
ATOM     51  C   UNL     1       6.021  -7.936  -9.331  1.00  0.00     0.031 A 
ATOM     52  C   UNL     1       8.748  -5.691 -14.795  1.00  0.00     0.049 A 
ATOM     53  C   UNL     1       6.526  -8.605 -10.585  1.00  0.00     0.074 A 
ATOM     54  C   UNL     1       9.302  -6.416 -15.836  1.00  0.00     0.029 A 
ATOM     55  N   UNL     1       8.233  -6.610 -13.896  1.00  0.00    -0.354 N 
ATOM     56  N   UNL     1       7.107  -8.066 -11.630  1.00  0.00    -0.248 NA
ATOM     57  C   UNL     1       6.362 -10.064 -10.675  1.00  0.00     0.031 C 
ATOM     58  C   UNL     1       9.061  -7.772 -15.599  1.00  0.00     0.029 A 
ATOM     59  C   UNL     1       8.415  -7.894 -14.380  1.00  0.00     0.049 A 
ATOM     60  H   UNL     1       7.803  -6.384 -13.040  1.00  0.00     0.167 HD
ATOM     61  C   UNL     1       7.396  -9.123 -12.489  1.00  0.00     0.074 A 
ATOM     62  C   UNL     1       6.949 -10.333 -11.833  1.00  0.00     0.031 C 
ATOM     63  C   UNL     1       7.973  -9.093 -13.716  1.00  0.00     0.031 A 
BRANCH  50  64
ATOM     64  C   UNL     1       9.187  -3.417 -15.781  1.00  0.00    -0.014 A 
ATOM     65  C   UNL     1      10.405  -2.721 -15.685  1.00  0.00     0.010 A 
ATOM     66  C   UNL     1       8.483  -3.405 -17.000  1.00  0.00     0.010 A 
ATOM     67  C   UNL     1      10.905  -2.021 -16.787  1.00  0.00     0.020 A 
ATOM     68  C   UNL     1       8.992  -2.726 -18.110  1.00  0.00     0.020 A 
ATOM     69  C   UNL     1      10.199  -2.034 -17.994  1.00  0.00     0.054 A 
BRANCH  69  70
ATOM     70  S   UNL     1      10.912  -1.180 -19.427  1.00  0.00     0.124 S 
ATOM     71  O   UNL     1      10.756   0.223 -19.050  1.00  0.00    -0.237 OA
ATOM     72  O   UNL     1      12.286  -1.676 -19.442  1.00  0.00    -0.237 OA
ATOM     73  O   UNL     1      10.081  -1.620 -20.545  1.00  0.00    -0.744 OA
ENDBRANCH  69  70
ENDBRANCH  50  64
BRANCH  51  74
ATOM     74  C   UNL     1       5.368  -8.745  -8.263  1.00  0.00    -0.014 A 
ATOM     75  C   UNL     1       6.107  -9.674  -7.509  1.00  0.00     0.010 A 
ATOM     76  C   UNL     1       3.985  -8.625  -8.031  1.00  0.00     0.010 A 
ATOM     77  C   UNL     1       5.470 -10.491  -6.570  1.00  0.00     0.020 A 
ATOM     78  C   UNL     1       3.350  -9.417  -7.070  1.00  0.00     0.020 A 
ATOM     79  C   UNL     1       4.094 -10.360  -6.359  1.00  0.00     0.054 A 
BRANCH  79  80
ATOM     80  S   UNL     1       3.292 -11.418  -5.123  1.00  0.00     0.124 S 
ATOM     81  O   UNL     1       3.271 -12.711  -5.799  1.00  0.00    -0.237 OA
ATOM     82  O   UNL     1       4.200 -11.312  -3.983  1.00  0.00    -0.237 OA
ATOM     83  O   UNL     1       1.988 -10.788  -4.930  1.00  0.00    -0.744 OA
ENDBRANCH  79  80
ENDBRANCH  51  74
BRANCH  63  84
ATOM     84  C   UNL     1       8.183 -10.405 -14.426  1.00  0.00    -0.014 A 
ATOM     85  C   UNL     1       7.100 -11.115 -14.974  1.00  0.00     0.010 A 
ATOM     86  C   UNL     1       9.488 -10.896 -14.613  1.00  0.00     0.010 A 
ATOM     87  C   UNL     1       7.317 -12.303 -15.678  1.00  0.00     0.020 A 
ATOM     88  C   UNL     1       9.712 -12.067 -15.342  1.00  0.00     0.020 A 
ATOM     89  C   UNL     1       8.623 -12.769 -15.861  1.00  0.00     0.054 A 
BRANCH  89  90
ATOM     90  S   UNL     1       8.881 -14.280 -16.831  1.00  0.00     0.124 S 
ATOM     91  O   UNL     1       8.391 -15.313 -15.922  1.00  0.00    -0.237 OA
ATOM     92  O   UNL     1       8.059 -14.045 -18.016  1.00  0.00    -0.237 OA
ATOM     93  O   UNL     1      10.322 -14.296 -17.073  1.00  0.00    -0.744 OA
ENDBRANCH  89  90
ENDBRANCH  63  84
ENDBRANCH  37  38
ENDBRANCH  30  32
ENDBRANCH  29  30
ENDBRANCH  28  29
ENDBRANCH  27  28
ENDBRANCH  26  27
ENDBRANCH  25  26
ENDBRANCH  24  25
ENDBRANCH  23  24
ENDBRANCH   1  23
TORSDOF 29
