REMARK SMILES Cc1c(NC(=O)[C@@H]2CC=CC[C@@H]2C(=O)OCCOCCOCCOCCOC(=O)c2ccc(-c3c4nc(c(-c5ccc(S(=O)(=O)[O-])cc5)c5ccc([nH]5)c(-c5ccc(S(=O)(=O)[O-])cc5)c5nc(c(-c6ccc(S(=O)(=O)[O-])cc6)c6ccc3[nH]6)C=C5)C=C4)cc2)cccc1C(=O)N1CCOCC1
REMARK SMILES IDX 21 1 20 2 19 3 18 4 17 5 16 6 15 7 13 8 14 9 12 10 7 11 8 12
REMARK SMILES IDX 9 13 11 14 10 15 5 16 4 17 6 19 3 20 1 21 2 22 93 23 90 24
REMARK SMILES IDX 92 25 91 26 94 27 95 28 96 29 97 30 101 31 98 32 100 33
REMARK SMILES IDX 99 34 22 35 23 36 24 37 25 38 26 39 27 40 28 41 29 42 30 43
REMARK SMILES IDX 31 44 89 45 32 46 88 47 33 48 34 49 35 50 82 51 36 52 87 53
REMARK SMILES IDX 81 54 83 55 37 56 86 57 80 58 79 59 38 61 68 62 49 63 67 64
REMARK SMILES IDX 50 65 53 66 66 67 84 68 51 69 52 70 65 72 85 73 54 74 39 75
REMARK SMILES IDX 40 76 48 77 41 78 47 79 42 80 43 81 44 82 45 83 46 84 69 85
REMARK SMILES IDX 70 86 78 87 71 88 77 89 72 90 73 91 74 92 75 93 76 94 55 95
REMARK SMILES IDX 56 96 64 97 57 98 63 99 58 100 59 101 60 102 61 103 62 104
REMARK H PARENT 4 18 83 60 53 71
REMARK Flexibility Score: inf
ROOT
ATOM      1  O   UNL     1      -3.506  -0.931   3.878  1.00  0.00    -0.377 OA
ENDROOT
BRANCH   1   2
ATOM      2  C   UNL     1      -3.976  -1.697   2.786  1.00  0.00     0.188 C 
BRANCH   2   3
ATOM      3  C   UNL     1      -5.575  -1.897   2.492  1.00  0.00     0.188 C 
BRANCH   3   4
ATOM      4  O   UNL     1      -6.328  -3.124   1.645  1.00  0.00    -0.376 OA
BRANCH   4   5
ATOM      5  C   UNL     1      -6.400  -3.772   0.092  1.00  0.00     0.202 C 
BRANCH   5   6
ATOM      6  C   UNL     1      -5.477  -3.958  -1.484  1.00  0.00     0.261 C 
BRANCH   6   7
ATOM      7  O   UNL     1      -3.880  -3.663  -2.070  1.00  0.00    -0.463 OA
BRANCH   7   8
ATOM      8  C   UNL     1      -3.045  -2.782  -2.821  1.00  0.00     0.310 C 
ATOM      9  O   UNL     1      -3.479  -1.828  -3.480  1.00  0.00    -0.252 OA
BRANCH   8  10
ATOM     10  C   UNL     1      -1.313  -2.646  -2.705  1.00  0.00     0.116 C 
ATOM     11  C   UNL     1      -0.083  -3.294  -1.858  1.00  0.00     0.097 C 
ATOM     12  C   UNL     1       0.244  -2.642  -0.472  1.00  0.00     0.041 C 
ATOM     13  C   UNL     1       0.026  -1.170  -0.388  1.00  0.00    -0.030 C 
ATOM     14  C   UNL     1      -0.966  -1.068  -2.703  1.00  0.00     0.043 C 
ATOM     15  C   UNL     1      -0.451  -0.457  -1.412  1.00  0.00    -0.030 C 
BRANCH  11  16
ATOM     16  C   UNL     1      -0.038  -4.818  -1.998  1.00  0.00     0.228 C 
ATOM     17  N   UNL     1       0.405  -5.730  -1.092  1.00  0.00    -0.326 N 
ATOM     18  H   UNL     1      -0.017  -6.604  -1.257  1.00  0.00     0.169 HD
ATOM     19  O   UNL     1      -0.434  -5.317  -3.062  1.00  0.00    -0.274 OA
BRANCH  17  20
ATOM     20  C   UNL     1       1.284  -5.814   0.012  1.00  0.00     0.044 A 
ATOM     21  C   UNL     1      -0.041  -7.833   0.766  1.00  0.00     0.047 C 
ATOM     22  C   UNL     1       1.168  -6.940   0.880  1.00  0.00    -0.015 A 
ATOM     23  C   UNL     1       2.147  -7.168   1.880  1.00  0.00     0.045 A 
ATOM     24  C   UNL     1       2.341  -4.928   0.213  1.00  0.00     0.026 A 
ATOM     25  C   UNL     1       3.114  -6.184   2.127  1.00  0.00     0.014 A 
ATOM     26  C   UNL     1       3.202  -5.064   1.307  1.00  0.00     0.003 A 
BRANCH  23  27
ATOM     27  C   UNL     1       2.178  -8.341   2.807  1.00  0.00     0.254 C 
ATOM     28  O   UNL     1       2.319  -8.099   4.007  1.00  0.00    -0.269 OA
ATOM     29  N   UNL     1       2.089  -9.649   2.337  1.00  0.00    -0.334 N 
ATOM     30  C   UNL     1       2.250 -10.129   0.958  1.00  0.00     0.148 C 
ATOM     31  C   UNL     1       1.941 -10.736   3.310  1.00  0.00     0.148 C 
ATOM     32  C   UNL     1       1.150 -11.146   0.600  1.00  0.00     0.181 C 
ATOM     33  C   UNL     1       0.801 -11.663   2.882  1.00  0.00     0.181 C 
ATOM     34  O   UNL     1       1.062 -12.202   1.574  1.00  0.00    -0.378 OA
ENDBRANCH  23  27
ENDBRANCH  17  20
ENDBRANCH  11  16
ENDBRANCH   8  10
ENDBRANCH   7   8
ENDBRANCH   6   7
ENDBRANCH   5   6
ENDBRANCH   4   5
ENDBRANCH   3   4
ENDBRANCH   2   3
ENDBRANCH   1   2
BRANCH   1  35
ATOM     35  C   UNL     1      -4.232   0.212   4.235  1.00  0.00     0.188 C 
BRANCH  35  36
ATOM     36  C   UNL     1      -4.166   1.360   3.226  1.00  0.00     0.188 C 
BRANCH  36  37
ATOM     37  O   UNL     1      -4.219   2.685   3.763  1.00  0.00    -0.376 OA
BRANCH  37  38
ATOM     38  C   UNL     1      -4.857   2.858   5.029  1.00  0.00     0.202 C 
BRANCH  38  39
ATOM     39  C   UNL     1      -6.300   2.319   5.187  1.00  0.00     0.261 C 
BRANCH  39  40
ATOM     40  O   UNL     1      -6.949   2.183   3.909  1.00  0.00    -0.460 OA
BRANCH  40  41
ATOM     41  C   UNL     1      -7.904   1.212   3.770  1.00  0.00     0.338 C 
ATOM     42  O   UNL     1      -8.509   0.672   4.669  1.00  0.00    -0.246 OA
BRANCH  41  43
ATOM     43  C   UNL     1      -7.927   0.789   2.322  1.00  0.00     0.060 A 
ATOM     44  C   UNL     1      -8.356  -0.485   1.952  1.00  0.00     0.016 A 
ATOM     45  C   UNL     1      -7.228   1.534   1.377  1.00  0.00     0.016 A 
ATOM     46  C   UNL     1      -7.838  -1.080   0.771  1.00  0.00     0.010 A 
ATOM     47  C   UNL     1      -6.567   0.871   0.338  1.00  0.00     0.010 A 
ATOM     48  C   UNL     1      -6.719  -0.508   0.126  1.00  0.00    -0.014 A 
BRANCH  48  49
ATOM     49  C   UNL     1      -5.511  -1.188  -0.613  1.00  0.00     0.031 A 
ATOM     50  C   UNL     1      -5.788  -1.036  -2.160  1.00  0.00     0.074 A 
ATOM     51  C   UNL     1      -4.431  -1.964  -0.062  1.00  0.00     0.049 A 
ATOM     52  N   UNL     1      -5.845  -1.998  -3.044  1.00  0.00    -0.248 NA
ATOM     53  C   UNL     1      -6.429   0.168  -2.709  1.00  0.00     0.031 C 
ATOM     54  C   UNL     1      -3.035  -2.063  -0.424  1.00  0.00     0.029 A 
ATOM     55  N   UNL     1      -4.309  -3.094   0.832  1.00  0.00    -0.354 N 
ATOM     56  C   UNL     1      -6.150  -1.492  -4.288  1.00  0.00     0.074 A 
ATOM     57  C   UNL     1      -6.771  -0.239  -3.935  1.00  0.00     0.031 C 
ATOM     58  C   UNL     1      -2.540  -3.320  -0.166  1.00  0.00     0.029 A 
ATOM     59  C   UNL     1      -3.408  -4.093   0.606  1.00  0.00     0.049 A 
ATOM     60  H   UNL     1      -4.891  -3.144   1.624  1.00  0.00     0.167 HD
ATOM     61  C   UNL     1      -5.707  -2.032  -5.482  1.00  0.00     0.031 A 
ATOM     62  C   UNL     1      -3.519  -5.430   0.867  1.00  0.00     0.031 A 
ATOM     63  C   UNL     1      -4.926  -3.324  -5.373  1.00  0.00     0.049 A 
ATOM     64  C   UNL     1      -3.650  -6.369  -0.369  1.00  0.00     0.074 A 
ATOM     65  C   UNL     1      -3.629  -3.670  -5.748  1.00  0.00     0.029 A 
ATOM     66  N   UNL     1      -5.372  -4.448  -4.646  1.00  0.00    -0.354 N 
ATOM     67  N   UNL     1      -3.482  -6.025  -1.629  1.00  0.00    -0.248 NA
ATOM     68  C   UNL     1      -4.092  -7.768  -0.284  1.00  0.00     0.031 C 
ATOM     69  C   UNL     1      -3.256  -4.900  -5.122  1.00  0.00     0.029 A 
ATOM     70  C   UNL     1      -4.338  -5.385  -4.407  1.00  0.00     0.049 A 
ATOM     71  H   UNL     1      -6.299  -4.567  -4.338  1.00  0.00     0.167 HD
ATOM     72  C   UNL     1      -4.107  -6.951  -2.474  1.00  0.00     0.074 A 
ATOM     73  C   UNL     1      -4.277  -8.093  -1.580  1.00  0.00     0.031 C 
ATOM     74  C   UNL     1      -4.571  -6.713  -3.768  1.00  0.00     0.031 A 
BRANCH  61  75
ATOM     75  C   UNL     1      -5.662  -1.112  -6.760  1.00  0.00    -0.014 A 
ATOM     76  C   UNL     1      -4.817  -1.369  -7.862  1.00  0.00     0.010 A 
ATOM     77  C   UNL     1      -6.387   0.095  -6.890  1.00  0.00     0.010 A 
ATOM     78  C   UNL     1      -4.624  -0.436  -8.921  1.00  0.00     0.020 A 
ATOM     79  C   UNL     1      -6.182   1.052  -7.897  1.00  0.00     0.020 A 
ATOM     80  C   UNL     1      -5.285   0.791  -8.910  1.00  0.00     0.054 A 
BRANCH  80  81
ATOM     81  S   UNL     1      -5.022   2.026 -10.216  1.00  0.00     0.124 S 
ATOM     82  O   UNL     1      -3.600   2.334 -10.086  1.00  0.00    -0.237 OA
ATOM     83  O   UNL     1      -5.405   1.301 -11.423  1.00  0.00    -0.237 OA
ATOM     84  O   UNL     1      -5.921   3.121  -9.848  1.00  0.00    -0.744 OA
ENDBRANCH  80  81
ENDBRANCH  61  75
BRANCH  62  85
ATOM     85  C   UNL     1      -3.916  -5.669   2.321  1.00  0.00    -0.014 A 
ATOM     86  C   UNL     1      -2.873  -5.390   3.240  1.00  0.00     0.010 A 
ATOM     87  C   UNL     1      -5.229  -5.566   2.823  1.00  0.00     0.010 A 
ATOM     88  C   UNL     1      -3.119  -4.780   4.486  1.00  0.00     0.020 A 
ATOM     89  C   UNL     1      -5.484  -4.925   4.065  1.00  0.00     0.020 A 
ATOM     90  C   UNL     1      -4.426  -4.482   4.864  1.00  0.00     0.054 A 
BRANCH  90  91
ATOM     91  S   UNL     1      -4.726  -3.316   6.249  1.00  0.00     0.124 S 
ATOM     92  O   UNL     1      -4.963  -4.224   7.366  1.00  0.00    -0.237 OA
ATOM     93  O   UNL     1      -3.489  -2.546   6.337  1.00  0.00    -0.237 OA
ATOM     94  O   UNL     1      -5.891  -2.555   5.801  1.00  0.00    -0.744 OA
ENDBRANCH  90  91
ENDBRANCH  62  85
BRANCH  74  95
ATOM     95  C   UNL     1      -5.269  -7.738  -4.704  1.00  0.00    -0.014 A 
ATOM     96  C   UNL     1      -5.800  -8.988  -4.347  1.00  0.00     0.010 A 
ATOM     97  C   UNL     1      -5.421  -7.397  -6.080  1.00  0.00     0.010 A 
ATOM     98  C   UNL     1      -6.383  -9.854  -5.299  1.00  0.00     0.020 A 
ATOM     99  C   UNL     1      -6.033  -8.228  -7.029  1.00  0.00     0.020 A 
ATOM    100  C   UNL     1      -6.492  -9.471  -6.635  1.00  0.00     0.054 A 
BRANCH 100 101
ATOM    101  S   UNL     1      -7.291 -10.572  -7.832  1.00  0.00     0.124 S 
ATOM    102  O   UNL     1      -6.228 -11.530  -8.121  1.00  0.00    -0.237 OA
ATOM    103  O   UNL     1      -8.423 -11.101  -7.075  1.00  0.00    -0.237 OA
ATOM    104  O   UNL     1      -7.651  -9.684  -8.935  1.00  0.00    -0.744 OA
ENDBRANCH 100 101
ENDBRANCH  74  95
ENDBRANCH  48  49
ENDBRANCH  41  43
ENDBRANCH  40  41
ENDBRANCH  39  40
ENDBRANCH  38  39
ENDBRANCH  37  38
ENDBRANCH  36  37
ENDBRANCH  35  36
ENDBRANCH   1  35
TORSDOF 26
