REMARK SMILES O=C(CCc1cn(C2CCN(c3ncccc3Cl)CC2)nn1)OCCOCCOCCOCCOC(=O)c1ccc(-c2c3nc(c(-c4ccc(S(=O)(=O)[O-])cc4)c4ccc([nH]4)c(-c4ccc(S(=O)(=O)[O-])cc4)c4nc(c(-c5ccc(S(=O)(=O)[O-])cc5)c5ccc2[nH]5)C=C4)C=C3)cc1
REMARK SMILES IDX 28 1 27 2 26 3 25 4 24 5 23 6 2 7 1 8 3 9 4 10 5 11 6 12
REMARK SMILES IDX 22 13 7 14 21 15 8 16 9 17 20 18 10 19 19 20 11 21 12 22
REMARK SMILES IDX 13 23 17 24 14 25 16 26 18 27 15 28 29 29 30 30 31 31 32 32
REMARK SMILES IDX 33 33 34 34 35 35 36 36 37 37 38 38 39 39 97 40 40 41 96 42
REMARK SMILES IDX 41 43 42 44 43 45 90 46 44 47 95 48 89 49 91 50 45 51 94 52
REMARK SMILES IDX 88 53 87 54 46 56 76 57 57 58 75 59 58 60 61 61 74 62 92 63
REMARK SMILES IDX 59 64 60 65 73 67 93 68 62 69 47 70 48 71 56 72 49 73 55 74
REMARK SMILES IDX 50 75 51 76 52 77 53 78 54 79 77 80 78 81 86 82 79 83 85 84
REMARK SMILES IDX 80 85 81 86 82 87 83 88 84 89 63 90 64 91 72 92 65 93 71 94
REMARK SMILES IDX 66 95 67 96 68 97 69 98 70 99
REMARK H PARENT 91 55 61 66
REMARK Flexibility Score: inf
ROOT
ATOM      1  C   UNL     1       2.256  -2.123   2.078  1.00  0.00     0.188 C 
ENDROOT
BRANCH   1   2
ATOM      2  C   UNL     1       2.202  -1.823   0.573  1.00  0.00     0.188 C 
BRANCH   2   3
ATOM      3  O   UNL     1       3.436  -1.639  -0.110  1.00  0.00    -0.376 OA
BRANCH   3   4
ATOM      4  C   UNL     1       4.295  -0.583   0.299  1.00  0.00     0.202 C 
BRANCH   4   5
ATOM      5  C   UNL     1       3.631   0.697   0.769  1.00  0.00     0.261 C 
BRANCH   5   6
ATOM      6  O   UNL     1       2.640   1.337  -0.072  1.00  0.00    -0.463 OA
BRANCH   6   7
ATOM      7  C   UNL     1       2.276   1.195  -1.355  1.00  0.00     0.306 C 
ATOM      8  O   UNL     1       1.260   1.776  -1.741  1.00  0.00    -0.252 OA
BRANCH   7   9
ATOM      9  C   UNL     1       3.097   0.414  -2.344  1.00  0.00     0.129 C 
BRANCH   9  10
ATOM     10  C   UNL     1       4.266   1.173  -2.953  1.00  0.00     0.071 C 
BRANCH  10  11
ATOM     11  C   UNL     1       5.249   1.694  -1.976  1.00  0.00     0.083 A 
ATOM     12  C   UNL     1       5.110   2.764  -1.129  1.00  0.00     0.134 A 
ATOM     13  N   UNL     1       6.469   1.115  -1.755  1.00  0.00    -0.135 NA
ATOM     14  N   UNL     1       6.242   2.764  -0.375  1.00  0.00    -0.249 N 
ATOM     15  N   UNL     1       7.066   1.772  -0.766  1.00  0.00    -0.067 NA
BRANCH  14  16
ATOM     16  C   UNL     1       6.698   3.743   0.601  1.00  0.00     0.112 C 
ATOM     17  C   UNL     1       5.643   4.246   1.596  1.00  0.00     0.049 C 
ATOM     18  C   UNL     1       7.334   4.930  -0.115  1.00  0.00     0.049 C 
ATOM     19  C   UNL     1       4.610   5.202   1.002  1.00  0.00     0.120 C 
ATOM     20  C   UNL     1       6.282   5.685  -0.907  1.00  0.00     0.120 C 
ATOM     21  N   UNL     1       5.157   6.029  -0.059  1.00  0.00    -0.355 N 
BRANCH  21  22
ATOM     22  C   UNL     1       4.543   7.235  -0.330  1.00  0.00     0.147 A 
ATOM     23  N   UNL     1       4.791   8.211   0.573  1.00  0.00    -0.238 NA
ATOM     24  C   UNL     1       3.852   7.499  -1.525  1.00  0.00     0.083 A 
ATOM     25  C   UNL     1       4.417   9.469   0.267  1.00  0.00     0.113 A 
ATOM     26  C   UNL     1       3.474   8.809  -1.813  1.00  0.00     0.026 A 
ATOM     27  Cl  UNL     1       3.446   6.267  -2.667  1.00  0.00    -0.080 Cl
ATOM     28  C   UNL     1       3.780   9.818  -0.909  1.00  0.00     0.022 A 
ENDBRANCH  21  22
ENDBRANCH  14  16
ENDBRANCH  10  11
ENDBRANCH   9  10
ENDBRANCH   7   9
ENDBRANCH   6   7
ENDBRANCH   5   6
ENDBRANCH   4   5
ENDBRANCH   3   4
ENDBRANCH   2   3
ENDBRANCH   1   2
BRANCH   1  29
ATOM     29  O   UNL     1       3.331  -1.463   2.734  1.00  0.00    -0.377 OA
BRANCH  29  30
ATOM     30  C   UNL     1       4.462  -2.258   3.098  1.00  0.00     0.188 C 
BRANCH  30  31
ATOM     31  C   UNL     1       5.089  -3.262   2.086  1.00  0.00     0.188 C 
BRANCH  31  32
ATOM     32  O   UNL     1       4.152  -3.769   1.149  1.00  0.00    -0.376 OA
BRANCH  32  33
ATOM     33  C   UNL     1       3.979  -5.161   0.956  1.00  0.00     0.202 C 
BRANCH  33  34
ATOM     34  C   UNL     1       3.036  -5.829   1.955  1.00  0.00     0.261 C 
BRANCH  34  35
ATOM     35  O   UNL     1       3.151  -5.280   3.252  1.00  0.00    -0.460 OA
BRANCH  35  36
ATOM     36  C   UNL     1       4.295  -5.541   3.892  1.00  0.00     0.338 C 
ATOM     37  O   UNL     1       5.240  -6.217   3.479  1.00  0.00    -0.246 OA
BRANCH  36  38
ATOM     38  C   UNL     1       4.213  -4.906   5.203  1.00  0.00     0.060 A 
ATOM     39  C   UNL     1       5.223  -5.233   6.099  1.00  0.00     0.016 A 
ATOM     40  C   UNL     1       3.003  -4.295   5.598  1.00  0.00     0.016 A 
ATOM     41  C   UNL     1       4.847  -5.350   7.405  1.00  0.00     0.010 A 
ATOM     42  C   UNL     1       2.635  -4.392   6.904  1.00  0.00     0.010 A 
ATOM     43  C   UNL     1       3.511  -5.079   7.725  1.00  0.00    -0.014 A 
BRANCH  43  44
ATOM     44  C   UNL     1       3.009  -5.678   8.926  1.00  0.00     0.031 A 
ATOM     45  C   UNL     1       3.441  -4.959  10.121  1.00  0.00     0.074 A 
ATOM     46  C   UNL     1       2.242  -6.780   8.886  1.00  0.00     0.049 A 
ATOM     47  N   UNL     1       4.395  -5.287  10.921  1.00  0.00    -0.248 NA
ATOM     48  C   UNL     1       2.921  -3.596  10.291  1.00  0.00     0.031 C 
ATOM     49  C   UNL     1       1.550  -7.381   7.740  1.00  0.00     0.029 A 
ATOM     50  N   UNL     1       1.826  -7.533   9.928  1.00  0.00    -0.354 N 
ATOM     51  C   UNL     1       4.428  -4.268  11.854  1.00  0.00     0.074 A 
ATOM     52  C   UNL     1       3.699  -3.163  11.281  1.00  0.00     0.031 C 
ATOM     53  C   UNL     1       0.608  -8.235   8.201  1.00  0.00     0.029 A 
ATOM     54  C   UNL     1       0.733  -8.333   9.647  1.00  0.00     0.049 A 
ATOM     55  H   UNL     1       2.262  -7.513  10.810  1.00  0.00     0.167 HD
ATOM     56  C   UNL     1       4.756  -4.519  13.148  1.00  0.00     0.031 A 
ATOM     57  C   UNL     1      -0.066  -8.916  10.573  1.00  0.00     0.031 A 
ATOM     58  C   UNL     1       5.412  -5.792  13.304  1.00  0.00     0.049 A 
ATOM     59  C   UNL     1       0.701  -8.955  11.851  1.00  0.00     0.074 A 
ATOM     60  C   UNL     1       6.566  -6.352  12.791  1.00  0.00     0.029 A 
ATOM     61  N   UNL     1       4.647  -6.843  13.762  1.00  0.00    -0.354 N 
ATOM     62  N   UNL     1       1.779  -9.672  12.019  1.00  0.00    -0.248 NA
ATOM     63  C   UNL     1       0.552  -7.845  12.784  1.00  0.00     0.031 C 
ATOM     64  C   UNL     1       6.251  -7.725  12.569  1.00  0.00     0.029 A 
ATOM     65  C   UNL     1       4.941  -7.947  13.000  1.00  0.00     0.049 A 
ATOM     66  H   UNL     1       4.003  -6.808  14.506  1.00  0.00     0.167 HD
ATOM     67  C   UNL     1       2.633  -8.878  12.776  1.00  0.00     0.074 A 
ATOM     68  C   UNL     1       1.784  -7.813  13.305  1.00  0.00     0.031 C 
ATOM     69  C   UNL     1       3.991  -8.993  12.669  1.00  0.00     0.031 A 
BRANCH  56  70
ATOM     70  C   UNL     1       4.069  -3.806  14.279  1.00  0.00    -0.014 A 
ATOM     71  C   UNL     1       4.535  -4.002  15.589  1.00  0.00     0.010 A 
ATOM     72  C   UNL     1       2.819  -3.164  14.126  1.00  0.00     0.010 A 
ATOM     73  C   UNL     1       3.756  -3.623  16.689  1.00  0.00     0.020 A 
ATOM     74  C   UNL     1       2.061  -2.737  15.209  1.00  0.00     0.020 A 
ATOM     75  C   UNL     1       2.518  -3.006  16.488  1.00  0.00     0.054 A 
BRANCH  75  76
ATOM     76  S   UNL     1       1.463  -2.636  17.905  1.00  0.00     0.124 S 
ATOM     77  O   UNL     1       1.105  -3.975  18.363  1.00  0.00    -0.237 OA
ATOM     78  O   UNL     1       2.365  -1.885  18.773  1.00  0.00    -0.237 OA
ATOM     79  O   UNL     1       0.371  -1.858  17.324  1.00  0.00    -0.744 OA
ENDBRANCH  75  76
ENDBRANCH  56  70
BRANCH  57  80
ATOM     80  C   UNL     1      -1.543  -9.039  10.499  1.00  0.00    -0.014 A 
ATOM     81  C   UNL     1      -2.249  -9.837  11.414  1.00  0.00     0.010 A 
ATOM     82  C   UNL     1      -2.289  -8.161   9.682  1.00  0.00     0.010 A 
ATOM     83  C   UNL     1      -3.644  -9.720  11.545  1.00  0.00     0.020 A 
ATOM     84  C   UNL     1      -3.677  -8.046   9.799  1.00  0.00     0.020 A 
ATOM     85  C   UNL     1      -4.347  -8.811  10.748  1.00  0.00     0.054 A 
BRANCH  85  86
ATOM     86  S   UNL     1      -6.119  -8.543  11.041  1.00  0.00     0.124 S 
ATOM     87  O   UNL     1      -6.705  -9.789  10.556  1.00  0.00    -0.237 OA
ATOM     88  O   UNL     1      -6.174  -8.338  12.485  1.00  0.00    -0.237 OA
ATOM     89  O   UNL     1      -6.425  -7.360  10.239  1.00  0.00    -0.744 OA
ENDBRANCH  85  86
ENDBRANCH  57  80
BRANCH  69  90
ATOM     90  C   UNL     1       4.546 -10.191  11.927  1.00  0.00    -0.014 A 
ATOM     91  C   UNL     1       4.304 -10.439  10.560  1.00  0.00     0.010 A 
ATOM     92  C   UNL     1       5.466 -11.014  12.600  1.00  0.00     0.010 A 
ATOM     93  C   UNL     1       4.942 -11.498   9.896  1.00  0.00     0.020 A 
ATOM     94  C   UNL     1       6.119 -12.060  11.940  1.00  0.00     0.020 A 
ATOM     95  C   UNL     1       5.847 -12.304  10.594  1.00  0.00     0.054 A 
BRANCH  95  96
ATOM     96  S   UNL     1       6.705 -13.644   9.720  1.00  0.00     0.124 S 
ATOM     97  O   UNL     1       5.628 -14.596   9.462  1.00  0.00    -0.237 OA
ATOM     98  O   UNL     1       7.245 -12.971   8.541  1.00  0.00    -0.237 OA
ATOM     99  O   UNL     1       7.712 -14.096  10.678  1.00  0.00    -0.744 OA
ENDBRANCH  95  96
ENDBRANCH  69  90
ENDBRANCH  43  44
ENDBRANCH  36  38
ENDBRANCH  35  36
ENDBRANCH  34  35
ENDBRANCH  33  34
ENDBRANCH  32  33
ENDBRANCH  31  32
ENDBRANCH  30  31
ENDBRANCH  29  30
ENDBRANCH   1  29
TORSDOF 27
