REMARK SMILES Cc1cc(Cl)cc2c1O[C@H](C(F)(F)F)C(C(=O)OCCOCCOCCOCCOC(=O)c1ccc(-c3c4nc(c(-c5ccc(S(=O)(=O)[O-])cc5)c5ccc([nH]5)c(-c5ccc(S(=O)(=O)[O-])cc5)c5nc(c(-c6ccc(S(=O)(=O)[O-])cc6)c6ccc3[nH]6)C=C5)C=C4)cc1)=C2
REMARK SMILES IDX 25 1 24 2 23 3 22 4 21 5 20 6 19 7 18 8 16 9 17 10 15 11
REMARK SMILES IDX 1 12 2 13 3 14 8 15 4 16 7 17 9 18 5 19 6 20 93 21 10 22
REMARK SMILES IDX 11 23 12 24 13 25 14 26 26 27 27 28 28 29 29 30 30 31 31 32
REMARK SMILES IDX 32 33 33 34 34 35 92 36 35 37 91 38 36 39 37 40 38 41 85 42
REMARK SMILES IDX 39 43 90 44 84 45 86 46 40 47 89 48 83 49 82 50 41 52 71 53
REMARK SMILES IDX 52 54 70 55 53 56 56 57 69 58 87 59 54 60 55 61 68 63 88 64
REMARK SMILES IDX 57 65 42 66 43 67 51 68 44 69 50 70 45 71 46 72 47 73 48 74
REMARK SMILES IDX 49 75 72 76 73 77 81 78 74 79 80 80 75 81 76 82 77 83 78 84
REMARK SMILES IDX 79 85 58 86 59 87 67 88 60 89 66 90 61 91 62 92 63 93 64 94
REMARK SMILES IDX 65 95
REMARK H PARENT 86 51 56 62
REMARK Flexibility Score: inf
ROOT
ATOM      1  C   UNL     1      -1.982  -0.192   8.328  1.00  0.00     0.188 C 
ENDROOT
BRANCH   1   2
ATOM      2  O   UNL     1      -1.980   0.096   6.928  1.00  0.00    -0.377 OA
BRANCH   2   3
ATOM      3  C   UNL     1      -1.501   1.360   6.502  1.00  0.00     0.188 C 
BRANCH   3   4
ATOM      4  C   UNL     1      -2.495   2.511   6.738  1.00  0.00     0.188 C 
BRANCH   4   5
ATOM      5  O   UNL     1      -3.545   2.164   7.633  1.00  0.00    -0.376 OA
BRANCH   5   6
ATOM      6  C   UNL     1      -4.816   1.832   7.095  1.00  0.00     0.202 C 
BRANCH   6   7
ATOM      7  C   UNL     1      -4.944   0.650   6.120  1.00  0.00     0.261 C 
BRANCH   7   8
ATOM      8  O   UNL     1      -3.999   0.619   5.041  1.00  0.00    -0.460 OA
BRANCH   8   9
ATOM      9  C   UNL     1      -4.110   1.546   4.074  1.00  0.00     0.338 C 
ATOM     10  O   UNL     1      -4.952   2.422   3.991  1.00  0.00    -0.246 OA
BRANCH   9  11
ATOM     11  C   UNL     1      -2.909   1.442   3.212  1.00  0.00     0.087 C 
ATOM     12  C   UNL     1       0.901  -0.107   0.119  1.00  0.00     0.048 C 
ATOM     13  C   UNL     1       0.453   1.193   0.727  1.00  0.00    -0.007 A 
ATOM     14  C   UNL     1       1.089   2.380   0.330  1.00  0.00     0.027 A 
ATOM     15  C   UNL     1      -0.641   1.266   1.607  1.00  0.00     0.131 A 
ATOM     16  C   UNL     1       0.663   3.607   0.831  1.00  0.00     0.042 A 
ATOM     17  C   UNL     1      -1.093   2.507   2.071  1.00  0.00     0.019 A 
ATOM     18  O   UNL     1      -1.226   0.085   1.962  1.00  0.00    -0.475 OA
ATOM     19  Cl  UNL     1       1.458   5.053   0.340  1.00  0.00    -0.084 Cl
ATOM     20  C   UNL     1      -0.421   3.677   1.702  1.00  0.00     0.032 A 
ATOM     21  C   UNL     1      -2.292   2.586   2.890  1.00  0.00     0.027 C 
ATOM     22  C   UNL     1      -2.398   0.078   2.823  1.00  0.00     0.316 C 
BRANCH  22  23
ATOM     23  C   UNL     1      -3.475  -0.771   2.135  1.00  0.00     0.430 C 
ATOM     24  F   UNL     1      -2.977  -1.965   1.736  1.00  0.00    -0.167 F 
ATOM     25  F   UNL     1      -4.521  -1.030   2.951  1.00  0.00    -0.167 F 
ATOM     26  F   UNL     1      -3.964  -0.149   1.035  1.00  0.00    -0.167 F 
ENDBRANCH  22  23
ENDBRANCH   9  11
ENDBRANCH   8   9
ENDBRANCH   7   8
ENDBRANCH   6   7
ENDBRANCH   5   6
ENDBRANCH   4   5
ENDBRANCH   3   4
ENDBRANCH   2   3
ENDBRANCH   1   2
BRANCH   1  27
ATOM     27  C   UNL     1      -1.760   0.900   9.403  1.00  0.00     0.188 C 
BRANCH  27  28
ATOM     28  O   UNL     1      -0.773   1.870   9.067  1.00  0.00    -0.376 OA
BRANCH  28  29
ATOM     29  C   UNL     1       0.460   1.798   9.768  1.00  0.00     0.202 C 
BRANCH  29  30
ATOM     30  C   UNL     1       1.373   0.647   9.327  1.00  0.00     0.261 C 
BRANCH  30  31
ATOM     31  O   UNL     1       0.841  -0.671   9.535  1.00  0.00    -0.460 OA
BRANCH  31  32
ATOM     32  C   UNL     1       0.542  -1.027  10.804  1.00  0.00     0.338 C 
ATOM     33  O   UNL     1       0.724  -0.371  11.814  1.00  0.00    -0.246 OA
BRANCH  32  34
ATOM     34  C   UNL     1      -0.242  -2.277  10.739  1.00  0.00     0.060 A 
ATOM     35  C   UNL     1      -1.536  -2.296  11.273  1.00  0.00     0.016 A 
ATOM     36  C   UNL     1       0.294  -3.415  10.131  1.00  0.00     0.016 A 
ATOM     37  C   UNL     1      -2.290  -3.469  11.226  1.00  0.00     0.010 A 
ATOM     38  C   UNL     1      -0.452  -4.595  10.107  1.00  0.00     0.010 A 
ATOM     39  C   UNL     1      -1.733  -4.635  10.683  1.00  0.00    -0.014 A 
BRANCH  39  40
ATOM     40  C   UNL     1      -2.392  -5.939  10.930  1.00  0.00     0.031 A 
ATOM     41  C   UNL     1      -1.964  -6.723  12.141  1.00  0.00     0.074 A 
ATOM     42  C   UNL     1      -3.367  -6.404  10.129  1.00  0.00     0.049 A 
ATOM     43  N   UNL     1      -2.389  -7.882  12.570  1.00  0.00    -0.248 NA
ATOM     44  C   UNL     1      -0.921  -6.112  12.984  1.00  0.00     0.031 C 
ATOM     45  C   UNL     1      -3.907  -5.714   8.959  1.00  0.00     0.029 A 
ATOM     46  N   UNL     1      -4.082  -7.575  10.190  1.00  0.00    -0.354 N 
ATOM     47  C   UNL     1      -1.675  -8.133  13.736  1.00  0.00     0.074 A 
ATOM     48  C   UNL     1      -0.763  -7.028  13.927  1.00  0.00     0.031 C 
ATOM     49  C   UNL     1      -4.874  -6.474   8.414  1.00  0.00     0.029 A 
ATOM     50  C   UNL     1      -5.000  -7.716   9.177  1.00  0.00     0.049 A 
ATOM     51  H   UNL     1      -3.949  -8.251  10.893  1.00  0.00     0.167 HD
ATOM     52  C   UNL     1      -1.776  -9.185  14.581  1.00  0.00     0.031 A 
ATOM     53  C   UNL     1      -5.836  -8.736   8.893  1.00  0.00     0.031 A 
ATOM     54  C   UNL     1      -2.661 -10.298  14.377  1.00  0.00     0.049 A 
ATOM     55  C   UNL     1      -5.847  -9.953   9.786  1.00  0.00     0.074 A 
ATOM     56  C   UNL     1      -2.831 -11.416  15.174  1.00  0.00     0.029 A 
ATOM     57  N   UNL     1      -3.516 -10.439  13.296  1.00  0.00    -0.354 N 
ATOM     58  N   UNL     1      -5.179 -10.169  10.895  1.00  0.00    -0.248 NA
ATOM     59  C   UNL     1      -6.723 -11.065   9.386  1.00  0.00     0.031 C 
ATOM     60  C   UNL     1      -3.747 -12.263  14.542  1.00  0.00     0.029 A 
ATOM     61  C   UNL     1      -4.192 -11.643  13.385  1.00  0.00     0.049 A 
ATOM     62  H   UNL     1      -3.627  -9.781  12.572  1.00  0.00     0.167 HD
ATOM     63  C   UNL     1      -5.567 -11.432  11.333  1.00  0.00     0.074 A 
ATOM     64  C   UNL     1      -6.542 -11.924  10.381  1.00  0.00     0.031 C 
ATOM     65  C   UNL     1      -5.153 -12.123  12.424  1.00  0.00     0.031 A 
BRANCH  52  66
ATOM     66  C   UNL     1      -0.885  -9.187  15.792  1.00  0.00    -0.014 A 
ATOM     67  C   UNL     1      -1.123  -8.310  16.865  1.00  0.00     0.010 A 
ATOM     68  C   UNL     1       0.180 -10.101  15.875  1.00  0.00     0.010 A 
ATOM     69  C   UNL     1      -0.294  -8.328  17.989  1.00  0.00     0.020 A 
ATOM     70  C   UNL     1       0.996 -10.140  17.009  1.00  0.00     0.020 A 
ATOM     71  C   UNL     1       0.760  -9.244  18.053  1.00  0.00     0.054 A 
BRANCH  71  72
ATOM     72  S   UNL     1       1.800  -9.262  19.539  1.00  0.00     0.124 S 
ATOM     73  O   UNL     1       2.519  -7.997  19.419  1.00  0.00    -0.237 OA
ATOM     74  O   UNL     1       0.815  -9.325  20.616  1.00  0.00    -0.237 OA
ATOM     75  O   UNL     1       2.619 -10.461  19.375  1.00  0.00    -0.744 OA
ENDBRANCH  71  72
ENDBRANCH  52  66
BRANCH  53  76
ATOM     76  C   UNL     1      -6.729  -8.662   7.703  1.00  0.00    -0.014 A 
ATOM     77  C   UNL     1      -8.122  -8.548   7.860  1.00  0.00     0.010 A 
ATOM     78  C   UNL     1      -6.191  -8.709   6.404  1.00  0.00     0.010 A 
ATOM     79  C   UNL     1      -8.959  -8.488   6.742  1.00  0.00     0.020 A 
ATOM     80  C   UNL     1      -7.023  -8.623   5.283  1.00  0.00     0.020 A 
ATOM     81  C   UNL     1      -8.403  -8.519   5.460  1.00  0.00     0.054 A 
BRANCH  81  82
ATOM     82  S   UNL     1      -9.508  -8.381   4.027  1.00  0.00     0.124 S 
ATOM     83  O   UNL     1     -10.215  -9.657   4.061  1.00  0.00    -0.237 OA
ATOM     84  O   UNL     1     -10.307  -7.205   4.362  1.00  0.00    -0.237 OA
ATOM     85  O   UNL     1      -8.591  -8.203   2.903  1.00  0.00    -0.744 OA
ENDBRANCH  81  82
ENDBRANCH  53  76
BRANCH  65  86
ATOM     86  C   UNL     1      -5.745 -13.488  12.661  1.00  0.00    -0.014 A 
ATOM     87  C   UNL     1      -5.369 -14.585  11.868  1.00  0.00     0.010 A 
ATOM     88  C   UNL     1      -6.612 -13.694  13.751  1.00  0.00     0.010 A 
ATOM     89  C   UNL     1      -5.859 -15.863  12.151  1.00  0.00     0.020 A 
ATOM     90  C   UNL     1      -7.082 -14.975  14.054  1.00  0.00     0.020 A 
ATOM     91  C   UNL     1      -6.708 -16.051  13.247  1.00  0.00     0.054 A 
BRANCH  91  92
ATOM     92  S   UNL     1      -7.272 -17.732  13.630  1.00  0.00     0.124 S 
ATOM     93  O   UNL     1      -8.189 -18.005  12.527  1.00  0.00    -0.237 OA
ATOM     94  O   UNL     1      -6.027 -18.496  13.617  1.00  0.00    -0.237 OA
ATOM     95  O   UNL     1      -7.900 -17.597  14.943  1.00  0.00    -0.744 OA
ENDBRANCH  91  92
ENDBRANCH  65  86
ENDBRANCH  39  40
ENDBRANCH  32  34
ENDBRANCH  31  32
ENDBRANCH  30  31
ENDBRANCH  29  30
ENDBRANCH  28  29
ENDBRANCH  27  28
ENDBRANCH   1  27
TORSDOF 24
