REMARK SMILES Cc1ccc(S(=O)(=O)n2cc(C(=O)C(=O)N[C@@H](Cc3cnc[nH]3)C(=O)OCCOCCOCCOCCOC(=O)c3ccc(-c4c5nc(c(-c6ccc(S(=O)(=O)[O-])cc6)c6ccc([nH]6)c(-c6ccc(S(=O)(=O)[O-])cc6)c6nc(c(-c7ccc(S(=O)(=O)[O-])cc7)c7ccc4[nH]7)C=C6)C=C5)cc3)c3ccccc32)cc1
REMARK SMILES IDX 31 1 30 2 29 3 28 4 27 5 26 6 24 7 25 8 17 9 16 10 14 11
REMARK SMILES IDX 15 12 12 14 13 15 11 16 9 17 10 18 106 19 101 20 105 21
REMARK SMILES IDX 102 22 104 23 103 24 6 25 7 26 8 27 5 28 1 29 2 30 3 31
REMARK SMILES IDX 108 32 4 33 107 34 18 35 19 36 20 37 23 38 21 39 22 40 32 42
REMARK SMILES IDX 33 43 34 44 35 45 36 46 37 47 38 48 39 49 40 50 41 51 42 52
REMARK SMILES IDX 100 53 43 54 99 55 44 56 45 57 46 58 93 59 47 60 98 61 92 62
REMARK SMILES IDX 94 63 48 64 97 65 91 66 90 67 49 69 79 70 60 71 78 72 61 73
REMARK SMILES IDX 64 74 77 75 95 76 62 77 63 78 76 80 96 81 65 82 50 83 51 84
REMARK SMILES IDX 59 85 52 86 58 87 53 88 54 89 55 90 56 91 57 92 80 93 81 94
REMARK SMILES IDX 89 95 82 96 88 97 83 98 84 99 85 100 86 101 87 102 66 103
REMARK SMILES IDX 67 104 75 105 68 106 74 107 69 108 70 109 71 110 72 111
REMARK SMILES IDX 73 112
REMARK H PARENT 16 13 23 41 94 68 64 79
REMARK Flexibility Score: inf
ROOT
ATOM      1  C   UNL     1      -5.204   5.716   3.510  1.00  0.00     0.188 C 
ENDROOT
BRANCH   1   2
ATOM      2  C   UNL     1      -4.692   6.696   2.447  1.00  0.00     0.188 C 
BRANCH   2   3
ATOM      3  O   UNL     1      -4.637   8.086   2.755  1.00  0.00    -0.376 OA
BRANCH   3   4
ATOM      4  C   UNL     1      -5.671   8.591   3.588  1.00  0.00     0.202 C 
BRANCH   4   5
ATOM      5  C   UNL     1      -6.965   8.899   2.874  1.00  0.00     0.261 C 
BRANCH   5   6
ATOM      6  O   UNL     1      -7.697   7.676   2.691  1.00  0.00    -0.462 OA
BRANCH   6   7
ATOM      7  C   UNL     1      -8.076   7.409   1.424  1.00  0.00     0.329 C 
ATOM      8  O   UNL     1      -7.934   8.170   0.475  1.00  0.00    -0.250 OA
BRANCH   7   9
ATOM      9  C   UNL     1      -8.867   6.098   1.335  1.00  0.00     0.198 C 
BRANCH   9  10
ATOM     10  N   UNL     1      -8.425   4.978   2.189  1.00  0.00    -0.335 N 
ATOM     11  C   UNL     1      -7.468   4.016   1.888  1.00  0.00     0.293 C 
ATOM     12  O   UNL     1      -7.328   3.030   2.598  1.00  0.00    -0.265 OA
ATOM     13  H   UNL     1      -8.856   4.904   3.071  1.00  0.00     0.164 HD
BRANCH  11  14
ATOM     14  C   UNL     1      -6.530   4.249   0.683  1.00  0.00     0.252 C 
ATOM     15  O   UNL     1      -6.659   5.316   0.087  1.00  0.00    -0.283 OA
BRANCH  14  16
ATOM     16  C   UNL     1      -5.492   3.326   0.221  1.00  0.00     0.054 A 
ATOM     17  N   UNL     1      -4.202   1.555  -0.185  1.00  0.00    -0.240 N 
ATOM     18  C   UNL     1      -5.154   2.063   0.673  1.00  0.00     0.117 A 
ATOM     19  C   UNL     1      -3.905   2.447  -1.193  1.00  0.00     0.065 A 
ATOM     20  C   UNL     1      -4.611   3.611  -0.885  1.00  0.00     0.012 A 
ATOM     21  C   UNL     1      -3.080   2.369  -2.333  1.00  0.00     0.028 A 
ATOM     22  C   UNL     1      -4.405   4.758  -1.685  1.00  0.00     0.011 A 
ATOM     23  C   UNL     1      -2.922   3.515  -3.119  1.00  0.00     0.002 A 
ATOM     24  C   UNL     1      -3.557   4.703  -2.789  1.00  0.00     0.001 A 
BRANCH  17  25
ATOM     25  S   UNL     1      -3.587  -0.030  -0.079  1.00  0.00     0.268 S 
ATOM     26  O   UNL     1      -3.894  -0.623  -1.387  1.00  0.00    -0.201 OA
ATOM     27  O   UNL     1      -4.087  -0.590   1.138  1.00  0.00    -0.201 OA
BRANCH  25  28
ATOM     28  C   UNL     1      -1.816   0.047   0.043  1.00  0.00     0.088 A 
ATOM     29  C   UNL     1       2.488  -0.027   0.028  1.00  0.00     0.044 C 
ATOM     30  C   UNL     1       0.988   0.004   0.049  1.00  0.00    -0.051 A 
ATOM     31  C   UNL     1       0.265  -1.192  -0.033  1.00  0.00     0.005 A 
ATOM     32  C   UNL     1       0.293   1.215   0.165  1.00  0.00     0.005 A 
ATOM     33  C   UNL     1      -1.131  -1.171  -0.044  1.00  0.00     0.022 A 
ATOM     34  C   UNL     1      -1.106   1.240   0.178  1.00  0.00     0.022 A 
ENDBRANCH  25  28
ENDBRANCH  17  25
ENDBRANCH  14  16
ENDBRANCH  11  14
ENDBRANCH   9  10
BRANCH   9  35
ATOM     35  C   UNL     1     -10.366   6.418   1.437  1.00  0.00     0.092 C 
BRANCH  35  36
ATOM     36  C   UNL     1     -11.032   6.191   2.750  1.00  0.00     0.037 A 
ATOM     37  C   UNL     1     -11.627   5.072   3.295  1.00  0.00     0.134 A 
ATOM     38  N   UNL     1     -11.271   7.183   3.666  1.00  0.00    -0.348 N 
ATOM     39  N   UNL     1     -12.284   5.381   4.455  1.00  0.00    -0.245 NA
ATOM     40  C   UNL     1     -12.084   6.666   4.635  1.00  0.00     0.196 A 
ATOM     41  H   UNL     1     -10.920   8.102   3.632  1.00  0.00     0.167 HD
ENDBRANCH  35  36
ENDBRANCH   9  35
ENDBRANCH   7   9
ENDBRANCH   6   7
ENDBRANCH   5   6
ENDBRANCH   4   5
ENDBRANCH   3   4
ENDBRANCH   2   3
ENDBRANCH   1   2
BRANCH   1  42
ATOM     42  O   UNL     1      -4.475   5.549   4.700  1.00  0.00    -0.377 OA
BRANCH  42  43
ATOM     43  C   UNL     1      -3.638   6.571   5.169  1.00  0.00     0.188 C 
BRANCH  43  44
ATOM     44  C   UNL     1      -2.139   6.261   5.099  1.00  0.00     0.188 C 
BRANCH  44  45
ATOM     45  O   UNL     1      -1.725   4.984   4.653  1.00  0.00    -0.376 OA
BRANCH  45  46
ATOM     46  C   UNL     1      -2.386   3.867   5.242  1.00  0.00     0.202 C 
BRANCH  46  47
ATOM     47  C   UNL     1      -2.629   3.780   6.777  1.00  0.00     0.261 C 
BRANCH  47  48
ATOM     48  O   UNL     1      -3.046   4.979   7.473  1.00  0.00    -0.460 OA
BRANCH  48  49
ATOM     49  C   UNL     1      -2.343   5.409   8.569  1.00  0.00     0.338 C 
ATOM     50  O   UNL     1      -1.291   4.984   9.010  1.00  0.00    -0.246 OA
BRANCH  49  51
ATOM     51  C   UNL     1      -2.903   6.746   8.925  1.00  0.00     0.060 A 
ATOM     52  C   UNL     1      -4.052   6.895   9.700  1.00  0.00     0.016 A 
ATOM     53  C   UNL     1      -2.496   7.788   8.101  1.00  0.00     0.016 A 
ATOM     54  C   UNL     1      -4.965   7.903   9.374  1.00  0.00     0.010 A 
ATOM     55  C   UNL     1      -3.456   8.687   7.673  1.00  0.00     0.010 A 
ATOM     56  C   UNL     1      -4.746   8.646   8.210  1.00  0.00    -0.014 A 
BRANCH  56  57
ATOM     57  C   UNL     1      -5.853   9.032   7.304  1.00  0.00     0.031 A 
ATOM     58  C   UNL     1      -5.857  10.344   6.598  1.00  0.00     0.074 A 
ATOM     59  C   UNL     1      -6.688   8.032   6.905  1.00  0.00     0.049 A 
ATOM     60  N   UNL     1      -6.801  10.743   5.820  1.00  0.00    -0.248 NA
ATOM     61  C   UNL     1      -4.758  11.308   6.636  1.00  0.00     0.031 C 
ATOM     62  C   UNL     1      -7.723   8.024   5.871  1.00  0.00     0.029 A 
ATOM     63  N   UNL     1      -6.794   6.746   7.432  1.00  0.00    -0.354 N 
ATOM     64  C   UNL     1      -6.389  11.860   5.120  1.00  0.00     0.074 A 
ATOM     65  C   UNL     1      -5.090  12.163   5.660  1.00  0.00     0.031 C 
ATOM     66  C   UNL     1      -8.398   6.865   5.883  1.00  0.00     0.029 A 
ATOM     67  C   UNL     1      -8.046   6.207   7.113  1.00  0.00     0.049 A 
ATOM     68  H   UNL     1      -6.094   6.286   7.949  1.00  0.00     0.167 HD
ATOM     69  C   UNL     1      -7.191  12.344   4.124  1.00  0.00     0.031 A 
ATOM     70  C   UNL     1      -8.957   6.146   8.128  1.00  0.00     0.031 A 
ATOM     71  C   UNL     1      -8.552  11.755   4.210  1.00  0.00     0.049 A 
ATOM     72  C   UNL     1      -9.956   7.359   8.114  1.00  0.00     0.074 A 
ATOM     73  C   UNL     1      -9.476  11.217   3.332  1.00  0.00     0.029 A 
ATOM     74  N   UNL     1      -9.101  11.537   5.485  1.00  0.00    -0.354 N 
ATOM     75  N   UNL     1      -9.775   8.459   7.392  1.00  0.00    -0.248 NA
ATOM     76  C   UNL     1     -11.267   7.417   8.759  1.00  0.00     0.031 C 
ATOM     77  C   UNL     1     -10.493  10.571   4.106  1.00  0.00     0.029 A 
ATOM     78  C   UNL     1     -10.189  10.685   5.460  1.00  0.00     0.049 A 
ATOM     79  H   UNL     1      -8.749  11.947   6.308  1.00  0.00     0.167 HD
ATOM     80  C   UNL     1     -10.858   9.304   7.418  1.00  0.00     0.074 A 
ATOM     81  C   UNL     1     -11.762   8.598   8.317  1.00  0.00     0.031 C 
ATOM     82  C   UNL     1     -10.980  10.477   6.691  1.00  0.00     0.031 A 
BRANCH  69  83
ATOM     83  C   UNL     1      -6.716  13.276   2.998  1.00  0.00    -0.014 A 
ATOM     84  C   UNL     1      -7.622  13.709   2.003  1.00  0.00     0.010 A 
ATOM     85  C   UNL     1      -5.379  13.697   2.802  1.00  0.00     0.010 A 
ATOM     86  C   UNL     1      -7.231  14.500   0.901  1.00  0.00     0.020 A 
ATOM     87  C   UNL     1      -4.978  14.520   1.725  1.00  0.00     0.020 A 
ATOM     88  C   UNL     1      -5.909  14.915   0.774  1.00  0.00     0.054 A 
BRANCH  88  89
ATOM     89  S   UNL     1      -5.441  15.985  -0.620  1.00  0.00     0.124 S 
ATOM     90  O   UNL     1      -5.670  15.120  -1.774  1.00  0.00    -0.237 OA
ATOM     91  O   UNL     1      -6.366  17.107  -0.482  1.00  0.00    -0.237 OA
ATOM     92  O   UNL     1      -4.039  16.306  -0.357  1.00  0.00    -0.744 OA
ENDBRANCH  88  89
ENDBRANCH  69  83
BRANCH  70  93
ATOM     93  C   UNL     1      -8.489   5.028   9.052  1.00  0.00    -0.014 A 
ATOM     94  C   UNL     1      -8.559   3.727   8.473  1.00  0.00     0.010 A 
ATOM     95  C   UNL     1      -7.421   5.220   9.963  1.00  0.00     0.010 A 
ATOM     96  C   UNL     1      -7.518   2.777   8.600  1.00  0.00     0.020 A 
ATOM     97  C   UNL     1      -6.388   4.251  10.119  1.00  0.00     0.020 A 
ATOM     98  C   UNL     1      -6.413   3.059   9.393  1.00  0.00     0.054 A 
BRANCH  98  99
ATOM     99  S   UNL     1      -4.941   1.970   9.326  1.00  0.00     0.124 S 
ATOM    100  O   UNL     1      -5.226   0.991  10.368  1.00  0.00    -0.237 OA
ATOM    101  O   UNL     1      -4.963   1.454   7.960  1.00  0.00    -0.237 OA
ATOM    102  O   UNL     1      -3.840   2.886   9.617  1.00  0.00    -0.744 OA
ENDBRANCH  98  99
ENDBRANCH  70  93
BRANCH  82 103
ATOM    103  C   UNL     1     -11.892  11.664   7.032  1.00  0.00    -0.014 A 
ATOM    104  C   UNL     1     -12.708  11.752   8.162  1.00  0.00     0.010 A 
ATOM    105  C   UNL     1     -11.793  12.854   6.247  1.00  0.00     0.010 A 
ATOM    106  C   UNL     1     -13.386  12.942   8.481  1.00  0.00     0.020 A 
ATOM    107  C   UNL     1     -12.417  14.056   6.579  1.00  0.00     0.020 A 
ATOM    108  C   UNL     1     -13.226  14.088   7.697  1.00  0.00     0.054 A 
BRANCH 108 109
ATOM    109  S   UNL     1     -14.032  15.627   8.190  1.00  0.00     0.124 S 
ATOM    110  O   UNL     1     -15.429  15.347   7.870  1.00  0.00    -0.237 OA
ATOM    111  O   UNL     1     -13.714  15.706   9.613  1.00  0.00    -0.237 OA
ATOM    112  O   UNL     1     -13.390  16.641   7.356  1.00  0.00    -0.744 OA
ENDBRANCH 108 109
ENDBRANCH  82 103
ENDBRANCH  56  57
ENDBRANCH  49  51
ENDBRANCH  48  49
ENDBRANCH  47  48
ENDBRANCH  46  47
ENDBRANCH  45  46
ENDBRANCH  44  45
ENDBRANCH  43  44
ENDBRANCH  42  43
ENDBRANCH   1  42
TORSDOF 30
