REMARK SMILES CC[C@@](C)([NH2+]CC(=O)N[C@@H](C)C(C)C)C(=O)OCCOCCOCCOCCOC(=O)c1ccc(-c2c3nc(c(-c4ccc(S(=O)(=O)[O-])cc4)c4ccc([nH]4)c(-c4ccc(S(=O)(=O)[O-])cc4)c4nc(c(-c5ccc(S(=O)(=O)[O-])cc5)c5ccc2[nH]5)C=C4)C=C3)cc1
REMARK SMILES IDX 22 1 21 2 20 3 19 4 18 5 17 6 15 7 16 8 3 9 4 10 2 11 1 12
REMARK SMILES IDX 5 13 6 16 7 17 8 18 9 19 10 21 11 22 12 23 13 24 14 25 23 26
REMARK SMILES IDX 24 27 25 28 26 29 27 30 28 31 29 32 30 33 31 34 32 35 33 36
REMARK SMILES IDX 91 37 34 38 90 39 35 40 36 41 37 42 84 43 38 44 89 45 83 46
REMARK SMILES IDX 85 47 39 48 88 49 82 50 81 51 40 53 70 54 51 55 69 56 52 57
REMARK SMILES IDX 55 58 68 59 86 60 53 61 54 62 67 64 87 65 56 66 41 67 42 68
REMARK SMILES IDX 50 69 43 70 49 71 44 72 45 73 46 74 47 75 48 76 71 77 72 78
REMARK SMILES IDX 80 79 73 80 79 81 74 82 75 83 76 84 77 85 78 86 57 87 58 88
REMARK SMILES IDX 66 89 59 90 65 91 60 92 61 93 62 94 63 95 64 96
REMARK H PARENT 5 14 5 15 9 20 85 52 55 63
REMARK Flexibility Score: inf
ROOT
ATOM      1  C   UNL     1       2.961  -4.205  -0.971  1.00  0.00     0.188 C 
ENDROOT
BRANCH   1   2
ATOM      2  C   UNL     1       3.678  -2.951  -1.513  1.00  0.00     0.188 C 
BRANCH   2   3
ATOM      3  O   UNL     1       5.008  -2.817  -1.021  1.00  0.00    -0.376 OA
BRANCH   3   4
ATOM      4  C   UNL     1       5.190  -1.982   0.115  1.00  0.00     0.202 C 
BRANCH   4   5
ATOM      5  C   UNL     1       4.263  -2.147   1.320  1.00  0.00     0.261 C 
BRANCH   5   6
ATOM      6  O   UNL     1       2.867  -2.289   1.004  1.00  0.00    -0.459 OA
BRANCH   6   7
ATOM      7  C   UNL     1       1.928  -1.317   1.096  1.00  0.00     0.367 C 
ATOM      8  O   UNL     1       2.185  -0.128   1.233  1.00  0.00    -0.245 OA
BRANCH   7   9
ATOM      9  C   UNL     1       0.483  -1.944   0.992  1.00  0.00     0.191 C 
ATOM     10  C   UNL     1      -0.656  -1.270   1.768  1.00  0.00     0.092 C 
BRANCH   9  11
ATOM     11  C   UNL     1       0.087  -1.821  -0.516  1.00  0.00     0.077 C 
ATOM     12  C   UNL     1       0.163  -0.389  -1.068  1.00  0.00     0.011 C 
ENDBRANCH   9  11
BRANCH   9  13
ATOM     13  N   UNL     1       0.468  -3.376   1.439  1.00  0.00    -0.325 N 
ATOM     14  H   UNL     1       0.935  -3.922   0.716  1.00  0.00     0.347 HD
ATOM     15  H   UNL     1      -0.520  -3.580   1.589  1.00  0.00     0.347 HD
BRANCH  13  16
ATOM     16  C   UNL     1       1.114  -3.724   2.741  1.00  0.00     0.362 C 
BRANCH  16  17
ATOM     17  C   UNL     1       0.428  -3.199   4.015  1.00  0.00     0.275 C 
ATOM     18  O   UNL     1      -0.618  -3.716   4.422  1.00  0.00    -0.268 OA
ATOM     19  N   UNL     1       0.956  -2.150   4.739  1.00  0.00    -0.349 N 
ATOM     20  H   UNL     1       0.649  -2.086   5.673  1.00  0.00     0.163 HD
BRANCH  19  21
ATOM     21  C   UNL     1       1.906  -1.118   4.320  1.00  0.00     0.081 C 
ATOM     22  C   UNL     1       1.222   0.259   4.272  1.00  0.00     0.031 C 
BRANCH  21  23
ATOM     23  C   UNL     1       3.214  -1.044   5.139  1.00  0.00     0.005 C 
ATOM     24  C   UNL     1       3.928  -2.396   5.179  1.00  0.00     0.009 C 
ATOM     25  C   UNL     1       4.151   0.035   4.559  1.00  0.00     0.009 C 
ENDBRANCH  21  23
ENDBRANCH  19  21
ENDBRANCH  16  17
ENDBRANCH  13  16
ENDBRANCH   9  13
ENDBRANCH   7   9
ENDBRANCH   6   7
ENDBRANCH   5   6
ENDBRANCH   4   5
ENDBRANCH   3   4
ENDBRANCH   2   3
ENDBRANCH   1   2
BRANCH   1  26
ATOM     26  O   UNL     1       3.600  -4.794   0.148  1.00  0.00    -0.377 OA
BRANCH  26  27
ATOM     27  C   UNL     1       4.677  -5.692  -0.082  1.00  0.00     0.188 C 
BRANCH  27  28
ATOM     28  C   UNL     1       5.466  -5.670  -1.408  1.00  0.00     0.188 C 
BRANCH  28  29
ATOM     29  O   UNL     1       4.685  -5.473  -2.582  1.00  0.00    -0.376 OA
BRANCH  29  30
ATOM     30  C   UNL     1       4.305  -6.614  -3.337  1.00  0.00     0.202 C 
BRANCH  30  31
ATOM     31  C   UNL     1       3.274  -7.551  -2.687  1.00  0.00     0.261 C 
BRANCH  31  32
ATOM     32  O   UNL     1       3.712  -8.210  -1.489  1.00  0.00    -0.460 OA
BRANCH  32  33
ATOM     33  C   UNL     1       4.824  -8.960  -1.581  1.00  0.00     0.338 C 
ATOM     34  O   UNL     1       5.462  -9.215  -2.600  1.00  0.00    -0.246 OA
BRANCH  33  35
ATOM     35  C   UNL     1       5.285  -9.284  -0.224  1.00  0.00     0.060 A 
ATOM     36  C   UNL     1       6.579  -8.901   0.148  1.00  0.00     0.016 A 
ATOM     37  C   UNL     1       4.465  -9.989   0.662  1.00  0.00     0.016 A 
ATOM     38  C   UNL     1       7.084  -9.284   1.385  1.00  0.00     0.010 A 
ATOM     39  C   UNL     1       4.981 -10.391   1.896  1.00  0.00     0.010 A 
ATOM     40  C   UNL     1       6.309 -10.083   2.237  1.00  0.00    -0.014 A 
BRANCH  40  41
ATOM     41  C   UNL     1       6.988 -10.778   3.354  1.00  0.00     0.031 A 
ATOM     42  C   UNL     1       7.487 -12.180   3.118  1.00  0.00     0.074 A 
ATOM     43  C   UNL     1       7.239 -10.150   4.515  1.00  0.00     0.049 A 
ATOM     44  N   UNL     1       8.180 -12.957   3.909  1.00  0.00    -0.248 NA
ATOM     45  C   UNL     1       7.170 -12.781   1.810  1.00  0.00     0.031 C 
ATOM     46  C   UNL     1       6.838  -8.783   4.844  1.00  0.00     0.029 A 
ATOM     47  N   UNL     1       7.907 -10.585   5.632  1.00  0.00    -0.354 N 
ATOM     48  C   UNL     1       8.395 -14.128   3.191  1.00  0.00     0.074 A 
ATOM     49  C   UNL     1       7.721 -13.980   1.921  1.00  0.00     0.031 C 
ATOM     50  C   UNL     1       7.267  -8.492   6.085  1.00  0.00     0.029 A 
ATOM     51  C   UNL     1       7.956  -9.655   6.641  1.00  0.00     0.049 A 
ATOM     52  H   UNL     1       8.312 -11.480   5.703  1.00  0.00     0.167 HD
ATOM     53  C   UNL     1       9.104 -15.223   3.549  1.00  0.00     0.031 A 
ATOM     54  C   UNL     1       8.489  -9.739   7.876  1.00  0.00     0.031 A 
ATOM     55  C   UNL     1       9.749 -15.382   4.824  1.00  0.00     0.049 A 
ATOM     56  C   UNL     1       9.213 -10.999   8.280  1.00  0.00     0.074 A 
ATOM     57  C   UNL     1      10.478 -16.461   5.293  1.00  0.00     0.029 A 
ATOM     58  N   UNL     1       9.737 -14.436   5.838  1.00  0.00    -0.354 N 
ATOM     59  N   UNL     1       9.425 -12.091   7.582  1.00  0.00    -0.248 NA
ATOM     60  C   UNL     1       9.787 -11.028   9.632  1.00  0.00     0.031 C 
ATOM     61  C   UNL     1      10.864 -16.187   6.610  1.00  0.00     0.029 A 
ATOM     62  C   UNL     1      10.429 -14.912   6.938  1.00  0.00     0.049 A 
ATOM     63  H   UNL     1       9.300 -13.555   5.783  1.00  0.00     0.167 HD
ATOM     64  C   UNL     1      10.173 -12.927   8.404  1.00  0.00     0.074 A 
ATOM     65  C   UNL     1      10.400 -12.203   9.638  1.00  0.00     0.031 C 
ATOM     66  C   UNL     1      10.632 -14.182   8.164  1.00  0.00     0.031 A 
BRANCH  53  67
ATOM     67  C   UNL     1       9.197 -16.344   2.548  1.00  0.00    -0.014 A 
ATOM     68  C   UNL     1       9.973 -16.211   1.382  1.00  0.00     0.010 A 
ATOM     69  C   UNL     1       8.525 -17.556   2.789  1.00  0.00     0.010 A 
ATOM     70  C   UNL     1      10.050 -17.259   0.460  1.00  0.00     0.020 A 
ATOM     71  C   UNL     1       8.622 -18.616   1.883  1.00  0.00     0.020 A 
ATOM     72  C   UNL     1       9.374 -18.455   0.717  1.00  0.00     0.054 A 
BRANCH  72  73
ATOM     73  S   UNL     1       9.518 -19.809  -0.481  1.00  0.00     0.124 S 
ATOM     74  O   UNL     1       8.717 -19.312  -1.597  1.00  0.00    -0.237 OA
ATOM     75  O   UNL     1      10.958 -19.872  -0.721  1.00  0.00    -0.237 OA
ATOM     76  O   UNL     1       8.957 -20.959   0.225  1.00  0.00    -0.744 OA
ENDBRANCH  72  73
ENDBRANCH  53  67
BRANCH  54  77
ATOM     77  C   UNL     1       8.340  -8.606   8.830  1.00  0.00    -0.014 A 
ATOM     78  C   UNL     1       9.450  -7.846   9.239  1.00  0.00     0.010 A 
ATOM     79  C   UNL     1       7.070  -8.291   9.349  1.00  0.00     0.010 A 
ATOM     80  C   UNL     1       9.296  -6.809  10.165  1.00  0.00     0.020 A 
ATOM     81  C   UNL     1       6.908  -7.237  10.251  1.00  0.00     0.020 A 
ATOM     82  C   UNL     1       8.025  -6.510  10.664  1.00  0.00     0.054 A 
BRANCH  82  83
ATOM     83  S   UNL     1       7.840  -5.131  11.829  1.00  0.00     0.124 S 
ATOM     84  O   UNL     1       8.401  -5.691  13.054  1.00  0.00    -0.237 OA
ATOM     85  O   UNL     1       8.626  -4.076  11.196  1.00  0.00    -0.237 OA
ATOM     86  O   UNL     1       6.398  -4.894  11.851  1.00  0.00    -0.744 OA
ENDBRANCH  82  83
ENDBRANCH  54  77
BRANCH  66  87
ATOM     87  C   UNL     1      11.444 -14.838   9.251  1.00  0.00    -0.014 A 
ATOM     88  C   UNL     1      10.850 -15.255  10.456  1.00  0.00     0.010 A 
ATOM     89  C   UNL     1      12.820 -15.057   9.055  1.00  0.00     0.010 A 
ATOM     90  C   UNL     1      11.628 -15.827  11.466  1.00  0.00     0.020 A 
ATOM     91  C   UNL     1      13.595 -15.658  10.050  1.00  0.00     0.020 A 
ATOM     92  C   UNL     1      12.997 -16.017  11.259  1.00  0.00     0.054 A 
BRANCH  92  93
ATOM     93  S   UNL     1      13.986 -16.761  12.585  1.00  0.00     0.124 S 
ATOM     94  O   UNL     1      14.094 -15.659  13.537  1.00  0.00    -0.237 OA
ATOM     95  O   UNL     1      13.157 -17.884  13.015  1.00  0.00    -0.237 OA
ATOM     96  O   UNL     1      15.233 -17.134  11.920  1.00  0.00    -0.744 OA
ENDBRANCH  92  93
ENDBRANCH  66  87
ENDBRANCH  40  41
ENDBRANCH  33  35
ENDBRANCH  32  33
ENDBRANCH  31  32
ENDBRANCH  30  31
ENDBRANCH  29  30
ENDBRANCH  28  29
ENDBRANCH  27  28
ENDBRANCH  26  27
ENDBRANCH   1  26
TORSDOF 29
