REMARK SMILES Cc1ccc(N2C(=O)C[C@H](Sc3ccccc3C(=O)OCCOCCOCCOCCOC(=O)c3ccc(-c4c5nc(c(-c6ccc(S(=O)(=O)[O-])cc6)c6ccc([nH]6)c(-c6ccc(S(=O)(=O)[O-])cc6)c6nc(c(-c7ccc(S(=O)(=O)[O-])cc7)c7ccc4[nH]7)C=C6)C=C5)cc3)C2=O)cc1
REMARK SMILES IDX 26 1 25 2 24 3 23 4 22 5 21 6 20 7 18 8 19 9 17 10 12 11
REMARK SMILES IDX 13 12 14 13 16 14 15 15 11 16 10 17 6 18 7 19 95 20 8 21
REMARK SMILES IDX 9 22 96 23 5 24 1 25 2 26 3 27 98 28 4 29 97 30 27 31 28 32
REMARK SMILES IDX 29 33 30 34 31 35 32 36 33 37 34 38 35 39 36 40 94 41 37 42
REMARK SMILES IDX 93 43 38 44 39 45 40 46 87 47 41 48 92 49 86 50 88 51 42 52
REMARK SMILES IDX 91 53 85 54 84 55 43 57 73 58 54 59 72 60 55 61 58 62 71 63
REMARK SMILES IDX 89 64 56 65 57 66 70 68 90 69 59 70 44 71 45 72 53 73 46 74
REMARK SMILES IDX 52 75 47 76 48 77 49 78 50 79 51 80 74 81 75 82 83 83 76 84
REMARK SMILES IDX 82 85 77 86 78 87 79 88 80 89 81 90 60 91 61 92 69 93 62 94
REMARK SMILES IDX 68 95 63 96 64 97 65 98 66 99 67 100
REMARK H PARENT 88 56 58 67
REMARK Flexibility Score: inf
ROOT
ATOM      1  O   UNL     1      -3.190   3.759  -1.435  1.00  0.00    -0.377 OA
ENDROOT
BRANCH   1   2
ATOM      2  C   UNL     1      -3.411   2.982  -0.267  1.00  0.00     0.188 C 
BRANCH   2   3
ATOM      3  C   UNL     1      -4.848   2.500  -0.009  1.00  0.00     0.188 C 
BRANCH   3   4
ATOM      4  O   UNL     1      -5.409   1.758  -1.075  1.00  0.00    -0.376 OA
BRANCH   4   5
ATOM      5  C   UNL     1      -6.529   0.912  -0.862  1.00  0.00     0.202 C 
BRANCH   5   6
ATOM      6  C   UNL     1      -7.715   1.323  -0.011  1.00  0.00     0.261 C 
BRANCH   6   7
ATOM      7  O   UNL     1      -7.345   2.084   1.116  1.00  0.00    -0.460 OA
BRANCH   7   8
ATOM      8  C   UNL     1      -7.476   1.445   2.285  1.00  0.00     0.339 C 
ATOM      9  O   UNL     1      -8.175   0.475   2.523  1.00  0.00    -0.246 OA
BRANCH   8  10
ATOM     10  C   UNL     1      -6.367   1.955   3.108  1.00  0.00     0.073 A 
ATOM     11  C   UNL     1      -5.544   1.074   3.837  1.00  0.00     0.023 A 
ATOM     12  C   UNL     1      -4.529   1.653   4.608  1.00  0.00     0.016 A 
ATOM     13  C   UNL     1      -4.278   3.032   4.581  1.00  0.00     0.001 A 
ATOM     14  C   UNL     1      -6.089   3.344   3.053  1.00  0.00     0.017 A 
ATOM     15  C   UNL     1      -5.032   3.876   3.776  1.00  0.00     0.001 A 
BRANCH  11  16
ATOM     16  S   UNL     1      -5.776  -0.700   4.055  1.00  0.00    -0.111 SA
BRANCH  16  17
ATOM     17  C   UNL     1      -4.922  -1.569   2.667  1.00  0.00     0.151 C 
ATOM     18  N   UNL     1      -2.893  -0.789   1.802  1.00  0.00    -0.250 N 
ATOM     19  C   UNL     1      -3.822  -0.583   0.823  1.00  0.00     0.235 C 
ATOM     20  C   UNL     1      -3.414  -1.577   2.792  1.00  0.00     0.247 C 
ATOM     21  O   UNL     1      -3.605  -0.235  -0.309  1.00  0.00    -0.274 OA
ATOM     22  C   UNL     1      -5.163  -1.042   1.289  1.00  0.00     0.126 C 
ATOM     23  O   UNL     1      -2.793  -2.243   3.611  1.00  0.00    -0.273 OA
BRANCH  18  24
ATOM     24  C   UNL     1      -1.529  -0.637   1.478  1.00  0.00     0.052 A 
ATOM     25  C   UNL     1       2.459  -0.087  -0.080  1.00  0.00     0.044 C 
ATOM     26  C   UNL     1       1.063  -0.268   0.440  1.00  0.00    -0.051 A 
ATOM     27  C   UNL     1       0.514  -1.552   0.552  1.00  0.00     0.005 A 
ATOM     28  C   UNL     1       0.298   0.833   0.835  1.00  0.00     0.005 A 
ATOM     29  C   UNL     1      -0.771  -1.739   1.074  1.00  0.00     0.027 A 
ATOM     30  C   UNL     1      -0.992   0.649   1.343  1.00  0.00     0.027 A 
ENDBRANCH  18  24
ENDBRANCH  16  17
ENDBRANCH  11  16
ENDBRANCH   8  10
ENDBRANCH   7   8
ENDBRANCH   6   7
ENDBRANCH   5   6
ENDBRANCH   4   5
ENDBRANCH   3   4
ENDBRANCH   2   3
ENDBRANCH   1   2
BRANCH   1  31
ATOM     31  C   UNL     1      -3.120   2.992  -2.639  1.00  0.00     0.188 C 
BRANCH  31  32
ATOM     32  C   UNL     1      -2.047   1.936  -2.751  1.00  0.00     0.188 C 
BRANCH  32  33
ATOM     33  O   UNL     1      -2.738   0.691  -2.675  1.00  0.00    -0.376 OA
BRANCH  33  34
ATOM     34  C   UNL     1      -1.976  -0.487  -2.767  1.00  0.00     0.202 C 
BRANCH  34  35
ATOM     35  C   UNL     1      -0.988  -0.487  -3.921  1.00  0.00     0.261 C 
BRANCH  35  36
ATOM     36  O   UNL     1      -1.558  -0.745  -5.247  1.00  0.00    -0.460 OA
BRANCH  36  37
ATOM     37  C   UNL     1      -2.216   0.107  -6.092  1.00  0.00     0.338 C 
ATOM     38  O   UNL     1      -1.916   0.161  -7.282  1.00  0.00    -0.246 OA
BRANCH  37  39
ATOM     39  C   UNL     1      -3.511   0.698  -5.660  1.00  0.00     0.060 A 
ATOM     40  C   UNL     1      -3.982   1.928  -6.153  1.00  0.00     0.016 A 
ATOM     41  C   UNL     1      -4.330  -0.011  -4.809  1.00  0.00     0.016 A 
ATOM     42  C   UNL     1      -5.150   2.539  -5.633  1.00  0.00     0.010 A 
ATOM     43  C   UNL     1      -5.417   0.630  -4.231  1.00  0.00     0.010 A 
ATOM     44  C   UNL     1      -5.847   1.924  -4.602  1.00  0.00    -0.014 A 
BRANCH  44  45
ATOM     45  C   UNL     1      -6.973   2.508  -3.806  1.00  0.00     0.031 A 
ATOM     46  C   UNL     1      -8.205   1.629  -3.647  1.00  0.00     0.074 A 
ATOM     47  C   UNL     1      -6.726   3.556  -2.959  1.00  0.00     0.049 A 
ATOM     48  N   UNL     1      -9.193   1.839  -2.845  1.00  0.00    -0.248 NA
ATOM     49  C   UNL     1      -8.365   0.330  -4.320  1.00  0.00     0.031 C 
ATOM     50  C   UNL     1      -7.405   3.902  -1.707  1.00  0.00     0.029 A 
ATOM     51  N   UNL     1      -5.745   4.548  -2.994  1.00  0.00    -0.354 N 
ATOM     52  C   UNL     1      -9.861   0.639  -2.610  1.00  0.00     0.074 A 
ATOM     53  C   UNL     1      -9.337  -0.258  -3.608  1.00  0.00     0.031 C 
ATOM     54  C   UNL     1      -6.869   4.979  -1.104  1.00  0.00     0.029 A 
ATOM     55  C   UNL     1      -6.106   5.611  -2.139  1.00  0.00     0.049 A 
ATOM     56  H   UNL     1      -4.923   4.512  -3.534  1.00  0.00     0.167 HD
ATOM     57  C   UNL     1     -10.671   0.518  -1.507  1.00  0.00     0.031 A 
ATOM     58  C   UNL     1      -6.513   6.782  -2.708  1.00  0.00     0.031 A 
ATOM     59  C   UNL     1     -10.841   1.832  -0.821  1.00  0.00     0.049 A 
ATOM     60  C   UNL     1      -8.062   6.892  -2.605  1.00  0.00     0.074 A 
ATOM     61  C   UNL     1     -10.761   2.279   0.489  1.00  0.00     0.029 A 
ATOM     62  N   UNL     1     -10.928   2.999  -1.592  1.00  0.00    -0.354 N 
ATOM     63  N   UNL     1      -8.874   5.879  -2.356  1.00  0.00    -0.248 NA
ATOM     64  C   UNL     1      -8.804   8.142  -2.562  1.00  0.00     0.031 C 
ATOM     65  C   UNL     1     -10.680   3.710   0.470  1.00  0.00     0.029 A 
ATOM     66  C   UNL     1     -10.781   4.153  -0.845  1.00  0.00     0.049 A 
ATOM     67  H   UNL     1     -11.078   2.998  -2.565  1.00  0.00     0.167 HD
ATOM     68  C   UNL     1     -10.126   6.286  -1.976  1.00  0.00     0.074 A 
ATOM     69  C   UNL     1     -10.043   7.724  -2.217  1.00  0.00     0.031 C 
ATOM     70  C   UNL     1     -11.103   5.459  -1.450  1.00  0.00     0.031 A 
BRANCH  57  71
ATOM     71  C   UNL     1     -11.191  -0.811  -0.890  1.00  0.00    -0.014 A 
ATOM     72  C   UNL     1     -12.003  -0.766   0.271  1.00  0.00     0.010 A 
ATOM     73  C   UNL     1     -10.886  -2.123  -1.328  1.00  0.00     0.010 A 
ATOM     74  C   UNL     1     -12.458  -1.914   0.956  1.00  0.00     0.020 A 
ATOM     75  C   UNL     1     -11.366  -3.291  -0.671  1.00  0.00     0.020 A 
ATOM     76  C   UNL     1     -12.146  -3.179   0.476  1.00  0.00     0.054 A 
BRANCH  76  77
ATOM     77  S   UNL     1     -12.816  -4.638   1.338  1.00  0.00     0.124 S 
ATOM     78  O   UNL     1     -12.130  -4.594   2.627  1.00  0.00    -0.237 OA
ATOM     79  O   UNL     1     -14.249  -4.356   1.381  1.00  0.00    -0.237 OA
ATOM     80  O   UNL     1     -12.436  -5.757   0.477  1.00  0.00    -0.744 OA
ENDBRANCH  76  77
ENDBRANCH  57  71
BRANCH  58  81
ATOM     81  C   UNL     1      -5.439   7.187  -3.708  1.00  0.00    -0.014 A 
ATOM     82  C   UNL     1      -4.175   7.509  -3.121  1.00  0.00     0.010 A 
ATOM     83  C   UNL     1      -5.402   6.586  -4.984  1.00  0.00     0.010 A 
ATOM     84  C   UNL     1      -2.960   7.022  -3.651  1.00  0.00     0.020 A 
ATOM     85  C   UNL     1      -4.176   6.110  -5.524  1.00  0.00     0.020 A 
ATOM     86  C   UNL     1      -2.972   6.278  -4.828  1.00  0.00     0.054 A 
BRANCH  86  87
ATOM     87  S   UNL     1      -1.467   5.332  -5.296  1.00  0.00     0.124 S 
ATOM     88  O   UNL     1      -0.682   6.325  -6.020  1.00  0.00    -0.237 OA
ATOM     89  O   UNL     1      -0.905   4.910  -4.014  1.00  0.00    -0.237 OA
ATOM     90  O   UNL     1      -1.990   4.238  -6.108  1.00  0.00    -0.744 OA
ENDBRANCH  86  87
ENDBRANCH  58  81
BRANCH  70  91
ATOM     91  C   UNL     1     -12.601   5.735  -1.487  1.00  0.00    -0.014 A 
ATOM     92  C   UNL     1     -13.187   6.987  -1.635  1.00  0.00     0.010 A 
ATOM     93  C   UNL     1     -13.499   4.625  -1.449  1.00  0.00     0.010 A 
ATOM     94  C   UNL     1     -14.560   7.116  -1.872  1.00  0.00     0.020 A 
ATOM     95  C   UNL     1     -14.866   4.735  -1.674  1.00  0.00     0.020 A 
ATOM     96  C   UNL     1     -15.383   5.990  -1.924  1.00  0.00     0.054 A 
BRANCH  96  97
ATOM     97  S   UNL     1     -17.125   6.197  -2.322  1.00  0.00     0.124 S 
ATOM     98  O   UNL     1     -17.551   7.178  -1.327  1.00  0.00    -0.237 OA
ATOM     99  O   UNL     1     -17.063   6.684  -3.698  1.00  0.00    -0.237 OA
ATOM    100  O   UNL     1     -17.688   4.860  -2.159  1.00  0.00    -0.744 OA
ENDBRANCH  96  97
ENDBRANCH  70  91
ENDBRANCH  44  45
ENDBRANCH  37  39
ENDBRANCH  36  37
ENDBRANCH  35  36
ENDBRANCH  34  35
ENDBRANCH  33  34
ENDBRANCH  32  33
ENDBRANCH  31  32
ENDBRANCH   1  31
TORSDOF 26
