REMARK SMILES C=Cc1cccc(-c2ccc([C@@H](C)C(=O)OCCOCCOCCOCCOC(=O)c3ccc(-c4c5nc(c(-c6ccc(S(=O)(=O)[O-])cc6)c6ccc([nH]6)c(-c6ccc(S(=O)(=O)[O-])cc6)c6nc(c(-c7ccc(S(=O)(=O)[O-])cc7)c7ccc4[nH]7)C=C6)C=C5)cc3)cc2)c1
REMARK SMILES IDX 22 1 21 2 20 3 19 4 18 5 17 6 16 7 14 8 15 9 12 10 13 11
REMARK SMILES IDX 11 12 8 13 9 14 92 15 10 16 91 17 7 18 3 19 4 20 93 21 5 22
REMARK SMILES IDX 6 23 2 24 1 25 23 26 24 27 25 28 26 29 27 30 28 31 29 32
REMARK SMILES IDX 30 33 31 34 32 35 90 36 33 37 89 38 34 39 35 40 36 41 83 42
REMARK SMILES IDX 37 43 88 44 82 45 84 46 38 47 87 48 81 49 80 50 39 52 69 53
REMARK SMILES IDX 50 54 68 55 51 56 54 57 67 58 85 59 52 60 53 61 66 63 86 64
REMARK SMILES IDX 55 65 40 66 41 67 49 68 42 69 48 70 43 71 44 72 45 73 46 74
REMARK SMILES IDX 47 75 70 76 71 77 79 78 72 79 78 80 73 81 74 82 75 83 76 84
REMARK SMILES IDX 77 85 56 86 57 87 65 88 58 89 64 90 59 91 60 92 61 93 62 94
REMARK SMILES IDX 63 95
REMARK H PARENT 84 51 54 62
REMARK Flexibility Score: inf
ROOT
ATOM      1  O   UNL     1      -4.460   5.156   1.863  1.00  0.00    -0.377 OA
ENDROOT
BRANCH   1   2
ATOM      2  C   UNL     1      -3.922   5.668   0.663  1.00  0.00     0.188 C 
BRANCH   2   3
ATOM      3  C   UNL     1      -4.066   7.184   0.468  1.00  0.00     0.188 C 
BRANCH   3   4
ATOM      4  O   UNL     1      -4.597   8.016   1.491  1.00  0.00    -0.376 OA
BRANCH   4   5
ATOM      5  C   UNL     1      -5.610   7.536   2.363  1.00  0.00     0.202 C 
BRANCH   5   6
ATOM      6  C   UNL     1      -6.918   6.947   1.799  1.00  0.00     0.261 C 
BRANCH   6   7
ATOM      7  O   UNL     1      -6.795   5.940   0.772  1.00  0.00    -0.463 OA
BRANCH   7   8
ATOM      8  C   UNL     1      -7.065   6.335  -0.493  1.00  0.00     0.313 C 
ATOM      9  O   UNL     1      -7.417   7.478  -0.785  1.00  0.00    -0.252 OA
BRANCH   8  10
ATOM     10  C   UNL     1      -6.940   5.263  -1.575  1.00  0.00     0.126 C 
ATOM     11  C   UNL     1      -8.340   4.891  -2.050  1.00  0.00     0.025 C 
BRANCH  10  12
ATOM     12  C   UNL     1      -6.073   4.018  -1.375  1.00  0.00    -0.034 A 
ATOM     13  C   UNL     1      -4.362   1.729  -1.096  1.00  0.00    -0.018 A 
ATOM     14  C   UNL     1      -5.425   1.972  -0.207  1.00  0.00     0.009 A 
ATOM     15  C   UNL     1      -4.166   2.657  -2.126  1.00  0.00     0.009 A 
ATOM     16  C   UNL     1      -6.270   3.092  -0.344  1.00  0.00     0.005 A 
ATOM     17  C   UNL     1      -5.010   3.771  -2.270  1.00  0.00     0.005 A 
BRANCH  13  18
ATOM     18  C   UNL     1      -3.532   0.508  -1.000  1.00  0.00    -0.018 A 
ATOM     19  C   UNL     1      -1.356  -0.624  -0.833  1.00  0.00    -0.026 A 
ATOM     20  C   UNL     1      -1.999  -1.862  -0.932  1.00  0.00     0.008 A 
ATOM     21  C   UNL     1      -2.127   0.554  -0.878  1.00  0.00     0.016 A 
ATOM     22  C   UNL     1      -3.385  -1.929  -1.046  1.00  0.00     0.001 A 
ATOM     23  C   UNL     1      -4.141  -0.756  -1.077  1.00  0.00     0.009 A 
BRANCH  19  24
ATOM     24  C   UNL     1       0.111  -0.619  -0.748  1.00  0.00     0.000 C 
ATOM     25  C   UNL     1       0.819   0.147   0.091  1.00  0.00     0.009 C 
ENDBRANCH  19  24
ENDBRANCH  13  18
ENDBRANCH  10  12
ENDBRANCH   8  10
ENDBRANCH   7   8
ENDBRANCH   6   7
ENDBRANCH   5   6
ENDBRANCH   4   5
ENDBRANCH   3   4
ENDBRANCH   2   3
ENDBRANCH   1   2
BRANCH   1  26
ATOM     26  C   UNL     1      -3.534   4.837   2.888  1.00  0.00     0.188 C 
BRANCH  26  27
ATOM     27  C   UNL     1      -2.377   5.828   3.108  1.00  0.00     0.188 C 
BRANCH  27  28
ATOM     28  O   UNL     1      -1.633   6.121   1.929  1.00  0.00    -0.376 OA
BRANCH  28  29
ATOM     29  C   UNL     1      -0.444   5.385   1.673  1.00  0.00     0.202 C 
BRANCH  29  30
ATOM     30  C   UNL     1      -0.568   3.882   1.357  1.00  0.00     0.261 C 
BRANCH  30  31
ATOM     31  O   UNL     1      -1.182   3.054   2.355  1.00  0.00    -0.460 OA
BRANCH  31  32
ATOM     32  C   UNL     1      -0.650   3.068   3.592  1.00  0.00     0.338 C 
ATOM     33  O   UNL     1       0.369   3.649   3.939  1.00  0.00    -0.246 OA
BRANCH  32  34
ATOM     34  C   UNL     1      -1.605   2.440   4.529  1.00  0.00     0.060 A 
ATOM     35  C   UNL     1      -2.019   3.177   5.646  1.00  0.00     0.016 A 
ATOM     36  C   UNL     1      -2.061   1.133   4.337  1.00  0.00     0.016 A 
ATOM     37  C   UNL     1      -2.822   2.584   6.617  1.00  0.00     0.010 A 
ATOM     38  C   UNL     1      -2.849   0.530   5.325  1.00  0.00     0.010 A 
ATOM     39  C   UNL     1      -3.180   1.235   6.497  1.00  0.00    -0.014 A 
BRANCH  39  40
ATOM     40  C   UNL     1      -3.650   0.521   7.711  1.00  0.00     0.031 A 
ATOM     41  C   UNL     1      -2.634  -0.261   8.508  1.00  0.00     0.074 A 
ATOM     42  C   UNL     1      -4.914   0.636   8.156  1.00  0.00     0.049 A 
ATOM     43  N   UNL     1      -2.782  -0.914   9.631  1.00  0.00    -0.248 NA
ATOM     44  C   UNL     1      -1.266  -0.306   7.964  1.00  0.00     0.031 C 
ATOM     45  C   UNL     1      -5.974   1.407   7.508  1.00  0.00     0.029 A 
ATOM     46  N   UNL     1      -5.513   0.109   9.273  1.00  0.00    -0.354 N 
ATOM     47  C   UNL     1      -1.532  -1.449   9.923  1.00  0.00     0.074 A 
ATOM     48  C   UNL     1      -0.647  -1.080   8.841  1.00  0.00     0.031 C 
ATOM     49  C   UNL     1      -7.096   1.305   8.243  1.00  0.00     0.029 A 
ATOM     50  C   UNL     1      -6.841   0.442   9.396  1.00  0.00     0.049 A 
ATOM     51  H   UNL     1      -5.037  -0.455   9.924  1.00  0.00     0.167 HD
ATOM     52  C   UNL     1      -1.147  -2.174  11.000  1.00  0.00     0.031 A 
ATOM     53  C   UNL     1      -7.747   0.085  10.329  1.00  0.00     0.031 A 
ATOM     54  C   UNL     1      -2.030  -2.554  12.070  1.00  0.00     0.049 A 
ATOM     55  C   UNL     1      -7.313  -0.784  11.483  1.00  0.00     0.074 A 
ATOM     56  C   UNL     1      -1.738  -3.283  13.209  1.00  0.00     0.029 A 
ATOM     57  N   UNL     1      -3.380  -2.240  12.130  1.00  0.00    -0.354 N 
ATOM     58  N   UNL     1      -6.122  -1.266  11.755  1.00  0.00    -0.248 NA
ATOM     59  C   UNL     1      -8.344  -1.139  12.468  1.00  0.00     0.031 C 
ATOM     60  C   UNL     1      -2.926  -3.466  13.925  1.00  0.00     0.029 A 
ATOM     61  C   UNL     1      -3.941  -2.784  13.273  1.00  0.00     0.049 A 
ATOM     62  H   UNL     1      -3.867  -1.710  11.459  1.00  0.00     0.167 HD
ATOM     63  C   UNL     1      -6.256  -1.951  12.960  1.00  0.00     0.074 A 
ATOM     64  C   UNL     1      -7.637  -1.802  13.372  1.00  0.00     0.031 C 
ATOM     65  C   UNL     1      -5.320  -2.636  13.667  1.00  0.00     0.031 A 
BRANCH  52  66
ATOM     66  C   UNL     1       0.287  -2.639  11.049  1.00  0.00    -0.014 A 
ATOM     67  C   UNL     1       1.347  -1.733  11.238  1.00  0.00     0.010 A 
ATOM     68  C   UNL     1       0.575  -4.010  10.929  1.00  0.00     0.010 A 
ATOM     69  C   UNL     1       2.669  -2.186  11.265  1.00  0.00     0.020 A 
ATOM     70  C   UNL     1       1.893  -4.471  10.989  1.00  0.00     0.020 A 
ATOM     71  C   UNL     1       2.933  -3.553  11.140  1.00  0.00     0.054 A 
BRANCH  71  72
ATOM     72  S   UNL     1       4.656  -4.115  11.205  1.00  0.00     0.124 S 
ATOM     73  O   UNL     1       5.182  -3.624   9.933  1.00  0.00    -0.237 OA
ATOM     74  O   UNL     1       5.167  -3.443  12.397  1.00  0.00    -0.237 OA
ATOM     75  O   UNL     1       4.544  -5.568  11.312  1.00  0.00    -0.744 OA
ENDBRANCH  71  72
ENDBRANCH  52  66
BRANCH  53  76
ATOM     76  C   UNL     1      -9.162   0.539  10.210  1.00  0.00    -0.014 A 
ATOM     77  C   UNL     1      -9.716   1.437  11.139  1.00  0.00     0.010 A 
ATOM     78  C   UNL     1      -9.971   0.057   9.164  1.00  0.00     0.010 A 
ATOM     79  C   UNL     1     -11.055   1.828  11.038  1.00  0.00     0.020 A 
ATOM     80  C   UNL     1     -11.300   0.470   9.040  1.00  0.00     0.020 A 
ATOM     81  C   UNL     1     -11.838   1.344   9.985  1.00  0.00     0.054 A 
BRANCH  81  82
ATOM     82  S   UNL     1     -13.558   1.903   9.845  1.00  0.00     0.124 S 
ATOM     83  O   UNL     1     -14.194   1.219  10.966  1.00  0.00    -0.237 OA
ATOM     84  O   UNL     1     -13.428   3.352   9.977  1.00  0.00    -0.237 OA
ATOM     85  O   UNL     1     -13.961   1.440   8.518  1.00  0.00    -0.744 OA
ENDBRANCH  81  82
ENDBRANCH  53  76
BRANCH  65  86
ATOM     86  C   UNL     1      -5.747  -3.236  14.984  1.00  0.00    -0.014 A 
ATOM     87  C   UNL     1      -6.654  -4.309  15.048  1.00  0.00     0.010 A 
ATOM     88  C   UNL     1      -5.212  -2.723  16.181  1.00  0.00     0.010 A 
ATOM     89  C   UNL     1      -7.064  -4.816  16.285  1.00  0.00     0.020 A 
ATOM     90  C   UNL     1      -5.591  -3.251  17.418  1.00  0.00     0.020 A 
ATOM     91  C   UNL     1      -6.535  -4.278  17.463  1.00  0.00     0.054 A 
BRANCH  91  92
ATOM     92  S   UNL     1      -7.085  -4.948  19.055  1.00  0.00     0.124 S 
ATOM     93  O   UNL     1      -8.443  -4.420  19.154  1.00  0.00    -0.237 OA
ATOM     94  O   UNL     1      -6.985  -6.391  18.847  1.00  0.00    -0.237 OA
ATOM     95  O   UNL     1      -6.131  -4.395  20.013  1.00  0.00    -0.744 OA
ENDBRANCH  91  92
ENDBRANCH  65  86
ENDBRANCH  39  40
ENDBRANCH  32  34
ENDBRANCH  31  32
ENDBRANCH  30  31
ENDBRANCH  29  30
ENDBRANCH  28  29
ENDBRANCH  27  28
ENDBRANCH  26  27
ENDBRANCH   1  26
TORSDOF 26
