REMARK SMILES CC1=C(CC(=O)OCCOCCOCCOCCOC(=O)c2ccc(-c3c4nc(c(-c5ccc(S(=O)(=O)[O-])cc5)c5ccc([nH]5)c(-c5ccc(S(=O)(=O)[O-])cc5)c5nc(c(-c6ccc(S(=O)(=O)[O-])cc6)c6ccc3[nH]6)C=C5)C=C4)cc2)c2cc(F)ccc2/C1=C\c1ccc([S@@+](C)[O-])cc1
REMARK SMILES IDX 13 1 12 2 11 3 10 4 9 5 8 6 7 7 5 8 6 9 4 10 3 11 1 12 2 13
REMARK SMILES IDX 89 14 82 15 88 16 90 17 83 18 87 19 84 20 86 21 85 22 91 23
REMARK SMILES IDX 92 24 99 25 93 26 98 27 94 28 95 29 96 30 97 31 14 32 15 33
REMARK SMILES IDX 16 34 17 35 18 36 19 37 20 38 21 39 22 40 23 41 81 42 24 43
REMARK SMILES IDX 80 44 25 45 26 46 27 47 74 48 28 49 79 50 73 51 75 52 29 53
REMARK SMILES IDX 78 54 72 55 71 56 30 58 60 59 41 60 59 61 42 62 45 63 58 64
REMARK SMILES IDX 76 65 43 66 44 67 57 69 77 70 46 71 31 72 32 73 40 74 33 75
REMARK SMILES IDX 39 76 34 77 35 78 36 79 37 80 38 81 61 82 62 83 70 84 63 85
REMARK SMILES IDX 69 86 64 87 65 88 66 89 67 90 68 91 47 92 48 93 56 94 49 95
REMARK SMILES IDX 55 96 50 97 51 98 52 99 53 100 54 101
REMARK H PARENT 75 57 45 68
REMARK Flexibility Score: inf
ROOT
ATOM      1  O   UNL     1      -2.437  -4.419  -1.319  1.00  0.00    -0.377 OA
ENDROOT
BRANCH   1   2
ATOM      2  C   UNL     1      -1.044  -4.630  -1.149  1.00  0.00     0.188 C 
BRANCH   2   3
ATOM      3  C   UNL     1      -0.419  -5.751  -0.293  1.00  0.00     0.188 C 
BRANCH   3   4
ATOM      4  O   UNL     1      -1.213  -6.168   0.792  1.00  0.00    -0.376 OA
BRANCH   4   5
ATOM      5  C   UNL     1      -1.074  -5.568   2.063  1.00  0.00     0.202 C 
BRANCH   5   6
ATOM      6  C   UNL     1      -0.700  -4.088   2.290  1.00  0.00     0.261 C 
BRANCH   6   7
ATOM      7  O   UNL     1       0.002  -3.377   1.255  1.00  0.00    -0.463 OA
BRANCH   7   8
ATOM      8  C   UNL     1       1.353  -3.348   1.301  1.00  0.00     0.310 C 
ATOM      9  O   UNL     1       2.016  -3.955   2.139  1.00  0.00    -0.252 OA
BRANCH   8  10
ATOM     10  C   UNL     1       2.020  -2.477   0.218  1.00  0.00     0.159 C 
BRANCH  10  11
ATOM     11  C   UNL     1       1.253  -1.895  -0.940  1.00  0.00    -0.025 C 
ATOM     12  C   UNL     1       0.542   0.304   0.080  1.00  0.00     0.045 C 
ATOM     13  C   UNL     1       0.611  -0.701  -1.021  1.00  0.00    -0.039 C 
ATOM     14  C   UNL     1       0.028  -0.520  -2.367  1.00  0.00    -0.014 C 
ATOM     15  C   UNL     1       1.203  -2.503  -2.289  1.00  0.00    -0.011 A 
ATOM     16  C   UNL     1       0.438  -1.698  -3.158  1.00  0.00    -0.010 A 
ATOM     17  C   UNL     1      -0.736   0.520  -2.766  1.00  0.00     0.017 C 
ATOM     18  C   UNL     1       1.758  -3.693  -2.746  1.00  0.00     0.048 A 
ATOM     19  C   UNL     1       0.213  -2.088  -4.475  1.00  0.00     0.012 A 
ATOM     20  C   UNL     1       1.503  -4.084  -4.061  1.00  0.00     0.123 A 
ATOM     21  C   UNL     1       0.739  -3.299  -4.923  1.00  0.00     0.040 A 
ATOM     22  F   UNL     1       1.978  -5.256  -4.502  1.00  0.00    -0.207 F 
BRANCH  17  23
ATOM     23  C   UNL     1      -1.350   0.682  -4.093  1.00  0.00    -0.025 A 
ATOM     24  C   UNL     1      -2.534   0.005  -4.407  1.00  0.00     0.013 A 
ATOM     25  C   UNL     1      -0.703   1.423  -5.087  1.00  0.00     0.013 A 
ATOM     26  C   UNL     1      -3.011  -0.017  -5.725  1.00  0.00     0.061 A 
ATOM     27  C   UNL     1      -1.187   1.411  -6.401  1.00  0.00     0.061 A 
ATOM     28  C   UNL     1      -2.324   0.664  -6.737  1.00  0.00     0.152 A 
BRANCH  28  29
ATOM     29  S   UNL     1      -2.767   0.428  -8.479  1.00  0.00    -0.018 S 
ATOM     30  C   UNL     1      -4.505   0.908  -8.429  1.00  0.00     0.346 C 
ATOM     31  O   UNL     1      -1.984   1.507  -9.311  1.00  0.00    -0.612 OA
ENDBRANCH  28  29
ENDBRANCH  17  23
ENDBRANCH  10  11
ENDBRANCH   8  10
ENDBRANCH   7   8
ENDBRANCH   6   7
ENDBRANCH   5   6
ENDBRANCH   4   5
ENDBRANCH   3   4
ENDBRANCH   2   3
ENDBRANCH   1   2
BRANCH   1  32
ATOM     32  C   UNL     1      -3.340  -5.327  -0.734  1.00  0.00     0.188 C 
BRANCH  32  33
ATOM     33  C   UNL     1      -3.355  -6.725  -1.366  1.00  0.00     0.188 C 
BRANCH  33  34
ATOM     34  O   UNL     1      -2.209  -7.007  -2.165  1.00  0.00    -0.376 OA
BRANCH  34  35
ATOM     35  C   UNL     1      -2.405  -7.018  -3.575  1.00  0.00     0.202 C 
BRANCH  35  36
ATOM     36  C   UNL     1      -2.592  -5.657  -4.264  1.00  0.00     0.261 C 
BRANCH  36  37
ATOM     37  O   UNL     1      -3.706  -4.868  -3.831  1.00  0.00    -0.460 OA
BRANCH  37  38
ATOM     38  C   UNL     1      -4.944  -5.389  -3.937  1.00  0.00     0.338 C 
ATOM     39  O   UNL     1      -5.257  -6.462  -4.422  1.00  0.00    -0.246 OA
BRANCH  38  40
ATOM     40  C   UNL     1      -5.840  -4.500  -3.169  1.00  0.00     0.060 A 
ATOM     41  C   UNL     1      -5.820  -3.119  -3.385  1.00  0.00     0.016 A 
ATOM     42  C   UNL     1      -6.649  -5.052  -2.168  1.00  0.00     0.016 A 
ATOM     43  C   UNL     1      -6.624  -2.288  -2.607  1.00  0.00     0.010 A 
ATOM     44  C   UNL     1      -7.436  -4.217  -1.373  1.00  0.00     0.010 A 
ATOM     45  C   UNL     1      -7.448  -2.834  -1.607  1.00  0.00    -0.014 A 
BRANCH  45  46
ATOM     46  C   UNL     1      -8.506  -1.999  -0.995  1.00  0.00     0.031 A 
ATOM     47  C   UNL     1      -8.368  -1.379   0.359  1.00  0.00     0.074 A 
ATOM     48  C   UNL     1      -9.631  -1.835  -1.716  1.00  0.00     0.049 A 
ATOM     49  N   UNL     1      -9.197  -0.571   0.968  1.00  0.00    -0.248 NA
ATOM     50  C   UNL     1      -7.162  -1.703   1.133  1.00  0.00     0.031 C 
ATOM     51  C   UNL     1      -9.860  -2.422  -3.039  1.00  0.00     0.029 A 
ATOM     52  N   UNL     1     -10.778  -1.134  -1.457  1.00  0.00    -0.354 N 
ATOM     53  C   UNL     1      -8.610  -0.268   2.190  1.00  0.00     0.074 A 
ATOM     54  C   UNL     1      -7.370  -1.017   2.253  1.00  0.00     0.031 C 
ATOM     55  C   UNL     1     -11.061  -2.036  -3.487  1.00  0.00     0.029 A 
ATOM     56  C   UNL     1     -11.700  -1.202  -2.474  1.00  0.00     0.049 A 
ATOM     57  H   UNL     1     -10.929  -0.632  -0.624  1.00  0.00     0.167 HD
ATOM     58  C   UNL     1      -9.067   0.569   3.154  1.00  0.00     0.031 A 
ATOM     59  C   UNL     1     -12.922  -0.649  -2.591  1.00  0.00     0.031 A 
ATOM     60  C   UNL     1     -10.322   1.280   3.074  1.00  0.00     0.049 A 
ATOM     61  C   UNL     1     -13.419   0.243  -1.494  1.00  0.00     0.074 A 
ATOM     62  C   UNL     1     -10.850   2.187   3.976  1.00  0.00     0.029 A 
ATOM     63  N   UNL     1     -11.249   1.157   2.048  1.00  0.00    -0.354 N 
ATOM     64  N   UNL     1     -12.812   0.588  -0.384  1.00  0.00    -0.248 NA
ATOM     65  C   UNL     1     -14.750   0.835  -1.668  1.00  0.00     0.031 C 
ATOM     66  C   UNL     1     -12.125   2.551   3.538  1.00  0.00     0.029 A 
ATOM     67  C   UNL     1     -12.363   1.938   2.318  1.00  0.00     0.049 A 
ATOM     68  H   UNL     1     -11.133   0.598   1.246  1.00  0.00     0.167 HD
ATOM     69  C   UNL     1     -13.683   1.446   0.273  1.00  0.00     0.074 A 
ATOM     70  C   UNL     1     -14.848   1.588  -0.579  1.00  0.00     0.031 C 
ATOM     71  C   UNL     1     -13.530   2.055   1.474  1.00  0.00     0.031 A 
BRANCH  58  72
ATOM     72  C   UNL     1      -8.216   0.792   4.381  1.00  0.00    -0.014 A 
ATOM     73  C   UNL     1      -8.691   0.403   5.649  1.00  0.00     0.010 A 
ATOM     74  C   UNL     1      -7.016   1.521   4.300  1.00  0.00     0.010 A 
ATOM     75  C   UNL     1      -8.001   0.765   6.811  1.00  0.00     0.020 A 
ATOM     76  C   UNL     1      -6.308   1.861   5.458  1.00  0.00     0.020 A 
ATOM     77  C   UNL     1      -6.818   1.501   6.708  1.00  0.00     0.054 A 
BRANCH  77  78
ATOM     78  S   UNL     1      -5.952   1.989   8.227  1.00  0.00     0.124 S 
ATOM     79  O   UNL     1      -6.808   3.053   8.743  1.00  0.00    -0.237 OA
ATOM     80  O   UNL     1      -5.946   0.750   9.002  1.00  0.00    -0.237 OA
ATOM     81  O   UNL     1      -4.639   2.418   7.749  1.00  0.00    -0.744 OA
ENDBRANCH  77  78
ENDBRANCH  58  72
BRANCH  59  82
ATOM     82  C   UNL     1     -13.696  -0.892  -3.837  1.00  0.00    -0.014 A 
ATOM     83  C   UNL     1     -14.167  -2.185  -4.141  1.00  0.00     0.010 A 
ATOM     84  C   UNL     1     -13.840   0.130  -4.790  1.00  0.00     0.010 A 
ATOM     85  C   UNL     1     -14.700  -2.466  -5.401  1.00  0.00     0.020 A 
ATOM     86  C   UNL     1     -14.403  -0.140  -6.040  1.00  0.00     0.020 A 
ATOM     87  C   UNL     1     -14.796  -1.444  -6.349  1.00  0.00     0.054 A 
BRANCH  87  88
ATOM     88  S   UNL     1     -15.407  -1.852  -8.008  1.00  0.00     0.124 S 
ATOM     89  O   UNL     1     -14.264  -2.559  -8.580  1.00  0.00    -0.237 OA
ATOM     90  O   UNL     1     -16.578  -2.676  -7.722  1.00  0.00    -0.237 OA
ATOM     91  O   UNL     1     -15.694  -0.547  -8.597  1.00  0.00    -0.744 OA
ENDBRANCH  87  88
ENDBRANCH  59  82
BRANCH  71  92
ATOM     92  C   UNL     1     -14.659   2.921   1.972  1.00  0.00    -0.014 A 
ATOM     93  C   UNL     1     -14.470   4.308   2.120  1.00  0.00     0.010 A 
ATOM     94  C   UNL     1     -15.868   2.346   2.405  1.00  0.00     0.010 A 
ATOM     95  C   UNL     1     -15.449   5.097   2.729  1.00  0.00     0.020 A 
ATOM     96  C   UNL     1     -16.863   3.138   2.984  1.00  0.00     0.020 A 
ATOM     97  C   UNL     1     -16.636   4.504   3.167  1.00  0.00     0.054 A 
BRANCH  97  98
ATOM     98  S   UNL     1     -17.878   5.537   3.990  1.00  0.00     0.124 S 
ATOM     99  O   UNL     1     -17.283   5.744   5.306  1.00  0.00    -0.237 OA
ATOM    100  O   UNL     1     -17.933   6.718   3.131  1.00  0.00    -0.237 OA
ATOM    101  O   UNL     1     -19.081   4.708   3.971  1.00  0.00    -0.744 OA
ENDBRANCH  97  98
ENDBRANCH  71  92
ENDBRANCH  45  46
ENDBRANCH  38  40
ENDBRANCH  37  38
ENDBRANCH  36  37
ENDBRANCH  35  36
ENDBRANCH  34  35
ENDBRANCH  33  34
ENDBRANCH  32  33
ENDBRANCH   1  32
TORSDOF 26
