REMARK SMILES C[NH+]1CCN(C(=O)c2ccc3c(c2)N(CC(=O)OCCOCCOCCOCCOC(=O)c2ccc(-c4c5nc(c(-c6ccc(S(=O)(=O)[O-])cc6)c6ccc([nH]6)c(-c6ccc(S(=O)(=O)[O-])cc6)c6nc(c(-c7ccc(S(=O)(=O)[O-])cc7)c7ccc4[nH]7)C=C6)C=C5)cc2)C(=O)CO3)CC1
REMARK SMILES IDX 25 1 24 2 23 3 22 4 21 5 20 6 19 7 18 8 16 9 17 10 15 11
REMARK SMILES IDX 14 12 8 13 9 14 13 15 10 16 12 17 11 18 96 19 93 20 95 21
REMARK SMILES IDX 94 22 6 23 1 24 2 25 3 26 98 27 4 29 97 30 5 31 7 32 26 33
REMARK SMILES IDX 27 34 28 35 29 36 30 37 31 38 32 39 33 40 34 41 92 42 35 43
REMARK SMILES IDX 91 44 36 45 37 46 38 47 85 48 39 49 90 50 84 51 86 52 40 53
REMARK SMILES IDX 89 54 83 55 82 56 41 58 71 59 52 60 70 61 53 62 56 63 69 64
REMARK SMILES IDX 87 65 54 66 55 67 68 69 88 70 57 71 42 72 43 73 51 74 44 75
REMARK SMILES IDX 50 76 45 77 46 78 47 79 48 80 49 81 72 82 73 83 81 84 74 85
REMARK SMILES IDX 80 86 75 87 76 88 77 89 78 90 79 91 58 92 59 93 67 94 60 95
REMARK SMILES IDX 66 96 61 97 62 98 63 99 64 100 65 101
REMARK H PARENT 2 28 86 57 56 68
REMARK Flexibility Score: inf
ROOT
ATOM      1  C   UNL     1      -2.534  -4.592  -2.094  1.00  0.00     0.188 C 
ENDROOT
BRANCH   1   2
ATOM      2  O   UNL     1      -1.950  -5.287  -0.998  1.00  0.00    -0.377 OA
BRANCH   2   3
ATOM      3  C   UNL     1      -2.340  -4.778   0.257  1.00  0.00     0.188 C 
BRANCH   3   4
ATOM      4  C   UNL     1      -1.377  -3.696   0.714  1.00  0.00     0.188 C 
BRANCH   4   5
ATOM      5  O   UNL     1      -0.039  -3.657   0.284  1.00  0.00    -0.376 OA
BRANCH   5   6
ATOM      6  C   UNL     1       0.723  -4.848   0.369  1.00  0.00     0.202 C 
BRANCH   6   7
ATOM      7  C   UNL     1       0.412  -5.913   1.447  1.00  0.00     0.261 C 
BRANCH   7   8
ATOM      8  O   UNL     1      -0.650  -5.585   2.372  1.00  0.00    -0.462 OA
BRANCH   8   9
ATOM      9  C   UNL     1      -0.350  -4.917   3.509  1.00  0.00     0.326 C 
ATOM     10  O   UNL     1       0.790  -4.795   3.946  1.00  0.00    -0.250 OA
BRANCH   9  11
ATOM     11  C   UNL     1      -1.581  -4.258   4.201  1.00  0.00     0.248 C 
BRANCH  11  12
ATOM     12  N   UNL     1      -2.932  -4.213   3.593  1.00  0.00    -0.295 N 
ATOM     13  C   UNL     1      -3.406  -0.738   2.041  1.00  0.00     0.042 A 
ATOM     14  C   UNL     1      -4.727  -0.859   1.601  1.00  0.00     0.018 A 
ATOM     15  C   UNL     1      -2.834  -1.798   2.792  1.00  0.00     0.044 A 
ATOM     16  C   UNL     1      -5.427  -2.046   1.809  1.00  0.00     0.049 A 
ATOM     17  C   UNL     1      -3.522  -3.034   2.990  1.00  0.00     0.087 A 
ATOM     18  C   UNL     1      -4.826  -3.127   2.468  1.00  0.00     0.143 A 
ATOM     19  O   UNL     1      -5.602  -4.248   2.475  1.00  0.00    -0.482 OA
ATOM     20  C   UNL     1      -3.676  -5.389   3.696  1.00  0.00     0.265 C 
ATOM     21  C   UNL     1      -5.136  -5.312   3.268  1.00  0.00     0.330 C 
ATOM     22  O   UNL     1      -3.214  -6.430   4.165  1.00  0.00    -0.270 OA
BRANCH  13  23
ATOM     23  C   UNL     1      -2.746   0.591   1.802  1.00  0.00     0.254 C 
ATOM     24  C   UNL     1       2.529   0.780   0.256  1.00  0.00     0.332 C 
ATOM     25  N   UNL     1       1.095   0.896   0.007  1.00  0.00    -0.334 N 
ATOM     26  C   UNL     1       0.485   2.003   0.781  1.00  0.00     0.283 C 
ATOM     27  C   UNL     1       0.417  -0.381   0.301  1.00  0.00     0.283 C 
ATOM     28  H   UNL     1       0.973   1.115  -0.982  1.00  0.00     0.347 HD
ATOM     29  C   UNL     1      -1.068   2.072   0.702  1.00  0.00     0.181 C 
ATOM     30  C   UNL     1      -1.080  -0.224   0.032  1.00  0.00     0.181 C 
ATOM     31  N   UNL     1      -1.677   0.759   0.919  1.00  0.00    -0.327 N 
ATOM     32  O   UNL     1      -3.257   1.543   2.394  1.00  0.00    -0.269 OA
ENDBRANCH  13  23
ENDBRANCH  11  12
ENDBRANCH   9  11
ENDBRANCH   8   9
ENDBRANCH   7   8
ENDBRANCH   6   7
ENDBRANCH   5   6
ENDBRANCH   4   5
ENDBRANCH   3   4
ENDBRANCH   2   3
ENDBRANCH   1   2
BRANCH   1  33
ATOM     33  C   UNL     1      -1.849  -3.264  -2.469  1.00  0.00     0.188 C 
BRANCH  33  34
ATOM     34  O   UNL     1      -2.592  -2.038  -2.478  1.00  0.00    -0.376 OA
BRANCH  34  35
ATOM     35  C   UNL     1      -3.594  -1.772  -1.510  1.00  0.00     0.202 C 
BRANCH  35  36
ATOM     36  C   UNL     1      -4.998  -1.695  -2.103  1.00  0.00     0.261 C 
BRANCH  36  37
ATOM     37  O   UNL     1      -5.296  -2.887  -2.815  1.00  0.00    -0.460 OA
BRANCH  37  38
ATOM     38  C   UNL     1      -4.834  -2.907  -4.089  1.00  0.00     0.338 C 
ATOM     39  O   UNL     1      -4.396  -1.976  -4.746  1.00  0.00    -0.246 OA
BRANCH  38  40
ATOM     40  C   UNL     1      -4.750  -4.320  -4.475  1.00  0.00     0.060 A 
ATOM     41  C   UNL     1      -3.611  -4.758  -5.165  1.00  0.00     0.016 A 
ATOM     42  C   UNL     1      -5.739  -5.217  -4.056  1.00  0.00     0.016 A 
ATOM     43  C   UNL     1      -3.465  -6.108  -5.453  1.00  0.00     0.010 A 
ATOM     44  C   UNL     1      -5.611  -6.559  -4.369  1.00  0.00     0.010 A 
ATOM     45  C   UNL     1      -4.496  -6.988  -5.105  1.00  0.00    -0.014 A 
BRANCH  45  46
ATOM     46  C   UNL     1      -4.607  -8.268  -5.815  1.00  0.00     0.031 A 
ATOM     47  C   UNL     1      -5.416  -8.245  -7.079  1.00  0.00     0.074 A 
ATOM     48  C   UNL     1      -4.039  -9.380  -5.329  1.00  0.00     0.049 A 
ATOM     49  N   UNL     1      -5.794  -9.236  -7.835  1.00  0.00    -0.248 NA
ATOM     50  C   UNL     1      -5.876  -6.921  -7.546  1.00  0.00     0.031 C 
ATOM     51  C   UNL     1      -3.200  -9.456  -4.132  1.00  0.00     0.029 A 
ATOM     52  N   UNL     1      -4.100 -10.668  -5.784  1.00  0.00    -0.354 N 
ATOM     53  C   UNL     1      -6.534  -8.655  -8.858  1.00  0.00     0.074 A 
ATOM     54  C   UNL     1      -6.590  -7.236  -8.613  1.00  0.00     0.031 C 
ATOM     55  C   UNL     1      -2.836 -10.737  -3.940  1.00  0.00     0.029 A 
ATOM     56  C   UNL     1      -3.452 -11.566  -4.972  1.00  0.00     0.049 A 
ATOM     57  H   UNL     1      -4.564 -10.926  -6.613  1.00  0.00     0.167 HD
ATOM     58  C   UNL     1      -7.108  -9.263  -9.917  1.00  0.00     0.031 A 
ATOM     59  C   UNL     1      -3.404 -12.909  -5.056  1.00  0.00     0.031 A 
ATOM     60  C   UNL     1      -7.057 -10.682 -10.114  1.00  0.00     0.049 A 
ATOM     61  C   UNL     1      -4.135 -13.573  -6.197  1.00  0.00     0.074 A 
ATOM     62  C   UNL     1      -7.612 -11.431 -11.131  1.00  0.00     0.029 A 
ATOM     63  N   UNL     1      -6.404 -11.564  -9.264  1.00  0.00    -0.354 N 
ATOM     64  N   UNL     1      -4.831 -13.020  -7.164  1.00  0.00    -0.248 NA
ATOM     65  C   UNL     1      -4.071 -15.039  -6.264  1.00  0.00     0.031 C 
ATOM     66  C   UNL     1      -7.338 -12.775 -10.868  1.00  0.00     0.029 A 
ATOM     67  C   UNL     1      -6.549 -12.854  -9.728  1.00  0.00     0.049 A 
ATOM     68  H   UNL     1      -5.911 -11.306  -8.451  1.00  0.00     0.167 HD
ATOM     69  C   UNL     1      -5.242 -14.065  -7.984  1.00  0.00     0.074 A 
ATOM     70  C   UNL     1      -4.719 -15.282  -7.396  1.00  0.00     0.031 C 
ATOM     71  C   UNL     1      -5.976 -14.030  -9.123  1.00  0.00     0.031 A 
BRANCH  58  72
ATOM     72  C   UNL     1      -7.844  -8.404 -10.905  1.00  0.00    -0.014 A 
ATOM     73  C   UNL     1      -7.153  -7.516 -11.750  1.00  0.00     0.010 A 
ATOM     74  C   UNL     1      -9.242  -8.509 -11.017  1.00  0.00     0.010 A 
ATOM     75  C   UNL     1      -7.847  -6.740 -12.680  1.00  0.00     0.020 A 
ATOM     76  C   UNL     1      -9.937  -7.756 -11.967  1.00  0.00     0.020 A 
ATOM     77  C   UNL     1      -9.234  -6.872 -12.789  1.00  0.00     0.054 A 
BRANCH  77  78
ATOM     78  S   UNL     1     -10.099  -5.904 -14.055  1.00  0.00     0.124 S 
ATOM     79  O   UNL     1      -9.982  -4.545 -13.530  1.00  0.00    -0.237 OA
ATOM     80  O   UNL     1      -9.316  -6.182 -15.256  1.00  0.00    -0.237 OA
ATOM     81  O   UNL     1     -11.451  -6.457 -14.053  1.00  0.00    -0.744 OA
ENDBRANCH  77  78
ENDBRANCH  58  72
BRANCH  59  82
ATOM     82  C   UNL     1      -2.666 -13.707  -4.039  1.00  0.00    -0.014 A 
ATOM     83  C   UNL     1      -1.528 -14.451  -4.400  1.00  0.00     0.010 A 
ATOM     84  C   UNL     1      -3.110 -13.748  -2.704  1.00  0.00     0.010 A 
ATOM     85  C   UNL     1      -0.877 -15.254  -3.458  1.00  0.00     0.020 A 
ATOM     86  C   UNL     1      -2.442 -14.523  -1.752  1.00  0.00     0.020 A 
ATOM     87  C   UNL     1      -1.342 -15.289  -2.141  1.00  0.00     0.054 A 
BRANCH  87  88
ATOM     88  S   UNL     1      -0.482 -16.341  -0.939  1.00  0.00     0.124 S 
ATOM     89  O   UNL     1      -0.860 -17.679  -1.384  1.00  0.00    -0.237 OA
ATOM     90  O   UNL     1       0.917 -15.976  -1.145  1.00  0.00    -0.237 OA
ATOM     91  O   UNL     1      -1.046 -15.926   0.344  1.00  0.00    -0.744 OA
ENDBRANCH  87  88
ENDBRANCH  59  82
BRANCH  71  92
ATOM     92  C   UNL     1      -6.183 -15.323  -9.859  1.00  0.00    -0.014 A 
ATOM     93  C   UNL     1      -7.074 -16.301  -9.388  1.00  0.00     0.010 A 
ATOM     94  C   UNL     1      -5.556 -15.499 -11.107  1.00  0.00     0.010 A 
ATOM     95  C   UNL     1      -7.327 -17.441 -10.153  1.00  0.00     0.020 A 
ATOM     96  C   UNL     1      -5.832 -16.620 -11.887  1.00  0.00     0.020 A 
ATOM     97  C   UNL     1      -6.712 -17.588 -11.402  1.00  0.00     0.054 A 
BRANCH  97  98
ATOM     98  S   UNL     1      -7.130 -19.033 -12.412  1.00  0.00     0.124 S 
ATOM     99  O   UNL     1      -6.469 -20.113 -11.685  1.00  0.00    -0.237 OA
ATOM    100  O   UNL     1      -8.590 -19.043 -12.364  1.00  0.00    -0.237 OA
ATOM    101  O   UNL     1      -6.558 -18.720 -13.720  1.00  0.00    -0.744 OA
ENDBRANCH  97  98
ENDBRANCH  71  92
ENDBRANCH  45  46
ENDBRANCH  38  40
ENDBRANCH  37  38
ENDBRANCH  36  37
ENDBRANCH  35  36
ENDBRANCH  34  35
ENDBRANCH  33  34
ENDBRANCH   1  33
TORSDOF 25
