REMARK SMILES O=C(CCC/[NH+]=C1/CCCc2ccccc2N1)OCCOCCOCCOCCOC(=O)c1ccc(-c2c3nc(c(-c4ccc(S(=O)(=O)[O-])cc4)c4ccc([nH]4)c(-c4ccc(S(=O)(=O)[O-])cc4)c4nc(c(-c5ccc(S(=O)(=O)[O-])cc5)c5ccc2[nH]5)C=C4)C=C3)cc1
REMARK SMILES IDX 23 1 22 2 21 3 20 4 19 5 18 6 2 7 1 8 3 9 4 10 5 11 6 12
REMARK SMILES IDX 7 13 17 15 8 17 9 18 16 20 11 21 15 22 12 23 14 24 13 25
REMARK SMILES IDX 10 26 24 28 25 29 26 30 27 31 28 32 29 33 30 34 31 35 32 36
REMARK SMILES IDX 33 37 34 38 92 39 35 40 91 41 36 42 37 43 38 44 85 45 39 46
REMARK SMILES IDX 90 47 84 48 86 49 40 50 89 51 83 52 82 53 41 55 71 56 52 57
REMARK SMILES IDX 70 58 53 59 56 60 69 61 87 62 54 63 55 64 68 66 88 67 57 68
REMARK SMILES IDX 42 69 43 70 51 71 44 72 50 73 45 74 46 75 47 76 48 77 49 78
REMARK SMILES IDX 72 79 73 80 81 81 74 82 80 83 75 84 76 85 77 86 78 87 79 88
REMARK SMILES IDX 58 89 59 90 67 91 60 92 66 93 61 94 62 95 63 96 64 97 65 98
REMARK H PARENT 6 14 17 16 86 54 56 65
REMARK Flexibility Score: 90.00
ROOT
ATOM      1  C   UNL     1       2.175   2.353   1.133  1.00  0.00     0.188 C 
ENDROOT
BRANCH   1   2
ATOM      2  C   UNL     1       3.434   1.480   1.122  1.00  0.00     0.188 C 
BRANCH   2   3
ATOM      3  O   UNL     1       4.393   1.648  -0.186  1.00  0.00    -0.376 OA
BRANCH   3   4
ATOM      4  C   UNL     1       5.318   0.648  -1.487  1.00  0.00     0.202 C 
BRANCH   4   5
ATOM      5  C   UNL     1       4.826  -0.740  -2.413  1.00  0.00     0.261 C 
BRANCH   5   6
ATOM      6  O   UNL     1       4.334  -1.961  -1.728  1.00  0.00    -0.463 OA
BRANCH   6   7
ATOM      7  C   UNL     1       3.034  -2.358  -1.572  1.00  0.00     0.306 C 
ATOM      8  O   UNL     1       2.133  -2.184  -2.384  1.00  0.00    -0.252 OA
BRANCH   7   9
ATOM      9  C   UNL     1       2.704  -2.777  -0.116  1.00  0.00     0.127 C 
BRANCH   9  10
ATOM     10  C   UNL     1       3.801  -3.446   0.673  1.00  0.00     0.057 C 
BRANCH  10  11
ATOM     11  C   UNL     1       5.153  -2.797   0.566  1.00  0.00     0.234 C 
BRANCH  11  12
ATOM     12  N   UNL     1       5.225  -1.395   0.871  1.00  0.00    -0.278 N 
ATOM     13  C   UNL     1       4.717  -0.330   0.377  1.00  0.00     0.247 C 
ATOM     14  H   UNL     1       5.803  -1.209   1.646  1.00  0.00     0.304 HD
ATOM     15  N   UNL     1       3.361   0.009  -0.674  1.00  0.00    -0.245 N 
ATOM     16  H   UNL     1       2.664  -0.686  -0.638  1.00  0.00     0.312 HD
BRANCH  13  17
ATOM     17  C   UNL     1       6.010   0.991   0.865  1.00  0.00     0.128 C 
BRANCH  17  18
ATOM     18  C   UNL     1       6.279   2.545  -0.021  1.00  0.00     0.018 CG0
ATOM     19  G   UNL     1       5.154   3.290  -1.222  1.00  0.00     0.000 G0
ENDBRANCH  17  18
ENDBRANCH  13  17
BRANCH  15  20
ATOM     20  C   UNL     1       2.976   1.299  -1.765  1.00  0.00     0.127 A 
ATOM     21  C   UNL     1       3.723   2.655  -1.956  1.00  0.00    -0.001 A 
ATOM     22  C   UNL     1       2.060   0.921  -2.763  1.00  0.00     0.052 A 
ATOM     23  C   UNL     1       3.275   3.516  -2.966  1.00  0.00     0.008 A 
ATOM     24  C   UNL     1       1.845   1.768  -3.866  1.00  0.00     0.004 A 
ATOM     25  C   UNL     1       2.392   3.056  -3.938  1.00  0.00     0.001 A 
BRANCH  21  26
ATOM     26  C   UNL     1       5.154   3.290  -1.222  1.00  0.00     0.040 CG0
ATOM     27  G   UNL     1       6.279   2.545  -0.021  1.00  0.00     0.000 G0
ENDBRANCH  21  26
ENDBRANCH  15  20
ENDBRANCH  11  12
ENDBRANCH  10  11
ENDBRANCH   9  10
ENDBRANCH   7   9
ENDBRANCH   6   7
ENDBRANCH   5   6
ENDBRANCH   4   5
ENDBRANCH   3   4
ENDBRANCH   2   3
ENDBRANCH   1   2
BRANCH   1  28
ATOM     28  O   UNL     1       2.369   3.535   1.891  1.00  0.00    -0.377 OA
BRANCH  28  29
ATOM     29  C   UNL     1       3.582   4.202   1.596  1.00  0.00     0.188 C 
BRANCH  29  30
ATOM     30  C   UNL     1       4.449   4.409   2.835  1.00  0.00     0.188 C 
BRANCH  30  31
ATOM     31  O   UNL     1       3.904   5.092   3.953  1.00  0.00    -0.376 OA
BRANCH  31  32
ATOM     32  C   UNL     1       2.656   5.740   3.778  1.00  0.00     0.202 C 
BRANCH  32  33
ATOM     33  C   UNL     1       2.708   7.093   3.041  1.00  0.00     0.261 C 
BRANCH  33  34
ATOM     34  O   UNL     1       3.090   7.101   1.638  1.00  0.00    -0.460 OA
BRANCH  34  35
ATOM     35  C   UNL     1       4.394   7.310   1.306  1.00  0.00     0.338 C 
ATOM     36  O   UNL     1       5.312   7.467   2.109  1.00  0.00    -0.246 OA
BRANCH  35  37
ATOM     37  C   UNL     1       4.627   7.196  -0.180  1.00  0.00     0.060 A 
ATOM     38  C   UNL     1       3.646   7.535  -1.117  1.00  0.00     0.016 A 
ATOM     39  C   UNL     1       5.873   6.760  -0.667  1.00  0.00     0.016 A 
ATOM     40  C   UNL     1       3.916   7.466  -2.504  1.00  0.00     0.010 A 
ATOM     41  C   UNL     1       6.137   6.678  -2.059  1.00  0.00     0.010 A 
ATOM     42  C   UNL     1       5.165   7.043  -3.006  1.00  0.00    -0.014 A 
BRANCH  42  43
ATOM     43  C   UNL     1       5.497   7.245  -4.461  1.00  0.00     0.031 A 
ATOM     44  C   UNL     1       5.412   6.183  -5.536  1.00  0.00     0.074 A 
ATOM     45  C   UNL     1       5.872   8.479  -4.854  1.00  0.00     0.049 A 
ATOM     46  N   UNL     1       5.309   6.336  -6.837  1.00  0.00    -0.248 NA
ATOM     47  C   UNL     1       5.438   4.780  -5.121  1.00  0.00     0.031 C 
ATOM     48  C   UNL     1       6.050   9.619  -3.958  1.00  0.00     0.029 A 
ATOM     49  N   UNL     1       6.171   8.980  -6.101  1.00  0.00    -0.354 N 
ATOM     50  C   UNL     1       5.132   5.062  -7.373  1.00  0.00     0.074 A 
ATOM     51  C   UNL     1       5.198   4.138  -6.262  1.00  0.00     0.031 C 
ATOM     52  C   UNL     1       6.434  10.683  -4.678  1.00  0.00     0.029 A 
ATOM     53  C   UNL     1       6.543  10.303  -6.087  1.00  0.00     0.049 A 
ATOM     54  H   UNL     1       6.122   8.443  -6.924  1.00  0.00     0.167 HD
ATOM     55  C   UNL     1       4.949   4.696  -8.667  1.00  0.00     0.031 A 
ATOM     56  C   UNL     1       6.932  11.133  -7.079  1.00  0.00     0.031 A 
ATOM     57  C   UNL     1       5.113   5.583  -9.796  1.00  0.00     0.049 A 
ATOM     58  C   UNL     1       6.893  10.673  -8.509  1.00  0.00     0.074 A 
ATOM     59  C   UNL     1       4.946   5.293 -11.142  1.00  0.00     0.029 A 
ATOM     60  N   UNL     1       5.573   6.888  -9.730  1.00  0.00    -0.354 N 
ATOM     61  N   UNL     1       6.482   9.524  -8.990  1.00  0.00    -0.248 NA
ATOM     62  C   UNL     1       7.344  11.624  -9.536  1.00  0.00     0.031 C 
ATOM     63  C   UNL     1       5.436   6.369 -11.886  1.00  0.00     0.029 A 
ATOM     64  C   UNL     1       5.791   7.380 -11.008  1.00  0.00     0.049 A 
ATOM     65  H   UNL     1       5.724   7.392  -8.898  1.00  0.00     0.167 HD
ATOM     66  C   UNL     1       6.605   9.622 -10.373  1.00  0.00     0.074 A 
ATOM     67  C   UNL     1       7.113  10.947 -10.656  1.00  0.00     0.031 C 
ATOM     68  C   UNL     1       6.316   8.690 -11.314  1.00  0.00     0.031 A 
BRANCH  55  69
ATOM     69  C   UNL     1       4.551   3.269  -8.990  1.00  0.00    -0.014 A 
ATOM     70  C   UNL     1       5.413   2.436  -9.731  1.00  0.00     0.010 A 
ATOM     71  C   UNL     1       3.225   2.849  -8.777  1.00  0.00     0.010 A 
ATOM     72  C   UNL     1       4.945   1.242 -10.294  1.00  0.00     0.020 A 
ATOM     73  C   UNL     1       2.758   1.645  -9.321  1.00  0.00     0.020 A 
ATOM     74  C   UNL     1       3.614   0.862 -10.099  1.00  0.00     0.054 A 
BRANCH  74  75
ATOM     75  S   UNL     1       3.004  -0.643 -10.916  1.00  0.00     0.124 S 
ATOM     76  O   UNL     1       3.039  -0.270 -12.326  1.00  0.00    -0.237 OA
ATOM     77  O   UNL     1       3.985  -1.644 -10.502  1.00  0.00    -0.237 OA
ATOM     78  O   UNL     1       1.667  -0.823 -10.352  1.00  0.00    -0.744 OA
ENDBRANCH  74  75
ENDBRANCH  55  69
BRANCH  56  79
ATOM     79  C   UNL     1       7.375  12.507  -6.710  1.00  0.00    -0.014 A 
ATOM     80  C   UNL     1       8.529  12.676  -5.918  1.00  0.00     0.010 A 
ATOM     81  C   UNL     1       6.598  13.631  -7.034  1.00  0.00     0.010 A 
ATOM     82  C   UNL     1       8.849  13.925  -5.386  1.00  0.00     0.020 A 
ATOM     83  C   UNL     1       6.938  14.893  -6.534  1.00  0.00     0.020 A 
ATOM     84  C   UNL     1       8.038  15.023  -5.681  1.00  0.00     0.054 A 
BRANCH  84  85
ATOM     85  S   UNL     1       8.418  16.613  -4.896  1.00  0.00     0.124 S 
ATOM     86  O   UNL     1       8.006  16.369  -3.517  1.00  0.00    -0.237 OA
ATOM     87  O   UNL     1       9.858  16.736  -5.111  1.00  0.00    -0.237 OA
ATOM     88  O   UNL     1       7.596  17.566  -5.636  1.00  0.00    -0.744 OA
ENDBRANCH  84  85
ENDBRANCH  56  79
BRANCH  68  89
ATOM     89  C   UNL     1       6.557   9.016 -12.770  1.00  0.00    -0.014 A 
ATOM     90  C   UNL     1       5.476   9.034 -13.674  1.00  0.00     0.010 A 
ATOM     91  C   UNL     1       7.864   9.133 -13.277  1.00  0.00     0.010 A 
ATOM     92  C   UNL     1       5.698   9.097 -15.053  1.00  0.00     0.020 A 
ATOM     93  C   UNL     1       8.089   9.233 -14.655  1.00  0.00     0.020 A 
ATOM     94  C   UNL     1       7.006   9.178 -15.535  1.00  0.00     0.054 A 
BRANCH  94  95
ATOM     95  S   UNL     1       7.277   9.172 -17.330  1.00  0.00     0.124 S 
ATOM     96  O   UNL     1       6.955   7.793 -17.686  1.00  0.00    -0.237 OA
ATOM     97  O   UNL     1       6.330  10.180 -17.800  1.00  0.00    -0.237 OA
ATOM     98  O   UNL     1       8.685   9.538 -17.468  1.00  0.00    -0.744 OA
ENDBRANCH  94  95
ENDBRANCH  68  89
ENDBRANCH  42  43
ENDBRANCH  35  37
ENDBRANCH  34  35
ENDBRANCH  33  34
ENDBRANCH  32  33
ENDBRANCH  31  32
ENDBRANCH  30  31
ENDBRANCH  29  30
ENDBRANCH  28  29
ENDBRANCH   1  28
TORSDOF 26
