REMARK SMILES Cc1ccc(C)c(CC(=O)N(CC(=O)OCCOCCOCCOCCOC(=O)c2ccc(-c3c4nc(c(-c5ccc(S(=O)(=O)[O-])cc5)c5ccc([nH]5)c(-c5ccc(S(=O)(=O)[O-])cc5)c5nc(c(-c6ccc(S(=O)(=O)[O-])cc6)c6ccc3[nH]6)C=C5)C=C4)cc2)CC(F)(F)F)c1
REMARK SMILES IDX 20 1 19 2 18 3 17 4 16 5 15 6 13 7 14 8 12 9 11 10 9 11
REMARK SMILES IDX 10 12 8 13 7 14 1 15 2 16 3 17 95 18 4 19 5 20 6 21 90 22
REMARK SMILES IDX 91 23 92 24 93 25 94 26 21 27 22 28 23 29 24 30 25 31 26 32
REMARK SMILES IDX 27 33 28 34 29 35 30 36 31 37 89 38 32 39 88 40 33 41 34 42
REMARK SMILES IDX 35 43 82 44 36 45 87 46 81 47 83 48 37 49 86 50 80 51 79 52
REMARK SMILES IDX 38 54 68 55 49 56 67 57 50 58 53 59 66 60 84 61 51 62 52 63
REMARK SMILES IDX 65 65 85 66 54 67 39 68 40 69 48 70 41 71 47 72 42 73 43 74
REMARK SMILES IDX 44 75 45 76 46 77 69 78 70 79 78 80 71 81 77 82 72 83 73 84
REMARK SMILES IDX 74 85 75 86 76 87 55 88 56 89 64 90 57 91 63 92 58 93 59 94
REMARK SMILES IDX 60 95 61 96 62 97
REMARK H PARENT 83 53 53 64
REMARK Flexibility Score: inf
ROOT
ATOM      1  C   UNL     1      -2.666   0.441  -3.617  1.00  0.00     0.188 C 
ENDROOT
BRANCH   1   2
ATOM      2  C   UNL     1      -1.476   0.080  -4.493  1.00  0.00     0.188 C 
BRANCH   2   3
ATOM      3  O   UNL     1      -1.061  -1.266  -4.564  1.00  0.00    -0.376 OA
BRANCH   3   4
ATOM      4  C   UNL     1      -0.310  -1.782  -3.477  1.00  0.00     0.202 C 
BRANCH   4   5
ATOM      5  C   UNL     1       0.486  -0.815  -2.595  1.00  0.00     0.261 C 
BRANCH   5   6
ATOM      6  O   UNL     1      -0.331   0.232  -2.014  1.00  0.00    -0.462 OA
BRANCH   6   7
ATOM      7  C   UNL     1       0.271   1.447  -1.909  1.00  0.00     0.325 C 
ATOM      8  O   UNL     1       1.449   1.631  -2.201  1.00  0.00    -0.250 OA
BRANCH   7   9
ATOM      9  C   UNL     1      -0.631   2.647  -1.499  1.00  0.00     0.242 C 
BRANCH   9  10
ATOM     10  N   UNL     1      -2.079   2.683  -1.131  1.00  0.00    -0.322 N 
BRANCH  10  11
ATOM     11  C   UNL     1      -2.538   2.585   0.177  1.00  0.00     0.227 C 
ATOM     12  O   UNL     1      -3.653   3.032   0.474  1.00  0.00    -0.275 OA
BRANCH  11  13
ATOM     13  C   UNL     1      -1.657   2.014   1.267  1.00  0.00     0.136 C 
BRANCH  13  14
ATOM     14  C   UNL     1      -1.118   0.624   1.036  1.00  0.00    -0.035 A 
ATOM     15  C   UNL     1       2.390  -0.791   0.590  1.00  0.00     0.044 C 
ATOM     16  C   UNL     1       0.905  -0.743   0.807  1.00  0.00    -0.051 A 
ATOM     17  C   UNL     1       0.117  -1.883   0.687  1.00  0.00     0.004 A 
ATOM     18  C   UNL     1       0.281   0.479   1.065  1.00  0.00     0.008 A 
ATOM     19  C   UNL     1      -1.273  -1.768   0.675  1.00  0.00     0.004 A 
ATOM     20  C   UNL     1      -1.908  -0.518   0.811  1.00  0.00    -0.047 A 
ATOM     21  C   UNL     1      -3.401  -0.496   0.645  1.00  0.00     0.044 C 
ENDBRANCH  13  14
ENDBRANCH  11  13
ENDBRANCH  10  11
BRANCH  10  22
ATOM     22  C   UNL     1      -3.027   3.343  -2.071  1.00  0.00     0.235 C 
BRANCH  22  23
ATOM     23  C   UNL     1      -4.490   2.821  -2.160  1.00  0.00     0.406 C 
ATOM     24  F   UNL     1      -5.382   3.697  -1.643  1.00  0.00    -0.169 F 
ATOM     25  F   UNL     1      -4.840   2.680  -3.472  1.00  0.00    -0.169 F 
ATOM     26  F   UNL     1      -4.691   1.620  -1.582  1.00  0.00    -0.169 F 
ENDBRANCH  22  23
ENDBRANCH  10  22
ENDBRANCH   9  10
ENDBRANCH   7   9
ENDBRANCH   6   7
ENDBRANCH   5   6
ENDBRANCH   4   5
ENDBRANCH   3   4
ENDBRANCH   2   3
ENDBRANCH   1   2
BRANCH   1  27
ATOM     27  O   UNL     1      -3.556  -0.549  -3.146  1.00  0.00    -0.377 OA
BRANCH  27  28
ATOM     28  C   UNL     1      -4.082  -1.460  -4.095  1.00  0.00     0.188 C 
BRANCH  28  29
ATOM     29  C   UNL     1      -4.837  -0.820  -5.260  1.00  0.00     0.188 C 
BRANCH  29  30
ATOM     30  O   UNL     1      -3.954  -0.032  -6.047  1.00  0.00    -0.376 OA
BRANCH  30  31
ATOM     31  C   UNL     1      -4.544   1.096  -6.670  1.00  0.00     0.202 C 
BRANCH  31  32
ATOM     32  C   UNL     1      -5.317   0.710  -7.931  1.00  0.00     0.261 C 
BRANCH  32  33
ATOM     33  O   UNL     1      -4.604   0.063  -9.019  1.00  0.00    -0.460 OA
BRANCH  33  34
ATOM     34  C   UNL     1      -3.621  -0.830  -8.749  1.00  0.00     0.338 C 
ATOM     35  O   UNL     1      -3.780  -2.043  -8.737  1.00  0.00    -0.246 OA
BRANCH  34  36
ATOM     36  C   UNL     1      -2.316  -0.151  -8.549  1.00  0.00     0.060 A 
ATOM     37  C   UNL     1      -1.321  -0.840  -7.865  1.00  0.00     0.016 A 
ATOM     38  C   UNL     1      -2.158   1.216  -8.841  1.00  0.00     0.016 A 
ATOM     39  C   UNL     1      -0.285  -0.107  -7.307  1.00  0.00     0.010 A 
ATOM     40  C   UNL     1      -1.151   1.955  -8.226  1.00  0.00     0.010 A 
ATOM     41  C   UNL     1      -0.269   1.307  -7.372  1.00  0.00    -0.014 A 
BRANCH  41  42
ATOM     42  C   UNL     1       0.796   2.001  -6.614  1.00  0.00     0.031 A 
ATOM     43  C   UNL     1       2.110   1.389  -6.909  1.00  0.00     0.074 A 
ATOM     44  C   UNL     1       0.663   3.055  -5.770  1.00  0.00     0.049 A 
ATOM     45  N   UNL     1       2.938   0.839  -6.083  1.00  0.00    -0.248 NA
ATOM     46  C   UNL     1       2.422   1.170  -8.340  1.00  0.00     0.031 C 
ATOM     47  C   UNL     1      -0.581   3.777  -5.499  1.00  0.00     0.029 A 
ATOM     48  N   UNL     1       1.588   3.756  -5.014  1.00  0.00    -0.354 N 
ATOM     49  C   UNL     1       4.006   0.460  -6.885  1.00  0.00     0.074 A 
ATOM     50  C   UNL     1       3.541   0.457  -8.252  1.00  0.00     0.031 C 
ATOM     51  C   UNL     1      -0.307   4.906  -4.812  1.00  0.00     0.029 A 
ATOM     52  C   UNL     1       1.123   4.994  -4.552  1.00  0.00     0.049 A 
ATOM     53  H   UNL     1       2.491   3.415  -4.818  1.00  0.00     0.167 HD
ATOM     54  C   UNL     1       5.270   0.733  -6.475  1.00  0.00     0.031 A 
ATOM     55  C   UNL     1       1.824   6.057  -4.060  1.00  0.00     0.031 A 
ATOM     56  C   UNL     1       5.427   0.732  -5.053  1.00  0.00     0.049 A 
ATOM     57  C   UNL     1       3.185   5.612  -3.677  1.00  0.00     0.074 A 
ATOM     58  C   UNL     1       5.321  -0.212  -4.058  1.00  0.00     0.029 A 
ATOM     59  N   UNL     1       5.415   1.964  -4.458  1.00  0.00    -0.354 N 
ATOM     60  N   UNL     1       3.476   4.999  -2.567  1.00  0.00    -0.248 NA
ATOM     61  C   UNL     1       4.258   5.662  -4.665  1.00  0.00     0.031 C 
ATOM     62  C   UNL     1       5.140   0.504  -2.845  1.00  0.00     0.029 A 
ATOM     63  C   UNL     1       5.180   1.873  -3.110  1.00  0.00     0.049 A 
ATOM     64  H   UNL     1       5.558   2.811  -4.939  1.00  0.00     0.167 HD
ATOM     65  C   UNL     1       4.607   4.257  -2.862  1.00  0.00     0.074 A 
ATOM     66  C   UNL     1       5.121   4.815  -4.103  1.00  0.00     0.031 C 
ATOM     67  C   UNL     1       4.810   3.031  -2.301  1.00  0.00     0.031 A 
BRANCH  54  68
ATOM     68  C   UNL     1       6.113   1.583  -7.387  1.00  0.00    -0.014 A 
ATOM     69  C   UNL     1       7.506   1.503  -7.375  1.00  0.00     0.010 A 
ATOM     70  C   UNL     1       5.517   2.623  -8.145  1.00  0.00     0.010 A 
ATOM     71  C   UNL     1       8.265   2.381  -8.164  1.00  0.00     0.020 A 
ATOM     72  C   UNL     1       6.252   3.455  -8.975  1.00  0.00     0.020 A 
ATOM     73  C   UNL     1       7.630   3.331  -8.975  1.00  0.00     0.054 A 
BRANCH  73  74
ATOM     74  S   UNL     1       8.612   4.417 -10.034  1.00  0.00     0.124 S 
ATOM     75  O   UNL     1       9.198   5.331  -9.060  1.00  0.00    -0.237 OA
ATOM     76  O   UNL     1       9.536   3.480 -10.667  1.00  0.00    -0.237 OA
ATOM     77  O   UNL     1       7.620   5.004 -10.933  1.00  0.00    -0.744 OA
ENDBRANCH  73  74
ENDBRANCH  54  68
BRANCH  55  78
ATOM     78  C   UNL     1       1.481   7.521  -4.046  1.00  0.00    -0.014 A 
ATOM     79  C   UNL     1       2.396   8.477  -3.544  1.00  0.00     0.010 A 
ATOM     80  C   UNL     1       0.375   8.028  -4.752  1.00  0.00     0.010 A 
ATOM     81  C   UNL     1       2.279   9.847  -3.857  1.00  0.00     0.020 A 
ATOM     82  C   UNL     1       0.229   9.390  -5.039  1.00  0.00     0.020 A 
ATOM     83  C   UNL     1       1.210  10.288  -4.638  1.00  0.00     0.054 A 
BRANCH  83  84
ATOM     84  S   UNL     1       1.198  11.979  -5.305  1.00  0.00     0.124 S 
ATOM     85  O   UNL     1       0.851  12.777  -4.134  1.00  0.00    -0.237 OA
ATOM     86  O   UNL     1       2.563  12.135  -5.799  1.00  0.00    -0.237 OA
ATOM     87  O   UNL     1       0.172  11.925  -6.346  1.00  0.00    -0.744 OA
ENDBRANCH  83  84
ENDBRANCH  55  78
BRANCH  67  88
ATOM     88  C   UNL     1       4.479   2.823  -0.839  1.00  0.00    -0.014 A 
ATOM     89  C   UNL     1       3.322   3.282  -0.189  1.00  0.00     0.010 A 
ATOM     90  C   UNL     1       5.406   2.084  -0.072  1.00  0.00     0.010 A 
ATOM     91  C   UNL     1       3.094   3.007   1.168  1.00  0.00     0.020 A 
ATOM     92  C   UNL     1       5.165   1.760   1.265  1.00  0.00     0.020 A 
ATOM     93  C   UNL     1       4.004   2.222   1.879  1.00  0.00     0.054 A 
BRANCH  93  94
ATOM     94  S   UNL     1       3.636   1.767   3.594  1.00  0.00     0.124 S 
ATOM     95  O   UNL     1       3.469   3.066   4.239  1.00  0.00    -0.237 OA
ATOM     96  O   UNL     1       2.417   0.978   3.457  1.00  0.00    -0.237 OA
ATOM     97  O   UNL     1       4.814   1.009   4.013  1.00  0.00    -0.744 OA
ENDBRANCH  93  94
ENDBRANCH  67  88
ENDBRANCH  41  42
ENDBRANCH  34  36
ENDBRANCH  33  34
ENDBRANCH  32  33
ENDBRANCH  31  32
ENDBRANCH  30  31
ENDBRANCH  29  30
ENDBRANCH  28  29
ENDBRANCH  27  28
ENDBRANCH   1  27
TORSDOF 29
