REMARK SMILES Cc1c(CC(=O)OCCOCCOCCOCCOC(=O)c2ccc(-c3c4nc(c(-c5ccc(S(=O)(=O)[O-])cc5)c5ccc([nH]5)c(-c5ccc(S(=O)(=O)[O-])cc5)c5nc(c(-c6ccc(S(=O)(=O)[O-])cc6)c6ccc3[nH]6)C=C5)C=C4)cc2)cc(-c2ccc(S(C)(=O)=O)cc2)n1-c1cccc(F)c1
REMARK SMILES IDX 13 1 12 2 11 3 10 4 9 5 8 6 7 7 5 8 6 9 4 10 3 11 1 12 2 13
REMARK SMILES IDX 94 14 82 15 83 16 95 17 96 18 101 19 97 20 99 21 98 22
REMARK SMILES IDX 100 23 84 24 85 25 93 26 86 27 92 28 87 29 88 30 89 31 90 32
REMARK SMILES IDX 91 33 14 34 15 35 16 36 17 37 18 38 19 39 20 40 21 41 22 42
REMARK SMILES IDX 23 43 81 44 24 45 80 46 25 47 26 48 27 49 74 50 28 51 79 52
REMARK SMILES IDX 73 53 75 54 29 55 78 56 72 57 71 58 30 60 60 61 41 62 59 63
REMARK SMILES IDX 42 64 45 65 58 66 76 67 43 68 44 69 57 71 77 72 46 73 31 74
REMARK SMILES IDX 32 75 40 76 33 77 39 78 34 79 35 80 36 81 37 82 38 83 61 84
REMARK SMILES IDX 62 85 70 86 63 87 69 88 64 89 65 90 66 91 67 92 68 93 47 94
REMARK SMILES IDX 48 95 56 96 49 97 55 98 50 99 51 100 52 101 53 102 54 103
REMARK H PARENT 75 59 45 70
REMARK Flexibility Score: inf
ROOT
ATOM      1  O   UNL     1       3.560  -0.396  -2.998  1.00  0.00    -0.377 OA
ENDROOT
BRANCH   1   2
ATOM      2  C   UNL     1       2.745  -0.138  -1.870  1.00  0.00     0.188 C 
BRANCH   2   3
ATOM      3  C   UNL     1       3.490   0.493  -0.674  1.00  0.00     0.188 C 
BRANCH   3   4
ATOM      4  O   UNL     1       4.871   0.269  -0.401  1.00  0.00    -0.376 OA
BRANCH   4   5
ATOM      5  C   UNL     1       5.598  -0.640  -1.205  1.00  0.00     0.202 C 
BRANCH   5   6
ATOM      6  C   UNL     1       5.290  -2.130  -0.983  1.00  0.00     0.261 C 
BRANCH   6   7
ATOM      7  O   UNL     1       3.938  -2.437  -0.576  1.00  0.00    -0.463 OA
BRANCH   7   8
ATOM      8  C   UNL     1       3.730  -2.576   0.756  1.00  0.00     0.310 C 
ATOM      9  O   UNL     1       4.631  -2.529   1.594  1.00  0.00    -0.252 OA
BRANCH   8  10
ATOM     10  C   UNL     1       2.305  -2.885   1.180  1.00  0.00     0.160 C 
BRANCH  10  11
ATOM     11  C   UNL     1       1.133  -2.683   0.246  1.00  0.00    -0.015 A 
ATOM     12  C   UNL     1       0.257  -0.297   0.899  1.00  0.00     0.065 C 
ATOM     13  C   UNL     1       0.266  -1.590   0.155  1.00  0.00     0.024 A 
ATOM     14  N   UNL     1      -0.715  -1.890  -0.784  1.00  0.00    -0.313 N 
ATOM     15  C   UNL     1       0.561  -3.701  -0.579  1.00  0.00     0.033 A 
ATOM     16  C   UNL     1      -0.616  -3.226  -1.134  1.00  0.00     0.053 A 
BRANCH  14  17
ATOM     17  C   UNL     1      -1.686  -1.001  -1.300  1.00  0.00     0.049 A 
ATOM     18  C   UNL     1      -2.938  -0.888  -0.689  1.00  0.00     0.027 A 
ATOM     19  C   UNL     1      -1.423  -0.379  -2.522  1.00  0.00     0.065 A 
ATOM     20  C   UNL     1      -3.932  -0.123  -1.308  1.00  0.00     0.005 A 
ATOM     21  C   UNL     1      -2.422   0.377  -3.119  1.00  0.00     0.125 A 
ATOM     22  C   UNL     1      -3.673   0.512  -2.526  1.00  0.00     0.039 A 
ATOM     23  F   UNL     1      -2.183   0.966  -4.297  1.00  0.00    -0.207 F 
ENDBRANCH  14  17
BRANCH  16  24
ATOM     24  C   UNL     1      -1.666  -3.952  -1.854  1.00  0.00    -0.001 A 
ATOM     25  C   UNL     1      -1.871  -3.780  -3.229  1.00  0.00     0.011 A 
ATOM     26  C   UNL     1      -2.519  -4.802  -1.135  1.00  0.00     0.011 A 
ATOM     27  C   UNL     1      -2.916  -4.447  -3.878  1.00  0.00     0.021 A 
ATOM     28  C   UNL     1      -3.565  -5.471  -1.776  1.00  0.00     0.021 A 
ATOM     29  C   UNL     1      -3.758  -5.287  -3.148  1.00  0.00     0.067 A 
BRANCH  29  30
ATOM     30  S   UNL     1      -5.050  -6.197  -3.967  1.00  0.00     0.175 S 
ATOM     31  C   UNL     1      -6.146  -4.955  -4.604  1.00  0.00     0.163 C 
ATOM     32  O   UNL     1      -4.407  -6.868  -5.113  1.00  0.00    -0.224 OA
ATOM     33  O   UNL     1      -5.755  -6.950  -2.986  1.00  0.00    -0.224 OA
ENDBRANCH  29  30
ENDBRANCH  16  24
ENDBRANCH  10  11
ENDBRANCH   8  10
ENDBRANCH   7   8
ENDBRANCH   6   7
ENDBRANCH   5   6
ENDBRANCH   4   5
ENDBRANCH   3   4
ENDBRANCH   2   3
ENDBRANCH   1   2
BRANCH   1  34
ATOM     34  C   UNL     1       3.137   0.146  -4.241  1.00  0.00     0.188 C 
BRANCH  34  35
ATOM     35  C   UNL     1       3.389   1.649  -4.333  1.00  0.00     0.188 C 
BRANCH  35  36
ATOM     36  O   UNL     1       2.385   2.458  -3.738  1.00  0.00    -0.376 OA
BRANCH  36  37
ATOM     37  C   UNL     1       1.038   2.225  -4.155  1.00  0.00     0.202 C 
BRANCH  37  38
ATOM     38  C   UNL     1       0.608   2.367  -5.665  1.00  0.00     0.261 C 
BRANCH  38  39
ATOM     39  O   UNL     1       0.759   1.297  -6.703  1.00  0.00    -0.460 OA
BRANCH  39  40
ATOM     40  C   UNL     1       1.498   1.574  -7.867  1.00  0.00     0.338 C 
ATOM     41  O   UNL     1       2.481   2.306  -7.810  1.00  0.00    -0.246 OA
BRANCH  40  42
ATOM     42  C   UNL     1       1.066   0.921  -9.250  1.00  0.00     0.060 A 
ATOM     43  C   UNL     1       1.860   0.656 -10.416  1.00  0.00     0.016 A 
ATOM     44  C   UNL     1      -0.213   0.557  -9.501  1.00  0.00     0.016 A 
ATOM     45  C   UNL     1       1.388   0.002 -11.791  1.00  0.00     0.010 A 
ATOM     46  C   UNL     1      -0.579  -0.067 -10.803  1.00  0.00     0.010 A 
ATOM     47  C   UNL     1       0.065  -0.395 -12.119  1.00  0.00    -0.014 A 
BRANCH  47  48
ATOM     48  C   UNL     1      -0.491  -1.780 -13.257  1.00  0.00     0.031 A 
ATOM     49  C   UNL     1      -0.076  -2.911 -12.338  1.00  0.00     0.074 A 
ATOM     50  C   UNL     1      -1.494  -2.286 -14.341  1.00  0.00     0.049 A 
ATOM     51  N   UNL     1      -0.265  -2.601 -11.072  1.00  0.00    -0.248 NA
ATOM     52  C   UNL     1      -0.390  -4.318 -12.519  1.00  0.00     0.031 C 
ATOM     53  C   UNL     1      -2.460  -1.562 -15.281  1.00  0.00     0.029 A 
ATOM     54  N   UNL     1      -2.018  -3.694 -14.775  1.00  0.00    -0.354 N 
ATOM     55  C   UNL     1      -1.563  -3.021 -11.012  1.00  0.00     0.074 A 
ATOM     56  C   UNL     1      -1.330  -4.389 -11.556  1.00  0.00     0.031 C 
ATOM     57  C   UNL     1      -3.341  -2.359 -15.990  1.00  0.00     0.029 A 
ATOM     58  C   UNL     1      -3.193  -3.810 -15.756  1.00  0.00     0.049 A 
ATOM     59  H   UNL     1      -1.593  -4.508 -14.419  1.00  0.00     0.167 HD
ATOM     60  C   UNL     1      -2.721  -2.264 -11.242  1.00  0.00     0.031 A 
ATOM     61  C   UNL     1      -4.068  -4.926 -16.169  1.00  0.00     0.031 A 
ATOM     62  C   UNL     1      -3.822  -3.111 -11.226  1.00  0.00     0.049 A 
ATOM     63  C   UNL     1      -5.020  -4.761 -15.022  1.00  0.00     0.074 A 
ATOM     64  C   UNL     1      -4.260  -4.234 -10.587  1.00  0.00     0.029 A 
ATOM     65  N   UNL     1      -4.622  -2.895 -12.274  1.00  0.00    -0.354 N 
ATOM     66  N   UNL     1      -5.960  -3.853 -15.051  1.00  0.00    -0.248 NA
ATOM     67  C   UNL     1      -5.231  -5.877 -14.082  1.00  0.00     0.031 C 
ATOM     68  C   UNL     1      -5.554  -4.448 -11.104  1.00  0.00     0.029 A 
ATOM     69  C   UNL     1      -5.842  -3.413 -12.004  1.00  0.00     0.049 A 
ATOM     70  H   UNL     1      -4.366  -2.435 -13.105  1.00  0.00     0.167 HD
ATOM     71  C   UNL     1      -6.733  -4.121 -13.945  1.00  0.00     0.074 A 
ATOM     72  C   UNL     1      -6.418  -5.509 -13.584  1.00  0.00     0.031 C 
ATOM     73  C   UNL     1      -6.776  -3.099 -13.050  1.00  0.00     0.031 A 
BRANCH  60  74
ATOM     74  C   UNL     1      -3.158  -0.648 -11.589  1.00  0.00    -0.014 A 
ATOM     75  C   UNL     1      -2.692   0.176 -12.663  1.00  0.00     0.010 A 
ATOM     76  C   UNL     1      -3.957   0.080 -10.690  1.00  0.00     0.010 A 
ATOM     77  C   UNL     1      -2.753   1.586 -12.732  1.00  0.00     0.020 A 
ATOM     78  C   UNL     1      -4.048   1.512 -10.739  1.00  0.00     0.020 A 
ATOM     79  C   UNL     1      -3.360   2.258 -11.704  1.00  0.00     0.054 A 
BRANCH  79  80
ATOM     80  S   UNL     1      -3.099   4.055 -11.545  1.00  0.00     0.124 S 
ATOM     81  O   UNL     1      -2.010   4.109 -10.568  1.00  0.00    -0.237 OA
ATOM     82  O   UNL     1      -2.724   4.487 -12.890  1.00  0.00    -0.237 OA
ATOM     83  O   UNL     1      -4.385   4.542 -11.060  1.00  0.00    -0.744 OA
ENDBRANCH  79  80
ENDBRANCH  60  74
BRANCH  61  84
ATOM     84  C   UNL     1      -5.272  -5.792 -17.183  1.00  0.00    -0.014 A 
ATOM     85  C   UNL     1      -5.140  -6.411 -18.450  1.00  0.00     0.010 A 
ATOM     86  C   UNL     1      -6.538  -6.278 -16.623  1.00  0.00     0.010 A 
ATOM     87  C   UNL     1      -6.073  -7.470 -18.960  1.00  0.00     0.020 A 
ATOM     88  C   UNL     1      -7.391  -7.349 -17.026  1.00  0.00     0.020 A 
ATOM     89  C   UNL     1      -7.145  -7.982 -18.207  1.00  0.00     0.054 A 
BRANCH  89  90
ATOM     90  S   UNL     1      -8.159  -9.470 -18.614  1.00  0.00     0.124 S 
ATOM     91  O   UNL     1      -9.297  -8.919 -19.345  1.00  0.00    -0.237 OA
ATOM     92  O   UNL     1      -7.247 -10.297 -19.399  1.00  0.00    -0.237 OA
ATOM     93  O   UNL     1      -8.493 -10.027 -17.300  1.00  0.00    -0.744 OA
ENDBRANCH  89  90
ENDBRANCH  61  84
BRANCH  73  94
ATOM     94  C   UNL     1      -6.968  -1.722 -13.730  1.00  0.00    -0.014 A 
ATOM     95  C   UNL     1      -8.181  -1.497 -14.398  1.00  0.00     0.010 A 
ATOM     96  C   UNL     1      -5.984  -0.717 -13.896  1.00  0.00     0.010 A 
ATOM     97  C   UNL     1      -8.382  -0.365 -15.209  1.00  0.00     0.020 A 
ATOM     98  C   UNL     1      -6.160   0.411 -14.715  1.00  0.00     0.020 A 
ATOM     99  C   UNL     1      -7.367   0.579 -15.373  1.00  0.00     0.054 A 
BRANCH  99 100
ATOM    100  S   UNL     1      -7.589   1.960 -16.528  1.00  0.00     0.124 S 
ATOM    101  O   UNL     1      -8.472   1.397 -17.549  1.00  0.00    -0.237 OA
ATOM    102  O   UNL     1      -8.201   2.978 -15.679  1.00  0.00    -0.237 OA
ATOM    103  O   UNL     1      -6.233   2.243 -16.992  1.00  0.00    -0.744 OA
ENDBRANCH  99 100
ENDBRANCH  73  94
ENDBRANCH  47  48
ENDBRANCH  40  42
ENDBRANCH  39  40
ENDBRANCH  38  39
ENDBRANCH  37  38
ENDBRANCH  36  37
ENDBRANCH  35  36
ENDBRANCH  34  35
ENDBRANCH   1  34
TORSDOF 27
