REMARK SMILES C[C@H]1CCC[C@@H]([NH2+]Cc2ccc(C(=O)OCCOCCOCCOCCOC(=O)c3ccc(-c4c5nc(c(-c6ccc(S(=O)(=O)[O-])cc6)c6ccc([nH]6)c(-c6ccc(S(=O)(=O)[O-])cc6)c6nc(c(-c7ccc(S(=O)(=O)[O-])cc7)c7ccc4[nH]7)C=C6)C=C5)cc3)cn2)C1
REMARK SMILES IDX 21 1 20 2 19 3 18 4 17 5 16 6 15 7 13 8 14 9 12 10 9 11
REMARK SMILES IDX 10 12 91 13 11 14 90 15 8 16 7 17 6 20 1 21 2 22 3 23 92 24
REMARK SMILES IDX 4 25 5 26 22 27 23 28 24 29 25 30 26 31 27 32 28 33 29 34
REMARK SMILES IDX 30 35 31 36 89 37 32 38 88 39 33 40 34 41 35 42 82 43 36 44
REMARK SMILES IDX 87 45 81 46 83 47 37 48 86 49 80 50 79 51 38 53 68 54 49 55
REMARK SMILES IDX 67 56 50 57 53 58 66 59 84 60 51 61 52 62 65 64 85 65 54 66
REMARK SMILES IDX 39 67 40 68 48 69 41 70 47 71 42 72 43 73 44 74 45 75 46 76
REMARK SMILES IDX 69 77 70 78 78 79 71 80 77 81 72 82 73 83 74 84 75 85 76 86
REMARK SMILES IDX 55 87 56 88 64 89 57 90 63 91 58 92 59 93 60 94 61 95 62 96
REMARK H PARENT 7 18 7 19 83 52 53 63
REMARK Flexibility Score: inf
ROOT
ATOM      1  O   UNL     1      -5.419  -8.995  -0.486  1.00  0.00    -0.377 OA
ENDROOT
BRANCH   1   2
ATOM      2  C   UNL     1      -6.247  -7.845  -0.508  1.00  0.00     0.188 C 
BRANCH   2   3
ATOM      3  C   UNL     1      -7.230  -7.716  -1.689  1.00  0.00     0.188 C 
BRANCH   3   4
ATOM      4  O   UNL     1      -7.455  -8.935  -2.373  1.00  0.00    -0.376 OA
BRANCH   4   5
ATOM      5  C   UNL     1      -6.844  -9.183  -3.625  1.00  0.00     0.202 C 
BRANCH   5   6
ATOM      6  C   UNL     1      -5.333  -8.996  -3.840  1.00  0.00     0.261 C 
BRANCH   6   7
ATOM      7  O   UNL     1      -4.720  -7.904  -3.154  1.00  0.00    -0.460 OA
BRANCH   7   8
ATOM      8  C   UNL     1      -4.925  -6.666  -3.648  1.00  0.00     0.339 C 
ATOM      9  O   UNL     1      -5.576  -6.367  -4.632  1.00  0.00    -0.246 OA
BRANCH   8  10
ATOM     10  C   UNL     1      -4.409  -5.702  -2.659  1.00  0.00     0.078 A 
ATOM     11  C   UNL     1      -3.635  -3.818  -0.813  1.00  0.00     0.094 A 
ATOM     12  C   UNL     1      -2.910  -5.010  -0.917  1.00  0.00     0.031 A 
ATOM     13  N   UNL     1      -4.763  -3.589  -1.535  1.00  0.00    -0.254 NA
ATOM     14  C   UNL     1      -3.295  -5.958  -1.861  1.00  0.00     0.019 A 
ATOM     15  C   UNL     1      -5.118  -4.530  -2.442  1.00  0.00     0.127 A 
BRANCH  11  16
ATOM     16  C   UNL     1      -3.112  -2.677   0.048  1.00  0.00     0.318 C 
BRANCH  16  17
ATOM     17  N   UNL     1      -1.729  -2.361  -0.321  1.00  0.00    -0.339 N 
ATOM     18  H   UNL     1      -1.144  -3.148  -0.042  1.00  0.00     0.346 HD
ATOM     19  H   UNL     1      -1.748  -2.187  -1.326  1.00  0.00     0.346 HD
BRANCH  17  20
ATOM     20  C   UNL     1      -1.164  -1.154   0.273  1.00  0.00     0.182 C 
ATOM     21  C   UNL     1       2.522   0.051  -0.091  1.00  0.00     0.008 C 
ATOM     22  C   UNL     1       1.066   0.092   0.370  1.00  0.00    -0.008 C 
ATOM     23  C   UNL     1       0.368   1.356  -0.142  1.00  0.00     0.004 C 
ATOM     24  C   UNL     1       0.329  -1.163  -0.106  1.00  0.00     0.068 C 
ATOM     25  C   UNL     1      -1.108   1.377   0.242  1.00  0.00     0.006 C 
ATOM     26  C   UNL     1      -1.836   0.126  -0.243  1.00  0.00     0.065 C 
ENDBRANCH  17  20
ENDBRANCH  16  17
ENDBRANCH  11  16
ENDBRANCH   8  10
ENDBRANCH   7   8
ENDBRANCH   6   7
ENDBRANCH   5   6
ENDBRANCH   4   5
ENDBRANCH   3   4
ENDBRANCH   2   3
ENDBRANCH   1   2
BRANCH   1  27
ATOM     27  C   UNL     1      -6.011 -10.293  -0.408  1.00  0.00     0.188 C 
BRANCH  27  28
ATOM     28  C   UNL     1      -7.523 -10.518  -0.149  1.00  0.00     0.188 C 
BRANCH  28  29
ATOM     29  O   UNL     1      -8.212  -9.406   0.398  1.00  0.00    -0.376 OA
BRANCH  29  30
ATOM     30  C   UNL     1      -8.611  -9.472   1.754  1.00  0.00     0.202 C 
BRANCH  30  31
ATOM     31  C   UNL     1      -7.488  -9.520   2.797  1.00  0.00     0.261 C 
BRANCH  31  32
ATOM     32  O   UNL     1      -6.517 -10.562   2.630  1.00  0.00    -0.460 OA
BRANCH  32  33
ATOM     33  C   UNL     1      -6.955 -11.837   2.766  1.00  0.00     0.338 C 
ATOM     34  O   UNL     1      -8.081 -12.200   3.018  1.00  0.00    -0.246 OA
BRANCH  33  35
ATOM     35  C   UNL     1      -5.843 -12.726   2.362  1.00  0.00     0.060 A 
ATOM     36  C   UNL     1      -6.021 -13.594   1.277  1.00  0.00     0.016 A 
ATOM     37  C   UNL     1      -4.629 -12.689   3.050  1.00  0.00     0.016 A 
ATOM     38  C   UNL     1      -4.991 -14.457   0.898  1.00  0.00     0.010 A 
ATOM     39  C   UNL     1      -3.607 -13.567   2.683  1.00  0.00     0.010 A 
ATOM     40  C   UNL     1      -3.796 -14.479   1.630  1.00  0.00    -0.014 A 
BRANCH  40  41
ATOM     41  C   UNL     1      -2.829 -15.587   1.436  1.00  0.00     0.031 A 
ATOM     42  C   UNL     1      -2.871 -16.740   2.403  1.00  0.00     0.074 A 
ATOM     43  C   UNL     1      -1.940 -15.580   0.428  1.00  0.00     0.049 A 
ATOM     44  N   UNL     1      -2.094 -17.787   2.481  1.00  0.00    -0.248 NA
ATOM     45  C   UNL     1      -3.934 -16.701   3.423  1.00  0.00     0.031 C 
ATOM     46  C   UNL     1      -1.832 -14.547  -0.601  1.00  0.00     0.029 A 
ATOM     47  N   UNL     1      -0.948 -16.475   0.113  1.00  0.00    -0.354 N 
ATOM     48  C   UNL     1      -2.562 -18.524   3.563  1.00  0.00     0.074 A 
ATOM     49  C   UNL     1      -3.671 -17.790   4.130  1.00  0.00     0.031 C 
ATOM     50  C   UNL     1      -0.821 -14.864  -1.430  1.00  0.00     0.029 A 
ATOM     51  C   UNL     1      -0.186 -16.098  -0.968  1.00  0.00     0.049 A 
ATOM     52  H   UNL     1      -0.796 -17.309   0.614  1.00  0.00     0.167 HD
ATOM     53  C   UNL     1      -2.112 -19.708   4.041  1.00  0.00     0.031 A 
ATOM     54  C   UNL     1       0.912 -16.669  -1.504  1.00  0.00     0.031 A 
ATOM     55  C   UNL     1      -0.997 -20.426   3.485  1.00  0.00     0.049 A 
ATOM     56  C   UNL     1       1.448 -17.945  -0.903  1.00  0.00     0.074 A 
ATOM     57  C   UNL     1      -0.470 -21.640   3.888  1.00  0.00     0.029 A 
ATOM     58  N   UNL     1      -0.230 -19.992   2.414  1.00  0.00    -0.354 N 
ATOM     59  N   UNL     1       0.981 -18.643   0.106  1.00  0.00    -0.248 NA
ATOM     60  C   UNL     1       2.656 -18.513  -1.519  1.00  0.00     0.031 C 
ATOM     61  C   UNL     1       0.657 -21.907   3.104  1.00  0.00     0.029 A 
ATOM     62  C   UNL     1       0.786 -20.899   2.162  1.00  0.00     0.049 A 
ATOM     63  H   UNL     1      -0.385 -19.163   1.907  1.00  0.00     0.167 HD
ATOM     64  C   UNL     1       1.818 -19.750   0.223  1.00  0.00     0.074 A 
ATOM     65  C   UNL     1       2.811 -19.634  -0.826  1.00  0.00     0.031 C 
ATOM     66  C   UNL     1       1.768 -20.771   1.114  1.00  0.00     0.031 A 
BRANCH  53  67
ATOM     67  C   UNL     1      -2.803 -20.277   5.253  1.00  0.00    -0.014 A 
ATOM     68  C   UNL     1      -4.119 -20.769   5.184  1.00  0.00     0.010 A 
ATOM     69  C   UNL     1      -2.110 -20.349   6.475  1.00  0.00     0.010 A 
ATOM     70  C   UNL     1      -4.742 -21.285   6.324  1.00  0.00     0.020 A 
ATOM     71  C   UNL     1      -2.717 -20.895   7.609  1.00  0.00     0.020 A 
ATOM     72  C   UNL     1      -4.037 -21.344   7.529  1.00  0.00     0.054 A 
BRANCH  72  73
ATOM     73  S   UNL     1      -4.862 -22.042   8.985  1.00  0.00     0.124 S 
ATOM     74  O   UNL     1      -5.847 -21.009   9.297  1.00  0.00    -0.237 OA
ATOM     75  O   UNL     1      -5.408 -23.296   8.472  1.00  0.00    -0.237 OA
ATOM     76  O   UNL     1      -3.784 -22.188   9.960  1.00  0.00    -0.744 OA
ENDBRANCH  72  73
ENDBRANCH  53  67
BRANCH  54  77
ATOM     77  C   UNL     1       1.596 -16.029  -2.663  1.00  0.00    -0.014 A 
ATOM     78  C   UNL     1       1.604 -16.648  -3.926  1.00  0.00     0.010 A 
ATOM     79  C   UNL     1       2.253 -14.795  -2.505  1.00  0.00     0.010 A 
ATOM     80  C   UNL     1       2.268 -16.052  -5.003  1.00  0.00     0.020 A 
ATOM     81  C   UNL     1       2.891 -14.181  -3.587  1.00  0.00     0.020 A 
ATOM     82  C   UNL     1       2.903 -14.819  -4.828  1.00  0.00     0.054 A 
BRANCH  82  83
ATOM     83  S   UNL     1       3.710 -14.040  -6.254  1.00  0.00     0.124 S 
ATOM     84  O   UNL     1       4.871 -14.901  -6.455  1.00  0.00    -0.237 OA
ATOM     85  O   UNL     1       2.675 -14.122  -7.282  1.00  0.00    -0.237 OA
ATOM     86  O   UNL     1       4.005 -12.689  -5.784  1.00  0.00    -0.744 OA
ENDBRANCH  82  83
ENDBRANCH  54  77
BRANCH  66  87
ATOM     87  C   UNL     1       2.786 -21.875   0.974  1.00  0.00    -0.014 A 
ATOM     88  C   UNL     1       4.143 -21.668   1.280  1.00  0.00     0.010 A 
ATOM     89  C   UNL     1       2.362 -23.161   0.590  1.00  0.00     0.010 A 
ATOM     90  C   UNL     1       5.060 -22.717   1.172  1.00  0.00     0.020 A 
ATOM     91  C   UNL     1       3.269 -24.220   0.512  1.00  0.00     0.020 A 
ATOM     92  C   UNL     1       4.617 -23.988   0.790  1.00  0.00     0.054 A 
BRANCH  92  93
ATOM     93  S   UNL     1       5.820 -25.341   0.701  1.00  0.00     0.124 S 
ATOM     94  O   UNL     1       6.596 -24.982  -0.483  1.00  0.00    -0.237 OA
ATOM     95  O   UNL     1       6.527 -25.226   1.974  1.00  0.00    -0.237 OA
ATOM     96  O   UNL     1       4.990 -26.536   0.561  1.00  0.00    -0.744 OA
ENDBRANCH  92  93
ENDBRANCH  66  87
ENDBRANCH  40  41
ENDBRANCH  33  35
ENDBRANCH  32  33
ENDBRANCH  31  32
ENDBRANCH  30  31
ENDBRANCH  29  30
ENDBRANCH  28  29
ENDBRANCH  27  28
ENDBRANCH   1  27
TORSDOF 26
