REMARK SMILES Cc1cc([N+](=O)[O-])ccc1-c1ccc(/C=C/C(=O)Nc2ccc(O)c(C(=O)OCCOCCOCCOCCOC(=O)c3ccc(-c4c5nc(c(-c6ccc(S(=O)(=O)[O-])cc6)c6ccc([nH]6)c(-c6ccc(S(=O)(=O)[O-])cc6)c6nc(c(-c7ccc(S(=O)(=O)[O-])cc7)c7ccc4[nH]7)C=C6)C=C5)cc3)c2)o1
REMARK SMILES IDX 33 1 32 2 31 3 30 4 29 5 28 6 26 7 27 8 25 9 20 10 21 11
REMARK SMILES IDX 103 12 22 13 23 14 19 15 17 16 18 17 16 19 15 20 14 21 11 22
REMARK SMILES IDX 12 23 104 24 13 25 10 26 1 27 2 28 3 29 4 30 9 31 8 32 5 33
REMARK SMILES IDX 6 34 7 35 24 36 34 38 35 39 36 40 37 41 38 42 39 43 40 44
REMARK SMILES IDX 41 45 42 46 43 47 44 48 102 49 45 50 101 51 46 52 47 53
REMARK SMILES IDX 48 54 95 55 49 56 100 57 94 58 96 59 50 60 99 61 93 62 92 63
REMARK SMILES IDX 51 65 81 66 62 67 80 68 63 69 66 70 79 71 97 72 64 73 65 74
REMARK SMILES IDX 78 76 98 77 67 78 52 79 53 80 61 81 54 82 60 83 55 84 56 85
REMARK SMILES IDX 57 86 58 87 59 88 82 89 83 90 91 91 84 92 90 93 85 94 86 95
REMARK SMILES IDX 87 96 88 97 89 98 68 99 69 100 77 101 70 102 76 103 71 104
REMARK SMILES IDX 72 105 73 106 74 107 75 108
REMARK H PARENT 19 18 24 37 96 64 66 75
REMARK Flexibility Score: inf
ROOT
ATOM      1  C   UNL     1       4.752  11.175  -0.402  1.00  0.00     0.188 C 
ENDROOT
BRANCH   1   2
ATOM      2  C   UNL     1       4.825  11.120   1.141  1.00  0.00     0.188 C 
BRANCH   2   3
ATOM      3  O   UNL     1       6.057  11.418   1.791  1.00  0.00    -0.376 OA
BRANCH   3   4
ATOM      4  C   UNL     1       7.182  10.605   1.466  1.00  0.00     0.202 C 
BRANCH   4   5
ATOM      5  C   UNL     1       7.073   9.091   1.621  1.00  0.00     0.261 C 
BRANCH   5   6
ATOM      6  O   UNL     1       6.063   8.546   0.768  1.00  0.00    -0.460 OA
BRANCH   6   7
ATOM      7  C   UNL     1       5.352   7.532   1.283  1.00  0.00     0.342 C 
ATOM      8  O   UNL     1       5.640   6.784   2.195  1.00  0.00    -0.246 OA
BRANCH   7   9
ATOM      9  C   UNL     1       3.962   7.739   0.870  1.00  0.00     0.103 A 
ATOM     10  C   UNL     1       1.735   8.034   1.731  1.00  0.00     0.042 A 
ATOM     11  C   UNL     1       1.221   7.945   0.436  1.00  0.00     0.030 A 
ATOM     12  C   UNL     1       3.101   7.978   1.944  1.00  0.00     0.045 A 
ATOM     13  C   UNL     1       2.098   7.797  -0.649  1.00  0.00     0.049 A 
ATOM     14  C   UNL     1       3.475   7.694  -0.433  1.00  0.00     0.130 A 
BRANCH  10  15
ATOM     15  N   UNL     1       0.931   7.955   2.874  1.00  0.00    -0.322 N 
ATOM     16  C   UNL     1       0.471   6.765   3.399  1.00  0.00     0.248 C 
ATOM     17  O   UNL     1      -0.015   6.715   4.525  1.00  0.00    -0.270 OA
ATOM     18  H   UNL     1       0.679   8.792   3.326  1.00  0.00     0.170 HD
BRANCH  16  19
ATOM     19  C   UNL     1       0.503   5.559   2.539  1.00  0.00     0.075 C 
ATOM     20  C   UNL     1       1.652   5.044   2.077  1.00  0.00     0.053 C 
BRANCH  20  21
ATOM     21  C   UNL     1       1.610   4.074   1.049  1.00  0.00     0.127 A 
ATOM     22  C   UNL     1       0.985   2.263  -0.045  1.00  0.00     0.135 A 
ATOM     23  C   UNL     1       1.934   2.862  -0.837  1.00  0.00     0.051 A 
ATOM     24  O   UNL     1       0.738   3.019   1.052  1.00  0.00    -0.457 OA
ATOM     25  C   UNL     1       2.364   4.002  -0.117  1.00  0.00     0.051 A 
BRANCH  22  26
ATOM     26  C   UNL     1       0.263   1.009  -0.074  1.00  0.00     0.021 A 
ATOM     27  C   UNL     1       2.439  -0.347   0.019  1.00  0.00     0.045 C 
ATOM     28  C   UNL     1       0.936  -0.229  -0.029  1.00  0.00    -0.033 A 
ATOM     29  C   UNL     1       0.180  -1.414  -0.018  1.00  0.00     0.089 A 
ATOM     30  C   UNL     1      -1.221  -1.358  -0.016  1.00  0.00     0.269 A 
ATOM     31  C   UNL     1      -1.142   1.047  -0.064  1.00  0.00     0.019 A 
ATOM     32  C   UNL     1      -1.888  -0.130  -0.034  1.00  0.00     0.086 A 
BRANCH  30  33
ATOM     33  N   UNL     1      -1.997  -2.603   0.014  1.00  0.00     0.062 N 
ATOM     34  O   UNL     1      -1.375  -3.675   0.014  1.00  0.00    -0.258 OA
ATOM     35  O   UNL     1      -3.234  -2.512   0.028  1.00  0.00    -0.258 OA
ENDBRANCH  30  33
ENDBRANCH  22  26
ENDBRANCH  20  21
ENDBRANCH  16  19
ENDBRANCH  10  15
BRANCH  14  36
ATOM     36  O   UNL     1       4.271   7.538  -1.528  1.00  0.00    -0.507 OA
ATOM     37  H   UNL     1       3.891   7.515  -2.384  1.00  0.00     0.293 HD
ENDBRANCH  14  36
ENDBRANCH   7   9
ENDBRANCH   6   7
ENDBRANCH   5   6
ENDBRANCH   4   5
ENDBRANCH   3   4
ENDBRANCH   2   3
ENDBRANCH   1   2
BRANCH   1  38
ATOM     38  O   UNL     1       5.679  10.305  -1.028  1.00  0.00    -0.377 OA
BRANCH  38  39
ATOM     39  C   UNL     1       6.223  10.700  -2.289  1.00  0.00     0.188 C 
BRANCH  39  40
ATOM     40  C   UNL     1       6.824  12.114  -2.364  1.00  0.00     0.188 C 
BRANCH  40  41
ATOM     41  O   UNL     1       7.369  12.519  -1.111  1.00  0.00    -0.376 OA
BRANCH  41  42
ATOM     42  C   UNL     1       7.043  13.841  -0.691  1.00  0.00     0.202 C 
BRANCH  42  43
ATOM     43  C   UNL     1       7.768  14.916  -1.498  1.00  0.00     0.261 C 
BRANCH  43  44
ATOM     44  O   UNL     1       9.175  14.856  -1.211  1.00  0.00    -0.460 OA
BRANCH  44  45
ATOM     45  C   UNL     1       9.902  14.251  -2.193  1.00  0.00     0.338 C 
ATOM     46  O   UNL     1      10.035  14.706  -3.315  1.00  0.00    -0.246 OA
BRANCH  45  47
ATOM     47  C   UNL     1      10.398  12.930  -1.712  1.00  0.00     0.060 A 
ATOM     48  C   UNL     1      10.761  11.933  -2.626  1.00  0.00     0.016 A 
ATOM     49  C   UNL     1      10.303  12.608  -0.362  1.00  0.00     0.016 A 
ATOM     50  C   UNL     1      10.912  10.595  -2.205  1.00  0.00     0.010 A 
ATOM     51  C   UNL     1      10.382  11.279   0.029  1.00  0.00     0.010 A 
ATOM     52  C   UNL     1      10.657  10.237  -0.877  1.00  0.00    -0.014 A 
BRANCH  52  53
ATOM     53  C   UNL     1      10.445   8.852  -0.364  1.00  0.00     0.031 A 
ATOM     54  C   UNL     1      10.877   8.471   1.045  1.00  0.00     0.074 A 
ATOM     55  C   UNL     1       9.510   8.055  -0.960  1.00  0.00     0.049 A 
ATOM     56  N   UNL     1      10.581   7.344   1.613  1.00  0.00    -0.248 NA
ATOM     57  C   UNL     1      11.662   9.312   1.960  1.00  0.00     0.031 C 
ATOM     58  C   UNL     1       8.659   7.090  -0.252  1.00  0.00     0.029 A 
ATOM     59  N   UNL     1       9.048   7.918  -2.272  1.00  0.00    -0.354 N 
ATOM     60  C   UNL     1      10.685   7.503   2.976  1.00  0.00     0.074 A 
ATOM     61  C   UNL     1      11.500   8.682   3.134  1.00  0.00     0.031 C 
ATOM     62  C   UNL     1       7.846   6.457  -1.097  1.00  0.00     0.029 A 
ATOM     63  C   UNL     1       8.417   6.663  -2.393  1.00  0.00     0.049 A 
ATOM     64  H   UNL     1       9.147   8.584  -2.990  1.00  0.00     0.167 HD
ATOM     65  C   UNL     1       9.959   6.703   3.813  1.00  0.00     0.031 A 
ATOM     66  C   UNL     1       8.820   5.621  -3.183  1.00  0.00     0.031 A 
ATOM     67  C   UNL     1       9.254   5.608   3.124  1.00  0.00     0.049 A 
ATOM     68  C   UNL     1       9.153   4.349  -2.398  1.00  0.00     0.074 A 
ATOM     69  C   UNL     1       7.965   5.104   3.155  1.00  0.00     0.029 A 
ATOM     70  N   UNL     1       9.907   4.880   2.138  1.00  0.00    -0.354 N 
ATOM     71  N   UNL     1       9.045   4.271  -1.098  1.00  0.00    -0.248 NA
ATOM     72  C   UNL     1       9.687   3.103  -2.944  1.00  0.00     0.031 C 
ATOM     73  C   UNL     1       7.868   4.045   2.205  1.00  0.00     0.029 A 
ATOM     74  C   UNL     1       9.108   3.884   1.618  1.00  0.00     0.049 A 
ATOM     75  H   UNL     1      10.831   5.054   1.844  1.00  0.00     0.167 HD
ATOM     76  C   UNL     1       9.569   3.109  -0.620  1.00  0.00     0.074 A 
ATOM     77  C   UNL     1       9.944   2.390  -1.825  1.00  0.00     0.031 C 
ATOM     78  C   UNL     1       9.691   2.892   0.723  1.00  0.00     0.031 A 
BRANCH  65  79
ATOM     79  C   UNL     1       9.757   6.939   5.307  1.00  0.00    -0.014 A 
ATOM     80  C   UNL     1       9.181   5.916   6.097  1.00  0.00     0.010 A 
ATOM     81  C   UNL     1      10.027   8.149   5.978  1.00  0.00     0.010 A 
ATOM     82  C   UNL     1       8.884   6.085   7.460  1.00  0.00     0.020 A 
ATOM     83  C   UNL     1       9.777   8.317   7.354  1.00  0.00     0.020 A 
ATOM     84  C   UNL     1       9.192   7.287   8.086  1.00  0.00     0.054 A 
BRANCH  84  85
ATOM     85  S   UNL     1       8.833   7.484   9.854  1.00  0.00     0.124 S 
ATOM     86  O   UNL     1       7.374   7.548   9.872  1.00  0.00    -0.237 OA
ATOM     87  O   UNL     1       9.419   6.282  10.440  1.00  0.00    -0.237 OA
ATOM     88  O   UNL     1       9.510   8.731  10.206  1.00  0.00    -0.744 OA
ENDBRANCH  84  85
ENDBRANCH  65  79
BRANCH  66  89
ATOM     89  C   UNL     1       9.302   6.064  -4.519  1.00  0.00    -0.014 A 
ATOM     90  C   UNL     1       8.270   6.531  -5.365  1.00  0.00     0.010 A 
ATOM     91  C   UNL     1      10.585   6.632  -4.627  1.00  0.00     0.010 A 
ATOM     92  C   UNL     1       8.422   7.737  -6.049  1.00  0.00     0.020 A 
ATOM     93  C   UNL     1      10.743   7.838  -5.327  1.00  0.00     0.020 A 
ATOM     94  C   UNL     1       9.630   8.426  -5.941  1.00  0.00     0.054 A 
BRANCH  94  95
ATOM     95  S   UNL     1       9.606  10.214  -6.292  1.00  0.00     0.124 S 
ATOM     96  O   UNL     1       9.272  10.252  -7.711  1.00  0.00    -0.237 OA
ATOM     97  O   UNL     1       8.561  10.680  -5.381  1.00  0.00    -0.237 OA
ATOM     98  O   UNL     1      10.958  10.641  -5.944  1.00  0.00    -0.744 OA
ENDBRANCH  94  95
ENDBRANCH  66  89
BRANCH  78  99
ATOM     99  C   UNL     1      10.431   1.750   1.371  1.00  0.00    -0.014 A 
ATOM    100  C   UNL     1      10.422   0.435   0.897  1.00  0.00     0.010 A 
ATOM    101  C   UNL     1      11.121   1.996   2.587  1.00  0.00     0.010 A 
ATOM    102  C   UNL     1      11.146  -0.569   1.562  1.00  0.00     0.020 A 
ATOM    103  C   UNL     1      11.827   1.005   3.266  1.00  0.00     0.020 A 
ATOM    104  C   UNL     1      11.863  -0.270   2.727  1.00  0.00     0.054 A 
BRANCH 104 105
ATOM    105  S   UNL     1      12.844  -1.560   3.531  1.00  0.00     0.124 S 
ATOM    106  O   UNL     1      11.913  -2.686   3.578  1.00  0.00    -0.237 OA
ATOM    107  O   UNL     1      13.960  -1.708   2.601  1.00  0.00    -0.237 OA
ATOM    108  O   UNL     1      13.188  -0.986   4.829  1.00  0.00    -0.744 OA
ENDBRANCH 104 105
ENDBRANCH  78  99
ENDBRANCH  52  53
ENDBRANCH  45  47
ENDBRANCH  44  45
ENDBRANCH  43  44
ENDBRANCH  42  43
ENDBRANCH  41  42
ENDBRANCH  40  41
ENDBRANCH  39  40
ENDBRANCH  38  39
ENDBRANCH   1  38
TORSDOF 29
