REMARK SMILES C[C@H]1C[C@]([NH2+]C2CCCCCC2)(C(=O)OCCOCCOCCOCCOC(=O)c2ccc(-c3c4nc(c(-c5ccc(S(=O)(=O)[O-])cc5)c5ccc([nH]5)c(-c5ccc(S(=O)(=O)[O-])cc5)c5nc(c(-c6ccc(S(=O)(=O)[O-])cc6)c6ccc3[nH]6)C=C5)C=C4)cc2)CS1
REMARK SMILES IDX 20 1 19 2 18 3 17 4 16 5 15 6 13 7 14 8 4 9 1 10 2 11 3 12
REMARK SMILES IDX 91 13 90 14 5 15 6 18 7 19 8 20 9 21 12 23 11 24 10 25 21 27
REMARK SMILES IDX 22 28 23 29 24 30 25 31 26 32 27 33 28 34 29 35 30 36 31 37
REMARK SMILES IDX 89 38 32 39 88 40 33 41 34 42 35 43 82 44 36 45 87 46 81 47
REMARK SMILES IDX 83 48 37 49 86 50 80 51 79 52 38 54 68 55 49 56 67 57 50 58
REMARK SMILES IDX 53 59 66 60 84 61 51 62 52 63 65 65 85 66 54 67 39 68 40 69
REMARK SMILES IDX 48 70 41 71 47 72 42 73 43 74 44 75 45 76 46 77 69 78 70 79
REMARK SMILES IDX 78 80 71 81 77 82 72 83 73 84 74 85 75 86 76 87 55 88 56 89
REMARK SMILES IDX 64 90 57 91 63 92 58 93 59 94 60 95 61 96 62 97
REMARK H PARENT 5 16 5 17 83 53 53 64
REMARK Flexibility Score: 90.00
ROOT
ATOM      1  C   UNL     1       4.175  -0.434   2.026  1.00  0.00     0.188 C 
ENDROOT
BRANCH   1   2
ATOM      2  C   UNL     1       4.490   0.821   2.881  1.00  0.00     0.188 C 
BRANCH   2   3
ATOM      3  O   UNL     1       5.500   0.796   3.881  1.00  0.00    -0.376 OA
BRANCH   3   4
ATOM      4  C   UNL     1       5.777  -0.411   4.572  1.00  0.00     0.202 C 
BRANCH   4   5
ATOM      5  C   UNL     1       4.640  -1.147   5.301  1.00  0.00     0.261 C 
BRANCH   5   6
ATOM      6  O   UNL     1       3.410  -1.317   4.572  1.00  0.00    -0.459 OA
BRANCH   6   7
ATOM      7  C   UNL     1       2.399  -0.448   4.817  1.00  0.00     0.369 C 
ATOM      8  O   UNL     1       2.490   0.507   5.590  1.00  0.00    -0.245 OA
BRANCH   7   9
ATOM      9  C   UNL     1       1.059  -0.731   4.005  1.00  0.00     0.204 C 
ATOM     10  C   UNL     1      -1.049  -0.062   1.163  1.00  0.00     0.019 C 
ATOM     11  C   UNL     1       0.399  -0.368   1.534  1.00  0.00     0.050 C 
ATOM     12  C   UNL     1       0.913   0.273   2.826  1.00  0.00     0.096 C 
ATOM     13  S   UNL     1       0.689  -2.146   1.659  1.00  0.00    -0.151 SA
ATOM     14  C   UNL     1       1.063  -2.174   3.445  1.00  0.00     0.150 C 
BRANCH   9  15
ATOM     15  N   UNL     1       0.033  -0.486   5.060  1.00  0.00    -0.329 N 
ATOM     16  H   UNL     1       0.358   0.315   5.601  1.00  0.00     0.347 HD
ATOM     17  H   UNL     1      -0.029  -1.390   5.528  1.00  0.00     0.347 HD
BRANCH  15  18
ATOM     18  C   UNL     1      -1.356  -0.211   4.704  1.00  0.00     0.183 C 
BRANCH  18  19
ATOM     19  C   UNL     1      -2.082  -1.460   4.216  1.00  0.00     0.065 C 
BRANCH  19  20
ATOM     20  C   UNL     1      -2.303  -2.492   5.311  1.00  0.00     0.006 C 
BRANCH  20  21
ATOM     21  C   UNL     1      -3.683  -2.329   5.929  1.00  0.00     0.000 CG0
ATOM     22  G   UNL     1      -3.921  -1.037   6.713  1.00  0.00     0.000 G0
ENDBRANCH  20  21
ENDBRANCH  19  20
ENDBRANCH  18  19
BRANCH  18  23
ATOM     23  C   UNL     1      -1.990   0.428   5.958  1.00  0.00     0.065 C 
BRANCH  23  24
ATOM     24  C   UNL     1      -3.504   0.280   6.052  1.00  0.00     0.006 C 
BRANCH  24  25
ATOM     25  C   UNL     1      -3.921  -1.037   6.713  1.00  0.00     0.000 CG0
ATOM     26  G   UNL     1      -3.683  -2.329   5.929  1.00  0.00     0.000 G0
ENDBRANCH  24  25
ENDBRANCH  23  24
ENDBRANCH  18  23
ENDBRANCH  15  18
ENDBRANCH   9  15
ENDBRANCH   7   9
ENDBRANCH   6   7
ENDBRANCH   5   6
ENDBRANCH   4   5
ENDBRANCH   3   4
ENDBRANCH   2   3
ENDBRANCH   1   2
BRANCH   1  27
ATOM     27  O   UNL     1       5.084  -1.502   2.191  1.00  0.00    -0.377 OA
BRANCH  27  28
ATOM     28  C   UNL     1       6.055  -1.613   1.167  1.00  0.00     0.188 C 
BRANCH  28  29
ATOM     29  C   UNL     1       6.816  -0.317   0.838  1.00  0.00     0.188 C 
BRANCH  29  30
ATOM     30  O   UNL     1       5.954   0.764   0.494  1.00  0.00    -0.376 OA
BRANCH  30  31
ATOM     31  C   UNL     1       5.782   1.125  -0.865  1.00  0.00     0.202 C 
BRANCH  31  32
ATOM     32  C   UNL     1       4.951   0.185  -1.753  1.00  0.00     0.261 C 
BRANCH  32  33
ATOM     33  O   UNL     1       5.343  -1.191  -1.775  1.00  0.00    -0.460 OA
BRANCH  33  34
ATOM     34  C   UNL     1       6.600  -1.470  -2.197  1.00  0.00     0.338 C 
ATOM     35  O   UNL     1       7.421  -0.683  -2.603  1.00  0.00    -0.246 OA
BRANCH  34  36
ATOM     36  C   UNL     1       6.871  -2.888  -1.861  1.00  0.00     0.060 A 
ATOM     37  C   UNL     1       7.971  -3.183  -1.044  1.00  0.00     0.016 A 
ATOM     38  C   UNL     1       6.032  -3.909  -2.315  1.00  0.00     0.016 A 
ATOM     39  C   UNL     1       8.258  -4.505  -0.709  1.00  0.00     0.010 A 
ATOM     40  C   UNL     1       6.341  -5.236  -2.011  1.00  0.00     0.010 A 
ATOM     41  C   UNL     1       7.480  -5.539  -1.243  1.00  0.00    -0.014 A 
BRANCH  41  42
ATOM     42  C   UNL     1       8.018  -6.918  -1.232  1.00  0.00     0.031 A 
ATOM     43  C   UNL     1       8.793  -7.368  -2.443  1.00  0.00     0.074 A 
ATOM     44  C   UNL     1       7.870  -7.734  -0.174  1.00  0.00     0.049 A 
ATOM     45  N   UNL     1       9.343  -8.525  -2.695  1.00  0.00    -0.248 NA
ATOM     46  C   UNL     1       8.970  -6.370  -3.514  1.00  0.00     0.031 C 
ATOM     47  C   UNL     1       7.196  -7.390   1.077  1.00  0.00     0.029 A 
ATOM     48  N   UNL     1       8.283  -9.030   0.010  1.00  0.00    -0.354 N 
ATOM     49  C   UNL     1       9.923  -8.397  -3.953  1.00  0.00     0.074 A 
ATOM     50  C   UNL     1       9.632  -7.064  -4.426  1.00  0.00     0.031 C 
ATOM     51  C   UNL     1       7.235  -8.455   1.899  1.00  0.00     0.029 A 
ATOM     52  C   UNL     1       7.905  -9.563   1.219  1.00  0.00     0.049 A 
ATOM     53  H   UNL     1       8.802  -9.530  -0.660  1.00  0.00     0.167 HD
ATOM     54  C   UNL     1      10.642  -9.307  -4.650  1.00  0.00     0.031 A 
ATOM     55  C   UNL     1       8.066 -10.810   1.707  1.00  0.00     0.031 A 
ATOM     56  C   UNL     1      10.910 -10.640  -4.183  1.00  0.00     0.049 A 
ATOM     57  C   UNL     1       8.790 -11.838   0.871  1.00  0.00     0.074 A 
ATOM     58  C   UNL     1      11.624 -11.643  -4.813  1.00  0.00     0.029 A 
ATOM     59  N   UNL     1      10.471 -11.157  -2.974  1.00  0.00    -0.354 N 
ATOM     60  N   UNL     1       9.344 -11.701  -0.311  1.00  0.00    -0.248 NA
ATOM     61  C   UNL     1       8.921 -13.185   1.443  1.00  0.00     0.031 C 
ATOM     62  C   UNL     1      11.563 -12.787  -4.012  1.00  0.00     0.029 A 
ATOM     63  C   UNL     1      10.877 -12.473  -2.849  1.00  0.00     0.049 A 
ATOM     64  H   UNL     1       9.947 -10.660  -2.304  1.00  0.00     0.167 HD
ATOM     65  C   UNL     1       9.922 -12.934  -0.605  1.00  0.00     0.074 A 
ATOM     66  C   UNL     1       9.659 -13.797   0.527  1.00  0.00     0.031 C 
ATOM     67  C   UNL     1      10.613 -13.316  -1.709  1.00  0.00     0.031 A 
BRANCH  54  68
ATOM     68  C   UNL     1      11.149  -8.900  -6.007  1.00  0.00    -0.014 A 
ATOM     69  C   UNL     1      12.173  -7.946  -6.149  1.00  0.00     0.010 A 
ATOM     70  C   UNL     1      10.610  -9.502  -7.159  1.00  0.00     0.010 A 
ATOM     71  C   UNL     1      12.625  -7.577  -7.419  1.00  0.00     0.020 A 
ATOM     72  C   UNL     1      11.081  -9.159  -8.429  1.00  0.00     0.020 A 
ATOM     73  C   UNL     1      12.076  -8.187  -8.551  1.00  0.00     0.054 A 
BRANCH  73  74
ATOM     74  S   UNL     1      12.706  -7.713 -10.184  1.00  0.00     0.124 S 
ATOM     75  O   UNL     1      12.177  -6.359 -10.329  1.00  0.00    -0.237 OA
ATOM     76  O   UNL     1      14.152  -7.807 -10.008  1.00  0.00    -0.237 OA
ATOM     77  O   UNL     1      12.124  -8.707 -11.083  1.00  0.00    -0.744 OA
ENDBRANCH  73  74
ENDBRANCH  54  68
BRANCH  55  78
ATOM     78  C   UNL     1       7.518 -11.170   3.045  1.00  0.00    -0.014 A 
ATOM     79  C   UNL     1       8.375 -11.492   4.112  1.00  0.00     0.010 A 
ATOM     80  C   UNL     1       6.126 -11.217   3.253  1.00  0.00     0.010 A 
ATOM     81  C   UNL     1       7.853 -11.878   5.351  1.00  0.00     0.020 A 
ATOM     82  C   UNL     1       5.600 -11.570   4.499  1.00  0.00     0.020 A 
ATOM     83  C   UNL     1       6.468 -11.912   5.537  1.00  0.00     0.054 A 
BRANCH  83  84
ATOM     84  S   UNL     1       5.815 -12.380   7.164  1.00  0.00     0.124 S 
ATOM     85  O   UNL     1       6.111 -13.808   7.212  1.00  0.00    -0.237 OA
ATOM     86  O   UNL     1       6.596 -11.540   8.069  1.00  0.00    -0.237 OA
ATOM     87  O   UNL     1       4.397 -12.037   7.075  1.00  0.00    -0.744 OA
ENDBRANCH  83  84
ENDBRANCH  55  78
BRANCH  67  88
ATOM     88  C   UNL     1      11.188 -14.709  -1.727  1.00  0.00    -0.014 A 
ATOM     89  C   UNL     1      10.368 -15.845  -1.840  1.00  0.00     0.010 A 
ATOM     90  C   UNL     1      12.586 -14.875  -1.687  1.00  0.00     0.010 A 
ATOM     91  C   UNL     1      10.934 -17.123  -1.874  1.00  0.00     0.020 A 
ATOM     92  C   UNL     1      13.156 -16.148  -1.755  1.00  0.00     0.020 A 
ATOM     93  C   UNL     1      12.325 -17.266  -1.831  1.00  0.00     0.054 A 
BRANCH  93  94
ATOM     94  S   UNL     1      13.035 -18.933  -1.913  1.00  0.00     0.124 S 
ATOM     95  O   UNL     1      12.701 -19.471  -0.596  1.00  0.00    -0.237 OA
ATOM     96  O   UNL     1      12.318 -19.532  -3.036  1.00  0.00    -0.237 OA
ATOM     97  O   UNL     1      14.457 -18.694  -2.146  1.00  0.00    -0.744 OA
ENDBRANCH  93  94
ENDBRANCH  67  88
ENDBRANCH  41  42
ENDBRANCH  34  36
ENDBRANCH  33  34
ENDBRANCH  32  33
ENDBRANCH  31  32
ENDBRANCH  30  31
ENDBRANCH  29  30
ENDBRANCH  28  29
ENDBRANCH  27  28
ENDBRANCH   1  27
TORSDOF 25
