REMARK SMILES O=C1NC(=S)S/C1=C\c1ccc(OCc2cn(-c3ccc(C(=O)OCCOCCOCCOCCOC(=O)c4ccc(-c5c6nc(c(-c7ccc(S(=O)(=O)[O-])cc7)c7ccc([nH]7)c(-c7ccc(S(=O)(=O)[O-])cc7)c7nc(c(-c8ccc(S(=O)(=O)[O-])cc8)c8ccc5[nH]8)C=C7)C=C6)cc4)cc3)nn2)cc1
REMARK SMILES IDX 29 1 28 2 27 3 26 4 25 5 24 6 22 7 23 8 21 9 18 10 19 11
REMARK SMILES IDX 100 12 20 13 99 14 17 15 15 16 16 17 102 18 101 19 14 20
REMARK SMILES IDX 13 21 12 22 9 23 10 24 104 25 11 26 103 27 8 28 1 29 2 30
REMARK SMILES IDX 3 31 7 32 4 33 6 35 5 36 30 37 31 38 32 39 33 40 34 41 35 42
REMARK SMILES IDX 36 43 37 44 38 45 39 46 40 47 98 48 41 49 97 50 42 51 43 52
REMARK SMILES IDX 44 53 91 54 45 55 96 56 90 57 92 58 46 59 95 60 89 61 88 62
REMARK SMILES IDX 47 64 77 65 58 66 76 67 59 68 62 69 75 70 93 71 60 72 61 73
REMARK SMILES IDX 74 75 94 76 63 77 48 78 49 79 57 80 50 81 56 82 51 83 52 84
REMARK SMILES IDX 53 85 54 86 55 87 78 88 79 89 87 90 80 91 86 92 81 93 82 94
REMARK SMILES IDX 83 95 84 96 85 97 64 98 65 99 73 100 66 101 72 102 67 103
REMARK SMILES IDX 68 104 69 105 70 106 71 107
REMARK H PARENT 3 34 92 63 62 74
REMARK Flexibility Score: inf
ROOT
ATOM      1  C   UNL     1       7.431   7.917   0.044  1.00  0.00     0.188 C 
ENDROOT
BRANCH   1   2
ATOM      2  C   UNL     1       7.890   8.091  -1.418  1.00  0.00     0.188 C 
BRANCH   2   3
ATOM      3  O   UNL     1       8.993   8.921  -1.741  1.00  0.00    -0.376 OA
BRANCH   3   4
ATOM      4  C   UNL     1       9.130  10.251  -1.275  1.00  0.00     0.202 C 
BRANCH   4   5
ATOM      5  C   UNL     1       7.973  11.195  -0.896  1.00  0.00     0.261 C 
BRANCH   5   6
ATOM      6  O   UNL     1       6.673  10.635  -0.758  1.00  0.00    -0.460 OA
BRANCH   6   7
ATOM      7  C   UNL     1       5.948  10.553  -1.891  1.00  0.00     0.338 C 
ATOM      8  O   UNL     1       6.263  10.936  -3.004  1.00  0.00    -0.246 OA
BRANCH   7   9
ATOM      9  C   UNL     1       4.752   9.737  -1.598  1.00  0.00     0.060 A 
ATOM     10  C   UNL     1       2.460   8.222  -1.187  1.00  0.00     0.066 A 
ATOM     11  C   UNL     1       3.325   7.901  -2.244  1.00  0.00     0.029 A 
ATOM     12  C   UNL     1       2.798   9.229  -0.273  1.00  0.00     0.029 A 
ATOM     13  C   UNL     1       4.448   8.688  -2.472  1.00  0.00     0.018 A 
ATOM     14  C   UNL     1       3.964   9.973  -0.466  1.00  0.00     0.018 A 
BRANCH  10  15
ATOM     15  N   UNL     1       1.191   7.603  -1.152  1.00  0.00    -0.220 N 
ATOM     16  C   UNL     1      -0.969   7.309  -1.155  1.00  0.00     0.120 A 
ATOM     17  C   UNL     1       0.023   8.107  -0.624  1.00  0.00     0.144 A 
ATOM     18  N   UNL     1      -0.385   6.320  -1.900  1.00  0.00    -0.131 NA
ATOM     19  N   UNL     1       0.923   6.498  -1.882  1.00  0.00    -0.062 NA
BRANCH  16  20
ATOM     20  C   UNL     1      -2.453   7.461  -1.130  1.00  0.00     0.289 C 
BRANCH  20  21
ATOM     21  O   UNL     1      -3.127   6.720  -0.104  1.00  0.00    -0.487 OA
BRANCH  21  22
ATOM     22  C   UNL     1      -3.118   5.355  -0.189  1.00  0.00     0.119 A 
ATOM     23  C   UNL     1      -2.908   2.562  -0.021  1.00  0.00    -0.024 A 
ATOM     24  C   UNL     1      -3.361   3.297   1.076  1.00  0.00     0.012 A 
ATOM     25  C   UNL     1      -2.648   3.220  -1.225  1.00  0.00     0.012 A 
ATOM     26  C   UNL     1      -3.463   4.689   0.989  1.00  0.00     0.047 A 
ATOM     27  C   UNL     1      -2.773   4.607  -1.313  1.00  0.00     0.047 A 
BRANCH  23  28
ATOM     28  C   UNL     1      -2.675   1.121   0.089  1.00  0.00     0.029 C 
ATOM     29  O   UNL     1      -2.197  -1.750   0.140  1.00  0.00    -0.268 OA
ATOM     30  C   UNL     1      -1.291  -0.930   0.130  1.00  0.00     0.263 C 
ATOM     31  N   UNL     1       0.040  -1.238   0.104  1.00  0.00    -0.307 N 
ATOM     32  C   UNL     1      -1.464   0.545   0.084  1.00  0.00     0.080 C 
ATOM     33  C   UNL     1       0.934  -0.215   0.020  1.00  0.00     0.145 C 
ATOM     34  H   UNL     1       0.344  -2.174   0.145  1.00  0.00     0.171 HD
ATOM     35  S   UNL     1       0.083   1.311   0.003  1.00  0.00    -0.055 SA
ATOM     36  S   UNL     1       2.572  -0.432  -0.083  1.00  0.00    -0.052 S 
ENDBRANCH  23  28
ENDBRANCH  21  22
ENDBRANCH  20  21
ENDBRANCH  16  20
ENDBRANCH  10  15
ENDBRANCH   7   9
ENDBRANCH   6   7
ENDBRANCH   5   6
ENDBRANCH   4   5
ENDBRANCH   3   4
ENDBRANCH   2   3
ENDBRANCH   1   2
BRANCH   1  37
ATOM     37  O   UNL     1       8.020   8.853   0.931  1.00  0.00    -0.377 OA
BRANCH  37  38
ATOM     38  C   UNL     1       9.200   8.416   1.601  1.00  0.00     0.188 C 
BRANCH  38  39
ATOM     39  C   UNL     1      10.280   7.640   0.800  1.00  0.00     0.188 C 
BRANCH  39  40
ATOM     40  O   UNL     1       9.766   6.671  -0.109  1.00  0.00    -0.376 OA
BRANCH  40  41
ATOM     41  C   UNL     1       9.952   5.283   0.107  1.00  0.00     0.202 C 
BRANCH  41  42
ATOM     42  C   UNL     1       9.062   4.666   1.180  1.00  0.00     0.261 C 
BRANCH  42  43
ATOM     43  O   UNL     1       9.034   5.430   2.369  1.00  0.00    -0.460 OA
BRANCH  43  44
ATOM     44  C   UNL     1      10.208   5.514   3.019  1.00  0.00     0.338 C 
ATOM     45  O   UNL     1      11.299   5.119   2.635  1.00  0.00    -0.246 OA
BRANCH  44  46
ATOM     46  C   UNL     1       9.946   6.062   4.348  1.00  0.00     0.060 A 
ATOM     47  C   UNL     1      11.056   6.138   5.185  1.00  0.00     0.016 A 
ATOM     48  C   UNL     1       8.625   6.036   4.825  1.00  0.00     0.016 A 
ATOM     49  C   UNL     1      10.858   5.830   6.503  1.00  0.00     0.010 A 
ATOM     50  C   UNL     1       8.432   5.700   6.133  1.00  0.00     0.010 A 
ATOM     51  C   UNL     1       9.564   5.490   6.912  1.00  0.00    -0.014 A 
BRANCH  51  52
ATOM     52  C   UNL     1       9.417   4.922   8.224  1.00  0.00     0.031 A 
ATOM     53  C   UNL     1       9.488   5.945   9.277  1.00  0.00     0.074 A 
ATOM     54  C   UNL     1       9.164   3.616   8.408  1.00  0.00     0.049 A 
ATOM     55  N   UNL     1      10.449   6.148  10.111  1.00  0.00    -0.248 NA
ATOM     56  C   UNL     1       8.469   7.008   9.241  1.00  0.00     0.031 C 
ATOM     57  C   UNL     1       8.790   2.611   7.408  1.00  0.00     0.029 A 
ATOM     58  N   UNL     1       9.062   2.940   9.578  1.00  0.00    -0.354 N 
ATOM     59  C   UNL     1      10.035   7.232  10.870  1.00  0.00     0.074 A 
ATOM     60  C   UNL     1       8.960   7.856  10.143  1.00  0.00     0.031 C 
ATOM     61  C   UNL     1       8.260   1.540   8.042  1.00  0.00     0.029 A 
ATOM     62  C   UNL     1       8.377   1.738   9.479  1.00  0.00     0.049 A 
ATOM     63  H   UNL     1       9.440   3.273  10.423  1.00  0.00     0.167 HD
ATOM     64  C   UNL     1      10.382   7.347  12.178  1.00  0.00     0.031 A 
ATOM     65  C   UNL     1       7.854   1.037  10.516  1.00  0.00     0.031 A 
ATOM     66  C   UNL     1      11.491   6.495  12.518  1.00  0.00     0.049 A 
ATOM     67  C   UNL     1       8.524   1.519  11.755  1.00  0.00     0.074 A 
ATOM     68  C   UNL     1      12.792   6.378  12.068  1.00  0.00     0.029 A 
ATOM     69  N   UNL     1      11.201   5.317  13.168  1.00  0.00    -0.354 N 
ATOM     70  N   UNL     1       9.790   1.334  12.008  1.00  0.00    -0.248 NA
ATOM     71  C   UNL     1       7.900   2.607  12.496  1.00  0.00     0.031 C 
ATOM     72  C   UNL     1      13.065   4.980  12.079  1.00  0.00     0.029 A 
ATOM     73  C   UNL     1      11.943   4.320  12.587  1.00  0.00     0.049 A 
ATOM     74  H   UNL     1      10.572   5.209  13.918  1.00  0.00     0.167 HD
ATOM     75  C   UNL     1      10.219   2.517  12.596  1.00  0.00     0.074 A 
ATOM     76  C   UNL     1       8.992   3.222  12.961  1.00  0.00     0.031 C 
ATOM     77  C   UNL     1      11.512   2.940  12.473  1.00  0.00     0.031 A 
BRANCH  64  78
ATOM     78  C   UNL     1       9.425   7.888  13.208  1.00  0.00    -0.014 A 
ATOM     79  C   UNL     1       9.873   8.055  14.530  1.00  0.00     0.010 A 
ATOM     80  C   UNL     1       8.032   7.977  12.986  1.00  0.00     0.010 A 
ATOM     81  C   UNL     1       8.965   8.237  15.580  1.00  0.00     0.020 A 
ATOM     82  C   UNL     1       7.124   8.208  14.014  1.00  0.00     0.020 A 
ATOM     83  C   UNL     1       7.595   8.299  15.313  1.00  0.00     0.054 A 
BRANCH  83  84
ATOM     84  S   UNL     1       6.423   8.422  16.682  1.00  0.00     0.124 S 
ATOM     85  O   UNL     1       6.592   7.127  17.334  1.00  0.00    -0.237 OA
ATOM     86  O   UNL     1       6.930   9.577  17.418  1.00  0.00    -0.237 OA
ATOM     87  O   UNL     1       5.140   8.628  16.015  1.00  0.00    -0.744 OA
ENDBRANCH  83  84
ENDBRANCH  64  78
BRANCH  65  88
ATOM     88  C   UNL     1       6.577   0.278  10.532  1.00  0.00    -0.014 A 
ATOM     89  C   UNL     1       6.253  -0.571  11.605  1.00  0.00     0.010 A 
ATOM     90  C   UNL     1       5.551   0.595   9.617  1.00  0.00     0.010 A 
ATOM     91  C   UNL     1       4.938  -1.035  11.789  1.00  0.00     0.020 A 
ATOM     92  C   UNL     1       4.242   0.129   9.786  1.00  0.00     0.020 A 
ATOM     93  C   UNL     1       3.936  -0.665  10.887  1.00  0.00     0.054 A 
BRANCH  93  94
ATOM     94  S   UNL     1       2.209  -1.118  11.226  1.00  0.00     0.124 S 
ATOM     95  O   UNL     1       2.214  -2.559  10.992  1.00  0.00    -0.237 OA
ATOM     96  O   UNL     1       2.038  -0.703  12.615  1.00  0.00    -0.237 OA
ATOM     97  O   UNL     1       1.450  -0.335  10.252  1.00  0.00    -0.744 OA
ENDBRANCH  93  94
ENDBRANCH  65  88
BRANCH  77  98
ATOM     98  C   UNL     1      12.542   1.961  11.955  1.00  0.00    -0.014 A 
ATOM     99  C   UNL     1      12.494   1.377  10.673  1.00  0.00     0.010 A 
ATOM    100  C   UNL     1      13.684   1.745  12.745  1.00  0.00     0.010 A 
ATOM    101  C   UNL     1      13.551   0.578  10.209  1.00  0.00     0.020 A 
ATOM    102  C   UNL     1      14.747   0.967  12.282  1.00  0.00     0.020 A 
ATOM    103  C   UNL     1      14.672   0.378  11.020  1.00  0.00     0.054 A 
BRANCH 103 104
ATOM    104  S   UNL     1      16.058  -0.617  10.400  1.00  0.00     0.124 S 
ATOM    105  O   UNL     1      15.494  -1.963  10.368  1.00  0.00    -0.237 OA
ATOM    106  O   UNL     1      16.332  -0.017   9.097  1.00  0.00    -0.237 OA
ATOM    107  O   UNL     1      17.108  -0.411  11.398  1.00  0.00    -0.744 OA
ENDBRANCH 103 104
ENDBRANCH  77  98
ENDBRANCH  51  52
ENDBRANCH  44  46
ENDBRANCH  43  44
ENDBRANCH  42  43
ENDBRANCH  41  42
ENDBRANCH  40  41
ENDBRANCH  39  40
ENDBRANCH  38  39
ENDBRANCH  37  38
ENDBRANCH   1  37
TORSDOF 28
