REMARK SMILES O=C(C[C@@H]1CN(c2cc(C(F)(F)F)ccn2)CCO1)OCCOCCOCCOCCOC(=O)c1ccc(-c2c3nc(c(-c4ccc(S(=O)(=O)[O-])cc4)c4ccc([nH]4)c(-c4ccc(S(=O)(=O)[O-])cc4)c4nc(c(-c5ccc(S(=O)(=O)[O-])cc5)c5ccc2[nH]5)C=C4)C=C3)cc1
REMARK SMILES IDX 26 1 25 2 24 3 23 4 22 5 21 6 20 7 2 8 1 9 3 10 4 11 5 12
REMARK SMILES IDX 19 13 6 14 18 15 17 16 7 17 8 18 16 19 9 20 15 21 14 22
REMARK SMILES IDX 10 23 11 24 12 25 13 26 27 27 28 28 29 29 30 30 31 31 32 32
REMARK SMILES IDX 33 33 34 34 35 35 36 36 94 37 37 38 93 39 38 40 39 41 40 42
REMARK SMILES IDX 87 43 41 44 92 45 86 46 88 47 42 48 91 49 85 50 84 51 43 53
REMARK SMILES IDX 73 54 54 55 72 56 55 57 58 58 71 59 89 60 56 61 57 62 70 64
REMARK SMILES IDX 90 65 59 66 44 67 45 68 53 69 46 70 52 71 47 72 48 73 49 74
REMARK SMILES IDX 50 75 51 76 74 77 75 78 83 79 76 80 82 81 77 82 78 83 79 84
REMARK SMILES IDX 80 85 81 86 60 87 61 88 69 89 62 90 68 91 63 92 64 93 65 94
REMARK SMILES IDX 66 95 67 96
REMARK H PARENT 88 52 58 63
REMARK Flexibility Score: inf
ROOT
ATOM      1  O   UNL     1       2.473  -3.781   0.560  1.00  0.00    -0.377 OA
ENDROOT
BRANCH   1   2
ATOM      2  C   UNL     1       1.931  -2.479   0.426  1.00  0.00     0.188 C 
BRANCH   2   3
ATOM      3  C   UNL     1       2.493  -1.694  -0.752  1.00  0.00     0.188 C 
BRANCH   3   4
ATOM      4  O   UNL     1       3.863  -1.328  -0.735  1.00  0.00    -0.376 OA
BRANCH   4   5
ATOM      5  C   UNL     1       4.479  -0.627   0.327  1.00  0.00     0.202 C 
BRANCH   5   6
ATOM      6  C   UNL     1       3.684   0.136   1.374  1.00  0.00     0.261 C 
BRANCH   6   7
ATOM      7  O   UNL     1       2.446   0.790   1.022  1.00  0.00    -0.463 OA
BRANCH   7   8
ATOM      8  C   UNL     1       2.005   1.579   0.031  1.00  0.00     0.308 C 
ATOM      9  O   UNL     1       0.882   2.074   0.141  1.00  0.00    -0.252 OA
BRANCH   8  10
ATOM     10  C   UNL     1       2.763   1.735  -1.260  1.00  0.00     0.156 C 
BRANCH  10  11
ATOM     11  C   UNL     1       3.750   2.889  -1.345  1.00  0.00     0.148 C 
ATOM     12  C   UNL     1       5.077   2.498  -0.690  1.00  0.00     0.150 C 
ATOM     13  O   UNL     1       3.189   4.079  -0.781  1.00  0.00    -0.374 OA
ATOM     14  N   UNL     1       6.016   3.615  -0.618  1.00  0.00    -0.352 N 
ATOM     15  C   UNL     1       4.140   5.159  -0.825  1.00  0.00     0.182 C 
ATOM     16  C   UNL     1       5.409   4.815  -0.024  1.00  0.00     0.146 C 
BRANCH  14  17
ATOM     17  C   UNL     1       7.255   3.212  -0.110  1.00  0.00     0.129 A 
ATOM     18  C   UNL     1       8.042   2.338  -0.861  1.00  0.00     0.060 A 
ATOM     19  N   UNL     1       7.644   3.613   1.114  1.00  0.00    -0.239 NA
ATOM     20  C   UNL     1       9.243   1.841  -0.346  1.00  0.00     0.061 A 
ATOM     21  C   UNL     1       8.803   3.124   1.612  1.00  0.00     0.114 A 
ATOM     22  C   UNL     1       9.629   2.248   0.930  1.00  0.00     0.033 A 
BRANCH  20  23
ATOM     23  C   UNL     1      10.107   0.927  -1.169  1.00  0.00     0.416 C 
ATOM     24  F   UNL     1      11.135   1.589  -1.766  1.00  0.00    -0.166 F 
ATOM     25  F   UNL     1      10.674  -0.071  -0.440  1.00  0.00    -0.166 F 
ATOM     26  F   UNL     1       9.427   0.310  -2.177  1.00  0.00    -0.166 F 
ENDBRANCH  20  23
ENDBRANCH  14  17
ENDBRANCH  10  11
ENDBRANCH   8  10
ENDBRANCH   7   8
ENDBRANCH   6   7
ENDBRANCH   5   6
ENDBRANCH   4   5
ENDBRANCH   3   4
ENDBRANCH   2   3
ENDBRANCH   1   2
BRANCH   1  27
ATOM     27  C   UNL     1       3.834  -3.823   0.943  1.00  0.00     0.188 C 
BRANCH  27  28
ATOM     28  C   UNL     1       4.855  -4.104  -0.185  1.00  0.00     0.188 C 
BRANCH  28  29
ATOM     29  O   UNL     1       4.462  -4.493  -1.494  1.00  0.00    -0.376 OA
BRANCH  29  30
ATOM     30  C   UNL     1       3.269  -5.226  -1.704  1.00  0.00     0.202 C 
BRANCH  30  31
ATOM     31  C   UNL     1       3.101  -6.603  -1.046  1.00  0.00     0.261 C 
BRANCH  31  32
ATOM     32  O   UNL     1       3.439  -6.661   0.345  1.00  0.00    -0.460 OA
BRANCH  32  33
ATOM     33  C   UNL     1       4.648  -7.207   0.632  1.00  0.00     0.338 C 
ATOM     34  O   UNL     1       5.433  -7.706  -0.159  1.00  0.00    -0.246 OA
BRANCH  33  35
ATOM     35  C   UNL     1       4.995  -6.911   2.041  1.00  0.00     0.060 A 
ATOM     36  C   UNL     1       6.257  -6.357   2.299  1.00  0.00     0.016 A 
ATOM     37  C   UNL     1       4.093  -7.126   3.087  1.00  0.00     0.016 A 
ATOM     38  C   UNL     1       6.638  -6.053   3.604  1.00  0.00     0.010 A 
ATOM     39  C   UNL     1       4.488  -6.851   4.402  1.00  0.00     0.010 A 
ATOM     40  C   UNL     1       5.777  -6.354   4.666  1.00  0.00    -0.014 A 
BRANCH  40  41
ATOM     41  C   UNL     1       6.340  -6.433   6.036  1.00  0.00     0.031 A 
ATOM     42  C   UNL     1       6.885  -7.766   6.479  1.00  0.00     0.074 A 
ATOM     43  C   UNL     1       6.423  -5.361   6.844  1.00  0.00     0.049 A 
ATOM     44  N   UNL     1       7.432  -8.103   7.617  1.00  0.00    -0.248 NA
ATOM     45  C   UNL     1       6.803  -8.864   5.500  1.00  0.00     0.031 C 
ATOM     46  C   UNL     1       5.987  -4.006   6.511  1.00  0.00     0.029 A 
ATOM     47  N   UNL     1       6.913  -5.253   8.122  1.00  0.00    -0.354 N 
ATOM     48  C   UNL     1       7.764  -9.447   7.487  1.00  0.00     0.074 A 
ATOM     49  C   UNL     1       7.326  -9.873   6.178  1.00  0.00     0.031 C 
ATOM     50  C   UNL     1       6.219  -3.203   7.566  1.00  0.00     0.029 A 
ATOM     51  C   UNL     1       6.796  -3.991   8.655  1.00  0.00     0.049 A 
ATOM     52  H   UNL     1       7.311  -6.008   8.611  1.00  0.00     0.167 HD
ATOM     53  C   UNL     1       8.388 -10.257   8.373  1.00  0.00     0.031 A 
ATOM     54  C   UNL     1       7.103  -3.535   9.887  1.00  0.00     0.031 A 
ATOM     55  C   UNL     1       8.795  -9.845   9.688  1.00  0.00     0.049 A 
ATOM     56  C   UNL     1       7.707  -4.482  10.896  1.00  0.00     0.074 A 
ATOM     57  C   UNL     1       9.415 -10.595  10.670  1.00  0.00     0.029 A 
ATOM     58  N   UNL     1       8.612  -8.573  10.206  1.00  0.00    -0.354 N 
ATOM     59  N   UNL     1       8.028  -5.747  10.754  1.00  0.00    -0.248 NA
ATOM     60  C   UNL     1       7.999  -3.935  12.229  1.00  0.00     0.031 C 
ATOM     61  C   UNL     1       9.562  -9.788  11.803  1.00  0.00     0.029 A 
ATOM     62  C   UNL     1       9.090  -8.520  11.503  1.00  0.00     0.049 A 
ATOM     63  H   UNL     1       8.203  -7.819   9.723  1.00  0.00     0.167 HD
ATOM     64  C   UNL     1       8.588  -6.136  11.968  1.00  0.00     0.074 A 
ATOM     65  C   UNL     1       8.575  -4.970  12.826  1.00  0.00     0.031 C 
ATOM     66  C   UNL     1       9.073  -7.347  12.340  1.00  0.00     0.031 A 
BRANCH  53  67
ATOM     67  C   UNL     1       8.632 -11.679   7.950  1.00  0.00    -0.014 A 
ATOM     68  C   UNL     1       9.594 -11.990   6.972  1.00  0.00     0.010 A 
ATOM     69  C   UNL     1       7.898 -12.720   8.546  1.00  0.00     0.010 A 
ATOM     70  C   UNL     1       9.792 -13.314   6.572  1.00  0.00     0.020 A 
ATOM     71  C   UNL     1       8.113 -14.048   8.169  1.00  0.00     0.020 A 
ATOM     72  C   UNL     1       9.049 -14.334   7.172  1.00  0.00     0.054 A 
BRANCH  72  73
ATOM     73  S   UNL     1       9.343 -16.046   6.650  1.00  0.00     0.124 S 
ATOM     74  O   UNL     1       8.733 -16.065   5.323  1.00  0.00    -0.237 OA
ATOM     75  O   UNL     1      10.801 -16.140   6.672  1.00  0.00    -0.237 OA
ATOM     76  O   UNL     1       8.655 -16.841   7.664  1.00  0.00    -0.744 OA
ENDBRANCH  72  73
ENDBRANCH  53  67
BRANCH  54  77
ATOM     77  C   UNL     1       6.827  -2.118  10.256  1.00  0.00    -0.014 A 
ATOM     78  C   UNL     1       7.879  -1.220  10.512  1.00  0.00     0.010 A 
ATOM     79  C   UNL     1       5.500  -1.667  10.389  1.00  0.00     0.010 A 
ATOM     80  C   UNL     1       7.610   0.092  10.916  1.00  0.00     0.020 A 
ATOM     81  C   UNL     1       5.227  -0.349  10.765  1.00  0.00     0.020 A 
ATOM     82  C   UNL     1       6.284   0.519  11.040  1.00  0.00     0.054 A 
BRANCH  82  83
ATOM     83  S   UNL     1       5.959   2.236  11.531  1.00  0.00     0.124 S 
ATOM     84  O   UNL     1       6.299   2.216  12.950  1.00  0.00    -0.237 OA
ATOM     85  O   UNL     1       6.870   2.986  10.671  1.00  0.00    -0.237 OA
ATOM     86  O   UNL     1       4.540   2.413  11.228  1.00  0.00    -0.744 OA
ENDBRANCH  82  83
ENDBRANCH  54  77
BRANCH  66  87
ATOM     87  C   UNL     1       9.672  -7.467  13.718  1.00  0.00    -0.014 A 
ATOM     88  C   UNL     1       8.868  -7.451  14.871  1.00  0.00     0.010 A 
ATOM     89  C   UNL     1      11.060  -7.656  13.853  1.00  0.00     0.010 A 
ATOM     90  C   UNL     1       9.447  -7.585  16.136  1.00  0.00     0.020 A 
ATOM     91  C   UNL     1      11.638  -7.820  15.114  1.00  0.00     0.020 A 
ATOM     92  C   UNL     1      10.829  -7.767  16.250  1.00  0.00     0.054 A 
BRANCH  92  93
ATOM     93  S   UNL     1      11.551  -7.974  17.900  1.00  0.00     0.124 S 
ATOM     94  O   UNL     1      11.489  -6.615  18.431  1.00  0.00    -0.237 OA
ATOM     95  O   UNL     1      10.648  -8.935  18.528  1.00  0.00    -0.237 OA
ATOM     96  O   UNL     1      12.896  -8.476  17.630  1.00  0.00    -0.744 OA
ENDBRANCH  92  93
ENDBRANCH  66  87
ENDBRANCH  40  41
ENDBRANCH  33  35
ENDBRANCH  32  33
ENDBRANCH  31  32
ENDBRANCH  30  31
ENDBRANCH  29  30
ENDBRANCH  28  29
ENDBRANCH  27  28
ENDBRANCH   1  27
TORSDOF 26
