REMARK SMILES O=C(OCCOCCOCCOCCOC(=O)[C@H]1CCCCN1c1ccnc2ccccc12)c1ccc(-c2c3nc(c(-c4ccc(S(=O)(=O)[O-])cc4)c4ccc([nH]4)c(-c4ccc(S(=O)(=O)[O-])cc4)c4nc(c(-c5ccc(S(=O)(=O)[O-])cc5)c5ccc2[nH]5)C=C4)C=C3)cc1
REMARK SMILES IDX 8 1 7 2 6 3 5 4 4 5 3 6 2 7 1 8 34 9 35 10 93 11 36 12 92 13
REMARK SMILES IDX 37 14 38 15 39 16 86 17 40 18 91 19 85 20 87 21 41 22 90 23
REMARK SMILES IDX 84 24 83 25 42 27 72 28 53 29 71 30 54 31 57 32 70 33 88 34
REMARK SMILES IDX 55 35 56 36 69 38 89 39 58 40 43 41 44 42 52 43 45 44 51 45
REMARK SMILES IDX 46 46 47 47 48 48 49 49 50 50 73 51 74 52 82 53 75 54 81 55
REMARK SMILES IDX 76 56 77 57 78 58 79 59 80 60 59 61 60 62 68 63 61 64 67 65
REMARK SMILES IDX 62 66 63 67 64 68 65 69 66 70 9 71 10 72 11 73 12 74 13 75
REMARK SMILES IDX 14 76 15 77 16 78 17 79 18 80 19 81 23 82 20 83 22 84 21 85
REMARK SMILES IDX 24 86 25 87 33 88 26 89 28 90 32 91 27 92 29 93 31 94 30 95
REMARK H PARENT 87 26 57 37
REMARK Flexibility Score: inf
ROOT
ATOM      1  C   UNL     1       3.093   1.453  -8.097  1.00  0.00     0.188 C 
ENDROOT
BRANCH   1   2
ATOM      2  C   UNL     1       1.870   0.585  -7.845  1.00  0.00     0.188 C 
BRANCH   2   3
ATOM      3  O   UNL     1       1.257   0.719  -6.566  1.00  0.00    -0.376 OA
BRANCH   3   4
ATOM      4  C   UNL     1       1.571  -0.240  -5.562  1.00  0.00     0.202 C 
BRANCH   4   5
ATOM      5  C   UNL     1       0.880  -1.599  -5.702  1.00  0.00     0.261 C 
BRANCH   5   6
ATOM      6  O   UNL     1       0.807  -2.083  -7.050  1.00  0.00    -0.460 OA
BRANCH   6   7
ATOM      7  C   UNL     1      -0.071  -1.762  -8.034  1.00  0.00     0.338 C 
ATOM      8  O   UNL     1       0.097  -2.291  -9.134  1.00  0.00    -0.246 OA
BRANCH   7   9
ATOM      9  C   UNL     1      -1.175  -0.750  -7.911  1.00  0.00     0.060 A 
ATOM     10  C   UNL     1      -1.408   0.073  -6.807  1.00  0.00     0.016 A 
ATOM     11  C   UNL     1      -2.010  -0.579  -9.033  1.00  0.00     0.016 A 
ATOM     12  C   UNL     1      -2.390   1.045  -6.807  1.00  0.00     0.010 A 
ATOM     13  C   UNL     1      -3.057   0.350  -9.022  1.00  0.00     0.010 A 
ATOM     14  C   UNL     1      -3.255   1.140  -7.888  1.00  0.00    -0.014 A 
BRANCH  14  15
ATOM     15  C   UNL     1      -4.522   1.825  -7.604  1.00  0.00     0.031 A 
ATOM     16  C   UNL     1      -5.631   0.967  -7.068  1.00  0.00     0.074 A 
ATOM     17  C   UNL     1      -4.567   3.167  -7.575  1.00  0.00     0.049 A 
ATOM     18  N   UNL     1      -6.823   1.305  -6.665  1.00  0.00    -0.248 NA
ATOM     19  C   UNL     1      -5.336  -0.474  -6.924  1.00  0.00     0.031 C 
ATOM     20  C   UNL     1      -3.440   4.058  -7.867  1.00  0.00     0.029 A 
ATOM     21  N   UNL     1      -5.583   4.012  -7.229  1.00  0.00    -0.354 N 
ATOM     22  C   UNL     1      -7.423   0.122  -6.250  1.00  0.00     0.074 A 
ATOM     23  C   UNL     1      -6.470  -0.944  -6.436  1.00  0.00     0.031 C 
ATOM     24  C   UNL     1      -3.829   5.330  -7.676  1.00  0.00     0.029 A 
ATOM     25  C   UNL     1      -5.242   5.341  -7.311  1.00  0.00     0.049 A 
ATOM     26  H   UNL     1      -6.473   3.700  -6.948  1.00  0.00     0.167 HD
ATOM     27  C   UNL     1      -8.675  -0.053  -5.773  1.00  0.00     0.031 A 
ATOM     28  C   UNL     1      -6.013   6.431  -7.139  1.00  0.00     0.031 A 
ATOM     29  C   UNL     1      -9.602   1.034  -5.642  1.00  0.00     0.049 A 
ATOM     30  C   UNL     1      -7.456   6.199  -6.772  1.00  0.00     0.074 A 
ATOM     31  C   UNL     1     -10.934   1.002  -5.285  1.00  0.00     0.029 A 
ATOM     32  N   UNL     1      -9.274   2.364  -5.879  1.00  0.00    -0.354 N 
ATOM     33  N   UNL     1      -8.061   5.067  -6.485  1.00  0.00    -0.248 NA
ATOM     34  C   UNL     1      -8.324   7.379  -6.718  1.00  0.00     0.031 C 
ATOM     35  C   UNL     1     -11.428   2.308  -5.370  1.00  0.00     0.029 A 
ATOM     36  C   UNL     1     -10.385   3.163  -5.704  1.00  0.00     0.049 A 
ATOM     37  H   UNL     1      -8.380   2.689  -6.133  1.00  0.00     0.167 HD
ATOM     38  C   UNL     1      -9.376   5.400  -6.192  1.00  0.00     0.074 A 
ATOM     39  C   UNL     1      -9.471   6.844  -6.321  1.00  0.00     0.031 C 
ATOM     40  C   UNL     1     -10.416   4.599  -5.847  1.00  0.00     0.031 A 
BRANCH  27  41
ATOM     41  C   UNL     1      -9.111  -1.468  -5.507  1.00  0.00    -0.014 A 
ATOM     42  C   UNL     1      -8.601  -2.216  -4.430  1.00  0.00     0.010 A 
ATOM     43  C   UNL     1      -9.999  -2.086  -6.407  1.00  0.00     0.010 A 
ATOM     44  C   UNL     1      -8.931  -3.569  -4.290  1.00  0.00     0.020 A 
ATOM     45  C   UNL     1     -10.352  -3.429  -6.255  1.00  0.00     0.020 A 
ATOM     46  C   UNL     1      -9.799  -4.168  -5.209  1.00  0.00     0.054 A 
BRANCH  46  47
ATOM     47  S   UNL     1     -10.196  -5.928  -5.014  1.00  0.00     0.124 S 
ATOM     48  O   UNL     1      -8.945  -6.566  -5.411  1.00  0.00    -0.237 OA
ATOM     49  O   UNL     1     -10.532  -6.026  -3.599  1.00  0.00    -0.237 OA
ATOM     50  O   UNL     1     -11.318  -6.133  -5.935  1.00  0.00    -0.744 OA
ENDBRANCH  46  47
ENDBRANCH  27  41
BRANCH  28  51
ATOM     51  C   UNL     1      -5.468   7.797  -7.383  1.00  0.00    -0.014 A 
ATOM     52  C   UNL     1      -5.404   8.754  -6.355  1.00  0.00     0.010 A 
ATOM     53  C   UNL     1      -5.020   8.157  -8.669  1.00  0.00     0.010 A 
ATOM     54  C   UNL     1      -4.925  10.045  -6.614  1.00  0.00     0.020 A 
ATOM     55  C   UNL     1      -4.513   9.434  -8.925  1.00  0.00     0.020 A 
ATOM     56  C   UNL     1      -4.483  10.377  -7.898  1.00  0.00     0.054 A 
BRANCH  56  57
ATOM     57  S   UNL     1      -3.850  12.050  -8.207  1.00  0.00     0.124 S 
ATOM     58  O   UNL     1      -5.066  12.854  -8.135  1.00  0.00    -0.237 OA
ATOM     59  O   UNL     1      -2.901  12.236  -7.112  1.00  0.00    -0.237 OA
ATOM     60  O   UNL     1      -3.246  11.949  -9.534  1.00  0.00    -0.744 OA
ENDBRANCH  56  57
ENDBRANCH  28  51
BRANCH  40  61
ATOM     61  C   UNL     1     -11.721   5.277  -5.545  1.00  0.00    -0.014 A 
ATOM     62  C   UNL     1     -12.508   5.836  -6.565  1.00  0.00     0.010 A 
ATOM     63  C   UNL     1     -12.192   5.286  -4.219  1.00  0.00     0.010 A 
ATOM     64  C   UNL     1     -13.733   6.426  -6.258  1.00  0.00     0.020 A 
ATOM     65  C   UNL     1     -13.432   5.844  -3.915  1.00  0.00     0.020 A 
ATOM     66  C   UNL     1     -14.188   6.424  -4.935  1.00  0.00     0.054 A 
BRANCH  66  67
ATOM     67  S   UNL     1     -15.806   7.151  -4.570  1.00  0.00     0.124 S 
ATOM     68  O   UNL     1     -15.529   8.580  -4.688  1.00  0.00    -0.237 OA
ATOM     69  O   UNL     1     -16.654   6.585  -5.616  1.00  0.00    -0.237 OA
ATOM     70  O   UNL     1     -16.100   6.683  -3.217  1.00  0.00    -0.744 OA
ENDBRANCH  66  67
ENDBRANCH  40  61
ENDBRANCH  14  15
ENDBRANCH   7   9
ENDBRANCH   6   7
ENDBRANCH   5   6
ENDBRANCH   4   5
ENDBRANCH   3   4
ENDBRANCH   2   3
ENDBRANCH   1   2
BRANCH   1  71
ATOM     71  O   UNL     1       3.106   2.691  -7.439  1.00  0.00    -0.377 OA
BRANCH  71  72
ATOM     72  C   UNL     1       2.951   2.695  -6.040  1.00  0.00     0.188 C 
BRANCH  72  73
ATOM     73  C   UNL     1       1.831   3.588  -5.508  1.00  0.00     0.188 C 
BRANCH  73  74
ATOM     74  O   UNL     1       1.462   4.773  -6.201  1.00  0.00    -0.376 OA
BRANCH  74  75
ATOM     75  C   UNL     1       2.178   5.187  -7.353  1.00  0.00     0.202 C 
BRANCH  75  76
ATOM     76  C   UNL     1       3.581   5.793  -7.122  1.00  0.00     0.261 C 
BRANCH  76  77
ATOM     77  O   UNL     1       4.579   4.989  -6.438  1.00  0.00    -0.462 OA
BRANCH  77  78
ATOM     78  C   UNL     1       4.681   5.146  -5.083  1.00  0.00     0.328 C 
ATOM     79  O   UNL     1       3.975   5.915  -4.436  1.00  0.00    -0.250 OA
BRANCH  78  80
ATOM     80  C   UNL     1       5.787   4.269  -4.400  1.00  0.00     0.192 C 
ATOM     81  C   UNL     1       5.735   2.731  -4.276  1.00  0.00     0.037 C 
ATOM     82  N   UNL     1       7.120   4.607  -4.894  1.00  0.00    -0.358 N 
ATOM     83  C   UNL     1       6.281   1.961  -5.490  1.00  0.00     0.005 C 
ATOM     84  C   UNL     1       7.610   4.022  -6.127  1.00  0.00     0.117 C 
ATOM     85  C   UNL     1       7.623   2.502  -5.984  1.00  0.00     0.022 C 
BRANCH  82  86
ATOM     86  C   UNL     1       7.866   5.440  -4.084  1.00  0.00     0.048 A 
ATOM     87  C   UNL     1       8.341   4.947  -2.866  1.00  0.00     0.046 A 
ATOM     88  C   UNL     1       8.009   6.811  -4.370  1.00  0.00     0.024 A 
ATOM     89  C   UNL     1       8.942   5.818  -1.986  1.00  0.00     0.114 A 
ATOM     90  C   UNL     1       8.655   7.613  -3.406  1.00  0.00     0.072 A 
ATOM     91  C   UNL     1       7.483   7.408  -5.538  1.00  0.00     0.012 A 
ATOM     92  N   UNL     1       9.124   7.127  -2.241  1.00  0.00    -0.256 NA
ATOM     93  C   UNL     1       8.779   8.970  -3.663  1.00  0.00     0.029 A 
ATOM     94  C   UNL     1       7.608   8.773  -5.763  1.00  0.00     0.001 A 
ATOM     95  C   UNL     1       8.266   9.555  -4.825  1.00  0.00     0.002 A 
ENDBRANCH  82  86
ENDBRANCH  78  80
ENDBRANCH  77  78
ENDBRANCH  76  77
ENDBRANCH  75  76
ENDBRANCH  74  75
ENDBRANCH  73  74
ENDBRANCH  72  73
ENDBRANCH  71  72
ENDBRANCH   1  71
TORSDOF 24
