REMARK SMILES CCc1cc(/C=C/C(=O)OCCOCCOCCOCCOC(=O)c2ccc(-c3c4nc(c(-c5ccc(S(=O)(=O)[O-])cc5)c5ccc([nH]5)c(-c5ccc(S(=O)(=O)[O-])cc5)c5nc(c(-c6ccc(S(=O)(=O)[O-])cc6)c6ccc3[nH]6)C=C5)C=C4)cc2)cc(C(=O)c2ccccc2)c1
REMARK SMILES IDX 16 1 15 2 14 3 13 4 12 5 11 6 10 7 8 8 9 9 7 10 6 11 5 12
REMARK SMILES IDX 3 13 4 14 95 15 86 16 85 17 2 18 1 19 87 20 88 21 89 22
REMARK SMILES IDX 90 23 94 24 91 25 93 26 92 27 17 28 18 29 19 30 20 31 21 32
REMARK SMILES IDX 22 33 23 34 24 35 25 36 26 37 84 38 27 39 83 40 28 41 29 42
REMARK SMILES IDX 30 43 77 44 31 45 82 46 76 47 78 48 32 49 81 50 75 51 74 52
REMARK SMILES IDX 33 54 63 55 44 56 62 57 45 58 48 59 61 60 79 61 46 62 47 63
REMARK SMILES IDX 60 65 80 66 49 67 34 68 35 69 43 70 36 71 42 72 37 73 38 74
REMARK SMILES IDX 39 75 40 76 41 77 64 78 65 79 73 80 66 81 72 82 67 83 68 84
REMARK SMILES IDX 69 85 70 86 71 87 50 88 51 89 59 90 52 91 58 92 53 93 54 94
REMARK SMILES IDX 55 95 56 96 57 97
REMARK H PARENT 78 53 48 64
REMARK Flexibility Score: inf
ROOT
ATOM      1  O   UNL     1      -2.618  -8.089   0.347  1.00  0.00    -0.377 OA
ENDROOT
BRANCH   1   2
ATOM      2  C   UNL     1      -2.524  -7.181  -0.737  1.00  0.00     0.188 C 
BRANCH   2   3
ATOM      3  C   UNL     1      -2.215  -7.758  -2.132  1.00  0.00     0.188 C 
BRANCH   3   4
ATOM      4  O   UNL     1      -2.476  -9.142  -2.249  1.00  0.00    -0.376 OA
BRANCH   4   5
ATOM      5  C   UNL     1      -1.417 -10.080  -2.217  1.00  0.00     0.202 C 
BRANCH   5   6
ATOM      6  C   UNL     1      -0.302 -10.017  -1.159  1.00  0.00     0.261 C 
BRANCH   6   7
ATOM      7  O   UNL     1       0.112  -8.716  -0.736  1.00  0.00    -0.460 OA
BRANCH   7   8
ATOM      8  C   UNL     1       0.965  -8.044  -1.536  1.00  0.00     0.330 C 
ATOM      9  O   UNL     1       1.415  -8.431  -2.603  1.00  0.00    -0.247 OA
BRANCH   8  10
ATOM     10  C   UNL     1       1.149  -6.656  -1.049  1.00  0.00     0.094 C 
ATOM     11  C   UNL     1       0.896  -6.250   0.207  1.00  0.00     0.015 C 
BRANCH  11  12
ATOM     12  C   UNL     1       1.007  -4.852   0.658  1.00  0.00    -0.024 A 
ATOM     13  C   UNL     1       0.859  -2.438   0.243  1.00  0.00    -0.047 A 
ATOM     14  C   UNL     1       0.710  -3.769  -0.185  1.00  0.00     0.011 A 
ATOM     15  C   UNL     1       1.294  -2.208   1.553  1.00  0.00     0.016 A 
ATOM     16  C   UNL     1       1.511  -3.269   2.442  1.00  0.00     0.023 A 
ATOM     17  C   UNL     1       1.368  -4.588   1.985  1.00  0.00     0.020 A 
BRANCH  13  18
ATOM     18  C   UNL     1       0.506  -1.324  -0.718  1.00  0.00     0.032 C 
ATOM     19  C   UNL     1       0.900   0.090  -0.303  1.00  0.00     0.009 C 
ENDBRANCH  13  18
BRANCH  16  20
ATOM     20  C   UNL     1       1.949  -3.047   3.853  1.00  0.00     0.193 C 
ATOM     21  O   UNL     1       2.345  -3.992   4.529  1.00  0.00    -0.289 OA
BRANCH  20  22
ATOM     22  C   UNL     1       1.985  -1.695   4.461  1.00  0.00     0.022 A 
ATOM     23  C   UNL     1       3.159  -1.302   5.114  1.00  0.00     0.012 A 
ATOM     24  C   UNL     1       0.891  -0.824   4.403  1.00  0.00     0.012 A 
ATOM     25  C   UNL     1       3.258  -0.021   5.658  1.00  0.00     0.001 A 
ATOM     26  C   UNL     1       0.998   0.461   4.940  1.00  0.00     0.001 A 
ATOM     27  C   UNL     1       2.183   0.863   5.559  1.00  0.00     0.000 A 
ENDBRANCH  20  22
ENDBRANCH  16  20
ENDBRANCH  11  12
ENDBRANCH   8  10
ENDBRANCH   7   8
ENDBRANCH   6   7
ENDBRANCH   5   6
ENDBRANCH   4   5
ENDBRANCH   3   4
ENDBRANCH   2   3
ENDBRANCH   1   2
BRANCH   1  28
ATOM     28  C   UNL     1      -3.581  -9.143   0.319  1.00  0.00     0.188 C 
BRANCH  28  29
ATOM     29  C   UNL     1      -4.741  -9.197  -0.706  1.00  0.00     0.188 C 
BRANCH  29  30
ATOM     30  O   UNL     1      -4.984  -7.985  -1.402  1.00  0.00    -0.376 OA
BRANCH  30  31
ATOM     31  C   UNL     1      -6.157  -7.261  -1.078  1.00  0.00     0.202 C 
BRANCH  31  32
ATOM     32  C   UNL     1      -6.233  -6.675   0.338  1.00  0.00     0.261 C 
BRANCH  32  33
ATOM     33  O   UNL     1      -6.036  -7.603   1.414  1.00  0.00    -0.460 OA
BRANCH  33  34
ATOM     34  C   UNL     1      -6.973  -8.561   1.575  1.00  0.00     0.338 C 
ATOM     35  O   UNL     1      -7.976  -8.728   0.895  1.00  0.00    -0.246 OA
BRANCH  34  36
ATOM     36  C   UNL     1      -6.492  -9.497   2.609  1.00  0.00     0.060 A 
ATOM     37  C   UNL     1      -6.312 -10.846   2.279  1.00  0.00     0.016 A 
ATOM     38  C   UNL     1      -6.224  -9.040   3.902  1.00  0.00     0.016 A 
ATOM     39  C   UNL     1      -5.910 -11.754   3.259  1.00  0.00     0.010 A 
ATOM     40  C   UNL     1      -5.838  -9.954   4.885  1.00  0.00     0.010 A 
ATOM     41  C   UNL     1      -5.720 -11.321   4.577  1.00  0.00    -0.014 A 
BRANCH  41  42
ATOM     42  C   UNL     1      -5.606 -12.316   5.672  1.00  0.00     0.031 A 
ATOM     43  C   UNL     1      -6.838 -12.623   6.483  1.00  0.00     0.074 A 
ATOM     44  C   UNL     1      -4.448 -12.947   5.932  1.00  0.00     0.049 A 
ATOM     45  N   UNL     1      -6.978 -13.418   7.511  1.00  0.00    -0.248 NA
ATOM     46  C   UNL     1      -8.077 -11.936   6.080  1.00  0.00     0.031 C 
ATOM     47  C   UNL     1      -3.201 -12.771   5.189  1.00  0.00     0.029 A 
ATOM     48  N   UNL     1      -4.135 -13.866   6.903  1.00  0.00    -0.354 N 
ATOM     49  C   UNL     1      -8.313 -13.318   7.885  1.00  0.00     0.074 A 
ATOM     50  C   UNL     1      -8.934 -12.362   6.995  1.00  0.00     0.031 C 
ATOM     51  C   UNL     1      -2.254 -13.553   5.738  1.00  0.00     0.029 A 
ATOM     52  C   UNL     1      -2.816 -14.254   6.891  1.00  0.00     0.049 A 
ATOM     53  H   UNL     1      -4.793 -14.213   7.548  1.00  0.00     0.167 HD
ATOM     54  C   UNL     1      -8.967 -13.968   8.877  1.00  0.00     0.031 A 
ATOM     55  C   UNL     1      -2.138 -15.064   7.729  1.00  0.00     0.031 A 
ATOM     56  C   UNL     1      -8.341 -14.907   9.769  1.00  0.00     0.049 A 
ATOM     57  C   UNL     1      -2.868 -15.716   8.877  1.00  0.00     0.074 A 
ATOM     58  C   UNL     1      -8.918 -15.630  10.798  1.00  0.00     0.029 A 
ATOM     59  N   UNL     1      -6.996 -15.245   9.746  1.00  0.00    -0.354 N 
ATOM     60  N   UNL     1      -4.137 -15.633   9.203  1.00  0.00    -0.248 NA
ATOM     61  C   UNL     1      -2.076 -16.580   9.764  1.00  0.00     0.031 C 
ATOM     62  C   UNL     1      -7.909 -16.354  11.440  1.00  0.00     0.029 A 
ATOM     63  C   UNL     1      -6.718 -16.143  10.762  1.00  0.00     0.049 A 
ATOM     64  H   UNL     1      -6.337 -14.898   9.103  1.00  0.00     0.167 HD
ATOM     65  C   UNL     1      -4.300 -16.461  10.310  1.00  0.00     0.074 A 
ATOM     66  C   UNL     1      -3.004 -17.044  10.590  1.00  0.00     0.031 C 
ATOM     67  C   UNL     1      -5.423 -16.719  11.028  1.00  0.00     0.031 A 
BRANCH  54  68
ATOM     68  C   UNL     1     -10.427 -13.653   9.074  1.00  0.00    -0.014 A 
ATOM     69  C   UNL     1     -11.396 -14.047   8.133  1.00  0.00     0.010 A 
ATOM     70  C   UNL     1     -10.841 -12.980  10.239  1.00  0.00     0.010 A 
ATOM     71  C   UNL     1     -12.745 -13.741   8.336  1.00  0.00     0.020 A 
ATOM     72  C   UNL     1     -12.192 -12.702  10.461  1.00  0.00     0.020 A 
ATOM     73  C   UNL     1     -13.134 -13.070   9.499  1.00  0.00     0.054 A 
BRANCH  73  74
ATOM     74  S   UNL     1     -14.894 -12.711   9.748  1.00  0.00     0.124 S 
ATOM     75  O   UNL     1     -15.136 -11.679   8.743  1.00  0.00    -0.237 OA
ATOM     76  O   UNL     1     -15.524 -14.003   9.485  1.00  0.00    -0.237 OA
ATOM     77  O   UNL     1     -14.965 -12.257  11.135  1.00  0.00    -0.744 OA
ENDBRANCH  73  74
ENDBRANCH  54  68
BRANCH  55  78
ATOM     78  C   UNL     1      -0.679 -15.294   7.526  1.00  0.00    -0.014 A 
ATOM     79  C   UNL     1      -0.195 -16.559   7.149  1.00  0.00     0.010 A 
ATOM     80  C   UNL     1       0.238 -14.244   7.716  1.00  0.00     0.010 A 
ATOM     81  C   UNL     1       1.177 -16.774   6.983  1.00  0.00     0.020 A 
ATOM     82  C   UNL     1       1.607 -14.445   7.519  1.00  0.00     0.020 A 
ATOM     83  C   UNL     1       2.069 -15.713   7.164  1.00  0.00     0.054 A 
BRANCH  83  84
ATOM     84  S   UNL     1       3.839 -16.005   6.890  1.00  0.00     0.124 S 
ATOM     85  O   UNL     1       4.191 -16.841   8.033  1.00  0.00    -0.237 OA
ATOM     86  O   UNL     1       3.849 -16.672   5.590  1.00  0.00    -0.237 OA
ATOM     87  O   UNL     1       4.413 -14.662   6.897  1.00  0.00    -0.744 OA
ENDBRANCH  83  84
ENDBRANCH  55  78
BRANCH  67  88
ATOM     88  C   UNL     1      -5.320 -17.713  12.157  1.00  0.00    -0.014 A 
ATOM     89  C   UNL     1      -4.626 -17.413  13.343  1.00  0.00     0.010 A 
ATOM     90  C   UNL     1      -5.988 -18.948  12.051  1.00  0.00     0.010 A 
ATOM     91  C   UNL     1      -4.574 -18.343  14.386  1.00  0.00     0.020 A 
ATOM     92  C   UNL     1      -5.967 -19.865  13.104  1.00  0.00     0.020 A 
ATOM     93  C   UNL     1      -5.247 -19.562  14.261  1.00  0.00     0.054 A 
BRANCH  93  94
ATOM     94  S   UNL     1      -5.202 -20.731  15.647  1.00  0.00     0.124 S 
ATOM     95  O   UNL     1      -3.820 -21.202  15.603  1.00  0.00    -0.237 OA
ATOM     96  O   UNL     1      -5.542 -19.886  16.789  1.00  0.00    -0.237 OA
ATOM     97  O   UNL     1      -6.210 -21.728  15.295  1.00  0.00    -0.744 OA
ENDBRANCH  93  94
ENDBRANCH  67  88
ENDBRANCH  41  42
ENDBRANCH  34  36
ENDBRANCH  33  34
ENDBRANCH  32  33
ENDBRANCH  31  32
ENDBRANCH  30  31
ENDBRANCH  29  30
ENDBRANCH  28  29
ENDBRANCH   1  28
TORSDOF 27
