REMARK SMILES C[C@H]1CCC[C@@H]1n1c(SCC(=O)OCCOCCOCCOCCOC(=O)c2ccc(-c3c4nc(c(-c5ccc(S(=O)(=O)[O-])cc5)c5ccc([nH]5)c(-c5ccc(S(=O)(=O)[O-])cc5)c5nc(c(-c6ccc(S(=O)(=O)[O-])cc6)c6ccc3[nH]6)C=C5)C=C4)cc2)nc2cnccc21
REMARK SMILES IDX 19 1 18 2 17 3 16 4 15 5 14 6 13 7 11 8 12 9 10 10 9 11 8 12
REMARK SMILES IDX 7 13 94 14 88 15 89 16 93 17 90 18 92 19 91 20 6 21 1 22
REMARK SMILES IDX 2 23 3 24 4 25 5 26 20 27 21 28 22 29 23 30 24 31 25 32
REMARK SMILES IDX 26 33 27 34 28 35 29 36 87 37 30 38 86 39 31 40 32 41 33 42
REMARK SMILES IDX 80 43 34 44 85 45 79 46 81 47 35 48 84 49 78 50 77 51 36 53
REMARK SMILES IDX 66 54 47 55 65 56 48 57 51 58 64 59 82 60 49 61 50 62 63 64
REMARK SMILES IDX 83 65 52 66 37 67 38 68 46 69 39 70 45 71 40 72 41 73 42 74
REMARK SMILES IDX 43 75 44 76 67 77 68 78 76 79 69 80 75 81 70 82 71 83 72 84
REMARK SMILES IDX 73 85 74 86 53 87 54 88 62 89 55 90 61 91 56 92 57 93 58 94
REMARK SMILES IDX 59 95 60 96
REMARK H PARENT 81 52 51 63
REMARK Flexibility Score: inf
ROOT
ATOM      1  O   UNL     1       1.400   2.944  -2.313  1.00  0.00    -0.377 OA
ENDROOT
BRANCH   1   2
ATOM      2  C   UNL     1       0.112   2.473  -2.029  1.00  0.00     0.188 C 
BRANCH   2   3
ATOM      3  C   UNL     1       0.023   0.952  -1.969  1.00  0.00     0.188 C 
BRANCH   3   4
ATOM      4  O   UNL     1      -0.052   0.308  -3.221  1.00  0.00    -0.376 OA
BRANCH   4   5
ATOM      5  C   UNL     1      -1.183   0.491  -4.061  1.00  0.00     0.202 C 
BRANCH   5   6
ATOM      6  C   UNL     1      -2.473   1.273  -3.707  1.00  0.00     0.261 C 
BRANCH   6   7
ATOM      7  O   UNL     1      -2.514   2.165  -2.575  1.00  0.00    -0.463 OA
BRANCH   7   8
ATOM      8  C   UNL     1      -3.046   1.664  -1.428  1.00  0.00     0.316 C 
ATOM      9  O   UNL     1      -3.266   0.470  -1.255  1.00  0.00    -0.251 OA
BRANCH   8  10
ATOM     10  C   UNL     1      -3.401   2.745  -0.425  1.00  0.00     0.200 C 
BRANCH  10  11
ATOM     11  S   UNL     1      -2.502   3.212   1.091  1.00  0.00    -0.076 SA
BRANCH  11  12
ATOM     12  C   UNL     1      -0.757   3.128   1.165  1.00  0.00     0.169 A 
ATOM     13  N   UNL     1       0.047   2.020   1.506  1.00  0.00    -0.315 N 
ATOM     14  C   UNL     1       1.357   2.511   1.644  1.00  0.00     0.072 A 
ATOM     15  N   UNL     1      -0.056   4.247   1.248  1.00  0.00    -0.221 NA
ATOM     16  C   UNL     1       1.237   3.898   1.554  1.00  0.00     0.108 A 
ATOM     17  C   UNL     1       2.625   1.944   1.847  1.00  0.00     0.049 A 
ATOM     18  C   UNL     1       2.370   4.705   1.769  1.00  0.00     0.141 A 
ATOM     19  C   UNL     1       3.688   2.815   2.046  1.00  0.00     0.113 A 
ATOM     20  N   UNL     1       3.588   4.155   2.030  1.00  0.00    -0.262 NA
BRANCH  13  21
ATOM     21  C   UNL     1      -0.390   0.669   1.925  1.00  0.00     0.093 C 
ATOM     22  C   UNL     1       1.469  -0.889   2.833  1.00  0.00     0.010 C 
ATOM     23  C   UNL     1       0.576  -0.517   1.647  1.00  0.00     0.009 C 
ATOM     24  C   UNL     1      -0.299  -1.735   1.326  1.00  0.00     0.005 C 
ATOM     25  C   UNL     1      -1.538  -1.185   0.691  1.00  0.00     0.002 C 
ATOM     26  C   UNL     1      -1.690   0.203   1.274  1.00  0.00     0.026 C 
ENDBRANCH  13  21
ENDBRANCH  11  12
ENDBRANCH  10  11
ENDBRANCH   8  10
ENDBRANCH   7   8
ENDBRANCH   6   7
ENDBRANCH   5   6
ENDBRANCH   4   5
ENDBRANCH   3   4
ENDBRANCH   2   3
ENDBRANCH   1   2
BRANCH   1  27
ATOM     27  C   UNL     1       1.876   2.468  -3.548  1.00  0.00     0.188 C 
BRANCH  27  28
ATOM     28  C   UNL     1       2.921   1.358  -3.401  1.00  0.00     0.188 C 
BRANCH  28  29
ATOM     29  O   UNL     1       3.913   1.368  -2.373  1.00  0.00    -0.376 OA
BRANCH  29  30
ATOM     30  C   UNL     1       3.912   2.404  -1.406  1.00  0.00     0.202 C 
BRANCH  30  31
ATOM     31  C   UNL     1       4.519   3.752  -1.838  1.00  0.00     0.261 C 
BRANCH  31  32
ATOM     32  O   UNL     1       4.173   4.140  -3.175  1.00  0.00    -0.460 OA
BRANCH  32  33
ATOM     33  C   UNL     1       5.149   4.177  -4.116  1.00  0.00     0.338 C 
ATOM     34  O   UNL     1       6.355   4.235  -3.932  1.00  0.00    -0.246 OA
BRANCH  33  35
ATOM     35  C   UNL     1       4.503   3.793  -5.397  1.00  0.00     0.060 A 
ATOM     36  C   UNL     1       3.302   4.383  -5.800  1.00  0.00     0.016 A 
ATOM     37  C   UNL     1       4.918   2.574  -5.955  1.00  0.00     0.016 A 
ATOM     38  C   UNL     1       2.418   3.628  -6.572  1.00  0.00     0.010 A 
ATOM     39  C   UNL     1       4.033   1.830  -6.740  1.00  0.00     0.010 A 
ATOM     40  C   UNL     1       2.745   2.313  -6.971  1.00  0.00    -0.014 A 
BRANCH  40  41
ATOM     41  C   UNL     1       1.768   1.609  -7.820  1.00  0.00     0.031 A 
ATOM     42  C   UNL     1       1.499   2.371  -9.068  1.00  0.00     0.074 A 
ATOM     43  C   UNL     1       1.241   0.371  -7.703  1.00  0.00     0.049 A 
ATOM     44  N   UNL     1       0.380   2.842  -9.511  1.00  0.00    -0.248 NA
ATOM     45  C   UNL     1       2.692   2.786  -9.823  1.00  0.00     0.031 C 
ATOM     46  C   UNL     1       1.602  -0.700  -6.775  1.00  0.00     0.029 A 
ATOM     47  N   UNL     1       0.313  -0.229  -8.518  1.00  0.00    -0.354 N 
ATOM     48  C   UNL     1       0.712   3.529 -10.672  1.00  0.00     0.074 A 
ATOM     49  C   UNL     1       2.151   3.599 -10.722  1.00  0.00     0.031 C 
ATOM     50  C   UNL     1       1.094  -1.870  -7.233  1.00  0.00     0.029 A 
ATOM     51  C   UNL     1       0.278  -1.614  -8.412  1.00  0.00     0.049 A 
ATOM     52  H   UNL     1      -0.275   0.277  -9.125  1.00  0.00     0.167 HD
ATOM     53  C   UNL     1      -0.183   3.884 -11.630  1.00  0.00     0.031 A 
ATOM     54  C   UNL     1      -0.285  -2.485  -9.292  1.00  0.00     0.031 A 
ATOM     55  C   UNL     1      -1.540   3.835 -11.179  1.00  0.00     0.049 A 
ATOM     56  C   UNL     1      -1.240  -1.736 -10.148  1.00  0.00     0.074 A 
ATOM     57  C   UNL     1      -2.251   4.513 -10.210  1.00  0.00     0.029 A 
ATOM     58  N   UNL     1      -2.297   2.737 -11.509  1.00  0.00    -0.354 N 
ATOM     59  N   UNL     1      -2.372  -1.239  -9.738  1.00  0.00    -0.248 NA
ATOM     60  C   UNL     1      -0.763  -1.226 -11.423  1.00  0.00     0.031 C 
ATOM     61  C   UNL     1      -3.158   3.556  -9.678  1.00  0.00     0.029 A 
ATOM     62  C   UNL     1      -2.982   2.360 -10.379  1.00  0.00     0.049 A 
ATOM     63  H   UNL     1      -2.341   2.302 -12.391  1.00  0.00     0.167 HD
ATOM     64  C   UNL     1      -2.544  -0.077 -10.478  1.00  0.00     0.074 A 
ATOM     65  C   UNL     1      -1.579  -0.180 -11.567  1.00  0.00     0.031 C 
ATOM     66  C   UNL     1      -3.262   0.983  -9.998  1.00  0.00     0.031 A 
BRANCH  53  67
ATOM     67  C   UNL     1       0.228   4.052 -13.061  1.00  0.00    -0.014 A 
ATOM     68  C   UNL     1       1.358   3.385 -13.586  1.00  0.00     0.010 A 
ATOM     69  C   UNL     1      -0.594   4.739 -13.967  1.00  0.00     0.010 A 
ATOM     70  C   UNL     1       1.717   3.476 -14.926  1.00  0.00     0.020 A 
ATOM     71  C   UNL     1      -0.275   4.786 -15.333  1.00  0.00     0.020 A 
ATOM     72  C   UNL     1       0.891   4.172 -15.797  1.00  0.00     0.054 A 
BRANCH  72  73
ATOM     73  S   UNL     1       1.333   4.171 -17.550  1.00  0.00     0.124 S 
ATOM     74  O   UNL     1       2.493   5.058 -17.566  1.00  0.00    -0.237 OA
ATOM     75  O   UNL     1       1.616   2.761 -17.801  1.00  0.00    -0.237 OA
ATOM     76  O   UNL     1       0.136   4.692 -18.204  1.00  0.00    -0.744 OA
ENDBRANCH  72  73
ENDBRANCH  53  67
BRANCH  54  77
ATOM     77  C   UNL     1       0.237  -3.817  -9.707  1.00  0.00    -0.014 A 
ATOM     78  C   UNL     1       1.617  -4.089  -9.611  1.00  0.00     0.010 A 
ATOM     79  C   UNL     1      -0.548  -4.700 -10.478  1.00  0.00     0.010 A 
ATOM     80  C   UNL     1       2.206  -5.146 -10.311  1.00  0.00     0.020 A 
ATOM     81  C   UNL     1       0.038  -5.763 -11.190  1.00  0.00     0.020 A 
ATOM     82  C   UNL     1       1.419  -5.953 -11.130  1.00  0.00     0.054 A 
BRANCH  82  83
ATOM     83  S   UNL     1       2.257  -7.176 -12.179  1.00  0.00     0.124 S 
ATOM     84  O   UNL     1       2.984  -6.323 -13.115  1.00  0.00    -0.237 OA
ATOM     85  O   UNL     1       3.086  -7.900 -11.218  1.00  0.00    -0.237 OA
ATOM     86  O   UNL     1       1.160  -7.948 -12.757  1.00  0.00    -0.744 OA
ENDBRANCH  82  83
ENDBRANCH  54  77
BRANCH  66  87
ATOM     87  C   UNL     1      -4.163   0.798  -8.787  1.00  0.00    -0.014 A 
ATOM     88  C   UNL     1      -5.418   1.442  -8.797  1.00  0.00     0.010 A 
ATOM     89  C   UNL     1      -3.744   0.197  -7.586  1.00  0.00     0.010 A 
ATOM     90  C   UNL     1      -6.180   1.569  -7.632  1.00  0.00     0.020 A 
ATOM     91  C   UNL     1      -4.537   0.261  -6.432  1.00  0.00     0.020 A 
ATOM     92  C   UNL     1      -5.720   0.999  -6.446  1.00  0.00     0.054 A 
BRANCH  92  93
ATOM     93  S   UNL     1      -6.628   1.343  -4.915  1.00  0.00     0.124 S 
ATOM     94  O   UNL     1      -6.562   2.801  -4.834  1.00  0.00    -0.237 OA
ATOM     95  O   UNL     1      -7.949   0.787  -5.193  1.00  0.00    -0.237 OA
ATOM     96  O   UNL     1      -5.861   0.647  -3.885  1.00  0.00    -0.744 OA
ENDBRANCH  92  93
ENDBRANCH  66  87
ENDBRANCH  40  41
ENDBRANCH  33  35
ENDBRANCH  32  33
ENDBRANCH  31  32
ENDBRANCH  30  31
ENDBRANCH  29  30
ENDBRANCH  28  29
ENDBRANCH  27  28
ENDBRANCH   1  27
TORSDOF 26
