REMARK SMILES Cc1ccc(NS(=O)(=O)N2CCCC[C@@H]2C(=O)OCCOCCOCCOCCOC(=O)c2ccc(-c3c4nc(c(-c5ccc(S(=O)(=O)[O-])cc5)c5ccc([nH]5)c(-c5ccc(S(=O)(=O)[O-])cc5)c5nc(c(-c6ccc(S(=O)(=O)[O-])cc6)c6ccc3[nH]6)C=C5)C=C4)cc2)c(C)n1
REMARK SMILES IDX 24 1 23 2 22 3 21 4 20 5 19 6 18 7 16 8 17 9 15 10 10 11
REMARK SMILES IDX 11 12 12 13 14 14 13 15 7 16 8 17 9 18 6 19 5 21 1 22 2 23
REMARK SMILES IDX 3 24 95 25 4 26 93 27 94 28 25 29 26 30 27 31 28 32 29 33
REMARK SMILES IDX 30 34 31 35 32 36 33 37 34 38 92 39 35 40 91 41 36 42 37 43
REMARK SMILES IDX 38 44 85 45 39 46 90 47 84 48 86 49 40 50 89 51 83 52 82 53
REMARK SMILES IDX 41 55 71 56 52 57 70 58 53 59 56 60 69 61 87 62 54 63 55 64
REMARK SMILES IDX 68 66 88 67 57 68 42 69 43 70 51 71 44 72 50 73 45 74 46 75
REMARK SMILES IDX 47 76 48 77 49 78 72 79 73 80 81 81 74 82 80 83 75 84 76 85
REMARK SMILES IDX 77 86 78 87 79 88 58 89 59 90 67 91 60 92 66 93 61 94 62 95
REMARK SMILES IDX 63 96 64 97 65 98
REMARK H PARENT 6 20 86 54 56 65
REMARK Flexibility Score: inf
ROOT
ATOM      1  O   UNL     1      -0.057   1.104  -3.095  1.00  0.00    -0.377 OA
ENDROOT
BRANCH   1   2
ATOM      2  C   UNL     1       1.040   1.540  -3.876  1.00  0.00     0.188 C 
BRANCH   2   3
ATOM      3  C   UNL     1       1.711   0.442  -4.718  1.00  0.00     0.188 C 
BRANCH   3   4
ATOM      4  O   UNL     1       1.092  -0.823  -4.851  1.00  0.00    -0.376 OA
BRANCH   4   5
ATOM      5  C   UNL     1       0.569  -1.496  -3.724  1.00  0.00     0.202 C 
BRANCH   5   6
ATOM      6  C   UNL     1       1.104  -1.349  -2.289  1.00  0.00     0.261 C 
BRANCH   6   7
ATOM      7  O   UNL     1       1.899  -0.221  -1.896  1.00  0.00    -0.462 OA
BRANCH   7   8
ATOM      8  C   UNL     1       3.243  -0.366  -1.957  1.00  0.00     0.324 C 
ATOM      9  O   UNL     1       3.794  -1.306  -2.521  1.00  0.00    -0.250 OA
BRANCH   8  10
ATOM     10  C   UNL     1       4.010   0.742  -1.219  1.00  0.00     0.184 C 
ATOM     11  N   UNL     1       4.173   0.589   0.259  1.00  0.00    -0.170 NA
ATOM     12  C   UNL     1       5.264   1.484   0.731  1.00  0.00     0.105 C 
ATOM     13  C   UNL     1       4.778   2.926   0.643  1.00  0.00     0.017 C 
ATOM     14  C   UNL     1       3.479   2.175  -1.448  1.00  0.00     0.032 C 
ATOM     15  C   UNL     1       4.285   3.282  -0.754  1.00  0.00     0.004 C 
BRANCH  11  16
ATOM     16  S   UNL     1       4.181  -0.945   0.937  1.00  0.00     0.302 S 
ATOM     17  O   UNL     1       4.370  -0.833   2.360  1.00  0.00    -0.189 OA
ATOM     18  O   UNL     1       5.095  -1.751   0.156  1.00  0.00    -0.189 OA
BRANCH  16  19
ATOM     19  N   UNL     1       2.663  -1.541   0.673  1.00  0.00    -0.269 N 
ATOM     20  H   UNL     1       2.616  -2.352   0.116  1.00  0.00     0.181 HD
BRANCH  19  21
ATOM     21  C   UNL     1       1.393  -1.035   1.145  1.00  0.00     0.071 A 
ATOM     22  C   UNL     1      -2.522   0.527   0.646  1.00  0.00     0.067 C 
ATOM     23  C   UNL     1      -1.221  -0.110   0.990  1.00  0.00     0.038 A 
ATOM     24  C   UNL     1      -0.994  -1.457   0.807  1.00  0.00     0.026 A 
ATOM     25  N   UNL     1      -0.245   0.729   1.376  1.00  0.00    -0.256 NA
ATOM     26  C   UNL     1       0.322  -1.913   0.885  1.00  0.00     0.030 A 
ATOM     27  C   UNL     1       1.033   0.271   1.488  1.00  0.00     0.062 A 
ATOM     28  C   UNL     1       1.925   1.351   1.977  1.00  0.00     0.069 C 
ENDBRANCH  19  21
ENDBRANCH  16  19
ENDBRANCH  11  16
ENDBRANCH   8  10
ENDBRANCH   7   8
ENDBRANCH   6   7
ENDBRANCH   5   6
ENDBRANCH   4   5
ENDBRANCH   3   4
ENDBRANCH   2   3
ENDBRANCH   1   2
BRANCH   1  29
ATOM     29  C   UNL     1      -1.335   1.486  -3.571  1.00  0.00     0.188 C 
BRANCH  29  30
ATOM     30  C   UNL     1      -1.590   1.175  -5.055  1.00  0.00     0.188 C 
BRANCH  30  31
ATOM     31  O   UNL     1      -0.595   1.698  -5.927  1.00  0.00    -0.376 OA
BRANCH  31  32
ATOM     32  C   UNL     1      -0.774   2.965  -6.537  1.00  0.00     0.202 C 
BRANCH  32  33
ATOM     33  C   UNL     1      -0.937   4.221  -5.660  1.00  0.00     0.261 C 
BRANCH  33  34
ATOM     34  O   UNL     1      -1.979   4.211  -4.676  1.00  0.00    -0.460 OA
BRANCH  34  35
ATOM     35  C   UNL     1      -3.236   3.946  -5.088  1.00  0.00     0.338 C 
ATOM     36  O   UNL     1      -3.607   3.764  -6.232  1.00  0.00    -0.246 OA
BRANCH  35  37
ATOM     37  C   UNL     1      -4.064   3.710  -3.886  1.00  0.00     0.060 A 
ATOM     38  C   UNL     1      -4.724   2.482  -3.745  1.00  0.00     0.016 A 
ATOM     39  C   UNL     1      -4.206   4.705  -2.916  1.00  0.00     0.016 A 
ATOM     40  C   UNL     1      -5.574   2.266  -2.661  1.00  0.00     0.010 A 
ATOM     41  C   UNL     1      -5.079   4.497  -1.845  1.00  0.00     0.010 A 
ATOM     42  C   UNL     1      -5.800   3.295  -1.739  1.00  0.00    -0.014 A 
BRANCH  42  43
ATOM     43  C   UNL     1      -6.950   3.201  -0.807  1.00  0.00     0.031 A 
ATOM     44  C   UNL     1      -8.227   3.890  -1.191  1.00  0.00     0.074 A 
ATOM     45  C   UNL     1      -6.884   2.490   0.332  1.00  0.00     0.049 A 
ATOM     46  N   UNL     1      -9.338   3.998  -0.515  1.00  0.00    -0.248 NA
ATOM     47  C   UNL     1      -8.254   4.539  -2.513  1.00  0.00     0.031 C 
ATOM     48  C   UNL     1      -5.722   1.725   0.760  1.00  0.00     0.029 A 
ATOM     49  N   UNL     1      -7.799   2.291   1.333  1.00  0.00    -0.354 N 
ATOM     50  C   UNL     1     -10.197   4.727  -1.326  1.00  0.00     0.074 A 
ATOM     51  C   UNL     1      -9.468   5.068  -2.528  1.00  0.00     0.031 C 
ATOM     52  C   UNL     1      -5.980   1.144   1.944  1.00  0.00     0.029 A 
ATOM     53  C   UNL     1      -7.319   1.530   2.376  1.00  0.00     0.049 A 
ATOM     54  H   UNL     1      -8.712   2.657   1.309  1.00  0.00     0.167 HD
ATOM     55  C   UNL     1     -11.483   5.071  -1.093  1.00  0.00     0.031 A 
ATOM     56  C   UNL     1      -7.889   1.208   3.555  1.00  0.00     0.031 A 
ATOM     57  C   UNL     1     -12.193   4.742   0.114  1.00  0.00     0.049 A 
ATOM     58  C   UNL     1      -9.283   1.707   3.838  1.00  0.00     0.074 A 
ATOM     59  C   UNL     1     -13.493   5.063   0.459  1.00  0.00     0.029 A 
ATOM     60  N   UNL     1     -11.663   4.019   1.172  1.00  0.00    -0.354 N 
ATOM     61  N   UNL     1     -10.084   2.400   3.062  1.00  0.00    -0.248 NA
ATOM     62  C   UNL     1      -9.855   1.378   5.151  1.00  0.00     0.031 C 
ATOM     63  C   UNL     1     -13.731   4.583   1.750  1.00  0.00     0.029 A 
ATOM     64  C   UNL     1     -12.604   3.900   2.180  1.00  0.00     0.049 A 
ATOM     65  H   UNL     1     -10.752   3.646   1.202  1.00  0.00     0.167 HD
ATOM     66  C   UNL     1     -11.267   2.551   3.777  1.00  0.00     0.074 A 
ATOM     67  C   UNL     1     -11.082   1.865   5.040  1.00  0.00     0.031 C 
ATOM     68  C   UNL     1     -12.404   3.199   3.423  1.00  0.00     0.031 A 
BRANCH  55  69
ATOM     69  C   UNL     1     -12.194   5.860  -2.156  1.00  0.00    -0.014 A 
ATOM     70  C   UNL     1     -12.563   5.265  -3.376  1.00  0.00     0.010 A 
ATOM     71  C   UNL     1     -12.543   7.201  -1.913  1.00  0.00     0.010 A 
ATOM     72  C   UNL     1     -13.251   6.003  -4.341  1.00  0.00     0.020 A 
ATOM     73  C   UNL     1     -13.257   7.933  -2.864  1.00  0.00     0.020 A 
ATOM     74  C   UNL     1     -13.600   7.331  -4.076  1.00  0.00     0.054 A 
BRANCH  74  75
ATOM     75  S   UNL     1     -14.545   8.243  -5.325  1.00  0.00     0.124 S 
ATOM     76  O   UNL     1     -13.556   8.411  -6.388  1.00  0.00    -0.237 OA
ATOM     77  O   UNL     1     -15.641   7.326  -5.626  1.00  0.00    -0.237 OA
ATOM     78  O   UNL     1     -14.934   9.472  -4.638  1.00  0.00    -0.744 OA
ENDBRANCH  74  75
ENDBRANCH  55  69
BRANCH  56  79
ATOM     79  C   UNL     1      -7.150   0.405   4.572  1.00  0.00    -0.014 A 
ATOM     80  C   UNL     1      -7.617  -0.864   4.963  1.00  0.00     0.010 A 
ATOM     81  C   UNL     1      -6.006   0.929   5.202  1.00  0.00     0.010 A 
ATOM     82  C   UNL     1      -6.984  -1.569   5.993  1.00  0.00     0.020 A 
ATOM     83  C   UNL     1      -5.349   0.212   6.207  1.00  0.00     0.020 A 
ATOM     84  C   UNL     1      -5.856  -1.023   6.612  1.00  0.00     0.054 A 
BRANCH  84  85
ATOM     85  S   UNL     1      -5.058  -1.954   7.950  1.00  0.00     0.124 S 
ATOM     86  O   UNL     1      -6.035  -1.835   9.027  1.00  0.00    -0.237 OA
ATOM     87  O   UNL     1      -4.920  -3.285   7.364  1.00  0.00    -0.237 OA
ATOM     88  O   UNL     1      -3.801  -1.240   8.162  1.00  0.00    -0.744 OA
ENDBRANCH  84  85
ENDBRANCH  56  79
BRANCH  68  89
ATOM     89  C   UNL     1     -13.562   3.145   4.385  1.00  0.00    -0.014 A 
ATOM     90  C   UNL     1     -13.535   3.841   5.606  1.00  0.00     0.010 A 
ATOM     91  C   UNL     1     -14.719   2.428   4.029  1.00  0.00     0.010 A 
ATOM     92  C   UNL     1     -14.632   3.791   6.470  1.00  0.00     0.020 A 
ATOM     93  C   UNL     1     -15.831   2.404   4.873  1.00  0.00     0.020 A 
ATOM     94  C   UNL     1     -15.774   3.075   6.096  1.00  0.00     0.054 A 
BRANCH  94  95
ATOM     95  S   UNL     1     -17.201   3.066   7.214  1.00  0.00     0.124 S 
ATOM     96  O   UNL     1     -16.726   2.222   8.307  1.00  0.00    -0.237 OA
ATOM     97  O   UNL     1     -17.362   4.482   7.537  1.00  0.00    -0.237 OA
ATOM     98  O   UNL     1     -18.273   2.492   6.405  1.00  0.00    -0.744 OA
ENDBRANCH  94  95
ENDBRANCH  68  89
ENDBRANCH  42  43
ENDBRANCH  35  37
ENDBRANCH  34  35
ENDBRANCH  33  34
ENDBRANCH  32  33
ENDBRANCH  31  32
ENDBRANCH  30  31
ENDBRANCH  29  30
ENDBRANCH   1  29
TORSDOF 26
