REMARK SMILES CC(C)Cc1s/c(=N/C(=O)CCC(=O)Nc2nccs2)[nH]c1C(=O)OCCOCCOCCOCCOC(=O)c1ccc(-c2c3nc(c(-c4ccc(S(=O)(=O)[O-])cc4)c4ccc([nH]4)c(-c4ccc(S(=O)(=O)[O-])cc4)c4nc(c(-c5ccc(S(=O)(=O)[O-])cc5)c5ccc2[nH]5)C=C4)C=C3)cc1
REMARK SMILES IDX 30 1 29 2 28 3 27 4 26 5 25 6 23 7 24 8 22 9 5 10 6 11 7 12
REMARK SMILES IDX 21 13 8 14 4 16 2 17 1 18 3 19 9 20 10 21 11 22 12 23 13 24
REMARK SMILES IDX 14 25 15 26 16 28 17 29 20 30 18 31 19 32 31 33 32 34 33 35
REMARK SMILES IDX 34 36 35 37 36 38 37 39 38 40 39 41 40 42 41 43 99 44 42 45
REMARK SMILES IDX 98 46 43 47 44 48 45 49 92 50 46 51 97 52 91 53 93 54 47 55
REMARK SMILES IDX 96 56 90 57 89 58 48 60 78 61 59 62 77 63 60 64 63 65 76 66
REMARK SMILES IDX 94 67 61 68 62 69 75 71 95 72 64 73 49 74 50 75 58 76 51 77
REMARK SMILES IDX 57 78 52 79 53 80 54 81 55 82 56 83 79 84 80 85 88 86 81 87
REMARK SMILES IDX 87 88 82 89 83 90 84 91 85 92 86 93 65 94 66 95 74 96 67 97
REMARK SMILES IDX 73 98 68 99 69 100 70 101 71 102 72 103
REMARK H PARENT 21 15 15 27 93 59 63 70
REMARK Flexibility Score: inf
ROOT
ATOM      1  C   UNL     1      -4.214  -2.053  -2.144  1.00  0.00     0.188 C 
ENDROOT
BRANCH   1   2
ATOM      2  C   UNL     1      -4.203  -1.978  -3.684  1.00  0.00     0.188 C 
BRANCH   2   3
ATOM      3  O   UNL     1      -4.105  -3.146  -4.484  1.00  0.00    -0.376 OA
BRANCH   3   4
ATOM      4  C   UNL     1      -3.255  -4.235  -4.157  1.00  0.00     0.202 C 
BRANCH   4   5
ATOM      5  C   UNL     1      -1.848  -4.071  -3.551  1.00  0.00     0.261 C 
BRANCH   5   6
ATOM      6  O   UNL     1      -1.534  -2.806  -2.973  1.00  0.00    -0.459 OA
BRANCH   6   7
ATOM      7  C   UNL     1      -1.009  -1.878  -3.796  1.00  0.00     0.356 C 
ATOM      8  O   UNL     1      -0.745  -2.025  -4.981  1.00  0.00    -0.244 OA
BRANCH   7   9
ATOM      9  C   UNL     1      -0.997  -0.544  -3.130  1.00  0.00     0.140 A 
ATOM     10  C   UNL     1      -0.857  -0.253  -1.817  1.00  0.00     0.039 A 
ATOM     11  S   UNL     1      -0.969   1.504  -1.565  1.00  0.00    -0.101 S 
ATOM     12  C   UNL     1      -1.189   1.787  -3.310  1.00  0.00     0.190 A 
ATOM     13  N   UNL     1      -1.183   0.574  -3.927  1.00  0.00    -0.325 N 
ATOM     14  N   UNL     1      -1.343   2.992  -3.713  1.00  0.00    -0.185 NA
ATOM     15  H   UNL     1      -1.305   0.494  -4.900  1.00  0.00     0.169 HD
BRANCH  10  16
ATOM     16  C   UNL     1      -0.651  -1.153  -0.631  1.00  0.00     0.052 C 
BRANCH  16  17
ATOM     17  C   UNL     1       0.839  -1.443  -0.370  1.00  0.00    -0.012 C 
ATOM     18  C   UNL     1       1.579  -0.212   0.162  1.00  0.00     0.008 C 
ATOM     19  C   UNL     1       0.992  -2.600   0.618  1.00  0.00     0.008 C 
ENDBRANCH  16  17
ENDBRANCH  10  16
BRANCH  14  20
ATOM     20  C   UNL     1      -1.669   3.196  -5.026  1.00  0.00     0.248 C 
ATOM     21  O   UNL     1      -1.718   2.317  -5.886  1.00  0.00    -0.273 OA
BRANCH  20  22
ATOM     22  C   UNL     1      -1.881   4.655  -5.385  1.00  0.00     0.112 C 
BRANCH  22  23
ATOM     23  C   UNL     1      -2.936   5.427  -4.600  1.00  0.00     0.110 C 
BRANCH  23  24
ATOM     24  C   UNL     1      -2.771   5.427  -3.091  1.00  0.00     0.226 C 
ATOM     25  O   UNL     1      -2.022   6.253  -2.557  1.00  0.00    -0.275 OA
ATOM     26  N   UNL     1      -3.465   4.564  -2.296  1.00  0.00    -0.302 N 
ATOM     27  H   UNL     1      -3.424   4.722  -1.325  1.00  0.00     0.172 HD
BRANCH  26  28
ATOM     28  C   UNL     1      -4.211   3.504  -2.719  1.00  0.00     0.189 A 
ATOM     29  N   UNL     1      -4.433   3.099  -3.943  1.00  0.00    -0.229 NA
ATOM     30  S   UNL     1      -4.857   2.534  -1.472  1.00  0.00    -0.105 S 
ATOM     31  C   UNL     1      -5.103   1.895  -3.915  1.00  0.00     0.125 A 
ATOM     32  C   UNL     1      -5.437   1.439  -2.659  1.00  0.00     0.088 A 
ENDBRANCH  26  28
ENDBRANCH  23  24
ENDBRANCH  22  23
ENDBRANCH  20  22
ENDBRANCH  14  20
ENDBRANCH   7   9
ENDBRANCH   6   7
ENDBRANCH   5   6
ENDBRANCH   4   5
ENDBRANCH   3   4
ENDBRANCH   2   3
ENDBRANCH   1   2
BRANCH   1  33
ATOM     33  O   UNL     1      -4.006  -3.358  -1.638  1.00  0.00    -0.377 OA
BRANCH  33  34
ATOM     34  C   UNL     1      -5.185  -4.087  -1.306  1.00  0.00     0.188 C 
BRANCH  34  35
ATOM     35  C   UNL     1      -6.363  -4.045  -2.304  1.00  0.00     0.188 C 
BRANCH  35  36
ATOM     36  O   UNL     1      -6.750  -2.722  -2.674  1.00  0.00    -0.376 OA
BRANCH  36  37
ATOM     37  C   UNL     1      -7.985  -2.228  -2.180  1.00  0.00     0.202 C 
BRANCH  37  38
ATOM     38  C   UNL     1      -7.953  -1.765  -0.716  1.00  0.00     0.261 C 
BRANCH  38  39
ATOM     39  O   UNL     1      -7.550  -2.766   0.227  1.00  0.00    -0.460 OA
BRANCH  39  40
ATOM     40  C   UNL     1      -8.367  -3.835   0.342  1.00  0.00     0.338 C 
ATOM     41  O   UNL     1      -9.426  -4.009  -0.242  1.00  0.00    -0.246 OA
BRANCH  40  42
ATOM     42  C   UNL     1      -7.676  -4.866   1.136  1.00  0.00     0.060 A 
ATOM     43  C   UNL     1      -7.500  -6.133   0.568  1.00  0.00     0.016 A 
ATOM     44  C   UNL     1      -7.222  -4.597   2.430  1.00  0.00     0.016 A 
ATOM     45  C   UNL     1      -6.923  -7.155   1.317  1.00  0.00     0.010 A 
ATOM     46  C   UNL     1      -6.657  -5.627   3.186  1.00  0.00     0.010 A 
ATOM     47  C   UNL     1      -6.550  -6.922   2.647  1.00  0.00    -0.014 A 
BRANCH  47  48
ATOM     48  C   UNL     1      -6.254  -8.084   3.518  1.00  0.00     0.031 A 
ATOM     49  C   UNL     1      -7.348  -8.603   4.415  1.00  0.00     0.074 A 
ATOM     50  C   UNL     1      -5.067  -8.715   3.460  1.00  0.00     0.049 A 
ATOM     51  N   UNL     1      -7.344  -9.635   5.216  1.00  0.00    -0.248 NA
ATOM     52  C   UNL     1      -8.620  -7.859   4.400  1.00  0.00     0.031 C 
ATOM     53  C   UNL     1      -3.948  -8.334   2.599  1.00  0.00     0.029 A 
ATOM     54  N   UNL     1      -4.614  -9.820   4.135  1.00  0.00    -0.354 N 
ATOM     55  C   UNL     1      -8.604  -9.663   5.802  1.00  0.00     0.074 A 
ATOM     56  C   UNL     1      -9.334  -8.523   5.295  1.00  0.00     0.031 C 
ATOM     57  C   UNL     1      -2.937  -9.199   2.794  1.00  0.00     0.029 A 
ATOM     58  C   UNL     1      -3.326 -10.174   3.812  1.00  0.00     0.049 A 
ATOM     59  H   UNL     1      -5.160 -10.314   4.788  1.00  0.00     0.167 HD
ATOM     60  C   UNL     1      -9.114 -10.563   6.677  1.00  0.00     0.031 A 
ATOM     61  C   UNL     1      -2.547 -11.165   4.291  1.00  0.00     0.031 A 
ATOM     62  C   UNL     1      -8.377 -11.686   7.193  1.00  0.00     0.049 A 
ATOM     63  C   UNL     1      -3.113 -12.113   5.318  1.00  0.00     0.074 A 
ATOM     64  C   UNL     1      -8.804 -12.660   8.078  1.00  0.00     0.029 A 
ATOM     65  N   UNL     1      -7.059 -11.980   6.879  1.00  0.00    -0.354 N 
ATOM     66  N   UNL     1      -4.315 -12.140   5.845  1.00  0.00    -0.248 NA
ATOM     67  C   UNL     1      -2.220 -13.176   5.801  1.00  0.00     0.031 C 
ATOM     68  C   UNL     1      -7.723 -13.505   8.351  1.00  0.00     0.029 A 
ATOM     69  C   UNL     1      -6.648 -13.106   7.573  1.00  0.00     0.049 A 
ATOM     70  H   UNL     1      -6.498 -11.465   6.255  1.00  0.00     0.167 HD
ATOM     71  C   UNL     1      -4.334 -13.246   6.690  1.00  0.00     0.074 A 
ATOM     72  C   UNL     1      -3.028 -13.865   6.594  1.00  0.00     0.031 C 
ATOM     73  C   UNL     1      -5.343 -13.712   7.469  1.00  0.00     0.031 A 
BRANCH  60  74
ATOM     74  C   UNL     1     -10.524 -10.343   7.161  1.00  0.00    -0.014 A 
ATOM     75  C   UNL     1     -11.629 -10.502   6.303  1.00  0.00     0.010 A 
ATOM     76  C   UNL     1     -10.750 -10.003   8.507  1.00  0.00     0.010 A 
ATOM     77  C   UNL     1     -12.927 -10.288   6.774  1.00  0.00     0.020 A 
ATOM     78  C   UNL     1     -12.048  -9.820   8.990  1.00  0.00     0.020 A 
ATOM     79  C   UNL     1     -13.128  -9.948   8.115  1.00  0.00     0.054 A 
BRANCH  79  80
ATOM     80  S   UNL     1     -14.826  -9.701   8.704  1.00  0.00     0.124 S 
ATOM     81  O   UNL     1     -15.193  -8.449   8.049  1.00  0.00    -0.237 OA
ATOM     82  O   UNL     1     -15.511 -10.893   8.211  1.00  0.00    -0.237 OA
ATOM     83  O   UNL     1     -14.682  -9.624  10.156  1.00  0.00    -0.744 OA
ENDBRANCH  79  80
ENDBRANCH  60  74
BRANCH  61  84
ATOM     84  C   UNL     1      -1.145 -11.309   3.809  1.00  0.00    -0.014 A 
ATOM     85  C   UNL     1      -0.753 -12.420   3.041  1.00  0.00     0.010 A 
ATOM     86  C   UNL     1      -0.187 -10.328   4.125  1.00  0.00     0.010 A 
ATOM     87  C   UNL     1       0.571 -12.555   2.613  1.00  0.00     0.020 A 
ATOM     88  C   UNL     1       1.130 -10.443   3.673  1.00  0.00     0.020 A 
ATOM     89  C   UNL     1       1.504 -11.562   2.928  1.00  0.00     0.054 A 
BRANCH  89  90
ATOM     90  S   UNL     1       3.204 -11.732   2.317  1.00  0.00     0.124 S 
ATOM     91  O   UNL     1       3.714 -12.826   3.136  1.00  0.00    -0.237 OA
ATOM     92  O   UNL     1       2.998 -12.039   0.904  1.00  0.00    -0.237 OA
ATOM     93  O   UNL     1       3.794 -10.422   2.582  1.00  0.00    -0.744 OA
ENDBRANCH  89  90
ENDBRANCH  61  84
BRANCH  73  94
ATOM     94  C   UNL     1      -5.099 -14.986   8.237  1.00  0.00    -0.014 A 
ATOM     95  C   UNL     1      -4.202 -15.040   9.318  1.00  0.00     0.010 A 
ATOM     96  C   UNL     1      -5.817 -16.146   7.888  1.00  0.00     0.010 A 
ATOM     97  C   UNL     1      -3.989 -16.242  10.002  1.00  0.00     0.020 A 
ATOM     98  C   UNL     1      -5.635 -17.339   8.591  1.00  0.00     0.020 A 
ATOM     99  C   UNL     1      -4.706 -17.384   9.631  1.00  0.00     0.054 A 
BRANCH  99 100
ATOM    100  S   UNL     1      -4.425 -18.926  10.543  1.00  0.00     0.124 S 
ATOM    101  O   UNL     1      -3.096 -19.316  10.079  1.00  0.00    -0.237 OA
ATOM    102  O   UNL     1      -4.502 -18.492  11.936  1.00  0.00    -0.237 OA
ATOM    103  O   UNL     1      -5.517 -19.793  10.106  1.00  0.00    -0.744 OA
ENDBRANCH  99 100
ENDBRANCH  73  94
ENDBRANCH  47  48
ENDBRANCH  40  42
ENDBRANCH  39  40
ENDBRANCH  38  39
ENDBRANCH  37  38
ENDBRANCH  36  37
ENDBRANCH  35  36
ENDBRANCH  34  35
ENDBRANCH  33  34
ENDBRANCH   1  33
TORSDOF 30
