REMARK SMILES CCCc1cc2c(cc1Cl)C=C(C(=O)OCCOCCOCCOCCOC(=O)c1ccc(-c3c4nc(c(-c5ccc(S(=O)(=O)[O-])cc5)c5ccc([nH]5)c(-c5ccc(S(=O)(=O)[O-])cc5)c5nc(c(-c6ccc(S(=O)(=O)[O-])cc6)c6ccc3[nH]6)C=C5)C=C4)cc1)[C@H](C(F)(F)F)O2
REMARK SMILES IDX 22 1 21 2 20 3 19 4 18 5 17 6 16 7 15 8 13 9 14 10 12 11
REMARK SMILES IDX 4 12 5 13 9 14 6 15 8 16 10 17 7 18 95 19 11 20 90 21 3 22
REMARK SMILES IDX 2 23 1 24 91 25 92 26 93 27 94 28 23 29 24 30 25 31 26 32
REMARK SMILES IDX 27 33 28 34 29 35 30 36 31 37 89 38 32 39 88 40 33 41 34 42
REMARK SMILES IDX 35 43 82 44 36 45 87 46 81 47 83 48 37 49 86 50 80 51 79 52
REMARK SMILES IDX 38 54 68 55 49 56 67 57 50 58 53 59 66 60 84 61 51 62 52 63
REMARK SMILES IDX 65 65 85 66 54 67 39 68 40 69 48 70 41 71 47 72 42 73 43 74
REMARK SMILES IDX 44 75 45 76 46 77 69 78 70 79 78 80 71 81 77 82 72 83 73 84
REMARK SMILES IDX 74 85 75 86 76 87 55 88 56 89 64 90 57 91 63 92 58 93 59 94
REMARK SMILES IDX 60 95 61 96 62 97
REMARK H PARENT 83 53 53 64
REMARK Flexibility Score: inf
ROOT
ATOM      1  C   UNL     1       1.345  -9.963   1.138  1.00  0.00     0.188 C 
ENDROOT
BRANCH   1   2
ATOM      2  O   UNL     1       0.659  -8.914   0.453  1.00  0.00    -0.377 OA
BRANCH   2   3
ATOM      3  C   UNL     1      -0.547  -8.401   0.989  1.00  0.00     0.188 C 
BRANCH   3   4
ATOM      4  C   UNL     1      -1.843  -8.973   0.406  1.00  0.00     0.188 C 
BRANCH   4   5
ATOM      5  O   UNL     1      -1.986 -10.380   0.339  1.00  0.00    -0.376 OA
BRANCH   5   6
ATOM      6  C   UNL     1      -1.257 -11.116  -0.642  1.00  0.00     0.202 C 
BRANCH   6   7
ATOM      7  C   UNL     1      -0.978 -10.537  -2.043  1.00  0.00     0.261 C 
BRANCH   7   8
ATOM      8  O   UNL     1      -0.234  -9.302  -2.047  1.00  0.00    -0.460 OA
BRANCH   8   9
ATOM      9  C   UNL     1      -0.818  -8.277  -2.706  1.00  0.00     0.338 C 
ATOM     10  O   UNL     1      -1.857  -8.330  -3.348  1.00  0.00    -0.246 OA
BRANCH   9  11
ATOM     11  C   UNL     1      -0.161  -6.992  -2.412  1.00  0.00     0.087 C 
ATOM     12  C   UNL     1       0.300  -1.971  -2.062  1.00  0.00    -0.026 A 
ATOM     13  C   UNL     1       1.065  -3.017  -2.632  1.00  0.00     0.052 A 
ATOM     14  C   UNL     1      -0.879  -2.331  -1.390  1.00  0.00     0.045 A 
ATOM     15  C   UNL     1       0.680  -4.356  -2.527  1.00  0.00     0.128 A 
ATOM     16  C   UNL     1      -1.244  -3.679  -1.252  1.00  0.00     0.032 A 
ATOM     17  Cl  UNL     1      -2.020  -1.191  -0.772  1.00  0.00    -0.084 Cl
ATOM     18  C   UNL     1      -0.477  -4.691  -1.833  1.00  0.00     0.019 A 
ATOM     19  O   UNL     1       1.431  -5.270  -3.214  1.00  0.00    -0.475 OA
ATOM     20  C   UNL     1      -0.959  -6.060  -1.869  1.00  0.00     0.027 C 
ATOM     21  C   UNL     1       1.215  -6.690  -2.933  1.00  0.00     0.316 C 
BRANCH  12  22
ATOM     22  C   UNL     1       0.775  -0.560  -2.355  1.00  0.00     0.037 C 
BRANCH  22  23
ATOM     23  C   UNL     1       0.605   0.567  -1.330  1.00  0.00     0.001 C 
ATOM     24  C   UNL     1       1.174   0.256   0.045  1.00  0.00     0.004 C 
ENDBRANCH  22  23
ENDBRANCH  12  22
BRANCH  21  25
ATOM     25  C   UNL     1       2.360  -7.196  -2.043  1.00  0.00     0.430 C 
ATOM     26  F   UNL     1       3.549  -6.679  -2.452  1.00  0.00    -0.167 F 
ATOM     27  F   UNL     1       2.209  -6.836  -0.748  1.00  0.00    -0.167 F 
ATOM     28  F   UNL     1       2.490  -8.540  -2.099  1.00  0.00    -0.167 F 
ENDBRANCH  21  25
ENDBRANCH   9  11
ENDBRANCH   8   9
ENDBRANCH   7   8
ENDBRANCH   6   7
ENDBRANCH   5   6
ENDBRANCH   4   5
ENDBRANCH   3   4
ENDBRANCH   2   3
ENDBRANCH   1   2
BRANCH   1  29
ATOM     29  C   UNL     1       0.787 -10.467   2.477  1.00  0.00     0.188 C 
BRANCH  29  30
ATOM     30  O   UNL     1       0.716  -9.541   3.566  1.00  0.00    -0.376 OA
BRANCH  30  31
ATOM     31  C   UNL     1       1.661  -8.475   3.622  1.00  0.00     0.202 C 
BRANCH  31  32
ATOM     32  C   UNL     1       2.985  -8.840   4.285  1.00  0.00     0.261 C 
BRANCH  32  33
ATOM     33  O   UNL     1       3.781  -9.662   3.421  1.00  0.00    -0.460 OA
BRANCH  33  34
ATOM     34  C   UNL     1       3.775 -10.988   3.703  1.00  0.00     0.338 C 
ATOM     35  O   UNL     1       3.226 -11.544   4.630  1.00  0.00    -0.246 OA
BRANCH  34  36
ATOM     36  C   UNL     1       4.413 -11.698   2.576  1.00  0.00     0.060 A 
ATOM     37  C   UNL     1       5.602 -11.229   2.011  1.00  0.00     0.016 A 
ATOM     38  C   UNL     1       3.812 -12.870   2.102  1.00  0.00     0.016 A 
ATOM     39  C   UNL     1       6.213 -11.963   0.995  1.00  0.00     0.010 A 
ATOM     40  C   UNL     1       4.423 -13.603   1.086  1.00  0.00     0.010 A 
ATOM     41  C   UNL     1       5.644 -13.170   0.552  1.00  0.00    -0.014 A 
BRANCH  41  42
ATOM     42  C   UNL     1       6.432 -14.078  -0.312  1.00  0.00     0.031 A 
ATOM     43  C   UNL     1       6.139 -14.233  -1.770  1.00  0.00     0.074 A 
ATOM     44  C   UNL     1       7.423 -14.781   0.272  1.00  0.00     0.049 A 
ATOM     45  N   UNL     1       6.780 -14.952  -2.653  1.00  0.00    -0.248 NA
ATOM     46  C   UNL     1       4.988 -13.495  -2.311  1.00  0.00     0.031 C 
ATOM     47  C   UNL     1       7.772 -14.704   1.694  1.00  0.00     0.029 A 
ATOM     48  N   UNL     1       8.322 -15.678  -0.243  1.00  0.00    -0.354 N 
ATOM     49  C   UNL     1       6.129 -14.740  -3.861  1.00  0.00     0.074 A 
ATOM     50  C   UNL     1       5.011 -13.861  -3.588  1.00  0.00     0.031 C 
ATOM     51  C   UNL     1       8.831 -15.490   1.929  1.00  0.00     0.029 A 
ATOM     52  C   UNL     1       9.210 -16.162   0.690  1.00  0.00     0.049 A 
ATOM     53  H   UNL     1       8.332 -15.950  -1.189  1.00  0.00     0.167 HD
ATOM     54  C   UNL     1       6.458 -15.223  -5.082  1.00  0.00     0.031 A 
ATOM     55  C   UNL     1      10.219 -17.048   0.568  1.00  0.00     0.031 A 
ATOM     56  C   UNL     1       7.571 -16.108  -5.322  1.00  0.00     0.049 A 
ATOM     57  C   UNL     1      10.517 -17.619  -0.789  1.00  0.00     0.074 A 
ATOM     58  C   UNL     1       8.007 -16.619  -6.532  1.00  0.00     0.029 A 
ATOM     59  N   UNL     1       8.416 -16.621  -4.347  1.00  0.00    -0.354 N 
ATOM     60  N   UNL     1       9.945 -17.342  -1.937  1.00  0.00    -0.248 NA
ATOM     61  C   UNL     1      11.597 -18.611  -0.877  1.00  0.00     0.031 C 
ATOM     62  C   UNL     1       9.055 -17.505  -6.280  1.00  0.00     0.029 A 
ATOM     63  C   UNL     1       9.337 -17.480  -4.924  1.00  0.00     0.049 A 
ATOM     64  H   UNL     1       8.367 -16.406  -3.387  1.00  0.00     0.167 HD
ATOM     65  C   UNL     1      10.602 -18.114  -2.885  1.00  0.00     0.074 A 
ATOM     66  C   UNL     1      11.634 -18.850  -2.183  1.00  0.00     0.031 C 
ATOM     67  C   UNL     1      10.364 -18.209  -4.216  1.00  0.00     0.031 A 
BRANCH  54  68
ATOM     68  C   UNL     1       5.639 -14.801  -6.276  1.00  0.00    -0.014 A 
ATOM     69  C   UNL     1       4.922 -15.764  -7.013  1.00  0.00     0.010 A 
ATOM     70  C   UNL     1       5.726 -13.489  -6.774  1.00  0.00     0.010 A 
ATOM     71  C   UNL     1       4.353 -15.437  -8.246  1.00  0.00     0.020 A 
ATOM     72  C   UNL     1       5.131 -13.149  -7.993  1.00  0.00     0.020 A 
ATOM     73  C   UNL     1       4.474 -14.133  -8.736  1.00  0.00     0.054 A 
BRANCH  73  74
ATOM     74  S   UNL     1       3.792 -13.746 -10.371  1.00  0.00     0.124 S 
ATOM     75  O   UNL     1       4.705 -14.452 -11.264  1.00  0.00    -0.237 OA
ATOM     76  O   UNL     1       2.440 -14.293 -10.287  1.00  0.00    -0.237 OA
ATOM     77  O   UNL     1       3.860 -12.287 -10.434  1.00  0.00    -0.744 OA
ENDBRANCH  73  74
ENDBRANCH  54  68
BRANCH  55  78
ATOM     78  C   UNL     1      11.029 -17.398   1.768  1.00  0.00    -0.014 A 
ATOM     79  C   UNL     1      10.435 -18.055   2.864  1.00  0.00     0.010 A 
ATOM     80  C   UNL     1      12.372 -16.994   1.864  1.00  0.00     0.010 A 
ATOM     81  C   UNL     1      11.146 -18.242   4.052  1.00  0.00     0.020 A 
ATOM     82  C   UNL     1      13.099 -17.214   3.038  1.00  0.00     0.020 A 
ATOM     83  C   UNL     1      12.470 -17.807   4.136  1.00  0.00     0.054 A 
BRANCH  83  84
ATOM     84  S   UNL     1      13.352 -18.009   5.708  1.00  0.00     0.124 S 
ATOM     85  O   UNL     1      12.718 -16.989   6.539  1.00  0.00    -0.237 OA
ATOM     86  O   UNL     1      13.049 -19.392   6.066  1.00  0.00    -0.237 OA
ATOM     87  O   UNL     1      14.745 -17.750   5.355  1.00  0.00    -0.744 OA
ENDBRANCH  83  84
ENDBRANCH  55  78
BRANCH  67  88
ATOM     88  C   UNL     1      11.208 -19.157  -5.029  1.00  0.00    -0.014 A 
ATOM     89  C   UNL     1      12.049 -18.656  -6.041  1.00  0.00     0.010 A 
ATOM     90  C   UNL     1      11.037 -20.547  -4.909  1.00  0.00     0.010 A 
ATOM     91  C   UNL     1      12.648 -19.523  -6.959  1.00  0.00     0.020 A 
ATOM     92  C   UNL     1      11.663 -21.420  -5.803  1.00  0.00     0.020 A 
ATOM     93  C   UNL     1      12.435 -20.899  -6.844  1.00  0.00     0.054 A 
BRANCH  93  94
ATOM     94  S   UNL     1      13.143 -21.998  -8.101  1.00  0.00     0.124 S 
ATOM     95  O   UNL     1      12.323 -21.697  -9.271  1.00  0.00    -0.237 OA
ATOM     96  O   UNL     1      14.531 -21.549  -8.172  1.00  0.00    -0.237 OA
ATOM     97  O   UNL     1      12.956 -23.333  -7.536  1.00  0.00    -0.744 OA
ENDBRANCH  93  94
ENDBRANCH  67  88
ENDBRANCH  41  42
ENDBRANCH  34  36
ENDBRANCH  33  34
ENDBRANCH  32  33
ENDBRANCH  31  32
ENDBRANCH  30  31
ENDBRANCH  29  30
ENDBRANCH   1  29
TORSDOF 26
