REMARK SMILES O=C(OCCOCCOCCOCCOC(=O)c1nnn(-c2cccc(Br)c2)c1[C@@H]1COc2ccccc2O1)c1ccc(-c2c3nc(c(-c4ccc(S(=O)(=O)[O-])cc4)c4ccc([nH]4)c(-c4ccc(S(=O)(=O)[O-])cc4)c4nc(c(-c5ccc(S(=O)(=O)[O-])cc5)c5ccc2[nH]5)C=C4)C=C3)cc1
REMARK SMILES IDX 8 1 7 2 6 3 5 4 4 5 3 6 2 7 1 8 40 9 41 10 99 11 42 12 98 13
REMARK SMILES IDX 43 14 44 15 45 16 92 17 46 18 97 19 91 20 93 21 47 22 96 23
REMARK SMILES IDX 90 24 89 25 48 27 78 28 59 29 77 30 60 31 63 32 76 33 94 34
REMARK SMILES IDX 61 35 62 36 75 38 95 39 64 40 49 41 50 42 58 43 51 44 57 45
REMARK SMILES IDX 52 46 53 47 54 48 55 49 56 50 79 51 80 52 88 53 81 54 87 55
REMARK SMILES IDX 82 56 83 57 84 58 85 59 86 60 65 61 66 62 74 63 67 64 73 65
REMARK SMILES IDX 68 66 69 67 70 68 71 69 72 70 9 71 10 72 11 73 12 74 13 75
REMARK SMILES IDX 14 76 15 77 16 78 17 79 18 80 19 81 29 82 20 83 21 84 30 85
REMARK SMILES IDX 31 86 39 87 32 88 38 89 33 90 37 91 34 92 36 93 35 94 22 95
REMARK SMILES IDX 23 96 28 97 24 98 26 99 25 100 27 101
REMARK H PARENT 93 26 63 37
REMARK Flexibility Score: inf
ROOT
ATOM      1  C   UNL     1       2.767   1.377   0.124  1.00  0.00     0.188 C 
ENDROOT
BRANCH   1   2
ATOM      2  C   UNL     1       3.261   0.429   1.209  1.00  0.00     0.188 C 
BRANCH   2   3
ATOM      3  O   UNL     1       4.265  -0.539   0.939  1.00  0.00    -0.376 OA
BRANCH   3   4
ATOM      4  C   UNL     1       5.198  -0.452  -0.119  1.00  0.00     0.202 C 
BRANCH   4   5
ATOM      5  C   UNL     1       4.776  -0.831  -1.554  1.00  0.00     0.261 C 
BRANCH   5   6
ATOM      6  O   UNL     1       3.421  -0.609  -1.978  1.00  0.00    -0.460 OA
BRANCH   6   7
ATOM      7  C   UNL     1       2.317  -1.321  -1.665  1.00  0.00     0.338 C 
ATOM      8  O   UNL     1       1.278  -1.169  -2.303  1.00  0.00    -0.246 OA
BRANCH   7   9
ATOM      9  C   UNL     1       2.258  -2.111  -0.422  1.00  0.00     0.060 A 
ATOM     10  C   UNL     1       3.321  -2.890   0.044  1.00  0.00     0.016 A 
ATOM     11  C   UNL     1       1.052  -2.037   0.309  1.00  0.00     0.016 A 
ATOM     12  C   UNL     1       3.208  -3.572   1.226  1.00  0.00     0.010 A 
ATOM     13  C   UNL     1       0.894  -2.794   1.452  1.00  0.00     0.010 A 
ATOM     14  C   UNL     1       1.954  -3.619   1.819  1.00  0.00    -0.014 A 
BRANCH  14  15
ATOM     15  C   UNL     1       1.715  -4.871   2.498  1.00  0.00     0.031 A 
ATOM     16  C   UNL     1       2.297  -4.980   3.851  1.00  0.00     0.074 A 
ATOM     17  C   UNL     1       1.108  -5.819   1.754  1.00  0.00     0.049 A 
ATOM     18  N   UNL     1       3.209  -5.796   4.268  1.00  0.00    -0.248 NA
ATOM     19  C   UNL     1       1.930  -3.937   4.822  1.00  0.00     0.031 C 
ATOM     20  C   UNL     1       0.415  -5.651   0.463  1.00  0.00     0.029 A 
ATOM     21  N   UNL     1       0.867  -7.115   2.039  1.00  0.00    -0.354 N 
ATOM     22  C   UNL     1       3.368  -5.512   5.621  1.00  0.00     0.074 A 
ATOM     23  C   UNL     1       2.707  -4.253   5.856  1.00  0.00     0.031 C 
ATOM     24  C   UNL     1      -0.419  -6.690   0.269  1.00  0.00     0.029 A 
ATOM     25  C   UNL     1      -0.208  -7.643   1.339  1.00  0.00     0.049 A 
ATOM     26  H   UNL     1       1.402  -7.636   2.682  1.00  0.00     0.167 HD
ATOM     27  C   UNL     1       3.766  -6.463   6.510  1.00  0.00     0.031 A 
ATOM     28  C   UNL     1      -0.966  -8.697   1.727  1.00  0.00     0.031 A 
ATOM     29  C   UNL     1       4.466  -7.544   5.871  1.00  0.00     0.049 A 
ATOM     30  C   UNL     1      -0.159  -9.446   2.730  1.00  0.00     0.074 A 
ATOM     31  C   UNL     1       5.650  -7.638   5.167  1.00  0.00     0.029 A 
ATOM     32  N   UNL     1       3.750  -8.679   5.569  1.00  0.00    -0.354 N 
ATOM     33  N   UNL     1       0.973 -10.032   2.437  1.00  0.00    -0.248 NA
ATOM     34  C   UNL     1      -0.328  -9.105   4.138  1.00  0.00     0.031 C 
ATOM     35  C   UNL     1       5.386  -8.575   4.127  1.00  0.00     0.029 A 
ATOM     36  C   UNL     1       4.082  -9.051   4.289  1.00  0.00     0.049 A 
ATOM     37  H   UNL     1       3.114  -9.141   6.162  1.00  0.00     0.167 HD
ATOM     38  C   UNL     1       1.814  -9.768   3.513  1.00  0.00     0.074 A 
ATOM     39  C   UNL     1       0.929  -9.268   4.567  1.00  0.00     0.031 C 
ATOM     40  C   UNL     1       3.171  -9.691   3.358  1.00  0.00     0.031 A 
BRANCH  27  41
ATOM     41  C   UNL     1       3.118  -6.592   7.866  1.00  0.00    -0.014 A 
ATOM     42  C   UNL     1       3.602  -7.544   8.782  1.00  0.00     0.010 A 
ATOM     43  C   UNL     1       1.866  -6.003   8.155  1.00  0.00     0.010 A 
ATOM     44  C   UNL     1       2.835  -7.931   9.891  1.00  0.00     0.020 A 
ATOM     45  C   UNL     1       1.116  -6.349   9.275  1.00  0.00     0.020 A 
ATOM     46  C   UNL     1       1.588  -7.342  10.117  1.00  0.00     0.054 A 
BRANCH  46  47
ATOM     47  S   UNL     1       0.540  -7.944  11.462  1.00  0.00     0.124 S 
ATOM     48  O   UNL     1       0.237  -9.301  11.020  1.00  0.00    -0.237 OA
ATOM     49  O   UNL     1       1.427  -7.834  12.617  1.00  0.00    -0.237 OA
ATOM     50  O   UNL     1      -0.589  -7.016  11.458  1.00  0.00    -0.744 OA
ENDBRANCH  46  47
ENDBRANCH  27  41
BRANCH  28  51
ATOM     51  C   UNL     1      -2.453  -8.723   1.640  1.00  0.00    -0.014 A 
ATOM     52  C   UNL     1      -3.180  -9.911   1.808  1.00  0.00     0.010 A 
ATOM     53  C   UNL     1      -3.185  -7.512   1.605  1.00  0.00     0.010 A 
ATOM     54  C   UNL     1      -4.580  -9.883   1.967  1.00  0.00     0.020 A 
ATOM     55  C   UNL     1      -4.575  -7.476   1.749  1.00  0.00     0.020 A 
ATOM     56  C   UNL     1      -5.266  -8.664   1.950  1.00  0.00     0.054 A 
BRANCH  56  57
ATOM     57  S   UNL     1      -7.048  -8.624   2.303  1.00  0.00     0.124 S 
ATOM     58  O   UNL     1      -7.615  -9.265   1.120  1.00  0.00    -0.237 OA
ATOM     59  O   UNL     1      -7.142  -9.390   3.543  1.00  0.00    -0.237 OA
ATOM     60  O   UNL     1      -7.344  -7.199   2.437  1.00  0.00    -0.744 OA
ENDBRANCH  56  57
ENDBRANCH  28  51
BRANCH  40  61
ATOM     61  C   UNL     1       3.763 -10.074   2.015  1.00  0.00    -0.014 A 
ATOM     62  C   UNL     1       3.552  -9.325   0.838  1.00  0.00     0.010 A 
ATOM     63  C   UNL     1       4.718 -11.104   1.985  1.00  0.00     0.010 A 
ATOM     64  C   UNL     1       4.265  -9.612  -0.339  1.00  0.00     0.020 A 
ATOM     65  C   UNL     1       5.442 -11.385   0.821  1.00  0.00     0.020 A 
ATOM     66  C   UNL     1       5.209 -10.642  -0.338  1.00  0.00     0.054 A 
BRANCH  66  67
ATOM     67  S   UNL     1       6.178 -10.967  -1.839  1.00  0.00     0.124 S 
ATOM     68  O   UNL     1       5.181 -11.525  -2.748  1.00  0.00    -0.237 OA
ATOM     69  O   UNL     1       6.682  -9.643  -2.196  1.00  0.00    -0.237 OA
ATOM     70  O   UNL     1       7.204 -11.910  -1.394  1.00  0.00    -0.744 OA
ENDBRANCH  66  67
ENDBRANCH  40  61
ENDBRANCH  14  15
ENDBRANCH   7   9
ENDBRANCH   6   7
ENDBRANCH   5   6
ENDBRANCH   4   5
ENDBRANCH   3   4
ENDBRANCH   2   3
ENDBRANCH   1   2
BRANCH   1  71
ATOM     71  O   UNL     1       3.777   1.900  -0.725  1.00  0.00    -0.377 OA
BRANCH  71  72
ATOM     72  C   UNL     1       4.849   2.660  -0.169  1.00  0.00     0.188 C 
BRANCH  72  73
ATOM     73  C   UNL     1       4.878   2.970   1.399  1.00  0.00     0.188 C 
BRANCH  73  74
ATOM     74  O   UNL     1       3.704   3.317   2.256  1.00  0.00    -0.376 OA
BRANCH  74  75
ATOM     75  C   UNL     1       2.659   4.408   2.365  1.00  0.00     0.202 C 
BRANCH  75  76
ATOM     76  C   UNL     1       2.422   6.083   1.550  1.00  0.00     0.261 C 
BRANCH  76  77
ATOM     77  O   UNL     1       3.696   6.710   0.116  1.00  0.00    -0.458 OA
BRANCH  77  78
ATOM     78  C   UNL     1       4.992   6.891  -0.472  1.00  0.00     0.361 C 
ATOM     79  O   UNL     1       6.096   6.851   0.064  1.00  0.00    -0.244 OA
BRANCH  78  80
ATOM     80  C   UNL     1       4.851   6.973  -1.879  1.00  0.00     0.198 A 
ATOM     81  N   UNL     1       5.527   6.130  -2.716  1.00  0.00    -0.122 NA
ATOM     82  C   UNL     1       3.935   7.745  -2.560  1.00  0.00     0.123 A 
ATOM     83  N   UNL     1       5.059   6.337  -3.930  1.00  0.00    -0.061 NA
ATOM     84  N   UNL     1       4.271   7.431  -3.864  1.00  0.00    -0.213 N 
BRANCH  82  85
ATOM     85  C   UNL     1       2.823   8.689  -2.100  1.00  0.00     0.262 C 
ATOM     86  C   UNL     1       3.164   9.816  -1.088  1.00  0.00     0.281 C 
ATOM     87  O   UNL     1       1.647   7.981  -1.668  1.00  0.00    -0.477 OA
ATOM     88  O   UNL     1       3.252   9.587   0.340  1.00  0.00    -0.485 OA
ATOM     89  C   UNL     1       1.949   7.384  -0.451  1.00  0.00     0.162 A 
ATOM     90  C   UNL     1       2.858   8.314   0.753  1.00  0.00     0.161 A 
ATOM     91  C   UNL     1       2.220   5.691  -0.707  1.00  0.00     0.050 A 
ATOM     92  C   UNL     1       4.081   7.545   1.823  1.00  0.00     0.050 A 
ATOM     93  C   UNL     1       3.471   4.894   0.242  1.00  0.00     0.004 A 
ATOM     94  C   UNL     1       4.442   5.788   1.573  1.00  0.00     0.004 A 
ENDBRANCH  82  85
BRANCH  84  95
ATOM     95  C   UNL     1       4.132   8.225  -4.999  1.00  0.00     0.068 A 
ATOM     96  C   UNL     1       4.321   9.603  -4.863  1.00  0.00     0.028 A 
ATOM     97  C   UNL     1       3.850   7.630  -6.227  1.00  0.00     0.044 A 
ATOM     98  C   UNL     1       4.098  10.422  -5.954  1.00  0.00     0.003 A 
ATOM     99  C   UNL     1       3.599   8.467  -7.303  1.00  0.00     0.020 A 
ATOM    100  C   UNL     1       3.702   9.855  -7.166  1.00  0.00     0.016 A 
ATOM    101  Br  UNL     1       3.059   7.726  -8.954  1.00  0.00    -0.051 Br
ENDBRANCH  84  95
ENDBRANCH  78  80
ENDBRANCH  77  78
ENDBRANCH  76  77
ENDBRANCH  75  76
ENDBRANCH  74  75
ENDBRANCH  73  74
ENDBRANCH  72  73
ENDBRANCH  71  72
ENDBRANCH   1  71
TORSDOF 25
