REMARK SMILES O=C(OCCOCCOCCOCCOC(=O)[C@@H]1[C@H](C(=O)Nc2ccc(Cn3cncn3)cc2)[C@@H]2C=C[C@H]1CC2)c1ccc(-c2c3nc(c(-c4ccc(S(=O)(=O)[O-])cc4)c4ccc([nH]4)c(-c4ccc(S(=O)(=O)[O-])cc4)c4nc(c(-c5ccc(S(=O)(=O)[O-])cc5)c5ccc2[nH]5)C=C4)C=C3)cc1
REMARK SMILES IDX 10 1 9 2 8 3 7 4 6 5 5 6 4 7 3 8 2 9 1 10 41 11 42 12 100 13
REMARK SMILES IDX 43 14 99 15 44 16 45 17 46 18 93 19 47 20 98 21 92 22 94 23
REMARK SMILES IDX 48 24 97 25 91 26 90 27 49 29 79 30 60 31 78 32 61 33 64 34
REMARK SMILES IDX 77 35 95 36 62 37 63 38 76 40 96 41 65 42 50 43 51 44 59 45
REMARK SMILES IDX 52 46 58 47 53 48 54 49 55 50 56 51 57 52 80 53 81 54 89 55
REMARK SMILES IDX 82 56 88 57 83 58 84 59 85 60 86 61 87 62 66 63 67 64 75 65
REMARK SMILES IDX 68 66 74 67 69 68 70 69 71 70 72 71 73 72 11 73 12 74 13 75
REMARK SMILES IDX 14 76 15 77 16 78 17 79 18 80 19 81 38 82 35 83 37 84 39 85
REMARK SMILES IDX 36 86 40 87 20 88 21 89 22 90 23 92 24 93 34 94 25 95 33 96
REMARK SMILES IDX 26 97 27 98 28 99 29 100 32 101 30 102 31 103
REMARK H PARENT 94 28 64 39 22 91
REMARK Flexibility Score: inf
ROOT
ATOM      1  C   UNL     1       4.867  -2.777   0.985  1.00  0.00     0.188 C 
ENDROOT
BRANCH   1   2
ATOM      2  O   UNL     1       3.463  -2.907   0.888  1.00  0.00    -0.377 OA
BRANCH   2   3
ATOM      3  C   UNL     1       2.751  -1.943   0.115  1.00  0.00     0.188 C 
BRANCH   3   4
ATOM      4  C   UNL     1       3.440  -1.293  -1.101  1.00  0.00     0.188 C 
BRANCH   4   5
ATOM      5  O   UNL     1       4.798  -0.946  -0.900  1.00  0.00    -0.376 OA
BRANCH   5   6
ATOM      6  C   UNL     1       5.223   0.316  -0.432  1.00  0.00     0.202 C 
BRANCH   6   7
ATOM      7  C   UNL     1       4.550   1.047   0.739  1.00  0.00     0.261 C 
BRANCH   7   8
ATOM      8  O   UNL     1       3.161   0.814   0.976  1.00  0.00    -0.460 OA
BRANCH   8   9
ATOM      9  C   UNL     1       2.048   1.354   0.449  1.00  0.00     0.338 C 
ATOM     10  O   UNL     1       0.986   1.209   1.049  1.00  0.00    -0.246 OA
BRANCH   9  11
ATOM     11  C   UNL     1       2.013   1.977  -0.893  1.00  0.00     0.060 A 
ATOM     12  C   UNL     1       3.095   2.599  -1.508  1.00  0.00     0.016 A 
ATOM     13  C   UNL     1       0.761   1.971  -1.542  1.00  0.00     0.016 A 
ATOM     14  C   UNL     1       2.919   3.269  -2.704  1.00  0.00     0.010 A 
ATOM     15  C   UNL     1       0.573   2.661  -2.731  1.00  0.00     0.010 A 
ATOM     16  C   UNL     1       1.647   3.350  -3.273  1.00  0.00    -0.014 A 
BRANCH  16  17
ATOM     17  C   UNL     1       1.520   4.211  -4.433  1.00  0.00     0.031 A 
ATOM     18  C   UNL     1       2.269   3.771  -5.631  1.00  0.00     0.074 A 
ATOM     19  C   UNL     1       0.833   5.367  -4.403  1.00  0.00     0.049 A 
ATOM     20  N   UNL     1       3.376   4.259  -6.084  1.00  0.00    -0.248 NA
ATOM     21  C   UNL     1       1.812   2.560  -6.322  1.00  0.00     0.031 C 
ATOM     22  C   UNL     1      -0.119   5.835  -3.394  1.00  0.00     0.029 A 
ATOM     23  N   UNL     1       0.799   6.348  -5.343  1.00  0.00    -0.354 N 
ATOM     24  C   UNL     1       3.651   3.557  -7.251  1.00  0.00     0.074 A 
ATOM     25  C   UNL     1       2.752   2.428  -7.261  1.00  0.00     0.031 C 
ATOM     26  C   UNL     1      -0.802   6.892  -3.889  1.00  0.00     0.029 A 
ATOM     27  C   UNL     1      -0.230   7.262  -5.173  1.00  0.00     0.049 A 
ATOM     28  H   UNL     1       1.448   6.405  -6.081  1.00  0.00     0.167 HD
ATOM     29  C   UNL     1       4.435   4.082  -8.233  1.00  0.00     0.031 A 
ATOM     30  C   UNL     1      -0.615   8.212  -6.060  1.00  0.00     0.031 A 
ATOM     31  C   UNL     1       5.209   5.202  -7.765  1.00  0.00     0.049 A 
ATOM     32  C   UNL     1       0.537   8.481  -6.955  1.00  0.00     0.074 A 
ATOM     33  C   UNL     1       6.156   5.387  -6.776  1.00  0.00     0.029 A 
ATOM     34  N   UNL     1       4.771   6.460  -8.108  1.00  0.00    -0.354 N 
ATOM     35  N   UNL     1       1.633   9.062  -6.553  1.00  0.00    -0.248 NA
ATOM     36  C   UNL     1       0.656   7.717  -8.187  1.00  0.00     0.031 C 
ATOM     37  C   UNL     1       5.888   6.682  -6.247  1.00  0.00     0.029 A 
ATOM     38  C   UNL     1       4.841   7.239  -6.983  1.00  0.00     0.049 A 
ATOM     39  H   UNL     1       4.463   6.747  -8.998  1.00  0.00     0.167 HD
ATOM     40  C   UNL     1       2.654   8.396  -7.216  1.00  0.00     0.074 A 
ATOM     41  C   UNL     1       1.988   7.649  -8.280  1.00  0.00     0.031 C 
ATOM     42  C   UNL     1       3.906   8.301  -6.675  1.00  0.00     0.031 A 
BRANCH  29  43
ATOM     43  C   UNL     1       4.190   3.841  -9.703  1.00  0.00    -0.014 A 
ATOM     44  C   UNL     1       5.070   4.415 -10.645  1.00  0.00     0.010 A 
ATOM     45  C   UNL     1       2.974   3.326 -10.196  1.00  0.00     0.010 A 
ATOM     46  C   UNL     1       4.708   4.543 -11.992  1.00  0.00     0.020 A 
ATOM     47  C   UNL     1       2.623   3.408 -11.543  1.00  0.00     0.020 A 
ATOM     48  C   UNL     1       3.476   4.053 -12.427  1.00  0.00     0.054 A 
BRANCH  48  49
ATOM     49  S   UNL     1       2.965   4.332 -14.139  1.00  0.00     0.124 S 
ATOM     50  O   UNL     1       2.796   5.780 -14.168  1.00  0.00    -0.237 OA
ATOM     51  O   UNL     1       4.099   3.807 -14.890  1.00  0.00    -0.237 OA
ATOM     52  O   UNL     1       1.730   3.552 -14.256  1.00  0.00    -0.744 OA
ENDBRANCH  48  49
ENDBRANCH  29  43
BRANCH  30  53
ATOM     53  C   UNL     1      -2.001   8.633  -6.377  1.00  0.00    -0.014 A 
ATOM     54  C   UNL     1      -2.247   9.764  -7.177  1.00  0.00     0.010 A 
ATOM     55  C   UNL     1      -3.076   7.753  -6.134  1.00  0.00     0.010 A 
ATOM     56  C   UNL     1      -3.504   9.966  -7.770  1.00  0.00     0.020 A 
ATOM     57  C   UNL     1      -4.332   7.953  -6.714  1.00  0.00     0.020 A 
ATOM     58  C   UNL     1      -4.533   9.045  -7.553  1.00  0.00     0.054 A 
BRANCH  58  59
ATOM     59  S   UNL     1      -6.088   9.205  -8.479  1.00  0.00     0.124 S 
ATOM     60  O   UNL     1      -6.701  10.374  -7.856  1.00  0.00    -0.237 OA
ATOM     61  O   UNL     1      -5.624   9.389  -9.851  1.00  0.00    -0.237 OA
ATOM     62  O   UNL     1      -6.771   7.937  -8.226  1.00  0.00    -0.744 OA
ENDBRANCH  58  59
ENDBRANCH  30  53
BRANCH  42  63
ATOM     63  C   UNL     1       4.270   9.208  -5.523  1.00  0.00    -0.014 A 
ATOM     64  C   UNL     1       3.567   9.261  -4.304  1.00  0.00     0.010 A 
ATOM     65  C   UNL     1       5.456   9.955  -5.644  1.00  0.00     0.010 A 
ATOM     66  C   UNL     1       4.016  10.076  -3.253  1.00  0.00     0.020 A 
ATOM     67  C   UNL     1       5.920  10.751  -4.596  1.00  0.00     0.020 A 
ATOM     68  C   UNL     1       5.190  10.821  -3.410  1.00  0.00     0.054 A 
BRANCH  68  69
ATOM     69  S   UNL     1       5.776  11.863  -2.045  1.00  0.00     0.124 S 
ATOM     70  O   UNL     1       4.757  12.907  -1.983  1.00  0.00    -0.237 OA
ATOM     71  O   UNL     1       5.797  10.935  -0.916  1.00  0.00    -0.237 OA
ATOM     72  O   UNL     1       7.095  12.312  -2.491  1.00  0.00    -0.744 OA
ENDBRANCH  68  69
ENDBRANCH  42  63
ENDBRANCH  16  17
ENDBRANCH   9  11
ENDBRANCH   8   9
ENDBRANCH   7   8
ENDBRANCH   6   7
ENDBRANCH   5   6
ENDBRANCH   4   5
ENDBRANCH   3   4
ENDBRANCH   2   3
ENDBRANCH   1   2
BRANCH   1  73
ATOM     73  C   UNL     1       5.674  -3.546  -0.078  1.00  0.00     0.188 C 
BRANCH  73  74
ATOM     74  O   UNL     1       5.003  -4.099  -1.202  1.00  0.00    -0.376 OA
BRANCH  74  75
ATOM     75  C   UNL     1       3.882  -4.953  -0.997  1.00  0.00     0.202 C 
BRANCH  75  76
ATOM     76  C   UNL     1       3.964  -6.033   0.087  1.00  0.00     0.261 C 
BRANCH  76  77
ATOM     77  O   UNL     1       3.977  -5.516   1.435  1.00  0.00    -0.463 OA
BRANCH  77  78
ATOM     78  C   UNL     1       5.007  -5.825   2.240  1.00  0.00     0.310 C 
ATOM     79  O   UNL     1       6.003  -6.433   1.855  1.00  0.00    -0.252 OA
BRANCH  78  80
ATOM     80  C   UNL     1       4.819  -5.503   3.727  1.00  0.00     0.119 C 
ATOM     81  C   UNL     1       4.135  -6.668   4.447  1.00  0.00     0.100 C 
ATOM     82  C   UNL     1       4.464  -4.156   4.470  1.00  0.00     0.026 C 
ATOM     83  C   UNL     1       3.752  -6.232   5.886  1.00  0.00     0.025 C 
ATOM     84  C   UNL     1       3.071  -4.097   5.093  1.00  0.00    -0.027 C 
ATOM     85  C   UNL     1       5.314  -4.180   5.775  1.00  0.00     0.009 C 
ATOM     86  C   UNL     1       2.694  -5.173   5.803  1.00  0.00    -0.027 C 
ATOM     87  C   UNL     1       4.981  -5.504   6.543  1.00  0.00     0.009 C 
BRANCH  81  88
ATOM     88  C   UNL     1       3.099  -7.500   3.666  1.00  0.00     0.228 C 
ATOM     89  O   UNL     1       3.390  -8.694   3.465  1.00  0.00    -0.274 OA
ATOM     90  N   UNL     1       1.854  -7.164   3.237  1.00  0.00    -0.326 N 
ATOM     91  H   UNL     1       1.357  -7.964   2.950  1.00  0.00     0.169 HD
BRANCH  90  92
ATOM     92  C   UNL     1       1.067  -6.008   3.082  1.00  0.00     0.041 A 
ATOM     93  C   UNL     1      -0.320  -6.153   3.174  1.00  0.00     0.026 A 
ATOM     94  C   UNL     1       1.538  -4.739   2.805  1.00  0.00     0.026 A 
ATOM     95  C   UNL     1      -1.166  -5.029   3.189  1.00  0.00     0.008 A 
ATOM     96  C   UNL     1       0.713  -3.614   2.788  1.00  0.00     0.008 A 
ATOM     97  C   UNL     1      -0.641  -3.738   3.054  1.00  0.00    -0.026 A 
BRANCH  97  98
ATOM     98  C   UNL     1      -1.468  -2.490   3.199  1.00  0.00     0.181 C 
BRANCH  98  99
ATOM     99  N   UNL     1      -2.071  -2.092   1.947  1.00  0.00    -0.249 N 
ATOM    100  C   UNL     1      -3.111  -2.684   1.304  1.00  0.00     0.220 A 
ATOM    101  N   UNL     1      -1.688  -0.973   1.312  1.00  0.00    -0.160 NA
ATOM    102  N   UNL     1      -3.423  -1.988   0.237  1.00  0.00    -0.224 NA
ATOM    103  C   UNL     1      -2.531  -0.952   0.279  1.00  0.00     0.246 A 
ENDBRANCH  98  99
ENDBRANCH  97  98
ENDBRANCH  90  92
ENDBRANCH  81  88
ENDBRANCH  78  80
ENDBRANCH  77  78
ENDBRANCH  76  77
ENDBRANCH  75  76
ENDBRANCH  74  75
ENDBRANCH  73  74
ENDBRANCH   1  73
TORSDOF 27
