REMARK SMILES O=C(OCCOCCOCCOCCOC(=O)c1cncc(Nc2cccnc2)n1)c1ccc(-c2c3nc(c(-c4ccc(S(=O)(=O)[O-])cc4)c4ccc([nH]4)c(-c4ccc(S(=O)(=O)[O-])cc4)c4nc(c(-c5ccc(S(=O)(=O)[O-])cc5)c5ccc2[nH]5)C=C4)C=C3)cc1
REMARK SMILES IDX 8 1 7 2 6 3 5 4 4 5 3 6 2 7 1 8 31 9 32 10 90 11 33 12 89 13
REMARK SMILES IDX 34 14 35 15 36 16 83 17 37 18 88 19 82 20 84 21 38 22 87 23
REMARK SMILES IDX 81 24 80 25 39 27 69 28 50 29 68 30 51 31 54 32 67 33 85 34
REMARK SMILES IDX 52 35 53 36 66 38 86 39 55 40 40 41 41 42 49 43 42 44 48 45
REMARK SMILES IDX 43 46 44 47 45 48 46 49 47 50 70 51 71 52 79 53 72 54 78 55
REMARK SMILES IDX 73 56 74 57 75 58 76 59 77 60 56 61 57 62 65 63 58 64 64 65
REMARK SMILES IDX 59 66 60 67 61 68 62 69 63 70 9 71 10 72 11 73 12 74 13 75
REMARK SMILES IDX 14 76 15 77 16 78 17 79 18 80 19 81 30 82 20 83 22 84 21 85
REMARK SMILES IDX 23 86 24 88 25 89 29 90 26 91 28 92 27 93
REMARK H PARENT 84 26 54 37 23 87
REMARK Flexibility Score: inf
ROOT
ATOM      1  C   UNL     1       1.852  -1.534  -2.354  1.00  0.00     0.188 C 
ENDROOT
BRANCH   1   2
ATOM      2  C   UNL     1       2.255  -1.488  -0.880  1.00  0.00     0.188 C 
BRANCH   2   3
ATOM      3  O   UNL     1       3.588  -0.987  -0.747  1.00  0.00    -0.376 OA
BRANCH   3   4
ATOM      4  C   UNL     1       4.353  -1.560   0.312  1.00  0.00     0.202 C 
BRANCH   4   5
ATOM      5  C   UNL     1       4.161  -0.871   1.665  1.00  0.00     0.261 C 
BRANCH   5   6
ATOM      6  O   UNL     1       2.791  -0.508   1.885  1.00  0.00    -0.460 OA
BRANCH   6   7
ATOM      7  C   UNL     1       2.202   0.687   1.624  1.00  0.00     0.338 C 
ATOM      8  O   UNL     1       1.008   0.815   1.894  1.00  0.00    -0.246 OA
BRANCH   7   9
ATOM      9  C   UNL     1       2.921   1.871   1.055  1.00  0.00     0.060 A 
ATOM     10  C   UNL     1       4.045   1.823   0.227  1.00  0.00     0.016 A 
ATOM     11  C   UNL     1       2.376   3.135   1.342  1.00  0.00     0.016 A 
ATOM     12  C   UNL     1       4.676   2.978  -0.216  1.00  0.00     0.010 A 
ATOM     13  C   UNL     1       2.981   4.305   0.872  1.00  0.00     0.010 A 
ATOM     14  C   UNL     1       4.161   4.225   0.125  1.00  0.00    -0.014 A 
BRANCH  14  15
ATOM     15  C   UNL     1       4.984   5.414  -0.156  1.00  0.00     0.031 A 
ATOM     16  C   UNL     1       5.756   6.011   0.984  1.00  0.00     0.074 A 
ATOM     17  C   UNL     1       5.139   5.849  -1.419  1.00  0.00     0.049 A 
ATOM     18  N   UNL     1       6.515   7.072   1.005  1.00  0.00    -0.248 NA
ATOM     19  C   UNL     1       5.673   5.304   2.276  1.00  0.00     0.031 C 
ATOM     20  C   UNL     1       4.535   5.235  -2.604  1.00  0.00     0.029 A 
ATOM     21  N   UNL     1       5.876   6.888  -1.919  1.00  0.00    -0.354 N 
ATOM     22  C   UNL     1       6.971   7.178   2.314  1.00  0.00     0.074 A 
ATOM     23  C   UNL     1       6.407   6.077   3.059  1.00  0.00     0.031 C 
ATOM     24  C   UNL     1       4.943   5.901  -3.697  1.00  0.00     0.029 A 
ATOM     25  C   UNL     1       5.781   7.022  -3.284  1.00  0.00     0.049 A 
ATOM     26  H   UNL     1       6.422   7.483  -1.356  1.00  0.00     0.167 HD
ATOM     27  C   UNL     1       7.780   8.123   2.843  1.00  0.00     0.031 A 
ATOM     28  C   UNL     1       6.289   7.970  -4.096  1.00  0.00     0.031 A 
ATOM     29  C   UNL     1       8.311   9.215   2.077  1.00  0.00     0.049 A 
ATOM     30  C   UNL     1       7.104   9.069  -3.466  1.00  0.00     0.074 A 
ATOM     31  C   UNL     1       9.075  10.283   2.504  1.00  0.00     0.029 A 
ATOM     32  N   UNL     1       8.127   9.368   0.709  1.00  0.00    -0.354 N 
ATOM     33  N   UNL     1       7.462   9.212  -2.210  1.00  0.00    -0.248 NA
ATOM     34  C   UNL     1       7.568  10.143  -4.353  1.00  0.00     0.031 C 
ATOM     35  C   UNL     1       9.316  11.107   1.399  1.00  0.00     0.029 A 
ATOM     36  C   UNL     1       8.749  10.522   0.275  1.00  0.00     0.049 A 
ATOM     37  H   UNL     1       7.627   8.746   0.133  1.00  0.00     0.167 HD
ATOM     38  C   UNL     1       8.202  10.386  -2.156  1.00  0.00     0.074 A 
ATOM     39  C   UNL     1       8.259  10.901  -3.511  1.00  0.00     0.031 C 
ATOM     40  C   UNL     1       8.779  10.992  -1.088  1.00  0.00     0.031 A 
BRANCH  27  41
ATOM     41  C   UNL     1       8.046   8.045   4.322  1.00  0.00    -0.014 A 
ATOM     42  C   UNL     1       8.886   7.058   4.869  1.00  0.00     0.010 A 
ATOM     43  C   UNL     1       7.403   8.952   5.184  1.00  0.00     0.010 A 
ATOM     44  C   UNL     1       9.038   6.949   6.255  1.00  0.00     0.020 A 
ATOM     45  C   UNL     1       7.572   8.861   6.568  1.00  0.00     0.020 A 
ATOM     46  C   UNL     1       8.372   7.846   7.096  1.00  0.00     0.054 A 
BRANCH  46  47
ATOM     47  S   UNL     1       8.570   7.673   8.891  1.00  0.00     0.124 S 
ATOM     48  O   UNL     1       7.761   6.489   9.170  1.00  0.00    -0.237 OA
ATOM     49  O   UNL     1      10.013   7.496   9.039  1.00  0.00    -0.237 OA
ATOM     50  O   UNL     1       8.042   8.927   9.421  1.00  0.00    -0.744 OA
ENDBRANCH  46  47
ENDBRANCH  27  41
BRANCH  28  51
ATOM     51  C   UNL     1       5.989   7.955  -5.555  1.00  0.00    -0.014 A 
ATOM     52  C   UNL     1       7.003   7.749  -6.507  1.00  0.00     0.010 A 
ATOM     53  C   UNL     1       4.668   8.147  -6.005  1.00  0.00     0.010 A 
ATOM     54  C   UNL     1       6.705   7.748  -7.875  1.00  0.00     0.020 A 
ATOM     55  C   UNL     1       4.361   8.118  -7.368  1.00  0.00     0.020 A 
ATOM     56  C   UNL     1       5.385   7.932  -8.297  1.00  0.00     0.054 A 
BRANCH  56  57
ATOM     57  S   UNL     1       5.010   7.885 -10.073  1.00  0.00     0.124 S 
ATOM     58  O   UNL     1       5.524   9.173 -10.526  1.00  0.00    -0.237 OA
ATOM     59  O   UNL     1       5.756   6.712 -10.523  1.00  0.00    -0.237 OA
ATOM     60  O   UNL     1       3.557   7.741 -10.112  1.00  0.00    -0.744 OA
ENDBRANCH  56  57
ENDBRANCH  28  51
BRANCH  40  61
ATOM     61  C   UNL     1       9.539  12.259  -1.354  1.00  0.00    -0.014 A 
ATOM     62  C   UNL     1       8.867  13.468  -1.602  1.00  0.00     0.010 A 
ATOM     63  C   UNL     1      10.943  12.249  -1.279  1.00  0.00     0.010 A 
ATOM     64  C   UNL     1       9.590  14.646  -1.794  1.00  0.00     0.020 A 
ATOM     65  C   UNL     1      11.668  13.429  -1.445  1.00  0.00     0.020 A 
ATOM     66  C   UNL     1      10.987  14.619  -1.713  1.00  0.00     0.054 A 
BRANCH  66  67
ATOM     67  S   UNL     1      11.902  16.171  -1.906  1.00  0.00     0.124 S 
ATOM     68  O   UNL     1      11.839  16.382  -3.350  1.00  0.00    -0.237 OA
ATOM     69  O   UNL     1      11.124  17.107  -1.099  1.00  0.00    -0.237 OA
ATOM     70  O   UNL     1      13.229  15.857  -1.379  1.00  0.00    -0.744 OA
ENDBRANCH  66  67
ENDBRANCH  40  61
ENDBRANCH  14  15
ENDBRANCH   7   9
ENDBRANCH   6   7
ENDBRANCH   5   6
ENDBRANCH   4   5
ENDBRANCH   3   4
ENDBRANCH   2   3
ENDBRANCH   1   2
BRANCH   1  71
ATOM     71  O   UNL     1       2.531  -2.523  -3.126  1.00  0.00    -0.377 OA
BRANCH  71  72
ATOM     72  C   UNL     1       3.952  -2.527  -3.043  1.00  0.00     0.188 C 
BRANCH  72  73
ATOM     73  C   UNL     1       4.731  -1.272  -3.491  1.00  0.00     0.188 C 
BRANCH  73  74
ATOM     74  O   UNL     1       3.918  -0.196  -3.941  1.00  0.00    -0.376 OA
BRANCH  74  75
ATOM     75  C   UNL     1       3.961   0.055  -5.344  1.00  0.00     0.202 C 
BRANCH  75  76
ATOM     76  C   UNL     1       3.103  -0.914  -6.165  1.00  0.00     0.261 C 
BRANCH  76  77
ATOM     77  O   UNL     1       3.507  -2.294  -6.084  1.00  0.00    -0.458 OA
BRANCH  77  78
ATOM     78  C   UNL     1       4.734  -2.632  -6.549  1.00  0.00     0.358 C 
ATOM     79  O   UNL     1       5.524  -1.915  -7.134  1.00  0.00    -0.244 OA
BRANCH  78  80
ATOM     80  C   UNL     1       5.001  -4.006  -6.065  1.00  0.00     0.169 A 
ATOM     81  C   UNL     1       4.094  -5.014  -6.350  1.00  0.00     0.147 A 
ATOM     82  N   UNL     1       6.041  -4.168  -5.190  1.00  0.00    -0.220 NA
ATOM     83  N   UNL     1       4.189  -6.243  -5.793  1.00  0.00    -0.258 NA
ATOM     84  C   UNL     1       6.119  -5.371  -4.583  1.00  0.00     0.149 A 
ATOM     85  C   UNL     1       5.202  -6.383  -4.899  1.00  0.00     0.158 A 
BRANCH  84  86
ATOM     86  N   UNL     1       7.083  -5.531  -3.582  1.00  0.00    -0.338 N 
ATOM     87  H   UNL     1       7.409  -4.706  -3.155  1.00  0.00     0.168 HD
BRANCH  86  88
ATOM     88  C   UNL     1       7.637  -6.728  -3.118  1.00  0.00     0.058 A 
ATOM     89  C   UNL     1       8.259  -7.618  -3.996  1.00  0.00     0.029 A 
ATOM     90  C   UNL     1       7.662  -7.058  -1.766  1.00  0.00     0.137 A 
ATOM     91  C   UNL     1       8.809  -8.803  -3.516  1.00  0.00     0.022 A 
ATOM     92  N   UNL     1       8.181  -8.207  -1.267  1.00  0.00    -0.263 NA
ATOM     93  C   UNL     1       8.736  -9.057  -2.158  1.00  0.00     0.111 A 
ENDBRANCH  86  88
ENDBRANCH  84  86
ENDBRANCH  78  80
ENDBRANCH  77  78
ENDBRANCH  76  77
ENDBRANCH  75  76
ENDBRANCH  74  75
ENDBRANCH  73  74
ENDBRANCH  72  73
ENDBRANCH  71  72
ENDBRANCH   1  71
TORSDOF 25
