REMARK SMILES O=C(C[C@H]1N=NC(=O)c2ccccc21)N[C@@H](CC1=c2ccccc2=NC1)C(=O)OCCOCCOCCOCCOC(=O)c1ccc(-c2c3nc(c(-c4ccc(S(=O)(=O)[O-])cc4)c4ccc([nH]4)c(-c4ccc(S(=O)(=O)[O-])cc4)c4nc(c(-c5ccc(S(=O)(=O)[O-])cc5)c5ccc2[nH]5)C=C4)C=C3)cc1
REMARK SMILES IDX 35 1 34 2 33 3 32 4 31 5 30 6 29 7 27 8 28 9 16 10 15 11
REMARK SMILES IDX 1 12 2 13 3 15 4 16 5 17 14 18 6 19 9 20 13 21 7 22 10 23
REMARK SMILES IDX 12 24 8 25 11 26 17 27 18 28 19 29 26 30 20 31 24 32 25 33
REMARK SMILES IDX 21 34 23 35 22 36 36 37 37 38 38 39 39 40 40 41 41 42 42 43
REMARK SMILES IDX 43 44 44 45 45 46 103 47 46 48 102 49 47 50 48 51 49 52
REMARK SMILES IDX 96 53 50 54 101 55 95 56 97 57 51 58 100 59 94 60 93 61
REMARK SMILES IDX 52 63 82 64 63 65 81 66 64 67 67 68 80 69 98 70 65 71 66 72
REMARK SMILES IDX 79 74 99 75 68 76 53 77 54 78 62 79 55 80 61 81 56 82 57 83
REMARK SMILES IDX 58 84 59 85 60 86 83 87 84 88 92 89 85 90 91 91 86 92 87 93
REMARK SMILES IDX 88 94 89 95 90 96 69 97 70 98 78 99 71 100 77 101 72 102
REMARK SMILES IDX 73 103 74 104 75 105 76 106
REMARK H PARENT 15 14 97 62 67 73
REMARK Flexibility Score: inf
ROOT
ATOM      1  O   UNL     1       6.714  -0.323   0.133  1.00  0.00    -0.377 OA
ENDROOT
BRANCH   1   2
ATOM      2  C   UNL     1       6.825   0.719  -1.565  1.00  0.00     0.188 C 
BRANCH   2   3
ATOM      3  C   UNL     1       7.990   1.726  -2.232  1.00  0.00     0.188 C 
BRANCH   3   4
ATOM      4  O   UNL     1       8.512   2.983  -1.814  1.00  0.00    -0.376 OA
BRANCH   4   5
ATOM      5  C   UNL     1       7.988   3.878  -0.859  1.00  0.00     0.202 C 
BRANCH   5   6
ATOM      6  C   UNL     1       6.559   4.431  -0.977  1.00  0.00     0.261 C 
BRANCH   6   7
ATOM      7  O   UNL     1       5.584   3.527  -1.515  1.00  0.00    -0.462 OA
BRANCH   7   8
ATOM      8  C   UNL     1       5.446   3.596  -2.864  1.00  0.00     0.329 C 
ATOM      9  O   UNL     1       6.089   4.365  -3.574  1.00  0.00    -0.250 OA
BRANCH   8  10
ATOM     10  C   UNL     1       4.258   2.783  -3.411  1.00  0.00     0.196 C 
BRANCH  10  11
ATOM     11  N   UNL     1       3.798   1.484  -2.865  1.00  0.00    -0.342 N 
ATOM     12  O   UNL     1       4.853   0.139  -4.387  1.00  0.00    -0.275 OA
ATOM     13  C   UNL     1       4.091   0.263  -3.432  1.00  0.00     0.223 C 
ATOM     14  H   UNL     1       3.249   1.494  -2.048  1.00  0.00     0.164 HD
BRANCH  13  15
ATOM     15  C   UNL     1       3.405  -0.944  -2.801  1.00  0.00     0.134 C 
BRANCH  15  16
ATOM     16  C   UNL     1       3.949  -1.441  -1.448  1.00  0.00     0.169 C 
ATOM     17  N   UNL     1       4.121  -2.912  -1.527  1.00  0.00    -0.177 NA
ATOM     18  C   UNL     1       5.157  -0.737  -0.957  1.00  0.00    -0.008 A 
ATOM     19  N   UNL     1       5.202  -3.532  -1.692  1.00  0.00    -0.111 NA
ATOM     20  C   UNL     1       6.670  -1.600  -1.287  1.00  0.00     0.049 A 
ATOM     21  C   UNL     1       5.145   0.843  -0.114  1.00  0.00     0.007 A 
ATOM     22  C   UNL     1       6.478  -2.996  -1.649  1.00  0.00     0.295 C 
ATOM     23  C   UNL     1       8.259  -0.862  -0.863  1.00  0.00     0.014 A 
ATOM     24  C   UNL     1       6.728   1.609   0.345  1.00  0.00     0.000 A 
ATOM     25  O   UNL     1       7.494  -3.665  -1.818  1.00  0.00    -0.265 OA
ATOM     26  C   UNL     1       8.301   0.739  -0.013  1.00  0.00     0.001 A 
ENDBRANCH  15  16
ENDBRANCH  13  15
ENDBRANCH  10  11
BRANCH  10  27
ATOM     27  C   UNL     1       3.099   3.796  -3.468  1.00  0.00     0.070 C 
BRANCH  27  28
ATOM     28  C   UNL     1       2.312   4.169  -2.182  1.00  0.00    -0.037 C 
ATOM     29  C   UNL     1       2.031   3.252  -1.244  1.00  0.00     0.001 A 
ATOM     30  C   UNL     1       0.971   4.725  -2.630  1.00  0.00     0.174 C 
ATOM     31  C   UNL     1       2.108   3.267   0.200  1.00  0.00     0.010 A 
ATOM     32  C   UNL     1       0.701   2.793  -1.733  1.00  0.00     0.065 A 
ATOM     33  N   UNL     1       0.075   3.542  -2.584  1.00  0.00    -0.280 NA
ATOM     34  C   UNL     1       1.425   2.310   0.862  1.00  0.00     0.001 A 
ATOM     35  C   UNL     1       0.260   1.517  -1.138  1.00  0.00     0.028 A 
ATOM     36  C   UNL     1       0.658   1.304   0.130  1.00  0.00     0.002 A 
ENDBRANCH  27  28
ENDBRANCH  10  27
ENDBRANCH   8  10
ENDBRANCH   7   8
ENDBRANCH   6   7
ENDBRANCH   5   6
ENDBRANCH   4   5
ENDBRANCH   3   4
ENDBRANCH   2   3
ENDBRANCH   1   2
BRANCH   1  37
ATOM     37  C   UNL     1       6.503  -0.313   1.655  1.00  0.00     0.188 C 
BRANCH  37  38
ATOM     38  C   UNL     1       7.763  -0.279   2.551  1.00  0.00     0.188 C 
BRANCH  38  39
ATOM     39  O   UNL     1       8.571  -1.443   2.698  1.00  0.00    -0.376 OA
BRANCH  39  40
ATOM     40  C   UNL     1       8.179  -2.631   2.034  1.00  0.00     0.202 C 
BRANCH  40  41
ATOM     41  C   UNL     1       7.091  -3.491   2.694  1.00  0.00     0.261 C 
BRANCH  41  42
ATOM     42  O   UNL     1       6.085  -2.758   3.396  1.00  0.00    -0.460 OA
BRANCH  42  43
ATOM     43  C   UNL     1       6.452  -2.272   4.603  1.00  0.00     0.338 C 
ATOM     44  O   UNL     1       7.485  -2.502   5.212  1.00  0.00    -0.246 OA
BRANCH  43  45
ATOM     45  C   UNL     1       5.458  -1.254   5.002  1.00  0.00     0.060 A 
ATOM     46  C   UNL     1       4.093  -1.456   4.770  1.00  0.00     0.016 A 
ATOM     47  C   UNL     1       5.910  -0.088   5.637  1.00  0.00     0.016 A 
ATOM     48  C   UNL     1       3.174  -0.538   5.268  1.00  0.00     0.010 A 
ATOM     49  C   UNL     1       4.995   0.840   6.118  1.00  0.00     0.010 A 
ATOM     50  C   UNL     1       3.626   0.571   6.003  1.00  0.00    -0.014 A 
BRANCH  50  51
ATOM     51  C   UNL     1       2.703   1.239   6.942  1.00  0.00     0.031 A 
ATOM     52  C   UNL     1       2.139   2.587   6.668  1.00  0.00     0.074 A 
ATOM     53  C   UNL     1       2.443   0.575   8.085  1.00  0.00     0.049 A 
ATOM     54  N   UNL     1       1.280   3.263   7.380  1.00  0.00    -0.248 NA
ATOM     55  C   UNL     1       2.594   3.272   5.449  1.00  0.00     0.031 C 
ATOM     56  C   UNL     1       3.002  -0.739   8.426  1.00  0.00     0.029 A 
ATOM     57  N   UNL     1       1.652   0.884   9.157  1.00  0.00    -0.354 N 
ATOM     58  C   UNL     1       1.060   4.441   6.686  1.00  0.00     0.074 A 
ATOM     59  C   UNL     1       1.926   4.417   5.525  1.00  0.00     0.031 C 
ATOM     60  C   UNL     1       2.497  -1.144   9.597  1.00  0.00     0.029 A 
ATOM     61  C   UNL     1       1.619  -0.103  10.114  1.00  0.00     0.049 A 
ATOM     62  H   UNL     1       1.154   1.730   9.235  1.00  0.00     0.167 HD
ATOM     63  C   UNL     1       0.189   5.431   6.992  1.00  0.00     0.031 A 
ATOM     64  C   UNL     1       0.945  -0.172  11.277  1.00  0.00     0.031 A 
ATOM     65  C   UNL     1      -0.613   5.434   8.190  1.00  0.00     0.049 A 
ATOM     66  C   UNL     1       0.032   0.966  11.620  1.00  0.00     0.074 A 
ATOM     67  C   UNL     1      -1.525   6.384   8.612  1.00  0.00     0.029 A 
ATOM     68  N   UNL     1      -0.595   4.439   9.164  1.00  0.00    -0.354 N 
ATOM     69  N   UNL     1      -0.220   2.049  10.921  1.00  0.00    -0.248 NA
ATOM     70  C   UNL     1      -0.700   0.876  12.886  1.00  0.00     0.031 C 
ATOM     71  C   UNL     1      -1.999   6.003   9.870  1.00  0.00     0.029 A 
ATOM     72  C   UNL     1      -1.457   4.768  10.197  1.00  0.00     0.049 A 
ATOM     73  H   UNL     1      -0.048   3.622   9.124  1.00  0.00     0.167 HD
ATOM     74  C   UNL     1      -1.153   2.766  11.654  1.00  0.00     0.074 A 
ATOM     75  C   UNL     1      -1.438   1.979  12.840  1.00  0.00     0.031 C 
ATOM     76  C   UNL     1      -1.718   3.966  11.373  1.00  0.00     0.031 A 
BRANCH  63  77
ATOM     77  C   UNL     1       0.042   6.571   6.016  1.00  0.00    -0.014 A 
ATOM     78  C   UNL     1       0.361   7.887   6.396  1.00  0.00     0.010 A 
ATOM     79  C   UNL     1      -0.509   6.349   4.739  1.00  0.00     0.010 A 
ATOM     80  C   UNL     1       0.112   8.959   5.533  1.00  0.00     0.020 A 
ATOM     81  C   UNL     1      -0.728   7.412   3.859  1.00  0.00     0.020 A 
ATOM     82  C   UNL     1      -0.436   8.714   4.271  1.00  0.00     0.054 A 
BRANCH  82  83
ATOM     83  S   UNL     1      -0.765  10.116   3.168  1.00  0.00     0.124 S 
ATOM     84  O   UNL     1      -1.918  10.744   3.804  1.00  0.00    -0.237 OA
ATOM     85  O   UNL     1       0.485  10.869   3.234  1.00  0.00    -0.237 OA
ATOM     86  O   UNL     1      -1.029   9.480   1.879  1.00  0.00    -0.744 OA
ENDBRANCH  82  83
ENDBRANCH  63  77
BRANCH  64  87
ATOM     87  C   UNL     1       1.067  -1.402  12.108  1.00  0.00    -0.014 A 
ATOM     88  C   UNL     1       2.303  -1.759  12.683  1.00  0.00     0.010 A 
ATOM     89  C   UNL     1      -0.008  -2.304  12.193  1.00  0.00     0.010 A 
ATOM     90  C   UNL     1       2.485  -3.024  13.250  1.00  0.00     0.020 A 
ATOM     91  C   UNL     1       0.160  -3.557  12.793  1.00  0.00     0.020 A 
ATOM     92  C   UNL     1       1.416  -3.922  13.283  1.00  0.00     0.054 A 
BRANCH  92  93
ATOM     93  S   UNL     1       1.705  -5.593  13.927  1.00  0.00     0.124 S 
ATOM     94  O   UNL     1       2.543  -6.176  12.881  1.00  0.00    -0.237 OA
ATOM     95  O   UNL     1       2.375  -5.331  15.197  1.00  0.00    -0.237 OA
ATOM     96  O   UNL     1       0.362  -6.157  14.036  1.00  0.00    -0.744 OA
ENDBRANCH  92  93
ENDBRANCH  64  87
BRANCH  76  97
ATOM     97  C   UNL     1      -2.699   4.528  12.369  1.00  0.00    -0.014 A 
ATOM     98  C   UNL     1      -4.041   4.719  11.991  1.00  0.00     0.010 A 
ATOM     99  C   UNL     1      -2.261   5.007  13.616  1.00  0.00     0.010 A 
ATOM    100  C   UNL     1      -4.913   5.433  12.815  1.00  0.00     0.020 A 
ATOM    101  C   UNL     1      -3.141   5.686  14.461  1.00  0.00     0.020 A 
ATOM    102  C   UNL     1      -4.452   5.925  14.039  1.00  0.00     0.054 A 
BRANCH 102 103
ATOM    103  S   UNL     1      -5.577   6.914  15.058  1.00  0.00     0.124 S 
ATOM    104  O   UNL     1      -5.655   8.162  14.304  1.00  0.00    -0.237 OA
ATOM    105  O   UNL     1      -6.794   6.105  15.066  1.00  0.00    -0.237 OA
ATOM    106  O   UNL     1      -4.888   7.004  16.343  1.00  0.00    -0.744 OA
ENDBRANCH 102 103
ENDBRANCH  76  97
ENDBRANCH  50  51
ENDBRANCH  43  45
ENDBRANCH  42  43
ENDBRANCH  41  42
ENDBRANCH  40  41
ENDBRANCH  39  40
ENDBRANCH  38  39
ENDBRANCH  37  38
ENDBRANCH   1  37
TORSDOF 28
