REMARK SMILES CC(C)CCc1cc2c(cc1Cl)C=C(C(=O)OCCOCCOCCOCCOC(=O)c1ccc(-c3c4nc(c(-c5ccc(S(=O)(=O)[O-])cc5)c5ccc([nH]5)c(-c5ccc(S(=O)(=O)[O-])cc5)c5nc(c(-c6ccc(S(=O)(=O)[O-])cc6)c6ccc3[nH]6)C=C5)C=C4)cc1)[C@@H](C(F)(F)F)O2
REMARK SMILES IDX 23 1 22 2 21 3 20 4 19 5 18 6 17 7 15 8 16 9 14 10 6 11 7 12
REMARK SMILES IDX 11 13 8 14 10 15 12 16 9 17 97 18 13 19 92 20 5 21 4 22 2 23
REMARK SMILES IDX 1 24 3 25 93 26 94 27 95 28 96 29 24 30 25 31 26 32 27 33
REMARK SMILES IDX 28 34 29 35 30 36 31 37 32 38 33 39 91 40 34 41 90 42 35 43
REMARK SMILES IDX 36 44 37 45 84 46 38 47 89 48 83 49 85 50 39 51 88 52 82 53
REMARK SMILES IDX 81 54 40 56 70 57 51 58 69 59 52 60 55 61 68 62 86 63 53 64
REMARK SMILES IDX 54 65 67 67 87 68 56 69 41 70 42 71 50 72 43 73 49 74 44 75
REMARK SMILES IDX 45 76 46 77 47 78 48 79 71 80 72 81 80 82 73 83 79 84 74 85
REMARK SMILES IDX 75 86 76 87 77 88 78 89 57 90 58 91 66 92 59 93 65 94 60 95
REMARK SMILES IDX 61 96 62 97 63 98 64 99
REMARK H PARENT 85 55 55 66
REMARK Flexibility Score: inf
ROOT
ATOM      1  O   UNL     1      -0.170   1.033  10.518  1.00  0.00    -0.377 OA
ENDROOT
BRANCH   1   2
ATOM      2  C   UNL     1      -0.629  -0.052   9.724  1.00  0.00     0.188 C 
BRANCH   2   3
ATOM      3  C   UNL     1       0.129  -1.355  10.036  1.00  0.00     0.188 C 
BRANCH   3   4
ATOM      4  O   UNL     1       0.846  -1.299  11.259  1.00  0.00    -0.376 OA
BRANCH   4   5
ATOM      5  C   UNL     1       2.205  -0.883  11.274  1.00  0.00     0.202 C 
BRANCH   5   6
ATOM      6  C   UNL     1       2.728   0.330  10.479  1.00  0.00     0.261 C 
BRANCH   6   7
ATOM      7  O   UNL     1       2.191   0.530   9.169  1.00  0.00    -0.460 OA
BRANCH   7   8
ATOM      8  C   UNL     1       2.576  -0.300   8.185  1.00  0.00     0.338 C 
ATOM      9  O   UNL     1       3.378  -1.213   8.264  1.00  0.00    -0.246 OA
BRANCH   8  10
ATOM     10  C   UNL     1       1.692  -0.037   7.026  1.00  0.00     0.087 C 
ATOM     11  C   UNL     1      -1.061  -0.389   2.853  1.00  0.00    -0.026 A 
ATOM     12  C   UNL     1      -0.697   0.669   3.705  1.00  0.00     0.052 A 
ATOM     13  C   UNL     1      -0.878  -1.700   3.324  1.00  0.00     0.045 A 
ATOM     14  C   UNL     1       0.009   0.432   4.884  1.00  0.00     0.128 A 
ATOM     15  C   UNL     1      -0.200  -1.938   4.524  1.00  0.00     0.032 A 
ATOM     16  Cl  UNL     1      -1.437  -3.082   2.447  1.00  0.00    -0.084 Cl
ATOM     17  C   UNL     1       0.305  -0.871   5.270  1.00  0.00     0.019 A 
ATOM     18  O   UNL     1       0.400   1.540   5.576  1.00  0.00    -0.475 OA
ATOM     19  C   UNL     1       1.180  -1.107   6.403  1.00  0.00     0.027 C 
ATOM     20  C   UNL     1       1.341   1.390   6.675  1.00  0.00     0.316 C 
BRANCH  11  21
ATOM     21  C   UNL     1      -1.597  -0.097   1.466  1.00  0.00     0.037 C 
BRANCH  21  22
ATOM     22  C   UNL     1      -0.969   1.115   0.747  1.00  0.00     0.008 C 
BRANCH  22  23
ATOM     23  C   UNL     1       0.575   1.111   0.650  1.00  0.00    -0.017 C 
ATOM     24  C   UNL     1       1.106  -0.040  -0.204  1.00  0.00     0.007 C 
ATOM     25  C   UNL     1       1.064   2.450   0.093  1.00  0.00     0.007 C 
ENDBRANCH  22  23
ENDBRANCH  21  22
ENDBRANCH  11  21
BRANCH  20  26
ATOM     26  C   UNL     1       2.587   2.233   6.371  1.00  0.00     0.430 C 
ATOM     27  F   UNL     1       2.250   3.487   5.989  1.00  0.00    -0.167 F 
ATOM     28  F   UNL     1       3.391   2.349   7.452  1.00  0.00    -0.167 F 
ATOM     29  F   UNL     1       3.323   1.689   5.374  1.00  0.00    -0.167 F 
ENDBRANCH  20  26
ENDBRANCH   8  10
ENDBRANCH   7   8
ENDBRANCH   6   7
ENDBRANCH   5   6
ENDBRANCH   4   5
ENDBRANCH   3   4
ENDBRANCH   2   3
ENDBRANCH   1   2
BRANCH   1  30
ATOM     30  C   UNL     1      -0.841   1.242  11.762  1.00  0.00     0.188 C 
BRANCH  30  31
ATOM     31  C   UNL     1      -1.321   0.033  12.596  1.00  0.00     0.188 C 
BRANCH  31  32
ATOM     32  O   UNL     1      -2.119  -0.892  11.855  1.00  0.00    -0.376 OA
BRANCH  32  33
ATOM     33  C   UNL     1      -3.512  -0.917  12.132  1.00  0.00     0.202 C 
BRANCH  33  34
ATOM     34  C   UNL     1      -4.303   0.245  11.518  1.00  0.00     0.261 C 
BRANCH  34  35
ATOM     35  O   UNL     1      -3.936   1.552  11.982  1.00  0.00    -0.460 OA
BRANCH  35  36
ATOM     36  C   UNL     1      -4.023   1.801  13.308  1.00  0.00     0.338 C 
ATOM     37  O   UNL     1      -4.430   1.045  14.172  1.00  0.00    -0.246 OA
BRANCH  36  38
ATOM     38  C   UNL     1      -3.345   3.090  13.557  1.00  0.00     0.060 A 
ATOM     39  C   UNL     1      -3.648   4.206  12.772  1.00  0.00     0.016 A 
ATOM     40  C   UNL     1      -2.376   3.173  14.566  1.00  0.00     0.016 A 
ATOM     41  C   UNL     1      -3.001   5.415  13.019  1.00  0.00     0.010 A 
ATOM     42  C   UNL     1      -1.730   4.388  14.811  1.00  0.00     0.010 A 
ATOM     43  C   UNL     1      -2.057   5.523  14.055  1.00  0.00    -0.014 A 
BRANCH  43  44
ATOM     44  C   UNL     1      -1.570   6.866  14.451  1.00  0.00     0.031 A 
ATOM     45  C   UNL     1      -0.211   7.368  14.071  1.00  0.00     0.074 A 
ATOM     46  C   UNL     1      -2.412   7.650  15.153  1.00  0.00     0.049 A 
ATOM     47  N   UNL     1       0.284   8.568  14.228  1.00  0.00    -0.248 NA
ATOM     48  C   UNL     1       0.710   6.411  13.441  1.00  0.00     0.031 C 
ATOM     49  C   UNL     1      -3.751   7.249  15.593  1.00  0.00     0.029 A 
ATOM     50  N   UNL     1      -2.288   8.942  15.597  1.00  0.00    -0.354 N 
ATOM     51  C   UNL     1       1.564   8.526  13.693  1.00  0.00     0.074 A 
ATOM     52  C   UNL     1       1.789   7.164  13.254  1.00  0.00     0.031 C 
ATOM     53  C   UNL     1      -4.341   8.286  16.202  1.00  0.00     0.029 A 
ATOM     54  C   UNL     1      -3.416   9.416  16.225  1.00  0.00     0.049 A 
ATOM     55  H   UNL     1      -1.470   9.477  15.478  1.00  0.00     0.167 HD
ATOM     56  C   UNL     1       2.455   9.539  13.566  1.00  0.00     0.031 A 
ATOM     57  C   UNL     1      -3.690  10.628  16.747  1.00  0.00     0.031 A 
ATOM     58  C   UNL     1       2.220  10.885  14.031  1.00  0.00     0.049 A 
ATOM     59  C   UNL     1      -2.670  11.724  16.627  1.00  0.00     0.074 A 
ATOM     60  C   UNL     1       3.051  11.986  13.913  1.00  0.00     0.029 A 
ATOM     61  N   UNL     1       1.087  11.314  14.707  1.00  0.00    -0.354 N 
ATOM     62  N   UNL     1      -1.497  11.688  16.043  1.00  0.00    -0.248 NA
ATOM     63  C   UNL     1      -3.014  13.026  17.214  1.00  0.00     0.031 C 
ATOM     64  C   UNL     1       2.457  13.058  14.581  1.00  0.00     0.029 A 
ATOM     65  C   UNL     1       1.215  12.653  15.043  1.00  0.00     0.049 A 
ATOM     66  H   UNL     1       0.307  10.752  14.916  1.00  0.00     0.167 HD
ATOM     67  C   UNL     1      -0.970  12.968  16.173  1.00  0.00     0.074 A 
ATOM     68  C   UNL     1      -1.959  13.758  16.876  1.00  0.00     0.031 C 
ATOM     69  C   UNL     1       0.228  13.438  15.746  1.00  0.00     0.031 A 
BRANCH  56  70
ATOM     70  C   UNL     1       3.769   9.262  12.878  1.00  0.00    -0.014 A 
ATOM     71  C   UNL     1       4.977   9.379  13.591  1.00  0.00     0.010 A 
ATOM     72  C   UNL     1       3.816   9.041  11.489  1.00  0.00     0.010 A 
ATOM     73  C   UNL     1       6.205   9.318  12.926  1.00  0.00     0.020 A 
ATOM     74  C   UNL     1       5.043   8.950  10.824  1.00  0.00     0.020 A 
ATOM     75  C   UNL     1       6.229   9.115  11.544  1.00  0.00     0.054 A 
BRANCH  75  76
ATOM     76  S   UNL     1       7.832   9.081  10.692  1.00  0.00     0.124 S 
ATOM     77  O   UNL     1       8.221  10.487  10.709  1.00  0.00    -0.237 OA
ATOM     78  O   UNL     1       8.624   8.195  11.542  1.00  0.00    -0.237 OA
ATOM     79  O   UNL     1       7.507   8.537   9.375  1.00  0.00    -0.744 OA
ENDBRANCH  75  76
ENDBRANCH  56  70
BRANCH  57  80
ATOM     80  C   UNL     1      -5.025  10.859  17.366  1.00  0.00    -0.014 A 
ATOM     81  C   UNL     1      -5.388  10.182  18.546  1.00  0.00     0.010 A 
ATOM     82  C   UNL     1      -5.976  11.671  16.724  1.00  0.00     0.010 A 
ATOM     83  C   UNL     1      -6.693  10.263  19.038  1.00  0.00     0.020 A 
ATOM     84  C   UNL     1      -7.274  11.781  17.232  1.00  0.00     0.020 A 
ATOM     85  C   UNL     1      -7.632  11.050  18.367  1.00  0.00     0.054 A 
BRANCH  85  86
ATOM     86  S   UNL     1      -9.336  11.088  18.988  1.00  0.00     0.124 S 
ATOM     87  O   UNL     1      -9.835   9.781  18.570  1.00  0.00    -0.237 OA
ATOM     88  O   UNL     1      -9.148  11.259  20.426  1.00  0.00    -0.237 OA
ATOM     89  O   UNL     1      -9.926  12.232  18.298  1.00  0.00    -0.744 OA
ENDBRANCH  85  86
ENDBRANCH  57  80
BRANCH  69  90
ATOM     90  C   UNL     1       0.568  14.883  16.017  1.00  0.00    -0.014 A 
ATOM     91  C   UNL     1       0.724  15.777  14.940  1.00  0.00     0.010 A 
ATOM     92  C   UNL     1       0.876  15.320  17.317  1.00  0.00     0.010 A 
ATOM     93  C   UNL     1       1.229  17.062  15.151  1.00  0.00     0.020 A 
ATOM     94  C   UNL     1       1.351  16.617  17.536  1.00  0.00     0.020 A 
ATOM     95  C   UNL     1       1.553  17.469  16.447  1.00  0.00     0.054 A 
BRANCH  95  96
ATOM     96  S   UNL     1       2.262  19.121  16.693  1.00  0.00     0.124 S 
ATOM     97  O   UNL     1       3.625  18.947  16.202  1.00  0.00    -0.237 OA
ATOM     98  O   UNL     1       1.399  19.966  15.871  1.00  0.00    -0.237 OA
ATOM     99  O   UNL     1       2.140  19.336  18.134  1.00  0.00    -0.744 OA
ENDBRANCH  95  96
ENDBRANCH  69  90
ENDBRANCH  43  44
ENDBRANCH  36  38
ENDBRANCH  35  36
ENDBRANCH  34  35
ENDBRANCH  33  34
ENDBRANCH  32  33
ENDBRANCH  31  32
ENDBRANCH  30  31
ENDBRANCH   1  30
TORSDOF 27
