REMARK SMILES Cc1cccc(-c2ccc(Cl)c(C(=O)OCCOCCOCCOCCOC(=O)c3ccc(-c4c5nc(c(-c6ccc(S(=O)(=O)[O-])cc6)c6ccc([nH]6)c(-c6ccc(S(=O)(=O)[O-])cc6)c6nc(c(-c7ccc(S(=O)(=O)[O-])cc7)c7ccc4[nH]7)C=C6)C=C5)cc3)c2)c1
REMARK SMILES IDX 22 1 21 2 20 3 19 4 18 5 17 6 16 7 15 8 13 9 14 10 12 11
REMARK SMILES IDX 7 12 8 13 90 14 9 15 10 16 11 17 6 18 1 19 2 20 3 21 91 22
REMARK SMILES IDX 4 23 5 24 23 25 24 26 25 27 26 28 27 29 28 30 29 31 30 32
REMARK SMILES IDX 31 33 89 34 32 35 88 36 33 37 34 38 35 39 82 40 36 41 87 42
REMARK SMILES IDX 81 43 83 44 37 45 86 46 80 47 79 48 38 50 68 51 49 52 67 53
REMARK SMILES IDX 50 54 53 55 66 56 84 57 51 58 52 59 65 61 85 62 54 63 39 64
REMARK SMILES IDX 40 65 48 66 41 67 47 68 42 69 43 70 44 71 45 72 46 73 69 74
REMARK SMILES IDX 70 75 78 76 71 77 77 78 72 79 73 80 74 81 75 82 76 83 55 84
REMARK SMILES IDX 56 85 64 86 57 87 63 88 58 89 59 90 60 91 61 92 62 93
REMARK H PARENT 83 49 53 60
REMARK Flexibility Score: inf
ROOT
ATOM      1  C   UNL     1      -7.025   4.592   0.335  1.00  0.00     0.188 C 
ENDROOT
BRANCH   1   2
ATOM      2  O   UNL     1      -5.679   4.091   0.292  1.00  0.00    -0.377 OA
BRANCH   2   3
ATOM      3  C   UNL     1      -5.476   2.736  -0.051  1.00  0.00     0.188 C 
BRANCH   3   4
ATOM      4  C   UNL     1      -4.943   1.803   1.054  1.00  0.00     0.188 C 
BRANCH   4   5
ATOM      5  O   UNL     1      -5.535   1.790   2.344  1.00  0.00    -0.376 OA
BRANCH   5   6
ATOM      6  C   UNL     1      -5.208   2.907   3.171  1.00  0.00     0.202 C 
BRANCH   6   7
ATOM      7  C   UNL     1      -3.734   3.159   3.428  1.00  0.00     0.261 C 
BRANCH   7   8
ATOM      8  O   UNL     1      -3.221   3.864   2.295  1.00  0.00    -0.460 OA
BRANCH   8   9
ATOM      9  C   UNL     1      -1.925   3.638   2.052  1.00  0.00     0.339 C 
ATOM     10  O   UNL     1      -1.093   3.159   2.798  1.00  0.00    -0.246 OA
BRANCH   9  11
ATOM     11  C   UNL     1      -1.799   3.515   0.601  1.00  0.00     0.079 A 
ATOM     12  C   UNL     1      -1.099   1.863  -1.034  1.00  0.00    -0.017 A 
ATOM     13  C   UNL     1      -1.093   2.847  -2.016  1.00  0.00     0.010 A 
ATOM     14  C   UNL     1      -1.476   2.212   0.257  1.00  0.00     0.026 A 
ATOM     15  C   UNL     1      -1.555   4.132  -1.703  1.00  0.00     0.022 A 
ATOM     16  C   UNL     1      -1.926   4.468  -0.393  1.00  0.00     0.055 A 
ATOM     17  Cl  UNL     1      -2.483   6.062  -0.141  1.00  0.00    -0.083 Cl
BRANCH  12  18
ATOM     18  C   UNL     1      -0.486   0.547  -1.104  1.00  0.00    -0.018 A 
ATOM     19  C   UNL     1       2.948  -0.550   0.042  1.00  0.00     0.044 C 
ATOM     20  C   UNL     1       1.502  -0.618  -0.340  1.00  0.00    -0.051 A 
ATOM     21  C   UNL     1       0.728  -1.760  -0.108  1.00  0.00     0.003 A 
ATOM     22  C   UNL     1       0.896   0.513  -0.881  1.00  0.00     0.012 A 
ATOM     23  C   UNL     1      -0.642  -1.759  -0.385  1.00  0.00     0.001 A 
ATOM     24  C   UNL     1      -1.251  -0.608  -0.882  1.00  0.00     0.009 A 
ENDBRANCH  12  18
ENDBRANCH   9  11
ENDBRANCH   8   9
ENDBRANCH   7   8
ENDBRANCH   6   7
ENDBRANCH   5   6
ENDBRANCH   4   5
ENDBRANCH   3   4
ENDBRANCH   2   3
ENDBRANCH   1   2
BRANCH   1  25
ATOM     25  C   UNL     1      -8.193   3.636   0.129  1.00  0.00     0.188 C 
BRANCH  25  26
ATOM     26  O   UNL     1      -8.092   2.623   1.128  1.00  0.00    -0.376 OA
BRANCH  26  27
ATOM     27  C   UNL     1      -8.693   1.378   0.823  1.00  0.00     0.202 C 
BRANCH  27  28
ATOM     28  C   UNL     1     -10.189   1.486   0.531  1.00  0.00     0.261 C 
BRANCH  28  29
ATOM     29  O   UNL     1     -10.935   1.727   1.747  1.00  0.00    -0.460 OA
BRANCH  29  30
ATOM     30  C   UNL     1     -11.370   3.008   1.954  1.00  0.00     0.338 C 
ATOM     31  O   UNL     1     -12.420   3.435   1.506  1.00  0.00    -0.246 OA
BRANCH  30  32
ATOM     32  C   UNL     1     -10.452   3.758   2.867  1.00  0.00     0.060 A 
ATOM     33  C   UNL     1     -10.433   5.158   2.930  1.00  0.00     0.016 A 
ATOM     34  C   UNL     1      -9.478   3.058   3.551  1.00  0.00     0.016 A 
ATOM     35  C   UNL     1      -9.330   5.851   3.497  1.00  0.00     0.010 A 
ATOM     36  C   UNL     1      -8.379   3.741   4.044  1.00  0.00     0.010 A 
ATOM     37  C   UNL     1      -8.241   5.141   3.999  1.00  0.00    -0.014 A 
BRANCH  37  38
ATOM     38  C   UNL     1      -6.887   5.667   4.360  1.00  0.00     0.031 A 
ATOM     39  C   UNL     1      -6.161   5.087   5.582  1.00  0.00     0.074 A 
ATOM     40  C   UNL     1      -6.139   6.360   3.449  1.00  0.00     0.049 A 
ATOM     41  N   UNL     1      -4.932   5.322   5.913  1.00  0.00    -0.248 NA
ATOM     42  C   UNL     1      -6.758   4.138   6.530  1.00  0.00     0.031 C 
ATOM     43  C   UNL     1      -4.682   6.290   3.367  1.00  0.00     0.029 A 
ATOM     44  N   UNL     1      -6.428   7.166   2.354  1.00  0.00    -0.354 N 
ATOM     45  C   UNL     1      -4.486   4.343   6.788  1.00  0.00     0.074 A 
ATOM     46  C   UNL     1      -5.692   3.675   7.203  1.00  0.00     0.031 C 
ATOM     47  C   UNL     1      -4.197   7.051   2.388  1.00  0.00     0.029 A 
ATOM     48  C   UNL     1      -5.282   7.852   1.916  1.00  0.00     0.049 A 
ATOM     49  H   UNL     1      -7.318   7.247   1.940  1.00  0.00     0.167 HD
ATOM     50  C   UNL     1      -3.138   4.133   6.949  1.00  0.00     0.031 A 
ATOM     51  C   UNL     1      -5.170   9.209   1.819  1.00  0.00     0.031 A 
ATOM     52  C   UNL     1      -2.345   5.121   6.190  1.00  0.00     0.049 A 
ATOM     53  C   UNL     1      -4.144   9.688   2.842  1.00  0.00     0.074 A 
ATOM     54  C   UNL     1      -1.347   5.021   5.236  1.00  0.00     0.029 A 
ATOM     55  N   UNL     1      -2.668   6.474   6.255  1.00  0.00    -0.354 N 
ATOM     56  N   UNL     1      -3.959   9.062   3.985  1.00  0.00    -0.248 NA
ATOM     57  C   UNL     1      -3.089  10.676   2.583  1.00  0.00     0.031 C 
ATOM     58  C   UNL     1      -1.168   6.299   4.641  1.00  0.00     0.029 A 
ATOM     59  C   UNL     1      -1.985   7.202   5.305  1.00  0.00     0.049 A 
ATOM     60  H   UNL     1      -3.305   6.862   6.898  1.00  0.00     0.167 HD
ATOM     61  C   UNL     1      -2.724   9.385   4.477  1.00  0.00     0.074 A 
ATOM     62  C   UNL     1      -2.251  10.460   3.617  1.00  0.00     0.031 C 
ATOM     63  C   UNL     1      -1.986   8.650   5.359  1.00  0.00     0.031 A 
BRANCH  50  64
ATOM     64  C   UNL     1      -2.440   2.935   7.630  1.00  0.00    -0.014 A 
ATOM     65  C   UNL     1      -1.022   2.904   7.666  1.00  0.00     0.010 A 
ATOM     66  C   UNL     1      -3.064   1.802   8.194  1.00  0.00     0.010 A 
ATOM     67  C   UNL     1      -0.275   1.829   8.183  1.00  0.00     0.020 A 
ATOM     68  C   UNL     1      -2.325   0.723   8.752  1.00  0.00     0.020 A 
ATOM     69  C   UNL     1      -0.931   0.740   8.734  1.00  0.00     0.054 A 
BRANCH  69  70
ATOM     70  S   UNL     1       0.065  -0.602   9.455  1.00  0.00     0.124 S 
ATOM     71  O   UNL     1       0.743  -1.161   8.287  1.00  0.00    -0.237 OA
ATOM     72  O   UNL     1       0.926   0.108  10.397  1.00  0.00    -0.237 OA
ATOM     73  O   UNL     1      -0.927  -1.481  10.071  1.00  0.00    -0.744 OA
ENDBRANCH  69  70
ENDBRANCH  50  64
BRANCH  51  74
ATOM     74  C   UNL     1      -6.403   9.814   1.230  1.00  0.00    -0.014 A 
ATOM     75  C   UNL     1      -6.534   9.572  -0.164  1.00  0.00     0.010 A 
ATOM     76  C   UNL     1      -7.573   9.824   2.014  1.00  0.00     0.010 A 
ATOM     77  C   UNL     1      -7.722   9.045  -0.687  1.00  0.00     0.020 A 
ATOM     78  C   UNL     1      -8.764   9.287   1.489  1.00  0.00     0.020 A 
ATOM     79  C   UNL     1      -8.808   8.839   0.163  1.00  0.00     0.054 A 
BRANCH  79  80
ATOM     80  S   UNL     1     -10.150   7.743  -0.406  1.00  0.00     0.124 S 
ATOM     81  O   UNL     1     -10.852   8.581  -1.370  1.00  0.00    -0.237 OA
ATOM     82  O   UNL     1      -9.416   6.608  -0.967  1.00  0.00    -0.237 OA
ATOM     83  O   UNL     1     -10.881   7.447   0.820  1.00  0.00    -0.744 OA
ENDBRANCH  79  80
ENDBRANCH  51  74
BRANCH  63  84
ATOM     84  C   UNL     1      -1.173   9.300   6.447  1.00  0.00    -0.014 A 
ATOM     85  C   UNL     1      -1.235  10.674   6.702  1.00  0.00     0.010 A 
ATOM     86  C   UNL     1      -0.488   8.488   7.389  1.00  0.00     0.010 A 
ATOM     87  C   UNL     1      -0.608  11.222   7.820  1.00  0.00     0.020 A 
ATOM     88  C   UNL     1       0.100   9.020   8.534  1.00  0.00     0.020 A 
ATOM     89  C   UNL     1       0.055  10.393   8.727  1.00  0.00     0.054 A 
BRANCH  89  90
ATOM     90  S   UNL     1       0.827  11.145  10.173  1.00  0.00     0.124 S 
ATOM     91  O   UNL     1       2.011  11.766   9.585  1.00  0.00    -0.237 OA
ATOM     92  O   UNL     1      -0.203  12.073  10.636  1.00  0.00    -0.237 OA
ATOM     93  O   UNL     1       1.085  10.016  11.062  1.00  0.00    -0.744 OA
ENDBRANCH  89  90
ENDBRANCH  63  84
ENDBRANCH  37  38
ENDBRANCH  30  32
ENDBRANCH  29  30
ENDBRANCH  28  29
ENDBRANCH  27  28
ENDBRANCH  26  27
ENDBRANCH  25  26
ENDBRANCH   1  25
TORSDOF 24
