REMARK SMILES COc1ccc([C@H]2CC(c3ccc(S(C)(=O)=O)cc3)=NN2c2ccc(C(=O)OCCOCCOCCOCCOC(=O)c3ccc(-c4c5nc(c(-c6ccc(S(=O)(=O)[O-])cc6)c6ccc([nH]6)c(-c6ccc(S(=O)(=O)[O-])cc6)c6nc(c(-c7ccc(S(=O)(=O)[O-])cc7)c7ccc4[nH]7)C=C6)C=C5)cc3)cc2)cc1OC
REMARK SMILES IDX 34 1 33 2 32 3 31 4 30 5 29 6 28 7 26 8 27 9 25 10 22 11
REMARK SMILES IDX 23 12 104 13 24 14 103 15 21 16 7 17 8 18 9 19 20 20 6 21
REMARK SMILES IDX 3 22 4 23 106 24 5 25 105 26 2 27 1 28 107 29 108 30 10 31
REMARK SMILES IDX 11 32 19 33 12 34 18 35 13 36 14 37 15 38 16 39 17 40 35 41
REMARK SMILES IDX 36 42 37 43 38 44 39 45 40 46 41 47 42 48 43 49 44 50 102 51
REMARK SMILES IDX 45 52 101 53 46 54 47 55 48 56 95 57 49 58 100 59 94 60
REMARK SMILES IDX 96 61 50 62 99 63 93 64 92 65 51 67 81 68 62 69 80 70 63 71
REMARK SMILES IDX 66 72 79 73 97 74 64 75 65 76 78 78 98 79 67 80 52 81 53 82
REMARK SMILES IDX 61 83 54 84 60 85 55 86 56 87 57 88 58 89 59 90 82 91 83 92
REMARK SMILES IDX 91 93 84 94 90 95 85 96 86 97 87 98 88 99 89 100 68 101
REMARK SMILES IDX 69 102 77 103 70 104 76 105 71 106 72 107 73 108 74 109
REMARK SMILES IDX 75 110
REMARK H PARENT 96 66 66 77
REMARK Flexibility Score: inf
ROOT
ATOM      1  O   UNL     1       3.496  -1.600  11.286  1.00  0.00    -0.377 OA
ENDROOT
BRANCH   1   2
ATOM      2  C   UNL     1       4.438  -1.450  10.234  1.00  0.00     0.188 C 
BRANCH   2   3
ATOM      3  C   UNL     1       4.873  -0.035   9.798  1.00  0.00     0.188 C 
BRANCH   3   4
ATOM      4  O   UNL     1       4.420   1.002  10.651  1.00  0.00    -0.376 OA
BRANCH   4   5
ATOM      5  C   UNL     1       3.389   1.862  10.203  1.00  0.00     0.202 C 
BRANCH   5   6
ATOM      6  C   UNL     1       2.028   1.261   9.822  1.00  0.00     0.261 C 
BRANCH   6   7
ATOM      7  O   UNL     1       2.063   0.076   9.020  1.00  0.00    -0.460 OA
BRANCH   7   8
ATOM      8  C   UNL     1       2.438   0.221   7.731  1.00  0.00     0.338 C 
ATOM      9  O   UNL     1       2.752   1.258   7.174  1.00  0.00    -0.246 OA
BRANCH   8  10
ATOM     10  C   UNL     1       2.611  -1.132   7.151  1.00  0.00     0.060 A 
ATOM     11  C   UNL     1       2.958  -3.647   5.950  1.00  0.00     0.060 A 
ATOM     12  C   UNL     1       3.942  -2.657   5.823  1.00  0.00     0.029 A 
ATOM     13  C   UNL     1       1.850  -3.390   6.772  1.00  0.00     0.029 A 
ATOM     14  C   UNL     1       3.755  -1.393   6.388  1.00  0.00     0.018 A 
ATOM     15  C   UNL     1       1.682  -2.148   7.388  1.00  0.00     0.018 A 
BRANCH  11  16
ATOM     16  N   UNL     1       3.006  -4.802   5.174  1.00  0.00    -0.257 N 
ATOM     17  C   UNL     1       1.987  -5.074   4.149  1.00  0.00     0.144 C 
ATOM     18  C   UNL     1       2.617  -6.221   3.352  1.00  0.00     0.091 C 
ATOM     19  C   UNL     1       3.912  -6.394   4.100  1.00  0.00     0.071 C 
ATOM     20  N   UNL     1       4.126  -5.566   5.075  1.00  0.00    -0.176 NA
BRANCH  17  21
ATOM     21  C   UNL     1       1.666  -3.847   3.298  1.00  0.00    -0.019 A 
ATOM     22  C   UNL     1       1.135  -1.426   1.937  1.00  0.00     0.160 A 
ATOM     23  C   UNL     1       0.124  -2.074   2.659  1.00  0.00     0.051 A 
ATOM     24  C   UNL     1       2.416  -1.986   1.875  1.00  0.00     0.161 A 
ATOM     25  C   UNL     1       0.385  -3.276   3.329  1.00  0.00     0.010 A 
ATOM     26  C   UNL     1       2.662  -3.189   2.554  1.00  0.00     0.056 A 
BRANCH  22  27
ATOM     27  O   UNL     1       0.878  -0.170   1.455  1.00  0.00    -0.493 OA
ATOM     28  C   UNL     1       0.083  -0.183   0.273  1.00  0.00     0.278 C 
ENDBRANCH  22  27
BRANCH  24  29
ATOM     29  O   UNL     1       3.535  -1.489   1.262  1.00  0.00    -0.493 OA
ATOM     30  C   UNL     1       3.375  -0.452   0.310  1.00  0.00     0.278 C 
ENDBRANCH  24  29
ENDBRANCH  17  21
BRANCH  19  31
ATOM     31  C   UNL     1       4.831  -7.488   3.753  1.00  0.00    -0.002 A 
ATOM     32  C   UNL     1       5.192  -8.403   4.749  1.00  0.00     0.011 A 
ATOM     33  C   UNL     1       5.300  -7.637   2.446  1.00  0.00     0.011 A 
ATOM     34  C   UNL     1       6.009  -9.492   4.431  1.00  0.00     0.021 A 
ATOM     35  C   UNL     1       6.140  -8.710   2.131  1.00  0.00     0.021 A 
ATOM     36  C   UNL     1       6.487  -9.633   3.124  1.00  0.00     0.067 A 
BRANCH  36  37
ATOM     37  S   UNL     1       7.507 -11.033   2.715  1.00  0.00     0.175 S 
ATOM     38  C   UNL     1       8.938 -10.864   3.749  1.00  0.00     0.163 C 
ATOM     39  O   UNL     1       6.780 -12.217   3.129  1.00  0.00    -0.224 OA
ATOM     40  O   UNL     1       7.945 -10.871   1.341  1.00  0.00    -0.224 OA
ENDBRANCH  36  37
ENDBRANCH  19  31
ENDBRANCH  11  16
ENDBRANCH   8  10
ENDBRANCH   7   8
ENDBRANCH   6   7
ENDBRANCH   5   6
ENDBRANCH   4   5
ENDBRANCH   3   4
ENDBRANCH   2   3
ENDBRANCH   1   2
BRANCH   1  41
ATOM     41  C   UNL     1       3.624  -0.837  12.481  1.00  0.00     0.188 C 
BRANCH  41  42
ATOM     42  C   UNL     1       4.999  -0.328  12.975  1.00  0.00     0.188 C 
BRANCH  42  43
ATOM     43  O   UNL     1       6.110  -0.811  12.238  1.00  0.00    -0.376 OA
BRANCH  43  44
ATOM     44  C   UNL     1       6.936  -1.780  12.857  1.00  0.00     0.202 C 
BRANCH  44  45
ATOM     45  C   UNL     1       6.292  -3.132  13.187  1.00  0.00     0.261 C 
BRANCH  45  46
ATOM     46  O   UNL     1       5.094  -3.090  13.977  1.00  0.00    -0.460 OA
BRANCH  46  47
ATOM     47  C   UNL     1       5.199  -2.630  15.242  1.00  0.00     0.338 C 
ATOM     48  O   UNL     1       6.210  -2.240  15.803  1.00  0.00    -0.246 OA
BRANCH  47  49
ATOM     49  C   UNL     1       3.829  -2.503  15.779  1.00  0.00     0.060 A 
ATOM     50  C   UNL     1       3.358  -1.243  16.175  1.00  0.00     0.016 A 
ATOM     51  C   UNL     1       3.005  -3.627  15.869  1.00  0.00     0.016 A 
ATOM     52  C   UNL     1       2.069  -1.112  16.692  1.00  0.00     0.010 A 
ATOM     53  C   UNL     1       1.723  -3.497  16.406  1.00  0.00     0.010 A 
ATOM     54  C   UNL     1       1.262  -2.246  16.851  1.00  0.00    -0.014 A 
BRANCH  54  55
ATOM     55  C   UNL     1       0.022  -2.167  17.662  1.00  0.00     0.031 A 
ATOM     56  C   UNL     1       0.085  -2.610  19.099  1.00  0.00     0.074 A 
ATOM     57  C   UNL     1      -1.130  -1.708  17.144  1.00  0.00     0.049 A 
ATOM     58  N   UNL     1      -0.869  -2.679  19.989  1.00  0.00    -0.248 NA
ATOM     59  C   UNL     1       1.405  -3.035  19.594  1.00  0.00     0.031 C 
ATOM     60  C   UNL     1      -1.308  -1.204  15.784  1.00  0.00     0.029 A 
ATOM     61  N   UNL     1      -2.376  -1.598  17.710  1.00  0.00    -0.354 N 
ATOM     62  C   UNL     1      -0.269  -3.164  21.146  1.00  0.00     0.074 A 
ATOM     63  C   UNL     1       1.122  -3.405  20.833  1.00  0.00     0.031 C 
ATOM     64  C   UNL     1      -2.592  -0.840  15.620  1.00  0.00     0.029 A 
ATOM     65  C   UNL     1      -3.334  -1.122  16.848  1.00  0.00     0.049 A 
ATOM     66  H   UNL     1      -2.565  -1.839  18.646  1.00  0.00     0.167 HD
ATOM     67  C   UNL     1      -0.824  -3.384  22.362  1.00  0.00     0.031 A 
ATOM     68  C   UNL     1      -4.660  -0.952  17.024  1.00  0.00     0.031 A 
ATOM     69  C   UNL     1      -2.214  -3.169  22.660  1.00  0.00     0.049 A 
ATOM     70  C   UNL     1      -5.277  -1.292  18.358  1.00  0.00     0.074 A 
ATOM     71  C   UNL     1      -2.876  -3.356  23.861  1.00  0.00     0.029 A 
ATOM     72  N   UNL     1      -3.162  -2.733  21.745  1.00  0.00    -0.354 N 
ATOM     73  N   UNL     1      -4.695  -1.730  19.450  1.00  0.00    -0.248 NA
ATOM     74  C   UNL     1      -6.730  -1.107  18.483  1.00  0.00     0.031 C 
ATOM     75  C   UNL     1      -4.235  -3.097  23.654  1.00  0.00     0.029 A 
ATOM     76  C   UNL     1      -4.408  -2.675  22.345  1.00  0.00     0.049 A 
ATOM     77  H   UNL     1      -2.975  -2.498  20.807  1.00  0.00     0.167 HD
ATOM     78  C   UNL     1      -5.705  -1.842  20.401  1.00  0.00     0.074 A 
ATOM     79  C   UNL     1      -6.931  -1.416  19.758  1.00  0.00     0.031 C 
ATOM     80  C   UNL     1      -5.624  -2.253  21.692  1.00  0.00     0.031 A 
BRANCH  67  81
ATOM     81  C   UNL     1       0.075  -3.932  23.441  1.00  0.00    -0.014 A 
ATOM     82  C   UNL     1       1.115  -3.160  23.992  1.00  0.00     0.010 A 
ATOM     83  C   UNL     1      -0.127  -5.241  23.914  1.00  0.00     0.010 A 
ATOM     84  C   UNL     1       1.969  -3.706  24.954  1.00  0.00     0.020 A 
ATOM     85  C   UNL     1       0.703  -5.779  24.901  1.00  0.00     0.020 A 
ATOM     86  C   UNL     1       1.760  -5.015  25.399  1.00  0.00     0.054 A 
BRANCH  86  87
ATOM     87  S   UNL     1       2.885  -5.699  26.646  1.00  0.00     0.124 S 
ATOM     88  O   UNL     1       4.114  -5.879  25.877  1.00  0.00    -0.237 OA
ATOM     89  O   UNL     1       2.924  -4.643  27.654  1.00  0.00    -0.237 OA
ATOM     90  O   UNL     1       2.228  -6.934  27.067  1.00  0.00    -0.744 OA
ENDBRANCH  86  87
ENDBRANCH  67  81
BRANCH  68  91
ATOM     91  C   UNL     1      -5.497  -0.436  15.905  1.00  0.00    -0.014 A 
ATOM     92  C   UNL     1      -6.074   0.844  15.972  1.00  0.00     0.010 A 
ATOM     93  C   UNL     1      -5.711  -1.221  14.756  1.00  0.00     0.010 A 
ATOM     94  C   UNL     1      -6.849   1.330  14.915  1.00  0.00     0.020 A 
ATOM     95  C   UNL     1      -6.461  -0.728  13.684  1.00  0.00     0.020 A 
ATOM     96  C   UNL     1      -7.031   0.543  13.773  1.00  0.00     0.054 A 
BRANCH  96  97
ATOM     97  S   UNL     1      -7.978   1.227  12.384  1.00  0.00     0.124 S 
ATOM     98  O   UNL     1      -9.336   1.236  12.916  1.00  0.00    -0.237 OA
ATOM     99  O   UNL     1      -7.360   2.538  12.199  1.00  0.00    -0.237 OA
ATOM    100  O   UNL     1      -7.735   0.274  11.303  1.00  0.00    -0.744 OA
ENDBRANCH  96  97
ENDBRANCH  68  91
BRANCH  80 101
ATOM    101  C   UNL     1      -6.887  -2.227  22.516  1.00  0.00    -0.014 A 
ATOM    102  C   UNL     1      -7.934  -3.138  22.287  1.00  0.00     0.010 A 
ATOM    103  C   UNL     1      -6.998  -1.312  23.580  1.00  0.00     0.010 A 
ATOM    104  C   UNL     1      -9.081  -3.111  23.086  1.00  0.00     0.020 A 
ATOM    105  C   UNL     1      -8.128  -1.304  24.401  1.00  0.00     0.020 A 
ATOM    106  C   UNL     1      -9.170  -2.195  24.140  1.00  0.00     0.054 A 
BRANCH 106 107
ATOM    107  S   UNL     1     -10.650  -2.212  25.188  1.00  0.00     0.124 S 
ATOM    108  O   UNL     1     -11.663  -1.659  24.294  1.00  0.00    -0.237 OA
ATOM    109  O   UNL     1     -10.799  -3.629  25.508  1.00  0.00    -0.237 OA
ATOM    110  O   UNL     1     -10.285  -1.359  26.318  1.00  0.00    -0.744 OA
ENDBRANCH 106 107
ENDBRANCH  80 101
ENDBRANCH  54  55
ENDBRANCH  47  49
ENDBRANCH  46  47
ENDBRANCH  45  46
ENDBRANCH  44  45
ENDBRANCH  43  44
ENDBRANCH  42  43
ENDBRANCH  41  42
ENDBRANCH   1  41
TORSDOF 29
