REMARK SMILES Cc1ccc(-c2cc([C@@H](C)C(=O)OCCOCCOCCOCCOC(=O)c3ccc(-c4c5nc(c(-c6ccc(S(=O)(=O)[O-])cc6)c6ccc([nH]6)c(-c6ccc(S(=O)(=O)[O-])cc6)c6nc(c(-c7ccc(S(=O)(=O)[O-])cc7)c7ccc4[nH]7)C=C6)C=C5)cc3)ccc2C[C@H]2CCCC2=O)cc1
REMARK SMILES IDX 19 1 18 2 17 3 16 4 15 5 14 6 13 7 11 8 12 9 9 10 10 11 8 12
REMARK SMILES IDX 6 13 7 14 90 15 89 16 88 17 5 18 1 19 2 20 3 21 99 22 4 23
REMARK SMILES IDX 98 24 91 25 92 26 93 27 96 28 94 29 95 30 97 31 20 32 21 33
REMARK SMILES IDX 22 34 23 35 24 36 25 37 26 38 27 39 28 40 29 41 87 42 30 43
REMARK SMILES IDX 86 44 31 45 32 46 33 47 80 48 34 49 85 50 79 51 81 52 35 53
REMARK SMILES IDX 84 54 78 55 77 56 36 58 66 59 47 60 65 61 48 62 51 63 64 64
REMARK SMILES IDX 82 65 49 66 50 67 63 69 83 70 52 71 37 72 38 73 46 74 39 75
REMARK SMILES IDX 45 76 40 77 41 78 42 79 43 80 44 81 67 82 68 83 76 84 69 85
REMARK SMILES IDX 75 86 70 87 71 88 72 89 73 90 74 91 53 92 54 93 62 94 55 95
REMARK SMILES IDX 61 96 56 97 57 98 58 99 59 100 60 101
REMARK H PARENT 81 57 51 68
REMARK Flexibility Score: inf
ROOT
ATOM      1  O   UNL     1      -5.608   2.585   0.235  1.00  0.00    -0.377 OA
ENDROOT
BRANCH   1   2
ATOM      2  C   UNL     1      -4.274   2.489  -0.194  1.00  0.00     0.188 C 
BRANCH   2   3
ATOM      3  C   UNL     1      -3.917   3.253  -1.474  1.00  0.00     0.188 C 
BRANCH   3   4
ATOM      4  O   UNL     1      -4.624   4.441  -1.788  1.00  0.00    -0.376 OA
BRANCH   4   5
ATOM      5  C   UNL     1      -5.999   4.260  -2.116  1.00  0.00     0.202 C 
BRANCH   5   6
ATOM      6  C   UNL     1      -6.314   3.377  -3.318  1.00  0.00     0.261 C 
BRANCH   6   7
ATOM      7  O   UNL     1      -6.208   1.971  -3.013  1.00  0.00    -0.463 OA
BRANCH   7   8
ATOM      8  C   UNL     1      -5.364   1.251  -3.784  1.00  0.00     0.313 C 
ATOM      9  O   UNL     1      -4.667   1.710  -4.691  1.00  0.00    -0.252 OA
BRANCH   8  10
ATOM     10  C   UNL     1      -5.336  -0.221  -3.419  1.00  0.00     0.126 C 
ATOM     11  C   UNL     1      -6.652  -0.883  -3.826  1.00  0.00     0.025 C 
BRANCH  10  12
ATOM     12  C   UNL     1      -4.812  -0.537  -2.020  1.00  0.00    -0.033 A 
ATOM     13  C   UNL     1      -2.851  -0.754  -0.517  1.00  0.00    -0.015 A 
ATOM     14  C   UNL     1      -3.430  -0.447  -1.778  1.00  0.00     0.013 A 
ATOM     15  C   UNL     1      -3.673  -1.241   0.532  1.00  0.00    -0.039 A 
ATOM     16  C   UNL     1      -5.062  -1.271   0.305  1.00  0.00     0.004 A 
ATOM     17  C   UNL     1      -5.621  -0.909  -0.940  1.00  0.00     0.005 A 
BRANCH  13  18
ATOM     18  C   UNL     1      -1.409  -0.518  -0.364  1.00  0.00    -0.018 A 
ATOM     19  C   UNL     1       2.837   0.143   0.046  1.00  0.00     0.044 C 
ATOM     20  C   UNL     1       1.362  -0.070  -0.096  1.00  0.00    -0.051 A 
ATOM     21  C   UNL     1       0.862  -1.365  -0.269  1.00  0.00     0.004 A 
ATOM     22  C   UNL     1       0.471   1.005  -0.059  1.00  0.00     0.004 A 
ATOM     23  C   UNL     1      -0.506  -1.583  -0.418  1.00  0.00     0.009 A 
ATOM     24  C   UNL     1      -0.901   0.780  -0.190  1.00  0.00     0.009 A 
ENDBRANCH  13  18
BRANCH  15  25
ATOM     25  C   UNL     1      -3.090  -1.920   1.770  1.00  0.00     0.047 C 
BRANCH  25  26
ATOM     26  C   UNL     1      -3.263  -1.449   3.218  1.00  0.00     0.060 C 
ATOM     27  C   UNL     1      -2.828  -0.033   3.568  1.00  0.00     0.012 C 
ATOM     28  C   UNL     1      -4.690  -1.504   3.708  1.00  0.00     0.136 C 
ATOM     29  C   UNL     1      -4.117   0.753   3.575  1.00  0.00     0.009 C 
ATOM     30  C   UNL     1      -5.208  -0.155   4.112  1.00  0.00     0.076 C 
ATOM     31  O   UNL     1      -5.330  -2.545   3.801  1.00  0.00    -0.299 OA
ENDBRANCH  25  26
ENDBRANCH  15  25
ENDBRANCH  10  12
ENDBRANCH   8  10
ENDBRANCH   7   8
ENDBRANCH   6   7
ENDBRANCH   5   6
ENDBRANCH   4   5
ENDBRANCH   3   4
ENDBRANCH   2   3
ENDBRANCH   1   2
BRANCH   1  32
ATOM     32  C   UNL     1      -5.825   2.845   1.617  1.00  0.00     0.188 C 
BRANCH  32  33
ATOM     33  C   UNL     1      -4.762   3.654   2.339  1.00  0.00     0.188 C 
BRANCH  33  34
ATOM     34  O   UNL     1      -4.365   4.738   1.504  1.00  0.00    -0.376 OA
BRANCH  34  35
ATOM     35  C   UNL     1      -3.111   5.308   1.826  1.00  0.00     0.202 C 
BRANCH  35  36
ATOM     36  C   UNL     1      -3.066   5.831   3.262  1.00  0.00     0.261 C 
BRANCH  36  37
ATOM     37  O   UNL     1      -3.881   7.020   3.395  1.00  0.00    -0.460 OA
BRANCH  37  38
ATOM     38  C   UNL     1      -5.073   6.888   4.055  1.00  0.00     0.338 C 
ATOM     39  O   UNL     1      -5.185   7.055   5.258  1.00  0.00    -0.246 OA
BRANCH  38  40
ATOM     40  C   UNL     1      -6.217   6.641   3.124  1.00  0.00     0.060 A 
ATOM     41  C   UNL     1      -7.416   6.048   3.557  1.00  0.00     0.016 A 
ATOM     42  C   UNL     1      -6.031   6.852   1.768  1.00  0.00     0.016 A 
ATOM     43  C   UNL     1      -8.349   5.532   2.626  1.00  0.00     0.010 A 
ATOM     44  C   UNL     1      -6.885   6.234   0.870  1.00  0.00     0.010 A 
ATOM     45  C   UNL     1      -8.055   5.556   1.265  1.00  0.00    -0.014 A 
BRANCH  45  46
ATOM     46  C   UNL     1      -8.754   4.842   0.160  1.00  0.00     0.031 A 
ATOM     47  C   UNL     1      -8.984   5.619  -1.114  1.00  0.00     0.074 A 
ATOM     48  C   UNL     1      -8.833   3.481   0.129  1.00  0.00     0.049 A 
ATOM     49  N   UNL     1      -9.303   5.119  -2.258  1.00  0.00    -0.248 NA
ATOM     50  C   UNL     1      -8.814   7.073  -1.201  1.00  0.00     0.031 C 
ATOM     51  C   UNL     1      -8.797   2.633  -1.075  1.00  0.00     0.029 A 
ATOM     52  N   UNL     1      -8.871   2.518   1.123  1.00  0.00    -0.354 N 
ATOM     53  C   UNL     1      -9.098   6.066  -3.242  1.00  0.00     0.074 A 
ATOM     54  C   UNL     1      -8.822   7.282  -2.522  1.00  0.00     0.031 C 
ATOM     55  C   UNL     1      -8.925   1.337  -0.754  1.00  0.00     0.029 A 
ATOM     56  C   UNL     1      -9.373   1.317   0.614  1.00  0.00     0.049 A 
ATOM     57  H   UNL     1      -8.585   2.658   2.054  1.00  0.00     0.167 HD
ATOM     58  C   UNL     1      -9.091   5.670  -4.550  1.00  0.00     0.031 A 
ATOM     59  C   UNL     1     -10.621   0.862   0.949  1.00  0.00     0.031 A 
ATOM     60  C   UNL     1      -9.630   4.300  -4.698  1.00  0.00     0.049 A 
ATOM     61  C   UNL     1     -11.582   0.952  -0.242  1.00  0.00     0.074 A 
ATOM     62  C   UNL     1      -9.195   3.122  -5.282  1.00  0.00     0.029 A 
ATOM     63  N   UNL     1     -10.791   3.958  -3.993  1.00  0.00    -0.354 N 
ATOM     64  N   UNL     1     -11.419   1.770  -1.258  1.00  0.00    -0.248 NA
ATOM     65  C   UNL     1     -12.697   0.036  -0.465  1.00  0.00     0.031 C 
ATOM     66  C   UNL     1     -10.029   2.061  -4.818  1.00  0.00     0.029 A 
ATOM     67  C   UNL     1     -11.026   2.600  -4.018  1.00  0.00     0.049 A 
ATOM     68  H   UNL     1     -11.370   4.609  -3.535  1.00  0.00     0.167 HD
ATOM     69  C   UNL     1     -12.287   1.459  -2.268  1.00  0.00     0.074 A 
ATOM     70  C   UNL     1     -13.086   0.380  -1.708  1.00  0.00     0.031 C 
ATOM     71  C   UNL     1     -12.281   2.058  -3.500  1.00  0.00     0.031 A 
BRANCH  58  72
ATOM     72  C   UNL     1      -8.457   6.457  -5.705  1.00  0.00    -0.014 A 
ATOM     73  C   UNL     1      -8.373   5.870  -6.989  1.00  0.00     0.010 A 
ATOM     74  C   UNL     1      -7.855   7.731  -5.599  1.00  0.00     0.010 A 
ATOM     75  C   UNL     1      -7.726   6.489  -8.076  1.00  0.00     0.020 A 
ATOM     76  C   UNL     1      -7.229   8.380  -6.687  1.00  0.00     0.020 A 
ATOM     77  C   UNL     1      -7.161   7.749  -7.922  1.00  0.00     0.054 A 
BRANCH  77  78
ATOM     78  S   UNL     1      -6.377   8.550  -9.351  1.00  0.00     0.124 S 
ATOM     79  O   UNL     1      -5.239   7.675  -9.620  1.00  0.00    -0.237 OA
ATOM     80  O   UNL     1      -7.440   8.524 -10.352  1.00  0.00    -0.237 OA
ATOM     81  O   UNL     1      -6.029   9.882  -8.857  1.00  0.00    -0.744 OA
ENDBRANCH  77  78
ENDBRANCH  58  72
BRANCH  59  82
ATOM     82  C   UNL     1     -10.870   0.971   2.426  1.00  0.00    -0.014 A 
ATOM     83  C   UNL     1     -10.090   0.079   3.205  1.00  0.00     0.010 A 
ATOM     84  C   UNL     1     -11.180   2.232   2.975  1.00  0.00     0.010 A 
ATOM     85  C   UNL     1      -9.365   0.548   4.308  1.00  0.00     0.020 A 
ATOM     86  C   UNL     1     -10.469   2.697   4.099  1.00  0.00     0.020 A 
ATOM     87  C   UNL     1      -9.490   1.885   4.682  1.00  0.00     0.054 A 
BRANCH  87  88
ATOM     88  S   UNL     1      -8.165   2.612   5.704  1.00  0.00     0.124 S 
ATOM     89  O   UNL     1      -8.117   1.719   6.856  1.00  0.00    -0.237 OA
ATOM     90  O   UNL     1      -7.017   2.533   4.798  1.00  0.00    -0.237 OA
ATOM     91  O   UNL     1      -8.646   3.963   5.971  1.00  0.00    -0.744 OA
ENDBRANCH  87  88
ENDBRANCH  59  82
BRANCH  71  92
ATOM     92  C   UNL     1     -13.502   2.212  -4.391  1.00  0.00    -0.014 A 
ATOM     93  C   UNL     1     -14.786   1.772  -4.050  1.00  0.00     0.010 A 
ATOM     94  C   UNL     1     -13.400   3.015  -5.560  1.00  0.00     0.010 A 
ATOM     95  C   UNL     1     -15.901   2.100  -4.827  1.00  0.00     0.020 A 
ATOM     96  C   UNL     1     -14.512   3.393  -6.316  1.00  0.00     0.020 A 
ATOM     97  C   UNL     1     -15.761   2.924  -5.942  1.00  0.00     0.054 A 
BRANCH  97  98
ATOM     98  S   UNL     1     -17.247   3.417  -6.839  1.00  0.00     0.124 S 
ATOM     99  O   UNL     1     -17.674   2.151  -7.431  1.00  0.00    -0.237 OA
ATOM    100  O   UNL     1     -18.102   3.928  -5.769  1.00  0.00    -0.237 OA
ATOM    101  O   UNL     1     -16.771   4.422  -7.785  1.00  0.00    -0.744 OA
ENDBRANCH  97  98
ENDBRANCH  71  92
ENDBRANCH  45  46
ENDBRANCH  38  40
ENDBRANCH  37  38
ENDBRANCH  36  37
ENDBRANCH  35  36
ENDBRANCH  34  35
ENDBRANCH  33  34
ENDBRANCH  32  33
ENDBRANCH   1  32
TORSDOF 27
