REMARK SMILES Cc1c(C(=O)N[C@H]2C=C[C@@H](C(=O)OCCOCCOCCOCCOC(=O)c3ccc(-c4c5nc(c(-c6ccc(S(=O)(=O)[O-])cc6)c6ccc([nH]6)c(-c6ccc(S(=O)(=O)[O-])cc6)c6nc(c(-c7ccc(S(=O)(=O)[O-])cc7)c7ccc4[nH]7)C=C6)C=C5)cc3)C2)oc2ccccc12
REMARK SMILES IDX 20 1 19 2 18 3 17 4 16 5 15 6 14 7 13 8 11 9 12 10 10 11
REMARK SMILES IDX 7 12 8 13 88 14 9 15 6 16 4 17 5 18 3 20 1 21 2 22 95 23
REMARK SMILES IDX 89 24 90 25 94 26 91 27 93 28 92 29 21 30 22 31 23 32 24 33
REMARK SMILES IDX 25 34 26 35 27 36 28 37 29 38 87 39 30 40 86 41 31 42 32 43
REMARK SMILES IDX 33 44 80 45 34 46 85 47 79 48 81 49 35 50 84 51 78 52 77 53
REMARK SMILES IDX 36 55 66 56 47 57 65 58 48 59 51 60 64 61 82 62 49 63 50 64
REMARK SMILES IDX 63 66 83 67 52 68 37 69 38 70 46 71 39 72 45 73 40 74 41 75
REMARK SMILES IDX 42 76 43 77 44 78 67 79 68 80 76 81 69 82 75 83 70 84 71 85
REMARK SMILES IDX 72 86 73 87 74 88 53 89 54 90 62 91 55 92 61 93 56 94 57 95
REMARK SMILES IDX 58 96 59 97 60 98
REMARK H PARENT 6 19 81 54 51 65
REMARK Flexibility Score: inf
ROOT
ATOM      1  C   UNL     1       6.619  -2.612   4.915  1.00  0.00     0.188 C 
ENDROOT
BRANCH   1   2
ATOM      2  O   UNL     1       5.858  -2.729   3.716  1.00  0.00    -0.377 OA
BRANCH   2   3
ATOM      3  C   UNL     1       4.525  -3.181   3.790  1.00  0.00     0.188 C 
BRANCH   3   4
ATOM      4  C   UNL     1       4.325  -4.695   3.670  1.00  0.00     0.188 C 
BRANCH   4   5
ATOM      5  O   UNL     1       5.269  -5.585   4.231  1.00  0.00    -0.376 OA
BRANCH   5   6
ATOM      6  C   UNL     1       6.599  -5.662   3.734  1.00  0.00     0.202 C 
BRANCH   6   7
ATOM      7  C   UNL     1       6.981  -5.403   2.268  1.00  0.00     0.261 C 
BRANCH   7   8
ATOM      8  O   UNL     1       6.435  -4.215   1.668  1.00  0.00    -0.463 OA
BRANCH   8   9
ATOM      9  C   UNL     1       5.711  -4.422   0.549  1.00  0.00     0.312 C 
ATOM     10  O   UNL     1       5.503  -5.529   0.053  1.00  0.00    -0.252 OA
BRANCH   9  11
ATOM     11  C   UNL     1       5.055  -3.194  -0.048  1.00  0.00     0.124 C 
ATOM     12  C   UNL     1       4.455  -1.016  -0.608  1.00  0.00     0.106 C 
ATOM     13  C   UNL     1       5.314  -1.538  -1.703  1.00  0.00    -0.006 C 
ATOM     14  C   UNL     1       5.034  -1.800   0.572  1.00  0.00     0.048 C 
ATOM     15  C   UNL     1       5.588  -2.827  -1.419  1.00  0.00    -0.014 C 
BRANCH  12  16
ATOM     16  N   UNL     1       4.338   0.380  -0.413  1.00  0.00    -0.343 N 
ATOM     17  C   UNL     1       3.187   1.093  -0.100  1.00  0.00     0.287 C 
ATOM     18  O   UNL     1       3.380   2.302   0.079  1.00  0.00    -0.266 OA
ATOM     19  H   UNL     1       5.165   0.906  -0.510  1.00  0.00     0.164 HD
BRANCH  17  20
ATOM     20  C   UNL     1       1.819   0.519  -0.031  1.00  0.00     0.195 A 
ATOM     21  C   UNL     1       1.639  -2.112   0.306  1.00  0.00     0.049 C 
ATOM     22  C   UNL     1       1.164  -0.722   0.087  1.00  0.00     0.008 A 
ATOM     23  C   UNL     1      -0.244  -0.470  -0.009  1.00  0.00     0.024 A 
ATOM     24  O   UNL     1       0.824   1.493  -0.063  1.00  0.00    -0.451 OA
ATOM     25  C   UNL     1      -0.393   0.899  -0.039  1.00  0.00     0.135 A 
ATOM     26  C   UNL     1      -1.397  -1.281  -0.026  1.00  0.00     0.012 A 
ATOM     27  C   UNL     1      -1.630   1.542  -0.037  1.00  0.00     0.048 A 
ATOM     28  C   UNL     1      -2.654  -0.671  -0.036  1.00  0.00     0.001 A 
ATOM     29  C   UNL     1      -2.766   0.719  -0.027  1.00  0.00     0.004 A 
ENDBRANCH  17  20
ENDBRANCH  12  16
ENDBRANCH   9  11
ENDBRANCH   8   9
ENDBRANCH   7   8
ENDBRANCH   6   7
ENDBRANCH   5   6
ENDBRANCH   4   5
ENDBRANCH   3   4
ENDBRANCH   2   3
ENDBRANCH   1   2
BRANCH   1  30
ATOM     30  C   UNL     1       6.131  -3.265   6.229  1.00  0.00     0.188 C 
BRANCH  30  31
ATOM     31  O   UNL     1       4.740  -3.139   6.475  1.00  0.00    -0.376 OA
BRANCH  31  32
ATOM     32  C   UNL     1       4.297  -2.084   7.316  1.00  0.00     0.202 C 
BRANCH  32  33
ATOM     33  C   UNL     1       4.556  -0.643   6.851  1.00  0.00     0.261 C 
BRANCH  33  34
ATOM     34  O   UNL     1       5.929  -0.264   6.663  1.00  0.00    -0.460 OA
BRANCH  34  35
ATOM     35  C   UNL     1       6.775  -0.391   7.705  1.00  0.00     0.338 C 
ATOM     36  O   UNL     1       6.494  -0.751   8.838  1.00  0.00    -0.246 OA
BRANCH  35  37
ATOM     37  C   UNL     1       8.152  -0.216   7.196  1.00  0.00     0.060 A 
ATOM     38  C   UNL     1       9.069  -1.266   7.339  1.00  0.00     0.016 A 
ATOM     39  C   UNL     1       8.537   0.978   6.584  1.00  0.00     0.016 A 
ATOM     40  C   UNL     1      10.388  -1.107   6.909  1.00  0.00     0.010 A 
ATOM     41  C   UNL     1       9.863   1.143   6.172  1.00  0.00     0.010 A 
ATOM     42  C   UNL     1      10.804   0.115   6.367  1.00  0.00    -0.014 A 
BRANCH  42  43
ATOM     43  C   UNL     1      12.252   0.394   6.191  1.00  0.00     0.031 A 
ATOM     44  C   UNL     1      12.958   1.195   7.253  1.00  0.00     0.074 A 
ATOM     45  C   UNL     1      12.934  -0.062   5.125  1.00  0.00     0.049 A 
ATOM     46  N   UNL     1      14.200   1.601   7.300  1.00  0.00    -0.248 NA
ATOM     47  C   UNL     1      12.150   1.594   8.419  1.00  0.00     0.031 C 
ATOM     48  C   UNL     1      12.383  -0.893   4.057  1.00  0.00     0.029 A 
ATOM     49  N   UNL     1      14.248   0.119   4.768  1.00  0.00    -0.354 N 
ATOM     50  C   UNL     1      14.318   2.318   8.486  1.00  0.00     0.074 A 
ATOM     51  C   UNL     1      13.017   2.311   9.117  1.00  0.00     0.031 C 
ATOM     52  C   UNL     1      13.353  -1.147   3.159  1.00  0.00     0.029 A 
ATOM     53  C   UNL     1      14.580  -0.465   3.568  1.00  0.00     0.049 A 
ATOM     54  H   UNL     1      14.892   0.620   5.319  1.00  0.00     0.167 HD
ATOM     55  C   UNL     1      15.411   2.926   9.004  1.00  0.00     0.031 A 
ATOM     56  C   UNL     1      15.734  -0.435   2.871  1.00  0.00     0.031 A 
ATOM     57  C   UNL     1      16.701   2.943   8.367  1.00  0.00     0.049 A 
ATOM     58  C   UNL     1      16.915   0.321   3.427  1.00  0.00     0.074 A 
ATOM     59  C   UNL     1      17.877   3.512   8.823  1.00  0.00     0.029 A 
ATOM     60  N   UNL     1      16.983   2.380   7.131  1.00  0.00    -0.354 N 
ATOM     61  N   UNL     1      17.022   0.968   4.564  1.00  0.00    -0.248 NA
ATOM     62  C   UNL     1      18.135   0.345   2.607  1.00  0.00     0.031 C 
ATOM     63  C   UNL     1      18.850   3.357   7.831  1.00  0.00     0.029 A 
ATOM     64  C   UNL     1      18.303   2.621   6.792  1.00  0.00     0.049 A 
ATOM     65  H   UNL     1      16.339   1.882   6.577  1.00  0.00     0.167 HD
ATOM     66  C   UNL     1      18.329   1.444   4.611  1.00  0.00     0.074 A 
ATOM     67  C   UNL     1      18.977   1.002   3.393  1.00  0.00     0.031 C 
ATOM     68  C   UNL     1      18.939   2.176   5.576  1.00  0.00     0.031 A 
BRANCH  55  69
ATOM     69  C   UNL     1      15.245   3.671  10.304  1.00  0.00    -0.014 A 
ATOM     70  C   UNL     1      15.011   2.995  11.516  1.00  0.00     0.010 A 
ATOM     71  C   UNL     1      15.357   5.073  10.315  1.00  0.00     0.010 A 
ATOM     72  C   UNL     1      14.851   3.712  12.706  1.00  0.00     0.020 A 
ATOM     73  C   UNL     1      15.231   5.791  11.508  1.00  0.00     0.020 A 
ATOM     74  C   UNL     1      14.962   5.106  12.693  1.00  0.00     0.054 A 
BRANCH  74  75
ATOM     75  S   UNL     1      14.771   6.007  14.255  1.00  0.00     0.124 S 
ATOM     76  O   UNL     1      13.342   5.850  14.521  1.00  0.00    -0.237 OA
ATOM     77  O   UNL     1      15.660   5.277  15.155  1.00  0.00    -0.237 OA
ATOM     78  O   UNL     1      15.196   7.365  13.928  1.00  0.00    -0.744 OA
ENDBRANCH  74  75
ENDBRANCH  55  69
BRANCH  56  79
ATOM     79  C   UNL     1      15.833  -1.134   1.558  1.00  0.00    -0.014 A 
ATOM     80  C   UNL     1      16.664  -2.259   1.406  1.00  0.00     0.010 A 
ATOM     81  C   UNL     1      15.100  -0.674   0.449  1.00  0.00     0.010 A 
ATOM     82  C   UNL     1      16.768  -2.902   0.169  1.00  0.00     0.020 A 
ATOM     83  C   UNL     1      15.177  -1.333  -0.782  1.00  0.00     0.020 A 
ATOM     84  C   UNL     1      16.018  -2.439  -0.916  1.00  0.00     0.054 A 
BRANCH  84  85
ATOM     85  S   UNL     1      16.124  -3.329  -2.493  1.00  0.00     0.124 S 
ATOM     86  O   UNL     1      17.471  -2.995  -2.943  1.00  0.00    -0.237 OA
ATOM     87  O   UNL     1      15.918  -4.716  -2.083  1.00  0.00    -0.237 OA
ATOM     88  O   UNL     1      15.038  -2.754  -3.284  1.00  0.00    -0.744 OA
ENDBRANCH  84  85
ENDBRANCH  56  79
BRANCH  68  89
ATOM     89  C   UNL     1      20.398   2.512   5.387  1.00  0.00    -0.014 A 
ATOM     90  C   UNL     1      20.822   3.431   4.412  1.00  0.00     0.010 A 
ATOM     91  C   UNL     1      21.355   1.940   6.247  1.00  0.00     0.010 A 
ATOM     92  C   UNL     1      22.178   3.746   4.278  1.00  0.00     0.020 A 
ATOM     93  C   UNL     1      22.706   2.277   6.140  1.00  0.00     0.020 A 
ATOM     94  C   UNL     1      23.111   3.168   5.145  1.00  0.00     0.054 A 
BRANCH  94  95
ATOM     95  S   UNL     1      24.858   3.627   4.979  1.00  0.00     0.124 S 
ATOM     96  O   UNL     1      25.230   2.965   3.732  1.00  0.00    -0.237 OA
ATOM     97  O   UNL     1      24.801   5.086   4.923  1.00  0.00    -0.237 OA
ATOM     98  O   UNL     1      25.478   3.079   6.184  1.00  0.00    -0.744 OA
ENDBRANCH  94  95
ENDBRANCH  68  89
ENDBRANCH  42  43
ENDBRANCH  35  37
ENDBRANCH  34  35
ENDBRANCH  33  34
ENDBRANCH  32  33
ENDBRANCH  31  32
ENDBRANCH  30  31
ENDBRANCH   1  30
TORSDOF 25
