REMARK SMILES O=C(Cc1cccn1-c1ccc2c(c1)OCCO2)OCCOCCOCCOCCOC(=O)c1ccc(-c2c3nc(c(-c4ccc(S(=O)(=O)[O-])cc4)c4ccc([nH]4)c(-c4ccc(S(=O)(=O)[O-])cc4)c4nc(c(-c5ccc(S(=O)(=O)[O-])cc5)c5ccc2[nH]5)C=C4)C=C3)cc1
REMARK SMILES IDX 26 1 25 2 24 3 23 4 22 5 21 6 20 7 19 8 2 9 1 10 3 11 4 12
REMARK SMILES IDX 5 13 8 14 6 15 7 16 9 17 10 18 14 19 11 20 13 21 12 22 15 23
REMARK SMILES IDX 18 24 16 25 17 26 27 27 28 28 29 29 30 30 31 31 32 32 33 33
REMARK SMILES IDX 34 34 35 35 93 36 36 37 92 38 37 39 38 40 39 41 86 42 40 43
REMARK SMILES IDX 91 44 85 45 87 46 41 47 90 48 84 49 83 50 42 52 72 53 53 54
REMARK SMILES IDX 71 55 54 56 57 57 70 58 88 59 55 60 56 61 69 63 89 64 58 65
REMARK SMILES IDX 43 66 44 67 52 68 45 69 51 70 46 71 47 72 48 73 49 74 50 75
REMARK SMILES IDX 73 76 74 77 82 78 75 79 81 80 76 81 77 82 78 83 79 84 80 85
REMARK SMILES IDX 59 86 60 87 68 88 61 89 67 90 62 91 63 92 64 93 65 94 66 95
REMARK H PARENT 87 51 57 62
REMARK Flexibility Score: inf
ROOT
ATOM      1  C   UNL     1       4.075   0.307   3.811  1.00  0.00     0.188 C 
ENDROOT
BRANCH   1   2
ATOM      2  O   UNL     1       2.752  -0.215   3.807  1.00  0.00    -0.377 OA
BRANCH   2   3
ATOM      3  C   UNL     1       2.046  -0.016   2.586  1.00  0.00     0.188 C 
BRANCH   3   4
ATOM      4  C   UNL     1       2.587  -0.862   1.435  1.00  0.00     0.188 C 
BRANCH   4   5
ATOM      5  O   UNL     1       3.988  -0.675   1.337  1.00  0.00    -0.376 OA
BRANCH   5   6
ATOM      6  C   UNL     1       4.572  -0.349   0.101  1.00  0.00     0.202 C 
BRANCH   6   7
ATOM      7  C   UNL     1       4.115   0.985  -0.475  1.00  0.00     0.261 C 
BRANCH   7   8
ATOM      8  O   UNL     1       2.724   1.113  -0.861  1.00  0.00    -0.463 OA
BRANCH   8   9
ATOM      9  C   UNL     1       1.991   0.378  -1.726  1.00  0.00     0.311 C 
ATOM     10  O   UNL     1       0.865   0.772  -2.034  1.00  0.00    -0.252 OA
BRANCH   9  11
ATOM     11  C   UNL     1       2.476  -0.974  -2.205  1.00  0.00     0.177 C 
BRANCH  11  12
ATOM     12  C   UNL     1       3.728  -0.926  -3.024  1.00  0.00     0.034 A 
ATOM     13  C   UNL     1       4.200   0.139  -3.775  1.00  0.00     0.024 A 
ATOM     14  N   UNL     1       4.682  -1.950  -3.076  1.00  0.00    -0.320 N 
ATOM     15  C   UNL     1       5.509  -0.162  -4.180  1.00  0.00     0.020 A 
ATOM     16  C   UNL     1       5.791  -1.425  -3.719  1.00  0.00     0.091 A 
BRANCH  14  17
ATOM     17  C   UNL     1       4.613  -3.289  -2.567  1.00  0.00     0.049 A 
ATOM     18  C   UNL     1       5.796  -3.953  -2.198  1.00  0.00     0.031 A 
ATOM     19  C   UNL     1       3.395  -3.977  -2.474  1.00  0.00     0.077 A 
ATOM     20  C   UNL     1       5.766  -5.284  -1.768  1.00  0.00     0.052 A 
ATOM     21  C   UNL     1       3.370  -5.308  -2.041  1.00  0.00     0.163 A 
ATOM     22  C   UNL     1       4.559  -5.970  -1.720  1.00  0.00     0.161 A 
ATOM     23  O   UNL     1       2.140  -5.918  -1.993  1.00  0.00    -0.486 OA
ATOM     24  O   UNL     1       4.614  -7.292  -1.361  1.00  0.00    -0.486 OA
ATOM     25  C   UNL     1       2.195  -7.172  -1.299  1.00  0.00     0.271 C 
ATOM     26  C   UNL     1       3.411  -7.974  -1.731  1.00  0.00     0.271 C 
ENDBRANCH  14  17
ENDBRANCH  11  12
ENDBRANCH   9  11
ENDBRANCH   8   9
ENDBRANCH   7   8
ENDBRANCH   6   7
ENDBRANCH   5   6
ENDBRANCH   4   5
ENDBRANCH   3   4
ENDBRANCH   2   3
ENDBRANCH   1   2
BRANCH   1  27
ATOM     27  C   UNL     1       5.210  -0.733   3.934  1.00  0.00     0.188 C 
BRANCH  27  28
ATOM     28  O   UNL     1       5.055  -2.127   3.709  1.00  0.00    -0.376 OA
BRANCH  28  29
ATOM     29  C   UNL     1       3.873  -2.859   3.979  1.00  0.00     0.202 C 
BRANCH  29  30
ATOM     30  C   UNL     1       3.066  -2.753   5.273  1.00  0.00     0.261 C 
BRANCH  30  31
ATOM     31  O   UNL     1       3.309  -1.609   6.056  1.00  0.00    -0.460 OA
BRANCH  31  32
ATOM     32  C   UNL     1       4.455  -1.680   6.731  1.00  0.00     0.338 C 
ATOM     33  O   UNL     1       5.358  -2.520   6.624  1.00  0.00    -0.246 OA
BRANCH  32  34
ATOM     34  C   UNL     1       4.471  -0.621   7.713  1.00  0.00     0.060 A 
ATOM     35  C   UNL     1       5.713  -0.101   8.079  1.00  0.00     0.016 A 
ATOM     36  C   UNL     1       3.297  -0.400   8.446  1.00  0.00     0.016 A 
ATOM     37  C   UNL     1       5.816   0.519   9.299  1.00  0.00     0.010 A 
ATOM     38  C   UNL     1       3.411   0.168   9.688  1.00  0.00     0.010 A 
ATOM     39  C   UNL     1       4.680   0.572  10.116  1.00  0.00    -0.014 A 
BRANCH  39  40
ATOM     40  C   UNL     1       4.831   1.102  11.467  1.00  0.00     0.031 A 
ATOM     41  C   UNL     1       4.600   2.598  11.497  1.00  0.00     0.074 A 
ATOM     42  C   UNL     1       5.190   0.185  12.411  1.00  0.00     0.049 A 
ATOM     43  N   UNL     1       5.095   3.478  12.304  1.00  0.00    -0.248 NA
ATOM     44  C   UNL     1       3.789   3.234  10.419  1.00  0.00     0.031 C 
ATOM     45  C   UNL     1       5.393  -1.260  12.148  1.00  0.00     0.029 A 
ATOM     46  N   UNL     1       5.462   0.259  13.757  1.00  0.00    -0.354 N 
ATOM     47  C   UNL     1       4.513   4.711  11.968  1.00  0.00     0.074 A 
ATOM     48  C   UNL     1       3.829   4.529  10.726  1.00  0.00     0.031 C 
ATOM     49  C   UNL     1       5.819  -1.896  13.258  1.00  0.00     0.029 A 
ATOM     50  C   UNL     1       5.901  -0.948  14.351  1.00  0.00     0.049 A 
ATOM     51  H   UNL     1       5.359   1.092  14.270  1.00  0.00     0.167 HD
ATOM     52  C   UNL     1       4.481   5.769  12.822  1.00  0.00     0.031 A 
ATOM     53  C   UNL     1       6.339  -1.162  15.626  1.00  0.00     0.031 A 
ATOM     54  C   UNL     1       5.185   5.467  14.024  1.00  0.00     0.049 A 
ATOM     55  C   UNL     1       6.131   0.104  16.353  1.00  0.00     0.074 A 
ATOM     56  C   UNL     1       6.512   5.281  14.313  1.00  0.00     0.029 A 
ATOM     57  N   UNL     1       4.428   4.949  15.050  1.00  0.00    -0.354 N 
ATOM     58  N   UNL     1       4.977   0.596  16.693  1.00  0.00    -0.248 NA
ATOM     59  C   UNL     1       7.297   0.945  16.655  1.00  0.00     0.031 C 
ATOM     60  C   UNL     1       6.508   4.265  15.296  1.00  0.00     0.029 A 
ATOM     61  C   UNL     1       5.187   3.978  15.658  1.00  0.00     0.049 A 
ATOM     62  H   UNL     1       3.516   5.223  15.301  1.00  0.00     0.167 HD
ATOM     63  C   UNL     1       5.260   1.927  16.883  1.00  0.00     0.074 A 
ATOM     64  C   UNL     1       6.678   2.010  17.159  1.00  0.00     0.031 C 
ATOM     65  C   UNL     1       4.492   2.872  16.282  1.00  0.00     0.031 A 
BRANCH  52  66
ATOM     66  C   UNL     1       3.589   6.972  12.805  1.00  0.00    -0.014 A 
ATOM     67  C   UNL     1       3.933   8.028  13.681  1.00  0.00     0.010 A 
ATOM     68  C   UNL     1       2.290   6.955  12.272  1.00  0.00     0.010 A 
ATOM     69  C   UNL     1       2.976   8.934  14.133  1.00  0.00     0.020 A 
ATOM     70  C   UNL     1       1.335   7.891  12.688  1.00  0.00     0.020 A 
ATOM     71  C   UNL     1       1.670   8.830  13.664  1.00  0.00     0.054 A 
BRANCH  71  72
ATOM     72  S   UNL     1       0.397   9.873  14.418  1.00  0.00     0.124 S 
ATOM     73  O   UNL     1       0.162   9.193  15.687  1.00  0.00    -0.237 OA
ATOM     74  O   UNL     1       1.065  11.170  14.517  1.00  0.00    -0.237 OA
ATOM     75  O   UNL     1      -0.700   9.820  13.455  1.00  0.00    -0.744 OA
ENDBRANCH  71  72
ENDBRANCH  52  66
BRANCH  53  76
ATOM     76  C   UNL     1       7.059  -2.261  16.366  1.00  0.00    -0.014 A 
ATOM     77  C   UNL     1       7.396  -3.521  15.853  1.00  0.00     0.010 A 
ATOM     78  C   UNL     1       7.567  -1.968  17.662  1.00  0.00     0.010 A 
ATOM     79  C   UNL     1       8.306  -4.367  16.528  1.00  0.00     0.020 A 
ATOM     80  C   UNL     1       8.504  -2.769  18.316  1.00  0.00     0.020 A 
ATOM     81  C   UNL     1       8.893  -3.960  17.729  1.00  0.00     0.054 A 
BRANCH  81  82
ATOM     82  S   UNL     1      10.261  -4.891  18.473  1.00  0.00     0.124 S 
ATOM     83  O   UNL     1       9.570  -5.760  19.420  1.00  0.00    -0.237 OA
ATOM     84  O   UNL     1      10.868  -5.562  17.326  1.00  0.00    -0.237 OA
ATOM     85  O   UNL     1      11.086  -3.843  19.072  1.00  0.00    -0.744 OA
ENDBRANCH  81  82
ENDBRANCH  53  76
BRANCH  65  86
ATOM     86  C   UNL     1       3.072   2.438  15.945  1.00  0.00    -0.014 A 
ATOM     87  C   UNL     1       2.178   2.093  16.974  1.00  0.00     0.010 A 
ATOM     88  C   UNL     1       2.625   2.275  14.619  1.00  0.00     0.010 A 
ATOM     89  C   UNL     1       0.895   1.596  16.691  1.00  0.00     0.020 A 
ATOM     90  C   UNL     1       1.345   1.776  14.323  1.00  0.00     0.020 A 
ATOM     91  C   UNL     1       0.485   1.436  15.365  1.00  0.00     0.054 A 
BRANCH  91  92
ATOM     92  S   UNL     1      -1.165   0.748  15.031  1.00  0.00     0.124 S 
ATOM     93  O   UNL     1      -1.135  -0.527  15.743  1.00  0.00    -0.237 OA
ATOM     94  O   UNL     1      -2.051   1.759  15.602  1.00  0.00    -0.237 OA
ATOM     95  O   UNL     1      -1.211   0.635  13.573  1.00  0.00    -0.744 OA
ENDBRANCH  91  92
ENDBRANCH  65  86
ENDBRANCH  39  40
ENDBRANCH  32  34
ENDBRANCH  31  32
ENDBRANCH  30  31
ENDBRANCH  29  30
ENDBRANCH  28  29
ENDBRANCH  27  28
ENDBRANCH   1  27
TORSDOF 25
