REMARK SMILES C[C@@H]1[C@@H](C(=O)OCCOCCOCCOCCOC(=O)c2ccc(-c3c4nc(c(-c5ccc(S(=O)(=O)[O-])cc5)c5ccc([nH]5)c(-c5ccc(S(=O)(=O)[O-])cc5)c5nc(c(-c6ccc(S(=O)(=O)[O-])cc6)c6ccc3[nH]6)C=C5)C=C4)cc2)CCN1C(=O)N[C@@H](C)Cc1ccco1
REMARK SMILES IDX 11 1 10 2 9 3 8 4 7 5 6 6 4 7 5 8 3 9 1 10 2 11 83 12 81 13
REMARK SMILES IDX 82 14 84 15 85 16 86 17 87 19 88 20 89 21 90 22 91 23 94 24
REMARK SMILES IDX 92 25 93 26 12 27 13 28 14 29 15 30 16 31 17 32 18 33 19 34
REMARK SMILES IDX 20 35 21 36 22 37 80 38 23 39 79 40 24 41 25 42 26 43 73 44
REMARK SMILES IDX 27 45 78 46 72 47 74 48 28 49 77 50 71 51 70 52 29 54 59 55
REMARK SMILES IDX 40 56 58 57 41 58 44 59 57 60 75 61 42 62 43 63 56 65 76 66
REMARK SMILES IDX 45 67 30 68 31 69 39 70 32 71 38 72 33 73 34 74 35 75 36 76
REMARK SMILES IDX 37 77 60 78 61 79 69 80 62 81 68 82 63 83 64 84 65 85 66 86
REMARK SMILES IDX 67 87 46 88 47 89 55 90 48 91 54 92 49 93 50 94 51 95 52 96
REMARK SMILES IDX 53 97
REMARK H PARENT 86 18 74 53 44 64
REMARK Flexibility Score: inf
ROOT
ATOM      1  C   UNL     1       0.341   3.223  -2.278  1.00  0.00     0.188 C 
ENDROOT
BRANCH   1   2
ATOM      2  C   UNL     1       0.469   2.078  -3.295  1.00  0.00     0.188 C 
BRANCH   2   3
ATOM      3  O   UNL     1      -0.303   2.205  -4.470  1.00  0.00    -0.376 OA
BRANCH   3   4
ATOM      4  C   UNL     1      -1.663   1.803  -4.551  1.00  0.00     0.202 C 
BRANCH   4   5
ATOM      5  C   UNL     1      -2.607   1.462  -3.382  1.00  0.00     0.261 C 
BRANCH   5   6
ATOM      6  O   UNL     1      -2.063   1.503  -2.069  1.00  0.00    -0.463 OA
BRANCH   6   7
ATOM      7  C   UNL     1      -1.650   0.320  -1.558  1.00  0.00     0.311 C 
ATOM      8  O   UNL     1      -1.765  -0.757  -2.123  1.00  0.00    -0.252 OA
BRANCH   7   9
ATOM      9  C   UNL     1      -0.953   0.552  -0.227  1.00  0.00     0.123 C 
ATOM     10  C   UNL     1       1.380   0.350   0.764  1.00  0.00     0.032 C 
ATOM     11  C   UNL     1       0.351  -0.253  -0.199  1.00  0.00     0.098 C 
ATOM     12  N   UNL     1      -0.070  -1.578   0.250  1.00  0.00    -0.321 N 
ATOM     13  C   UNL     1      -1.756  -0.023   0.924  1.00  0.00     0.039 C 
ATOM     14  C   UNL     1      -1.394  -1.500   0.873  1.00  0.00     0.122 C 
BRANCH  12  15
ATOM     15  C   UNL     1       0.385  -2.808  -0.102  1.00  0.00     0.317 C 
ATOM     16  O   UNL     1      -0.227  -3.834   0.217  1.00  0.00    -0.249 OA
ATOM     17  N   UNL     1       1.500  -3.015  -0.822  1.00  0.00    -0.335 N 
ATOM     18  H   UNL     1       1.566  -3.952  -1.119  1.00  0.00     0.165 HD
BRANCH  17  19
ATOM     19  C   UNL     1       2.646  -2.229  -1.287  1.00  0.00     0.088 C 
ATOM     20  C   UNL     1       3.861  -2.612  -0.437  1.00  0.00     0.031 C 
BRANCH  19  21
ATOM     21  C   UNL     1       2.963  -2.480  -2.775  1.00  0.00     0.100 C 
BRANCH  21  22
ATOM     22  C   UNL     1       1.819  -2.210  -3.683  1.00  0.00     0.105 A 
ATOM     23  C   UNL     1       0.762  -2.979  -4.122  1.00  0.00     0.045 A 
ATOM     24  O   UNL     1       1.774  -0.978  -4.264  1.00  0.00    -0.469 OA
ATOM     25  C   UNL     1       0.019  -2.169  -5.010  1.00  0.00     0.042 A 
ATOM     26  C   UNL     1       0.683  -0.967  -5.073  1.00  0.00     0.195 A 
ENDBRANCH  21  22
ENDBRANCH  19  21
ENDBRANCH  17  19
ENDBRANCH  12  15
ENDBRANCH   7   9
ENDBRANCH   6   7
ENDBRANCH   5   6
ENDBRANCH   4   5
ENDBRANCH   3   4
ENDBRANCH   2   3
ENDBRANCH   1   2
BRANCH   1  27
ATOM     27  O   UNL     1      -0.910   3.879  -2.299  1.00  0.00    -0.377 OA
BRANCH  27  28
ATOM     28  C   UNL     1      -1.137   4.887  -3.280  1.00  0.00     0.188 C 
BRANCH  28  29
ATOM     29  C   UNL     1      -0.210   5.069  -4.505  1.00  0.00     0.188 C 
BRANCH  29  30
ATOM     30  O   UNL     1       1.176   4.889  -4.242  1.00  0.00    -0.376 OA
BRANCH  30  31
ATOM     31  C   UNL     1       1.977   6.056  -4.126  1.00  0.00     0.202 C 
BRANCH  31  32
ATOM     32  C   UNL     1       1.732   6.909  -2.873  1.00  0.00     0.261 C 
BRANCH  32  33
ATOM     33  O   UNL     1       0.414   7.466  -2.743  1.00  0.00    -0.460 OA
BRANCH  33  34
ATOM     34  C   UNL     1      -0.029   8.263  -3.740  1.00  0.00     0.338 C 
ATOM     35  O   UNL     1       0.595   8.626  -4.722  1.00  0.00    -0.246 OA
BRANCH  34  36
ATOM     36  C   UNL     1      -1.482   8.458  -3.550  1.00  0.00     0.060 A 
ATOM     37  C   UNL     1      -2.356   8.092  -4.582  1.00  0.00     0.016 A 
ATOM     38  C   UNL     1      -1.978   8.987  -2.356  1.00  0.00     0.016 A 
ATOM     39  C   UNL     1      -3.729   8.297  -4.440  1.00  0.00     0.010 A 
ATOM     40  C   UNL     1      -3.351   9.211  -2.224  1.00  0.00     0.010 A 
ATOM     41  C   UNL     1      -4.227   8.903  -3.280  1.00  0.00    -0.014 A 
BRANCH  41  42
ATOM     42  C   UNL     1      -5.618   9.418  -3.257  1.00  0.00     0.031 A 
ATOM     43  C   UNL     1      -5.838  10.874  -3.571  1.00  0.00     0.074 A 
ATOM     44  C   UNL     1      -6.664   8.618  -2.982  1.00  0.00     0.049 A 
ATOM     45  N   UNL     1      -6.948  11.565  -3.572  1.00  0.00    -0.248 NA
ATOM     46  C   UNL     1      -4.642  11.655  -3.930  1.00  0.00     0.031 C 
ATOM     47  C   UNL     1      -6.589   7.184  -2.710  1.00  0.00     0.029 A 
ATOM     48  N   UNL     1      -8.002   8.911  -2.882  1.00  0.00    -0.354 N 
ATOM     49  C   UNL     1      -6.584  12.860  -3.921  1.00  0.00     0.074 A 
ATOM     50  C   UNL     1      -5.149  12.867  -4.095  1.00  0.00     0.031 C 
ATOM     51  C   UNL     1      -7.829   6.723  -2.465  1.00  0.00     0.029 A 
ATOM     52  C   UNL     1      -8.778   7.833  -2.528  1.00  0.00     0.049 A 
ATOM     53  H   UNL     1      -8.371   9.808  -3.049  1.00  0.00     0.167 HD
ATOM     54  C   UNL     1      -7.374  13.947  -4.088  1.00  0.00     0.031 A 
ATOM     55  C   UNL     1     -10.098   7.759  -2.262  1.00  0.00     0.031 A 
ATOM     56  C   UNL     1      -8.799  13.943  -3.896  1.00  0.00     0.049 A 
ATOM     57  C   UNL     1     -10.947   9.002  -2.372  1.00  0.00     0.074 A 
ATOM     58  C   UNL     1      -9.689  14.991  -4.050  1.00  0.00     0.029 A 
ATOM     59  N   UNL     1      -9.541  12.841  -3.500  1.00  0.00    -0.354 N 
ATOM     60  N   UNL     1     -10.593  10.215  -2.727  1.00  0.00    -0.248 NA
ATOM     61  C   UNL     1     -12.375   8.863  -2.053  1.00  0.00     0.031 C 
ATOM     62  C   UNL     1     -10.961  14.538  -3.685  1.00  0.00     0.029 A 
ATOM     63  C   UNL     1     -10.874  13.190  -3.374  1.00  0.00     0.049 A 
ATOM     64  H   UNL     1      -9.173  11.943  -3.332  1.00  0.00     0.167 HD
ATOM     65  C   UNL     1     -11.760  10.973  -2.705  1.00  0.00     0.074 A 
ATOM     66  C   UNL     1     -12.831  10.080  -2.315  1.00  0.00     0.031 C 
ATOM     67  C   UNL     1     -11.931  12.290  -2.986  1.00  0.00     0.031 A 
BRANCH  54  68
ATOM     68  C   UNL     1      -6.702  15.243  -4.460  1.00  0.00    -0.014 A 
ATOM     69  C   UNL     1      -6.138  15.435  -5.734  1.00  0.00     0.010 A 
ATOM     70  C   UNL     1      -6.663  16.296  -3.528  1.00  0.00     0.010 A 
ATOM     71  C   UNL     1      -5.516  16.644  -6.057  1.00  0.00     0.020 A 
ATOM     72  C   UNL     1      -6.068  17.517  -3.857  1.00  0.00     0.020 A 
ATOM     73  C   UNL     1      -5.484  17.677  -5.115  1.00  0.00     0.054 A 
BRANCH  73  74
ATOM     74  S   UNL     1      -4.690  19.243  -5.570  1.00  0.00     0.124 S 
ATOM     75  O   UNL     1      -3.278  18.871  -5.588  1.00  0.00    -0.237 OA
ATOM     76  O   UNL     1      -5.280  19.532  -6.874  1.00  0.00    -0.237 OA
ATOM     77  O   UNL     1      -5.080  20.154  -4.497  1.00  0.00    -0.744 OA
ENDBRANCH  73  74
ENDBRANCH  54  68
BRANCH  55  78
ATOM     78  C   UNL     1     -10.704   6.463  -1.844  1.00  0.00    -0.014 A 
ATOM     79  C   UNL     1     -11.616   5.791  -2.678  1.00  0.00     0.010 A 
ATOM     80  C   UNL     1     -10.381   5.900  -0.595  1.00  0.00     0.010 A 
ATOM     81  C   UNL     1     -12.204   4.591  -2.265  1.00  0.00     0.020 A 
ATOM     82  C   UNL     1     -10.943   4.686  -0.192  1.00  0.00     0.020 A 
ATOM     83  C   UNL     1     -11.861   4.044  -1.025  1.00  0.00     0.054 A 
BRANCH  83  84
ATOM     84  S   UNL     1     -12.599   2.461  -0.533  1.00  0.00     0.124 S 
ATOM     85  O   UNL     1     -13.978   2.844  -0.247  1.00  0.00    -0.237 OA
ATOM     86  O   UNL     1     -12.402   1.640  -1.724  1.00  0.00    -0.237 OA
ATOM     87  O   UNL     1     -11.806   2.062   0.628  1.00  0.00    -0.744 OA
ENDBRANCH  83  84
ENDBRANCH  55  78
BRANCH  67  88
ATOM     88  C   UNL     1     -13.332  12.843  -2.928  1.00  0.00    -0.014 A 
ATOM     89  C   UNL     1     -14.001  13.023  -1.705  1.00  0.00     0.010 A 
ATOM     90  C   UNL     1     -13.965  13.247  -4.119  1.00  0.00     0.010 A 
ATOM     91  C   UNL     1     -15.289  13.567  -1.677  1.00  0.00     0.020 A 
ATOM     92  C   UNL     1     -15.239  13.820  -4.093  1.00  0.00     0.020 A 
ATOM     93  C   UNL     1     -15.900  13.963  -2.872  1.00  0.00     0.054 A 
BRANCH  93  94
ATOM     94  S   UNL     1     -17.553  14.705  -2.803  1.00  0.00     0.124 S 
ATOM     95  O   UNL     1     -18.392  13.551  -2.490  1.00  0.00    -0.237 OA
ATOM     96  O   UNL     1     -17.417  15.692  -1.735  1.00  0.00    -0.237 OA
ATOM     97  O   UNL     1     -17.738  15.264  -4.141  1.00  0.00    -0.744 OA
ENDBRANCH  93  94
ENDBRANCH  67  88
ENDBRANCH  41  42
ENDBRANCH  34  36
ENDBRANCH  33  34
ENDBRANCH  32  33
ENDBRANCH  31  32
ENDBRANCH  30  31
ENDBRANCH  29  30
ENDBRANCH  28  29
ENDBRANCH  27  28
ENDBRANCH   1  27
TORSDOF 27
