REMARK SMILES Cc1ccc(-c2c(C(=O)OCCOCCOCCOCCOC(=O)c3ccc(-c4c5nc(c(-c6ccc(S(=O)(=O)[O-])cc6)c6ccc([nH]6)c(-c6ccc(S(=O)(=O)[O-])cc6)c6nc(c(-c7ccc(S(=O)(=O)[O-])cc7)c7ccc4[nH]7)C=C6)C=C5)cc3)nnn2Cc2c(F)cccc2Cl)cc1
REMARK SMILES IDX 17 1 16 2 15 3 14 4 13 5 12 6 11 7 10 8 8 9 9 10 7 11 6 12
REMARK SMILES IDX 87 13 85 14 86 15 5 16 1 17 2 18 3 19 98 20 4 21 97 22 88 23
REMARK SMILES IDX 89 24 90 25 95 26 91 27 92 28 94 29 96 30 93 31 18 32 19 33
REMARK SMILES IDX 20 34 21 35 22 36 23 37 24 38 25 39 26 40 84 41 27 42 83 43
REMARK SMILES IDX 28 44 29 45 30 46 77 47 31 48 82 49 76 50 78 51 32 52 81 53
REMARK SMILES IDX 75 54 74 55 33 57 63 58 44 59 62 60 45 61 48 62 61 63 79 64
REMARK SMILES IDX 46 65 47 66 60 68 80 69 49 70 34 71 35 72 43 73 36 74 42 75
REMARK SMILES IDX 37 76 38 77 39 78 40 79 41 80 64 81 65 82 73 83 66 84 72 85
REMARK SMILES IDX 67 86 68 87 69 88 70 89 71 90 50 91 51 92 59 93 52 94 58 95
REMARK SMILES IDX 53 96 54 97 55 98 56 99 57 100
REMARK H PARENT 78 56 48 67
REMARK Flexibility Score: inf
ROOT
ATOM      1  C   UNL     1      -3.215   1.116   4.007  1.00  0.00     0.188 C 
ENDROOT
BRANCH   1   2
ATOM      2  O   UNL     1      -3.821   1.063   2.705  1.00  0.00    -0.377 OA
BRANCH   2   3
ATOM      3  C   UNL     1      -5.092   1.660   2.515  1.00  0.00     0.188 C 
BRANCH   3   4
ATOM      4  C   UNL     1      -6.317   0.744   2.376  1.00  0.00     0.188 C 
BRANCH   4   5
ATOM      5  O   UNL     1      -6.704  -0.077   3.470  1.00  0.00    -0.376 OA
BRANCH   5   6
ATOM      6  C   UNL     1      -6.022  -1.327   3.599  1.00  0.00     0.202 C 
BRANCH   6   7
ATOM      7  C   UNL     1      -5.913  -2.190   2.338  1.00  0.00     0.261 C 
BRANCH   7   8
ATOM      8  O   UNL     1      -4.884  -1.650   1.495  1.00  0.00    -0.458 OA
BRANCH   8   9
ATOM      9  C   UNL     1      -5.071  -1.869   0.175  1.00  0.00     0.361 C 
ATOM     10  O   UNL     1      -5.666  -2.830  -0.305  1.00  0.00    -0.244 OA
BRANCH   9  11
ATOM     11  C   UNL     1      -4.824  -0.672  -0.590  1.00  0.00     0.198 A 
ATOM     12  C   UNL     1      -3.663  -0.033  -1.023  1.00  0.00     0.104 A 
ATOM     13  N   UNL     1      -4.215   0.815  -1.974  1.00  0.00    -0.239 N 
ATOM     14  N   UNL     1      -5.929   0.057  -0.990  1.00  0.00    -0.122 NA
ATOM     15  N   UNL     1      -5.515   1.053  -1.737  1.00  0.00    -0.066 NA
BRANCH  12  16
ATOM     16  C   UNL     1      -2.219  -0.210  -0.839  1.00  0.00     0.002 A 
ATOM     17  C   UNL     1       2.107  -0.514  -0.574  1.00  0.00     0.044 C 
ATOM     18  C   UNL     1       0.611  -0.407  -0.661  1.00  0.00    -0.051 A 
ATOM     19  C   UNL     1      -0.187  -1.553  -0.774  1.00  0.00     0.004 A 
ATOM     20  C   UNL     1      -0.019   0.837  -0.601  1.00  0.00     0.004 A 
ATOM     21  C   UNL     1      -1.589  -1.458  -0.858  1.00  0.00     0.011 A 
ATOM     22  C   UNL     1      -1.413   0.930  -0.681  1.00  0.00     0.011 A 
ENDBRANCH  12  16
BRANCH  13  23
ATOM     23  C   UNL     1      -3.697   1.268  -3.258  1.00  0.00     0.187 C 
BRANCH  23  24
ATOM     24  C   UNL     1      -2.836   0.286  -4.008  1.00  0.00     0.028 A 
ATOM     25  C   UNL     1      -1.737   0.816  -4.691  1.00  0.00     0.129 A 
ATOM     26  C   UNL     1      -3.052  -1.097  -4.127  1.00  0.00     0.049 A 
ATOM     27  F   UNL     1      -1.569   2.146  -4.742  1.00  0.00    -0.207 F 
ATOM     28  C   UNL     1      -0.815   0.011  -5.353  1.00  0.00     0.040 A 
ATOM     29  C   UNL     1      -2.089  -1.922  -4.720  1.00  0.00     0.021 A 
ATOM     30  Cl  UNL     1      -4.522  -1.873  -3.665  1.00  0.00    -0.084 Cl
ATOM     31  C   UNL     1      -0.964  -1.369  -5.324  1.00  0.00     0.005 A 
ENDBRANCH  23  24
ENDBRANCH  13  23
ENDBRANCH   9  11
ENDBRANCH   8   9
ENDBRANCH   7   8
ENDBRANCH   6   7
ENDBRANCH   5   6
ENDBRANCH   4   5
ENDBRANCH   3   4
ENDBRANCH   2   3
ENDBRANCH   1   2
BRANCH   1  32
ATOM     32  C   UNL     1      -3.656   2.190   4.998  1.00  0.00     0.188 C 
BRANCH  32  33
ATOM     33  O   UNL     1      -4.950   1.819   5.493  1.00  0.00    -0.376 OA
BRANCH  33  34
ATOM     34  C   UNL     1      -5.750   2.890   5.970  1.00  0.00     0.202 C 
BRANCH  34  35
ATOM     35  C   UNL     1      -5.181   3.586   7.208  1.00  0.00     0.261 C 
BRANCH  35  36
ATOM     36  O   UNL     1      -5.401   2.784   8.387  1.00  0.00    -0.460 OA
BRANCH  36  37
ATOM     37  C   UNL     1      -4.271   2.266   8.944  1.00  0.00     0.338 C 
ATOM     38  O   UNL     1      -3.600   2.850   9.777  1.00  0.00    -0.246 OA
BRANCH  37  39
ATOM     39  C   UNL     1      -4.039   0.869   8.486  1.00  0.00     0.060 A 
ATOM     40  C   UNL     1      -2.761   0.297   8.541  1.00  0.00     0.016 A 
ATOM     41  C   UNL     1      -5.075   0.164   7.884  1.00  0.00     0.016 A 
ATOM     42  C   UNL     1      -2.501  -0.930   7.900  1.00  0.00     0.010 A 
ATOM     43  C   UNL     1      -4.793  -0.997   7.182  1.00  0.00     0.010 A 
ATOM     44  C   UNL     1      -3.506  -1.563   7.160  1.00  0.00    -0.014 A 
BRANCH  44  45
ATOM     45  C   UNL     1      -3.287  -2.635   6.151  1.00  0.00     0.031 A 
ATOM     46  C   UNL     1      -4.327  -3.715   5.904  1.00  0.00     0.074 A 
ATOM     47  C   UNL     1      -2.468  -2.311   5.120  1.00  0.00     0.049 A 
ATOM     48  N   UNL     1      -4.367  -4.519   4.884  1.00  0.00    -0.248 NA
ATOM     49  C   UNL     1      -5.423  -3.980   6.831  1.00  0.00     0.031 C 
ATOM     50  C   UNL     1      -2.860  -2.537   3.734  1.00  0.00     0.029 A 
ATOM     51  N   UNL     1      -1.336  -1.523   4.983  1.00  0.00    -0.354 N 
ATOM     52  C   UNL     1      -5.597  -5.154   4.850  1.00  0.00     0.074 A 
ATOM     53  C   UNL     1      -6.167  -4.856   6.144  1.00  0.00     0.031 C 
ATOM     54  C   UNL     1      -2.061  -1.859   2.913  1.00  0.00     0.029 A 
ATOM     55  C   UNL     1      -0.889  -1.516   3.656  1.00  0.00     0.049 A 
ATOM     56  H   UNL     1      -0.904  -1.033   5.720  1.00  0.00     0.167 HD
ATOM     57  C   UNL     1      -6.049  -5.770   3.707  1.00  0.00     0.031 A 
ATOM     58  C   UNL     1       0.330  -1.964   3.243  1.00  0.00     0.031 A 
ATOM     59  C   UNL     1      -5.058  -5.751   2.596  1.00  0.00     0.049 A 
ATOM     60  C   UNL     1       0.281  -3.291   2.489  1.00  0.00     0.074 A 
ATOM     61  C   UNL     1      -5.119  -5.431   1.247  1.00  0.00     0.029 A 
ATOM     62  N   UNL     1      -3.702  -5.987   2.845  1.00  0.00    -0.354 N 
ATOM     63  N   UNL     1      -0.828  -3.929   2.187  1.00  0.00    -0.248 NA
ATOM     64  C   UNL     1       1.452  -4.054   2.065  1.00  0.00     0.031 C 
ATOM     65  C   UNL     1      -3.797  -5.409   0.715  1.00  0.00     0.029 A 
ATOM     66  C   UNL     1      -2.922  -5.782   1.719  1.00  0.00     0.049 A 
ATOM     67  H   UNL     1      -3.344  -6.268   3.718  1.00  0.00     0.167 HD
ATOM     68  C   UNL     1      -0.557  -5.203   1.777  1.00  0.00     0.074 A 
ATOM     69  C   UNL     1       0.887  -5.191   1.614  1.00  0.00     0.031 C 
ATOM     70  C   UNL     1      -1.514  -6.182   1.708  1.00  0.00     0.031 A 
BRANCH  57  71
ATOM     71  C   UNL     1      -7.498  -6.284   3.489  1.00  0.00    -0.014 A 
ATOM     72  C   UNL     1      -7.887  -6.848   2.249  1.00  0.00     0.010 A 
ATOM     73  C   UNL     1      -8.540  -6.215   4.438  1.00  0.00     0.010 A 
ATOM     74  C   UNL     1      -9.208  -7.267   1.967  1.00  0.00     0.020 A 
ATOM     75  C   UNL     1      -9.857  -6.656   4.187  1.00  0.00     0.020 A 
ATOM     76  C   UNL     1     -10.191  -7.169   2.944  1.00  0.00     0.054 A 
BRANCH  76  77
ATOM     77  S   UNL     1     -11.879  -7.741   2.595  1.00  0.00     0.124 S 
ATOM     78  O   UNL     1     -12.330  -6.796   1.577  1.00  0.00    -0.237 OA
ATOM     79  O   UNL     1     -11.667  -9.110   2.135  1.00  0.00    -0.237 OA
ATOM     80  O   UNL     1     -12.558  -7.625   3.885  1.00  0.00    -0.744 OA
ENDBRANCH  76  77
ENDBRANCH  57  71
BRANCH  58  81
ATOM     81  C   UNL     1       1.444  -1.128   3.781  1.00  0.00    -0.014 A 
ATOM     82  C   UNL     1       1.497   0.146   3.163  1.00  0.00     0.010 A 
ATOM     83  C   UNL     1       1.724  -1.206   5.158  1.00  0.00     0.010 A 
ATOM     84  C   UNL     1       1.414   1.307   3.936  1.00  0.00     0.020 A 
ATOM     85  C   UNL     1       1.650  -0.040   5.938  1.00  0.00     0.020 A 
ATOM     86  C   UNL     1       1.391   1.192   5.323  1.00  0.00     0.054 A 
BRANCH  86  87
ATOM     87  S   UNL     1       0.628   2.534   6.299  1.00  0.00     0.124 S 
ATOM     88  O   UNL     1       1.785   3.328   6.692  1.00  0.00    -0.237 OA
ATOM     89  O   UNL     1      -0.284   3.167   5.346  1.00  0.00    -0.237 OA
ATOM     90  O   UNL     1      -0.040   1.800   7.372  1.00  0.00    -0.744 OA
ENDBRANCH  86  87
ENDBRANCH  58  81
BRANCH  70  91
ATOM     91  C   UNL     1      -1.238  -7.676   1.624  1.00  0.00    -0.014 A 
ATOM     92  C   UNL     1       0.003  -8.264   1.901  1.00  0.00     0.010 A 
ATOM     93  C   UNL     1      -2.320  -8.570   1.399  1.00  0.00     0.010 A 
ATOM     94  C   UNL     1       0.177  -9.655   1.889  1.00  0.00     0.020 A 
ATOM     95  C   UNL     1      -2.171  -9.961   1.434  1.00  0.00     0.020 A 
ATOM     96  C   UNL     1      -0.910 -10.495   1.654  1.00  0.00     0.054 A 
BRANCH  96  97
ATOM     97  S   UNL     1      -0.660 -12.286   1.705  1.00  0.00     0.124 S 
ATOM     98  O   UNL     1      -0.057 -12.541   0.399  1.00  0.00    -0.237 OA
ATOM     99  O   UNL     1       0.234 -12.453   2.849  1.00  0.00    -0.237 OA
ATOM    100  O   UNL     1      -2.005 -12.822   1.891  1.00  0.00    -0.744 OA
ENDBRANCH  96  97
ENDBRANCH  70  91
ENDBRANCH  44  45
ENDBRANCH  37  39
ENDBRANCH  36  37
ENDBRANCH  35  36
ENDBRANCH  34  35
ENDBRANCH  33  34
ENDBRANCH  32  33
ENDBRANCH   1  32
TORSDOF 26
