REMARK SMILES C[C@@H]([NH3+])CCC(=O)N1CC(n2cc(C(=O)OCCOCCOCCOCCOC(=O)c3ccc(-c4c5nc(c(-c6ccc(S(=O)(=O)[O-])cc6)c6ccc([nH]6)c(-c6ccc(S(=O)(=O)[O-])cc6)c6nc(c(-c7ccc(S(=O)(=O)[O-])cc7)c7ccc4[nH]7)C=C6)C=C5)cc3)nn2)C1
REMARK SMILES IDX 21 1 20 2 19 3 18 4 17 5 16 6 14 7 15 8 13 9 11 10 12 11
REMARK SMILES IDX 92 12 91 13 10 14 6 15 7 16 8 17 9 18 93 19 5 20 4 21 2 22
REMARK SMILES IDX 1 23 3 24 22 28 23 29 24 30 25 31 26 32 27 33 28 34 29 35
REMARK SMILES IDX 30 36 31 37 32 38 90 39 33 40 89 41 34 42 35 43 36 44 83 45
REMARK SMILES IDX 37 46 88 47 82 48 84 49 38 50 87 51 81 52 80 53 39 55 69 56
REMARK SMILES IDX 50 57 68 58 51 59 54 60 67 61 85 62 52 63 53 64 66 66 86 67
REMARK SMILES IDX 55 68 40 69 41 70 49 71 42 72 48 73 43 74 44 75 45 76 46 77
REMARK SMILES IDX 47 78 70 79 71 80 79 81 72 82 78 83 73 84 74 85 75 86 76 87
REMARK SMILES IDX 77 88 56 89 57 90 65 91 58 92 64 93 59 94 60 95 61 96 62 97
REMARK SMILES IDX 63 98
REMARK H PARENT 3 25 3 26 3 27 84 54 54 65
REMARK Flexibility Score: inf
ROOT
ATOM      1  C   UNL     1       7.323  -6.122   1.190  1.00  0.00     0.188 C 
ENDROOT
BRANCH   1   2
ATOM      2  C   UNL     1       8.299  -5.534   0.145  1.00  0.00     0.188 C 
BRANCH   2   3
ATOM      3  O   UNL     1       9.496  -4.853   0.512  1.00  0.00    -0.376 OA
BRANCH   3   4
ATOM      4  C   UNL     1       9.606  -4.085   1.698  1.00  0.00     0.202 C 
BRANCH   4   5
ATOM      5  C   UNL     1       8.605  -2.965   2.017  1.00  0.00     0.261 C 
BRANCH   5   6
ATOM      6  O   UNL     1       7.275  -3.164   1.534  1.00  0.00    -0.458 OA
BRANCH   6   7
ATOM      7  C   UNL     1       7.019  -2.649   0.301  1.00  0.00     0.360 C 
ATOM      8  O   UNL     1       7.783  -1.905  -0.314  1.00  0.00    -0.244 OA
BRANCH   7   9
ATOM      9  C   UNL     1       5.774  -3.153  -0.255  1.00  0.00     0.190 A 
ATOM     10  N   UNL     1       3.817  -4.025  -0.603  1.00  0.00    -0.245 N 
ATOM     11  C   UNL     1       4.714  -3.760   0.397  1.00  0.00     0.147 A 
ATOM     12  N   UNL     1       4.311  -3.679  -1.800  1.00  0.00    -0.066 NA
ATOM     13  N   UNL     1       5.507  -3.143  -1.602  1.00  0.00    -0.123 NA
BRANCH  10  14
ATOM     14  C   UNL     1       2.443  -4.348  -0.358  1.00  0.00     0.148 C 
ATOM     15  C   UNL     1      -0.601  -3.091  -0.607  1.00  0.00     0.222 C 
ATOM     16  O   UNL     1      -1.359  -4.026  -0.866  1.00  0.00    -0.275 OA
ATOM     17  N   UNL     1       0.757  -3.195  -0.779  1.00  0.00    -0.338 N 
ATOM     18  C   UNL     1       1.474  -4.237  -1.532  1.00  0.00     0.148 C 
ATOM     19  C   UNL     1       1.765  -3.130   0.263  1.00  0.00     0.148 C 
BRANCH  15  20
ATOM     20  C   UNL     1      -1.152  -1.698  -0.307  1.00  0.00     0.106 C 
BRANCH  20  21
ATOM     21  C   UNL     1      -0.910  -1.031   1.051  1.00  0.00     0.074 C 
BRANCH  21  22
ATOM     22  C   UNL     1       0.477  -0.431   1.332  1.00  0.00     0.178 C 
ATOM     23  C   UNL     1       1.047   0.428   0.207  1.00  0.00     0.075 C 
BRANCH  22  24
ATOM     24  N   UNL     1       0.455   0.350   2.572  1.00  0.00    -0.355 N 
ATOM     25  H   UNL     1      -0.172   1.147   2.460  1.00  0.00     0.344 HD
ATOM     26  H   UNL     1       1.396   0.684   2.780  1.00  0.00     0.344 HD
ATOM     27  H   UNL     1       0.125  -0.237   3.338  1.00  0.00     0.344 HD
ENDBRANCH  22  24
ENDBRANCH  21  22
ENDBRANCH  20  21
ENDBRANCH  15  20
ENDBRANCH  10  14
ENDBRANCH   7   9
ENDBRANCH   6   7
ENDBRANCH   5   6
ENDBRANCH   4   5
ENDBRANCH   3   4
ENDBRANCH   2   3
ENDBRANCH   1   2
BRANCH   1  28
ATOM     28  O   UNL     1       7.631  -5.793   2.534  1.00  0.00    -0.377 OA
BRANCH  28  29
ATOM     29  C   UNL     1       8.319  -6.809   3.264  1.00  0.00     0.188 C 
BRANCH  29  30
ATOM     30  C   UNL     1       9.540  -7.489   2.590  1.00  0.00     0.188 C 
BRANCH  30  31
ATOM     31  O   UNL     1       9.339  -7.822   1.219  1.00  0.00    -0.376 OA
BRANCH  31  32
ATOM     32  C   UNL     1       9.236  -9.176   0.805  1.00  0.00     0.202 C 
BRANCH  32  33
ATOM     33  C   UNL     1       7.916  -9.871   1.124  1.00  0.00     0.261 C 
BRANCH  33  34
ATOM     34  O   UNL     1       7.474  -9.640   2.448  1.00  0.00    -0.460 OA
BRANCH  34  35
ATOM     35  C   UNL     1       8.254 -10.155   3.413  1.00  0.00     0.338 C 
ATOM     36  O   UNL     1       9.350 -10.687   3.275  1.00  0.00    -0.246 OA
BRANCH  35  37
ATOM     37  C   UNL     1       7.522 -10.070   4.675  1.00  0.00     0.060 A 
ATOM     38  C   UNL     1       8.146 -10.665   5.769  1.00  0.00     0.016 A 
ATOM     39  C   UNL     1       6.141  -9.814   4.630  1.00  0.00     0.016 A 
ATOM     40  C   UNL     1       7.341 -11.328   6.656  1.00  0.00     0.010 A 
ATOM     41  C   UNL     1       5.340 -10.493   5.502  1.00  0.00     0.010 A 
ATOM     42  C   UNL     1       5.964 -11.335   6.414  1.00  0.00    -0.014 A 
BRANCH  42  43
ATOM     43  C   UNL     1       5.167 -12.271   7.158  1.00  0.00     0.031 A 
ATOM     44  C   UNL     1       4.912 -11.815   8.530  1.00  0.00     0.074 A 
ATOM     45  C   UNL     1       4.668 -13.383   6.593  1.00  0.00     0.049 A 
ATOM     46  N   UNL     1       5.443 -12.261   9.616  1.00  0.00    -0.248 NA
ATOM     47  C   UNL     1       4.151 -10.564   8.685  1.00  0.00     0.031 C 
ATOM     48  C   UNL     1       4.635 -13.750   5.173  1.00  0.00     0.029 A 
ATOM     49  N   UNL     1       3.956 -14.373   7.182  1.00  0.00    -0.354 N 
ATOM     50  C   UNL     1       4.883 -11.492  10.623  1.00  0.00     0.074 A 
ATOM     51  C   UNL     1       4.313 -10.332   9.986  1.00  0.00     0.031 C 
ATOM     52  C   UNL     1       3.723 -14.735   4.997  1.00  0.00     0.029 A 
ATOM     53  C   UNL     1       3.217 -15.145   6.298  1.00  0.00     0.049 A 
ATOM     54  H   UNL     1       3.963 -14.531   8.154  1.00  0.00     0.167 HD
ATOM     55  C   UNL     1       4.636 -12.014  11.854  1.00  0.00     0.031 A 
ATOM     56  C   UNL     1       2.191 -15.967   6.633  1.00  0.00     0.031 A 
ATOM     57  C   UNL     1       5.353 -13.243  12.073  1.00  0.00     0.049 A 
ATOM     58  C   UNL     1       2.313 -16.251   8.089  1.00  0.00     0.074 A 
ATOM     59  C   UNL     1       6.687 -13.600  12.065  1.00  0.00     0.029 A 
ATOM     60  N   UNL     1       4.643 -14.415  11.942  1.00  0.00    -0.354 N 
ATOM     61  N   UNL     1       3.300 -16.928   8.608  1.00  0.00    -0.248 NA
ATOM     62  C   UNL     1       1.601 -15.387   9.021  1.00  0.00     0.031 C 
ATOM     63  C   UNL     1       6.722 -14.897  11.477  1.00  0.00     0.029 A 
ATOM     64  C   UNL     1       5.408 -15.290  11.212  1.00  0.00     0.049 A 
ATOM     65  H   UNL     1       3.746 -14.594  12.306  1.00  0.00     0.167 HD
ATOM     66  C   UNL     1       3.605 -16.272   9.794  1.00  0.00     0.074 A 
ATOM     67  C   UNL     1       2.463 -15.394  10.043  1.00  0.00     0.031 C 
ATOM     68  C   UNL     1       4.871 -16.289  10.309  1.00  0.00     0.031 A 
BRANCH  55  69
ATOM     69  C   UNL     1       3.414 -11.633  12.643  1.00  0.00    -0.014 A 
ATOM     70  C   UNL     1       3.282 -12.097  13.962  1.00  0.00     0.010 A 
ATOM     71  C   UNL     1       2.269 -11.062  12.042  1.00  0.00     0.010 A 
ATOM     72  C   UNL     1       2.050 -12.037  14.625  1.00  0.00     0.020 A 
ATOM     73  C   UNL     1       1.054 -10.950  12.708  1.00  0.00     0.020 A 
ATOM     74  C   UNL     1       0.943 -11.472  13.986  1.00  0.00     0.054 A 
BRANCH  74  75
ATOM     75  S   UNL     1      -0.667 -11.494  14.805  1.00  0.00     0.124 S 
ATOM     76  O   UNL     1      -0.970 -12.921  14.825  1.00  0.00    -0.237 OA
ATOM     77  O   UNL     1      -0.363 -10.887  16.097  1.00  0.00    -0.237 OA
ATOM     78  O   UNL     1      -1.508 -10.686  13.924  1.00  0.00    -0.744 OA
ENDBRANCH  74  75
ENDBRANCH  55  69
BRANCH  56  79
ATOM     79  C   UNL     1       0.934 -16.181   5.871  1.00  0.00    -0.014 A 
ATOM     80  C   UNL     1       0.043 -17.213   6.217  1.00  0.00     0.010 A 
ATOM     81  C   UNL     1       0.475 -15.195   4.971  1.00  0.00     0.010 A 
ATOM     82  C   UNL     1      -1.276 -17.224   5.728  1.00  0.00     0.020 A 
ATOM     83  C   UNL     1      -0.832 -15.204   4.473  1.00  0.00     0.020 A 
ATOM     84  C   UNL     1      -1.711 -16.206   4.874  1.00  0.00     0.054 A 
BRANCH  84  85
ATOM     85  S   UNL     1      -3.461 -16.125   4.390  1.00  0.00     0.124 S 
ATOM     86  O   UNL     1      -3.585 -17.262   3.482  1.00  0.00    -0.237 OA
ATOM     87  O   UNL     1      -4.150 -16.259   5.670  1.00  0.00    -0.237 OA
ATOM     88  O   UNL     1      -3.582 -14.812   3.760  1.00  0.00    -0.744 OA
ENDBRANCH  84  85
ENDBRANCH  56  79
BRANCH  68  89
ATOM     89  C   UNL     1       5.867 -17.269   9.728  1.00  0.00    -0.014 A 
ATOM     90  C   UNL     1       6.292 -17.252   8.384  1.00  0.00     0.010 A 
ATOM     91  C   UNL     1       6.508 -18.146  10.620  1.00  0.00     0.010 A 
ATOM     92  C   UNL     1       7.312 -18.110   7.943  1.00  0.00     0.020 A 
ATOM     93  C   UNL     1       7.535 -18.990  10.191  1.00  0.00     0.020 A 
ATOM     94  C   UNL     1       7.927 -18.976   8.852  1.00  0.00     0.054 A 
BRANCH  94  95
ATOM     95  S   UNL     1       9.274 -20.054   8.289  1.00  0.00     0.124 S 
ATOM     96  O   UNL     1       8.582 -20.996   7.413  1.00  0.00    -0.237 OA
ATOM     97  O   UNL     1      10.179 -19.121   7.621  1.00  0.00    -0.237 OA
ATOM     98  O   UNL     1       9.798 -20.632   9.526  1.00  0.00    -0.744 OA
ENDBRANCH  94  95
ENDBRANCH  68  89
ENDBRANCH  42  43
ENDBRANCH  35  37
ENDBRANCH  34  35
ENDBRANCH  33  34
ENDBRANCH  32  33
ENDBRANCH  31  32
ENDBRANCH  30  31
ENDBRANCH  29  30
ENDBRANCH  28  29
ENDBRANCH   1  28
TORSDOF 28
