REMARK SMILES C[C@H]1[C@@H](C(=O)OCCOCCOCCOCCOC(=O)c2ccc(-c3c4nc(c(-c5ccc(S(=O)(=O)[O-])cc5)c5ccc([nH]5)c(-c5ccc(S(=O)(=O)[O-])cc5)c5nc(c(-c6ccc(S(=O)(=O)[O-])cc6)c6ccc3[nH]6)C=C5)C=C4)cc2)CCN1S(=O)(=O)c1c[nH]c2ncccc12
REMARK SMILES IDX 13 1 12 2 11 3 10 4 9 5 8 6 7 7 6 8 4 9 5 10 3 11 1 12 2 13
REMARK SMILES IDX 83 14 81 15 82 16 84 17 85 18 86 19 87 20 88 21 95 22 89 23
REMARK SMILES IDX 90 24 94 25 91 27 93 28 92 29 14 30 15 31 16 32 17 33 18 34
REMARK SMILES IDX 19 35 20 36 21 37 22 38 80 39 23 40 79 41 24 42 25 43 26 44
REMARK SMILES IDX 73 45 27 46 78 47 72 48 74 49 28 50 77 51 71 52 70 53 29 55
REMARK SMILES IDX 59 56 40 57 58 58 41 59 44 60 57 61 75 62 42 63 43 64 56 66
REMARK SMILES IDX 76 67 45 68 30 69 31 70 39 71 32 72 38 73 33 74 34 75 35 76
REMARK SMILES IDX 36 77 37 78 60 79 61 80 69 81 62 82 68 83 63 84 64 85 65 86
REMARK SMILES IDX 66 87 67 88 46 89 47 90 55 91 48 92 54 93 49 94 50 95 51 96
REMARK SMILES IDX 52 97 53 98
REMARK H PARENT 89 26 74 54 44 65
REMARK Flexibility Score: inf
ROOT
ATOM      1  C   UNL     1       1.592   0.031  -4.499  1.00  0.00     0.188 C 
ENDROOT
BRANCH   1   2
ATOM      2  O   UNL     1       1.049  -0.413  -3.274  1.00  0.00    -0.377 OA
BRANCH   2   3
ATOM      3  C   UNL     1      -0.061   0.271  -2.719  1.00  0.00     0.188 C 
BRANCH   3   4
ATOM      4  C   UNL     1      -0.577   1.654  -3.176  1.00  0.00     0.188 C 
BRANCH   4   5
ATOM      5  O   UNL     1       0.266   2.361  -4.051  1.00  0.00    -0.376 OA
BRANCH   5   6
ATOM      6  C   UNL     1       1.185   3.320  -3.577  1.00  0.00     0.202 C 
BRANCH   6   7
ATOM      7  C   UNL     1       1.925   3.207  -2.233  1.00  0.00     0.261 C 
BRANCH   7   8
ATOM      8  O   UNL     1       1.423   2.278  -1.264  1.00  0.00    -0.463 OA
BRANCH   8   9
ATOM      9  C   UNL     1       0.553   2.739  -0.343  1.00  0.00     0.310 C 
ATOM     10  O   UNL     1       0.098   3.879  -0.350  1.00  0.00    -0.252 OA
BRANCH   9  11
ATOM     11  C   UNL     1       0.087   1.699   0.668  1.00  0.00     0.118 C 
ATOM     12  C   UNL     1       2.156   0.069   0.263  1.00  0.00     0.027 C 
ATOM     13  C   UNL     1       0.870   0.423   1.007  1.00  0.00     0.084 C 
ATOM     14  N   UNL     1      -0.095  -0.726   0.926  1.00  0.00    -0.194 NA
ATOM     15  C   UNL     1      -1.362   1.264   0.446  1.00  0.00     0.034 C 
ATOM     16  C   UNL     1      -1.377  -0.250   0.356  1.00  0.00     0.104 C 
BRANCH  14  17
ATOM     17  S   UNL     1      -0.335  -1.644   2.345  1.00  0.00     0.245 S 
ATOM     18  O   UNL     1      -0.738  -0.718   3.382  1.00  0.00    -0.207 OA
ATOM     19  O   UNL     1      -1.171  -2.773   1.990  1.00  0.00    -0.207 OA
BRANCH  17  20
ATOM     20  C   UNL     1       1.148  -2.310   2.923  1.00  0.00     0.109 A 
ATOM     21  C   UNL     1       2.253  -1.581   3.337  1.00  0.00     0.106 A 
ATOM     22  C   UNL     1       1.428  -3.687   3.166  1.00  0.00     0.039 A 
ATOM     23  N   UNL     1       3.205  -2.464   3.767  1.00  0.00    -0.345 N 
ATOM     24  C   UNL     1       2.708  -3.733   3.715  1.00  0.00     0.138 A 
ATOM     25  C   UNL     1       0.762  -4.919   3.026  1.00  0.00     0.015 A 
ATOM     26  H   UNL     1       4.110  -2.220   4.068  1.00  0.00     0.168 HD
ATOM     27  N   UNL     1       3.382  -4.812   4.148  1.00  0.00    -0.239 NA
ATOM     28  C   UNL     1       1.416  -6.072   3.462  1.00  0.00     0.021 A 
ATOM     29  C   UNL     1       2.688  -5.961   4.003  1.00  0.00     0.113 A 
ENDBRANCH  17  20
ENDBRANCH  14  17
ENDBRANCH   9  11
ENDBRANCH   8   9
ENDBRANCH   7   8
ENDBRANCH   6   7
ENDBRANCH   5   6
ENDBRANCH   4   5
ENDBRANCH   3   4
ENDBRANCH   2   3
ENDBRANCH   1   2
BRANCH   1  30
ATOM     30  C   UNL     1       0.624   0.070  -5.695  1.00  0.00     0.188 C 
BRANCH  30  31
ATOM     31  O   UNL     1      -0.741  -0.043  -5.333  1.00  0.00    -0.376 OA
BRANCH  31  32
ATOM     32  C   UNL     1      -1.379  -1.308  -5.327  1.00  0.00     0.202 C 
BRANCH  32  33
ATOM     33  C   UNL     1      -0.735  -2.590  -4.760  1.00  0.00     0.261 C 
BRANCH  33  34
ATOM     34  O   UNL     1       0.675  -2.766  -4.915  1.00  0.00    -0.460 OA
BRANCH  34  35
ATOM     35  C   UNL     1       1.122  -3.043  -6.155  1.00  0.00     0.338 C 
ATOM     36  O   UNL     1       0.455  -3.142  -7.169  1.00  0.00    -0.246 OA
BRANCH  35  37
ATOM     37  C   UNL     1       2.598  -3.001  -6.116  1.00  0.00     0.060 A 
ATOM     38  C   UNL     1       3.259  -2.033  -6.883  1.00  0.00     0.016 A 
ATOM     39  C   UNL     1       3.321  -3.907  -5.336  1.00  0.00     0.016 A 
ATOM     40  C   UNL     1       4.648  -2.000  -6.914  1.00  0.00     0.010 A 
ATOM     41  C   UNL     1       4.717  -3.897  -5.398  1.00  0.00     0.010 A 
ATOM     42  C   UNL     1       5.380  -2.975  -6.228  1.00  0.00    -0.014 A 
BRANCH  42  43
ATOM     43  C   UNL     1       6.797  -3.174  -6.606  1.00  0.00     0.031 A 
ATOM     44  C   UNL     1       7.113  -4.254  -7.606  1.00  0.00     0.074 A 
ATOM     45  C   UNL     1       7.763  -2.355  -6.154  1.00  0.00     0.049 A 
ATOM     46  N   UNL     1       8.263  -4.587  -8.132  1.00  0.00    -0.248 NA
ATOM     47  C   UNL     1       5.978  -5.065  -8.080  1.00  0.00     0.031 C 
ATOM     48  C   UNL     1       7.563  -1.237  -5.233  1.00  0.00     0.029 A 
ATOM     49  N   UNL     1       9.107  -2.336  -6.423  1.00  0.00    -0.354 N 
ATOM     50  C   UNL     1       7.990  -5.649  -8.988  1.00  0.00     0.074 A 
ATOM     51  C   UNL     1       6.577  -5.930  -8.883  1.00  0.00     0.031 C 
ATOM     52  C   UNL     1       8.746  -0.637  -5.016  1.00  0.00     0.029 A 
ATOM     53  C   UNL     1       9.789  -1.349  -5.755  1.00  0.00     0.049 A 
ATOM     54  H   UNL     1       9.542  -2.970  -7.038  1.00  0.00     0.167 HD
ATOM     55  C   UNL     1       8.840  -6.323  -9.797  1.00  0.00     0.031 A 
ATOM     56  C   UNL     1      11.106  -1.064  -5.731  1.00  0.00     0.031 A 
ATOM     57  C   UNL     1      10.249  -6.047  -9.883  1.00  0.00     0.049 A 
ATOM     58  C   UNL     1      12.046  -1.884  -6.578  1.00  0.00     0.074 A 
ATOM     59  C   UNL     1      11.199  -6.666 -10.675  1.00  0.00     0.029 A 
ATOM     60  N   UNL     1      10.912  -5.077  -9.145  1.00  0.00    -0.354 N 
ATOM     61  N   UNL     1      11.774  -2.873  -7.397  1.00  0.00    -0.248 NA
ATOM     62  C   UNL     1      13.472  -1.537  -6.508  1.00  0.00     0.031 C 
ATOM     63  C   UNL     1      12.449  -6.123 -10.360  1.00  0.00     0.029 A 
ATOM     64  C   UNL     1      12.265  -5.104  -9.438  1.00  0.00     0.049 A 
ATOM     65  H   UNL     1      10.485  -4.462  -8.507  1.00  0.00     0.167 HD
ATOM     66  C   UNL     1      12.989  -3.240  -7.968  1.00  0.00     0.074 A 
ATOM     67  C   UNL     1      13.992  -2.353  -7.413  1.00  0.00     0.031 C 
ATOM     68  C   UNL     1      13.253  -4.218  -8.871  1.00  0.00     0.031 A 
BRANCH  55  69
ATOM     69  C   UNL     1       8.274  -7.456 -10.614  1.00  0.00    -0.014 A 
ATOM     70  C   UNL     1       7.375  -7.225 -11.673  1.00  0.00     0.010 A 
ATOM     71  C   UNL     1       8.674  -8.776 -10.336  1.00  0.00     0.010 A 
ATOM     72  C   UNL     1       6.861  -8.295 -12.411  1.00  0.00     0.020 A 
ATOM     73  C   UNL     1       8.191  -9.845 -11.095  1.00  0.00     0.020 A 
ATOM     74  C   UNL     1       7.275  -9.598 -12.119  1.00  0.00     0.054 A 
BRANCH  74  75
ATOM     75  S   UNL     1       6.618 -10.963 -13.117  1.00  0.00     0.124 S 
ATOM     76  O   UNL     1       5.218 -10.994 -12.702  1.00  0.00    -0.237 OA
ATOM     77  O   UNL     1       6.858 -10.502 -14.482  1.00  0.00    -0.237 OA
ATOM     78  O   UNL     1       7.415 -12.114 -12.701  1.00  0.00    -0.744 OA
ENDBRANCH  74  75
ENDBRANCH  55  69
BRANCH  56  79
ATOM     79  C   UNL     1      11.617   0.035  -4.866  1.00  0.00    -0.014 A 
ATOM     80  C   UNL     1      12.193   1.190  -5.425  1.00  0.00     0.010 A 
ATOM     81  C   UNL     1      11.539  -0.076  -3.465  1.00  0.00     0.010 A 
ATOM     82  C   UNL     1      12.696   2.202  -4.601  1.00  0.00     0.020 A 
ATOM     83  C   UNL     1      12.008   0.947  -2.639  1.00  0.00     0.020 A 
ATOM     84  C   UNL     1      12.595   2.076  -3.212  1.00  0.00     0.054 A 
BRANCH  84  85
ATOM     85  S   UNL     1      13.204   3.426  -2.165  1.00  0.00     0.124 S 
ATOM     86  O   UNL     1      14.648   3.331  -2.353  1.00  0.00    -0.237 OA
ATOM     87  O   UNL     1      12.562   4.596  -2.759  1.00  0.00    -0.237 OA
ATOM     88  O   UNL     1      12.721   3.070  -0.832  1.00  0.00    -0.744 OA
ENDBRANCH  84  85
ENDBRANCH  56  79
BRANCH  68  89
ATOM     89  C   UNL     1      14.676  -4.349  -9.357  1.00  0.00    -0.014 A 
ATOM     90  C   UNL     1      15.714  -4.769  -8.507  1.00  0.00     0.010 A 
ATOM     91  C   UNL     1      14.971  -4.068 -10.705  1.00  0.00     0.010 A 
ATOM     92  C   UNL     1      17.028  -4.848  -8.979  1.00  0.00     0.020 A 
ATOM     93  C   UNL     1      16.275  -4.186 -11.192  1.00  0.00     0.020 A 
ATOM     94  C   UNL     1      17.300  -4.553 -10.318  1.00  0.00     0.054 A 
BRANCH  94  95
ATOM     95  S   UNL     1      19.010  -4.671 -10.907  1.00  0.00     0.124 S 
ATOM     96  O   UNL     1      19.638  -3.530 -10.247  1.00  0.00    -0.237 OA
ATOM     97  O   UNL     1      19.425  -5.985 -10.422  1.00  0.00    -0.237 OA
ATOM     98  O   UNL     1      18.887  -4.558 -12.359  1.00  0.00    -0.744 OA
ENDBRANCH  94  95
ENDBRANCH  68  89
ENDBRANCH  42  43
ENDBRANCH  35  37
ENDBRANCH  34  35
ENDBRANCH  33  34
ENDBRANCH  32  33
ENDBRANCH  31  32
ENDBRANCH  30  31
ENDBRANCH   1  30
TORSDOF 25
