REMARK SMILES Cc1c(C)c2c(c(C)c1O)CC[C@@](C)(C(=O)OCCOCCOCCOCCOC(=O)c1ccc(-c3c4nc(c(-c5ccc(S(=O)(=O)[O-])cc5)c5ccc([nH]5)c(-c5ccc(S(=O)(=O)[O-])cc5)c5nc(c(-c6ccc(S(=O)(=O)[O-])cc6)c6ccc3[nH]6)C=C5)C=C4)cc1)O2
REMARK SMILES IDX 24 1 23 2 22 3 21 4 20 5 19 6 18 7 17 8 15 9 16 10 13 11
REMARK SMILES IDX 1 12 2 13 3 14 9 15 4 16 5 17 7 18 6 19 92 20 8 21 11 22
REMARK SMILES IDX 12 23 14 24 10 25 25 27 26 28 27 29 28 30 29 31 30 32 31 33
REMARK SMILES IDX 32 34 33 35 91 36 34 37 90 38 35 39 36 40 37 41 84 42 38 43
REMARK SMILES IDX 89 44 83 45 85 46 39 47 88 48 82 49 81 50 40 52 70 53 51 54
REMARK SMILES IDX 69 55 52 56 55 57 68 58 86 59 53 60 54 61 67 63 87 64 56 65
REMARK SMILES IDX 41 66 42 67 50 68 43 69 49 70 44 71 45 72 46 73 47 74 48 75
REMARK SMILES IDX 71 76 72 77 80 78 73 79 79 80 74 81 75 82 76 83 77 84 78 85
REMARK SMILES IDX 57 86 58 87 66 88 59 89 65 90 60 91 61 92 62 93 63 94 64 95
REMARK H PARENT 10 26 85 51 55 62
REMARK Flexibility Score: inf
ROOT
ATOM      1  C   UNL     1       0.208   1.033 -10.281  1.00  0.00     0.188 C 
ENDROOT
BRANCH   1   2
ATOM      2  O   UNL     1      -0.390   0.906  -8.994  1.00  0.00    -0.377 OA
BRANCH   2   3
ATOM      3  C   UNL     1       0.311   0.143  -8.034  1.00  0.00     0.188 C 
BRANCH   3   4
ATOM      4  C   UNL     1      -0.146  -1.312  -7.873  1.00  0.00     0.188 C 
BRANCH   4   5
ATOM      5  O   UNL     1      -1.049  -1.915  -8.785  1.00  0.00    -0.376 OA
BRANCH   5   6
ATOM      6  C   UNL     1      -2.135  -1.195  -9.347  1.00  0.00     0.202 C 
BRANCH   6   7
ATOM      7  C   UNL     1      -3.136  -0.401  -8.489  1.00  0.00     0.261 C 
BRANCH   7   8
ATOM      8  O   UNL     1      -2.608   0.546  -7.542  1.00  0.00    -0.460 OA
BRANCH   8   9
ATOM      9  C   UNL     1      -2.567   0.108  -6.259  1.00  0.00     0.350 C 
ATOM     10  O   UNL     1      -2.900  -1.030  -5.928  1.00  0.00    -0.247 OA
BRANCH   9  11
ATOM     11  C   UNL     1      -2.134   1.177  -5.235  1.00  0.00     0.203 C 
ATOM     12  C   UNL     1       1.058  -0.073  -0.102  1.00  0.00     0.049 C 
ATOM     13  C   UNL     1       0.573   0.768  -1.256  1.00  0.00    -0.002 A 
ATOM     14  C   UNL     1      -0.068   0.182  -2.369  1.00  0.00    -0.002 A 
ATOM     15  C   UNL     1       0.757   2.165  -1.250  1.00  0.00     0.122 A 
ATOM     16  C   UNL     1      -0.225  -1.317  -2.477  1.00  0.00     0.049 C 
ATOM     17  C   UNL     1      -0.591   1.016  -3.381  1.00  0.00     0.127 A 
ATOM     18  C   UNL     1       0.309   2.986  -2.303  1.00  0.00    -0.002 A 
ATOM     19  C   UNL     1      -0.371   2.399  -3.390  1.00  0.00     0.001 A 
ATOM     20  O   UNL     1      -1.323   0.384  -4.345  1.00  0.00    -0.475 OA
ATOM     21  C   UNL     1       0.574   4.471  -2.285  1.00  0.00     0.049 C 
ATOM     22  C   UNL     1      -0.888   3.242  -4.534  1.00  0.00     0.044 C 
ATOM     23  C   UNL     1      -1.337   2.389  -5.720  1.00  0.00     0.065 C 
ATOM     24  C   UNL     1      -3.439   1.610  -4.552  1.00  0.00     0.069 C 
BRANCH  15  25
ATOM     25  O   UNL     1       1.392   2.791  -0.207  1.00  0.00    -0.507 OA
ATOM     26  H   UNL     1       1.709   2.289   0.518  1.00  0.00     0.293 HD
ENDBRANCH  15  25
ENDBRANCH   9  11
ENDBRANCH   8   9
ENDBRANCH   7   8
ENDBRANCH   6   7
ENDBRANCH   5   6
ENDBRANCH   4   5
ENDBRANCH   3   4
ENDBRANCH   2   3
ENDBRANCH   1   2
BRANCH   1  27
ATOM     27  C   UNL     1       1.007  -0.168 -10.827  1.00  0.00     0.188 C 
BRANCH  27  28
ATOM     28  O   UNL     1       1.988  -0.669  -9.928  1.00  0.00    -0.376 OA
BRANCH  28  29
ATOM     29  C   UNL     1       3.323  -0.194 -10.025  1.00  0.00     0.202 C 
BRANCH  29  30
ATOM     30  C   UNL     1       3.591   1.303  -9.791  1.00  0.00     0.261 C 
BRANCH  30  31
ATOM     31  O   UNL     1       2.936   2.224 -10.676  1.00  0.00    -0.460 OA
BRANCH  31  32
ATOM     32  C   UNL     1       3.112   2.065 -12.003  1.00  0.00     0.338 C 
ATOM     33  O   UNL     1       3.841   1.259 -12.556  1.00  0.00    -0.246 OA
BRANCH  32  34
ATOM     34  C   UNL     1       2.112   2.903 -12.693  1.00  0.00     0.060 A 
ATOM     35  C   UNL     1       1.197   2.291 -13.561  1.00  0.00     0.016 A 
ATOM     36  C   UNL     1       2.087   4.285 -12.495  1.00  0.00     0.016 A 
ATOM     37  C   UNL     1       0.283   3.067 -14.273  1.00  0.00     0.010 A 
ATOM     38  C   UNL     1       1.191   5.064 -13.230  1.00  0.00     0.010 A 
ATOM     39  C   UNL     1       0.316   4.461 -14.150  1.00  0.00    -0.014 A 
BRANCH  39  40
ATOM     40  C   UNL     1      -0.400   5.307 -15.131  1.00  0.00     0.031 A 
ATOM     41  C   UNL     1       0.376   5.833 -16.308  1.00  0.00     0.074 A 
ATOM     42  C   UNL     1      -1.703   5.600 -14.986  1.00  0.00     0.049 A 
ATOM     43  N   UNL     1       0.010   6.682 -17.230  1.00  0.00    -0.248 NA
ATOM     44  C   UNL     1       1.752   5.329 -16.463  1.00  0.00     0.031 C 
ATOM     45  C   UNL     1      -2.578   5.081 -13.936  1.00  0.00     0.029 A 
ATOM     46  N   UNL     1      -2.515   6.419 -15.730  1.00  0.00    -0.354 N 
ATOM     47  C   UNL     1       1.109   6.823 -18.070  1.00  0.00     0.074 A 
ATOM     48  C   UNL     1       2.164   5.991 -17.534  1.00  0.00     0.031 C 
ATOM     49  C   UNL     1      -3.805   5.606 -14.096  1.00  0.00     0.029 A 
ATOM     50  C   UNL     1      -3.788   6.533 -15.227  1.00  0.00     0.049 A 
ATOM     51  H   UNL     1      -2.214   6.881 -16.545  1.00  0.00     0.167 HD
ATOM     52  C   UNL     1       1.228   7.577 -19.187  1.00  0.00     0.031 A 
ATOM     53  C   UNL     1      -4.811   7.319 -15.618  1.00  0.00     0.031 A 
ATOM     54  C   UNL     1       0.180   8.423 -19.695  1.00  0.00     0.049 A 
ATOM     55  C   UNL     1      -4.622   8.235 -16.800  1.00  0.00     0.074 A 
ATOM     56  C   UNL     1       0.204   9.247 -20.806  1.00  0.00     0.029 A 
ATOM     57  N   UNL     1      -1.078   8.553 -19.126  1.00  0.00    -0.354 N 
ATOM     58  N   UNL     1      -3.566   8.389 -17.565  1.00  0.00    -0.248 NA
ATOM     59  C   UNL     1      -5.764   9.079 -17.174  1.00  0.00     0.031 C 
ATOM     60  C   UNL     1      -1.019   9.921 -20.874  1.00  0.00     0.029 A 
ATOM     61  C   UNL     1      -1.833   9.458 -19.852  1.00  0.00     0.049 A 
ATOM     62  H   UNL     1      -1.388   8.073 -18.325  1.00  0.00     0.167 HD
ATOM     63  C   UNL     1      -3.932   9.317 -18.536  1.00  0.00     0.074 A 
ATOM     64  C   UNL     1      -5.307   9.683 -18.263  1.00  0.00     0.031 C 
ATOM     65  C   UNL     1      -3.201   9.814 -19.566  1.00  0.00     0.031 A 
BRANCH  52  66
ATOM     66  C   UNL     1       2.547   7.553 -19.912  1.00  0.00    -0.014 A 
ATOM     67  C   UNL     1       2.967   6.415 -20.625  1.00  0.00     0.010 A 
ATOM     68  C   UNL     1       3.356   8.704 -19.924  1.00  0.00     0.010 A 
ATOM     69  C   UNL     1       4.182   6.422 -21.317  1.00  0.00     0.020 A 
ATOM     70  C   UNL     1       4.557   8.725 -20.640  1.00  0.00     0.020 A 
ATOM     71  C   UNL     1       4.967   7.579 -21.323  1.00  0.00     0.054 A 
BRANCH  71  72
ATOM     72  S   UNL     1       6.516   7.571 -22.265  1.00  0.00     0.124 S 
ATOM     73  O   UNL     1       7.332   6.632 -21.498  1.00  0.00    -0.237 OA
ATOM     74  O   UNL     1       6.086   7.100 -23.579  1.00  0.00    -0.237 OA
ATOM     75  O   UNL     1       6.961   8.961 -22.218  1.00  0.00    -0.744 OA
ENDBRANCH  71  72
ENDBRANCH  52  66
BRANCH  53  76
ATOM     76  C   UNL     1      -6.104   7.277 -14.880  1.00  0.00    -0.014 A 
ATOM     77  C   UNL     1      -7.256   6.747 -15.487  1.00  0.00     0.010 A 
ATOM     78  C   UNL     1      -6.186   7.752 -13.558  1.00  0.00     0.010 A 
ATOM     79  C   UNL     1      -8.466   6.696 -14.788  1.00  0.00     0.020 A 
ATOM     80  C   UNL     1      -7.386   7.675 -12.845  1.00  0.00     0.020 A 
ATOM     81  C   UNL     1      -8.521   7.152 -13.468  1.00  0.00     0.054 A 
BRANCH  81  82
ATOM     82  S   UNL     1     -10.086   7.010 -12.562  1.00  0.00     0.124 S 
ATOM     83  O   UNL     1     -10.930   7.978 -13.255  1.00  0.00    -0.237 OA
ATOM     84  O   UNL     1     -10.435   5.606 -12.762  1.00  0.00    -0.237 OA
ATOM     85  O   UNL     1      -9.723   7.365 -11.191  1.00  0.00    -0.744 OA
ENDBRANCH  81  82
ENDBRANCH  53  76
BRANCH  65  86
ATOM     86  C   UNL     1      -3.887  10.765 -20.514  1.00  0.00    -0.014 A 
ATOM     87  C   UNL     1      -4.248  12.066 -20.123  1.00  0.00     0.010 A 
ATOM     88  C   UNL     1      -4.131  10.356 -21.839  1.00  0.00     0.010 A 
ATOM     89  C   UNL     1      -4.886  12.922 -21.026  1.00  0.00     0.020 A 
ATOM     90  C   UNL     1      -4.735  11.221 -22.754  1.00  0.00     0.020 A 
ATOM     91  C   UNL     1      -5.127  12.493 -22.335  1.00  0.00     0.054 A 
BRANCH  91  92
ATOM     92  S   UNL     1      -5.945  13.629 -23.488  1.00  0.00     0.124 S 
ATOM     93  O   UNL     1      -7.301  13.684 -22.949  1.00  0.00    -0.237 OA
ATOM     94  O   UNL     1      -5.160  14.852 -23.340  1.00  0.00    -0.237 OA
ATOM     95  O   UNL     1      -5.816  12.964 -24.782  1.00  0.00    -0.744 OA
ENDBRANCH  91  92
ENDBRANCH  65  86
ENDBRANCH  39  40
ENDBRANCH  32  34
ENDBRANCH  31  32
ENDBRANCH  30  31
ENDBRANCH  29  30
ENDBRANCH  28  29
ENDBRANCH  27  28
ENDBRANCH   1  27
TORSDOF 24
