REMARK SMILES Cc1ccc(-c2nc(C)cc(N3CCCC[C@H]3C(=O)OCCOCCOCCOCCOC(=O)c3ccc(-c4c5nc(c(-c6ccc(S(=O)(=O)[O-])cc6)c6ccc([nH]6)c(-c6ccc(S(=O)(=O)[O-])cc6)c6nc(c(-c7ccc(S(=O)(=O)[O-])cc7)c7ccc4[nH]7)C=C6)C=C5)cc3)n2)cc1
REMARK SMILES IDX 27 1 26 2 25 3 24 4 23 5 22 6 21 7 20 8 18 9 19 10 17 11
REMARK SMILES IDX 12 12 13 13 14 14 16 15 15 16 11 17 6 18 7 19 95 20 8 21
REMARK SMILES IDX 9 22 10 23 5 24 1 25 2 26 3 27 97 28 4 29 96 30 28 31 29 32
REMARK SMILES IDX 30 33 31 34 32 35 33 36 34 37 35 38 36 39 94 40 37 41 93 42
REMARK SMILES IDX 38 43 39 44 40 45 87 46 41 47 92 48 86 49 88 50 42 51 91 52
REMARK SMILES IDX 85 53 84 54 43 56 73 57 54 58 72 59 55 60 58 61 71 62 89 63
REMARK SMILES IDX 56 64 57 65 70 67 90 68 59 69 44 70 45 71 53 72 46 73 52 74
REMARK SMILES IDX 47 75 48 76 49 77 50 78 51 79 74 80 75 81 83 82 76 83 82 84
REMARK SMILES IDX 77 85 78 86 79 87 80 88 81 89 60 90 61 91 69 92 62 93 68 94
REMARK SMILES IDX 63 95 64 96 65 97 66 98 67 99
REMARK H PARENT 88 55 58 66
REMARK Flexibility Score: inf
ROOT
ATOM      1  C   UNL     1      -7.787   1.092  -6.227  1.00  0.00     0.188 C 
ENDROOT
BRANCH   1   2
ATOM      2  O   UNL     1      -8.183   0.872  -4.867  1.00  0.00    -0.377 OA
BRANCH   2   3
ATOM      3  C   UNL     1      -7.102   0.672  -3.982  1.00  0.00     0.188 C 
BRANCH   3   4
ATOM      4  C   UNL     1      -7.195  -0.532  -3.022  1.00  0.00     0.188 C 
BRANCH   4   5
ATOM      5  O   UNL     1      -8.390  -0.900  -2.349  1.00  0.00    -0.376 OA
BRANCH   5   6
ATOM      6  C   UNL     1      -9.234   0.154  -1.924  1.00  0.00     0.202 C 
BRANCH   6   7
ATOM      7  C   UNL     1      -8.720   1.085  -0.836  1.00  0.00     0.261 C 
BRANCH   7   8
ATOM      8  O   UNL     1      -7.644   1.871  -1.346  1.00  0.00    -0.462 OA
BRANCH   8   9
ATOM      9  C   UNL     1      -6.852   2.508  -0.447  1.00  0.00     0.328 C 
ATOM     10  O   UNL     1      -7.127   2.716   0.715  1.00  0.00    -0.250 OA
BRANCH   9  11
ATOM     11  C   UNL     1      -5.453   2.724  -1.071  1.00  0.00     0.193 C 
ATOM     12  N   UNL     1      -4.940   1.450  -1.621  1.00  0.00    -0.343 N 
ATOM     13  C   UNL     1      -4.086   1.381  -2.807  1.00  0.00     0.119 C 
ATOM     14  C   UNL     1      -4.189   2.537  -3.791  1.00  0.00     0.022 C 
ATOM     15  C   UNL     1      -5.415   3.905  -2.043  1.00  0.00     0.037 C 
ATOM     16  C   UNL     1      -5.243   3.589  -3.518  1.00  0.00     0.005 C 
BRANCH  12  17
ATOM     17  C   UNL     1      -4.542   0.569  -0.607  1.00  0.00     0.133 A 
ATOM     18  C   UNL     1      -2.779  -0.259   0.586  1.00  0.00     0.161 A 
ATOM     19  N   UNL     1      -3.521  -0.939   1.470  1.00  0.00    -0.233 NA
ATOM     20  N   UNL     1      -3.239   0.474  -0.428  1.00  0.00    -0.211 NA
ATOM     21  C   UNL     1      -4.855  -0.828   1.291  1.00  0.00     0.043 A 
ATOM     22  C   UNL     1      -5.754  -1.471   2.310  1.00  0.00     0.067 C 
ATOM     23  C   UNL     1      -5.400  -0.100   0.244  1.00  0.00     0.070 A 
BRANCH  18  24
ATOM     24  C   UNL     1      -1.330  -0.248   0.627  1.00  0.00     0.019 A 
ATOM     25  C   UNL     1       2.908  -0.079  -0.084  1.00  0.00     0.044 C 
ATOM     26  C   UNL     1       1.437  -0.129   0.183  1.00  0.00    -0.051 A 
ATOM     27  C   UNL     1       0.787  -1.366   0.319  1.00  0.00     0.004 A 
ATOM     28  C   UNL     1       0.702   1.052   0.279  1.00  0.00     0.004 A 
ATOM     29  C   UNL     1      -0.588  -1.426   0.548  1.00  0.00     0.012 A 
ATOM     30  C   UNL     1      -0.665   0.990   0.503  1.00  0.00     0.012 A 
ENDBRANCH  18  24
ENDBRANCH  12  17
ENDBRANCH   9  11
ENDBRANCH   8   9
ENDBRANCH   7   8
ENDBRANCH   6   7
ENDBRANCH   5   6
ENDBRANCH   4   5
ENDBRANCH   3   4
ENDBRANCH   2   3
ENDBRANCH   1   2
BRANCH   1  31
ATOM     31  C   UNL     1      -7.173  -0.163  -6.824  1.00  0.00     0.188 C 
BRANCH  31  32
ATOM     32  O   UNL     1      -7.565  -1.241  -5.980  1.00  0.00    -0.376 OA
BRANCH  32  33
ATOM     33  C   UNL     1      -6.932  -2.477  -6.172  1.00  0.00     0.202 C 
BRANCH  33  34
ATOM     34  C   UNL     1      -7.348  -3.085  -7.503  1.00  0.00     0.261 C 
BRANCH  34  35
ATOM     35  O   UNL     1      -8.759  -3.405  -7.458  1.00  0.00    -0.460 OA
BRANCH  35  36
ATOM     36  C   UNL     1      -9.579  -2.574  -8.170  1.00  0.00     0.338 C 
ATOM     37  O   UNL     1      -9.697  -2.634  -9.381  1.00  0.00    -0.246 OA
BRANCH  36  38
ATOM     38  C   UNL     1     -10.347  -1.649  -7.275  1.00  0.00     0.060 A 
ATOM     39  C   UNL     1     -10.945  -0.474  -7.765  1.00  0.00     0.016 A 
ATOM     40  C   UNL     1     -10.344  -1.871  -5.907  1.00  0.00     0.016 A 
ATOM     41  C   UNL     1     -11.415   0.533  -6.883  1.00  0.00     0.010 A 
ATOM     42  C   UNL     1     -10.748  -0.856  -5.052  1.00  0.00     0.010 A 
ATOM     43  C   UNL     1     -11.272   0.373  -5.505  1.00  0.00    -0.014 A 
BRANCH  43  44
ATOM     44  C   UNL     1     -11.467   1.399  -4.437  1.00  0.00     0.031 A 
ATOM     45  C   UNL     1     -12.176   0.989  -3.164  1.00  0.00     0.074 A 
ATOM     46  C   UNL     1     -10.652   2.490  -4.395  1.00  0.00     0.049 A 
ATOM     47  N   UNL     1     -12.195   1.660  -2.059  1.00  0.00    -0.248 NA
ATOM     48  C   UNL     1     -12.900  -0.276  -3.019  1.00  0.00     0.031 C 
ATOM     49  C   UNL     1     -10.091   3.100  -3.180  1.00  0.00     0.029 A 
ATOM     50  N   UNL     1     -10.009   3.216  -5.377  1.00  0.00    -0.354 N 
ATOM     51  C   UNL     1     -12.590   0.831  -1.025  1.00  0.00     0.074 A 
ATOM     52  C   UNL     1     -13.089  -0.346  -1.695  1.00  0.00     0.031 C 
ATOM     53  C   UNL     1      -9.237   4.088  -3.478  1.00  0.00     0.029 A 
ATOM     54  C   UNL     1      -9.444   4.390  -4.870  1.00  0.00     0.049 A 
ATOM     55  H   UNL     1      -9.956   2.940  -6.320  1.00  0.00     0.167 HD
ATOM     56  C   UNL     1     -12.325   1.196   0.271  1.00  0.00     0.031 A 
ATOM     57  C   UNL     1      -9.895   5.618  -5.271  1.00  0.00     0.031 A 
ATOM     58  C   UNL     1     -11.824   2.589   0.357  1.00  0.00     0.049 A 
ATOM     59  C   UNL     1     -10.741   6.270  -4.176  1.00  0.00     0.074 A 
ATOM     60  C   UNL     1     -10.729   3.215   0.937  1.00  0.00     0.029 A 
ATOM     61  N   UNL     1     -12.450   3.581  -0.404  1.00  0.00    -0.354 N 
ATOM     62  N   UNL     1     -11.298   5.574  -3.211  1.00  0.00    -0.248 NA
ATOM     63  C   UNL     1     -10.915   7.706  -3.953  1.00  0.00     0.031 C 
ATOM     64  C   UNL     1     -10.617   4.524   0.382  1.00  0.00     0.029 A 
ATOM     65  C   UNL     1     -11.706   4.741  -0.447  1.00  0.00     0.049 A 
ATOM     66  H   UNL     1     -13.318   3.465  -0.854  1.00  0.00     0.167 HD
ATOM     67  C   UNL     1     -11.777   6.394  -2.236  1.00  0.00     0.074 A 
ATOM     68  C   UNL     1     -11.569   7.728  -2.772  1.00  0.00     0.031 C 
ATOM     69  C   UNL     1     -12.263   5.951  -1.038  1.00  0.00     0.031 A 
BRANCH  56  70
ATOM     70  C   UNL     1     -12.357   0.256   1.491  1.00  0.00    -0.014 A 
ATOM     71  C   UNL     1     -11.909   0.722   2.750  1.00  0.00     0.010 A 
ATOM     72  C   UNL     1     -12.767  -1.094   1.480  1.00  0.00     0.010 A 
ATOM     73  C   UNL     1     -11.858  -0.090   3.902  1.00  0.00     0.020 A 
ATOM     74  C   UNL     1     -12.746  -1.917   2.630  1.00  0.00     0.020 A 
ATOM     75  C   UNL     1     -12.288  -1.408   3.838  1.00  0.00     0.054 A 
BRANCH  75  76
ATOM     76  S   UNL     1     -12.275  -2.417   5.348  1.00  0.00     0.124 S 
ATOM     77  O   UNL     1     -10.852  -2.490   5.667  1.00  0.00    -0.237 OA
ATOM     78  O   UNL     1     -13.085  -1.623   6.268  1.00  0.00    -0.237 OA
ATOM     79  O   UNL     1     -12.879  -3.681   4.929  1.00  0.00    -0.744 OA
ENDBRANCH  75  76
ENDBRANCH  56  70
BRANCH  57  80
ATOM     80  C   UNL     1      -9.864   5.729  -6.770  1.00  0.00    -0.014 A 
ATOM     81  C   UNL     1      -8.546   5.809  -7.291  1.00  0.00     0.010 A 
ATOM     82  C   UNL     1     -10.823   5.019  -7.525  1.00  0.00     0.010 A 
ATOM     83  C   UNL     1      -8.127   4.950  -8.317  1.00  0.00     0.020 A 
ATOM     84  C   UNL     1     -10.402   4.156  -8.560  1.00  0.00     0.020 A 
ATOM     85  C   UNL     1      -9.045   4.073  -8.894  1.00  0.00     0.054 A 
BRANCH  85  86
ATOM     86  S   UNL     1      -8.403   2.632  -9.819  1.00  0.00     0.124 S 
ATOM     87  O   UNL     1      -8.231   3.173 -11.162  1.00  0.00    -0.237 OA
ATOM     88  O   UNL     1      -7.168   2.309  -9.103  1.00  0.00    -0.237 OA
ATOM     89  O   UNL     1      -9.462   1.642  -9.661  1.00  0.00    -0.744 OA
ENDBRANCH  85  86
ENDBRANCH  57  80
BRANCH  69  90
ATOM     90  C   UNL     1     -13.339   6.657  -0.252  1.00  0.00    -0.014 A 
ATOM     91  C   UNL     1     -14.130   7.675  -0.797  1.00  0.00     0.010 A 
ATOM     92  C   UNL     1     -13.736   6.133   1.007  1.00  0.00     0.010 A 
ATOM     93  C   UNL     1     -15.232   8.181  -0.103  1.00  0.00     0.020 A 
ATOM     94  C   UNL     1     -14.865   6.593   1.683  1.00  0.00     0.020 A 
ATOM     95  C   UNL     1     -15.593   7.636   1.129  1.00  0.00     0.054 A 
BRANCH  95  96
ATOM     96  S   UNL     1     -17.055   8.279   1.969  1.00  0.00     0.124 S 
ATOM     97  O   UNL     1     -16.556   9.542   2.505  1.00  0.00    -0.237 OA
ATOM     98  O   UNL     1     -18.022   8.399   0.879  1.00  0.00    -0.237 OA
ATOM     99  O   UNL     1     -17.368   7.255   2.962  1.00  0.00    -0.744 OA
ENDBRANCH  95  96
ENDBRANCH  69  90
ENDBRANCH  43  44
ENDBRANCH  36  38
ENDBRANCH  35  36
ENDBRANCH  34  35
ENDBRANCH  33  34
ENDBRANCH  32  33
ENDBRANCH  31  32
ENDBRANCH   1  31
TORSDOF 25
