REMARK SMILES CC(C)(C)c1ccc(NS(=O)(=O)c2cccc(C(=O)OCCOCCOCCOCCOC(=O)c3ccc(-c4c5nc(c(-c6ccc(S(=O)(=O)[O-])cc6)c6ccc([nH]6)c(-c6ccc(S(=O)(=O)[O-])cc6)c6nc(c(-c7ccc(S(=O)(=O)[O-])cc7)c7ccc4[nH]7)C=C6)C=C5)cc3)c2)cc1
REMARK SMILES IDX 25 1 24 2 23 3 22 4 21 5 20 6 18 7 19 8 17 9 13 10 14 11
REMARK SMILES IDX 95 12 15 13 16 14 10 15 11 16 12 17 9 18 8 20 5 21 6 22
REMARK SMILES IDX 97 23 7 24 96 25 2 26 1 27 3 28 4 29 26 30 27 31 28 32 29 33
REMARK SMILES IDX 30 34 31 35 32 36 33 37 34 38 35 39 36 40 94 41 37 42 93 43
REMARK SMILES IDX 38 44 39 45 40 46 87 47 41 48 92 49 86 50 88 51 42 52 91 53
REMARK SMILES IDX 85 54 84 55 43 57 73 58 54 59 72 60 55 61 58 62 71 63 89 64
REMARK SMILES IDX 56 65 57 66 70 68 90 69 59 70 44 71 45 72 53 73 46 74 52 75
REMARK SMILES IDX 47 76 48 77 49 78 50 79 51 80 74 81 75 82 83 83 76 84 82 85
REMARK SMILES IDX 77 86 78 87 79 88 80 89 81 90 60 91 61 92 69 93 62 94 68 95
REMARK SMILES IDX 63 96 64 97 65 98 66 99 67 100
REMARK H PARENT 9 19 88 56 58 67
REMARK Flexibility Score: inf
ROOT
ATOM      1  C   UNL     1       3.241  -3.647   8.180  1.00  0.00     0.188 C 
ENDROOT
BRANCH   1   2
ATOM      2  C   UNL     1       3.529  -4.748   7.145  1.00  0.00     0.188 C 
BRANCH   2   3
ATOM      3  O   UNL     1       4.742  -5.439   7.386  1.00  0.00    -0.376 OA
BRANCH   3   4
ATOM      4  C   UNL     1       5.972  -4.960   6.860  1.00  0.00     0.202 C 
BRANCH   4   5
ATOM      5  C   UNL     1       6.338  -3.480   6.613  1.00  0.00     0.261 C 
BRANCH   5   6
ATOM      6  O   UNL     1       5.277  -2.550   6.409  1.00  0.00    -0.460 OA
BRANCH   6   7
ATOM      7  C   UNL     1       4.711  -2.449   5.193  1.00  0.00     0.338 C 
ATOM      8  O   UNL     1       4.997  -3.059   4.178  1.00  0.00    -0.246 OA
BRANCH   7   9
ATOM      9  C   UNL     1       3.498  -1.620   5.385  1.00  0.00     0.061 A 
ATOM     10  C   UNL     1       2.388   0.309   6.314  1.00  0.00     0.088 A 
ATOM     11  C   UNL     1       1.144  -0.191   5.910  1.00  0.00     0.022 A 
ATOM     12  C   UNL     1       3.560  -0.430   6.113  1.00  0.00     0.038 A 
ATOM     13  C   UNL     1       1.089  -1.397   5.206  1.00  0.00     0.002 A 
ATOM     14  C   UNL     1       2.267  -2.091   4.910  1.00  0.00     0.016 A 
BRANCH  10  15
ATOM     15  S   UNL     1       2.569   2.018   6.779  1.00  0.00     0.261 S 
ATOM     16  O   UNL     1       3.965   2.372   6.656  1.00  0.00    -0.201 OA
ATOM     17  O   UNL     1       1.844   2.201   8.018  1.00  0.00    -0.201 OA
BRANCH  15  18
ATOM     18  N   UNL     1       1.735   2.888   5.619  1.00  0.00    -0.280 N 
ATOM     19  H   UNL     1       1.136   3.595   5.952  1.00  0.00     0.180 HD
BRANCH  18  20
ATOM     20  C   UNL     1       1.791   2.724   4.204  1.00  0.00     0.049 A 
ATOM     21  C   UNL     1       1.153   2.035   1.525  1.00  0.00    -0.042 A 
ATOM     22  C   UNL     1       2.119   1.326   2.246  1.00  0.00     0.006 A 
ATOM     23  C   UNL     1       0.650   3.206   2.121  1.00  0.00     0.006 A 
ATOM     24  C   UNL     1       2.465   1.699   3.551  1.00  0.00     0.027 A 
ATOM     25  C   UNL     1       0.946   3.532   3.449  1.00  0.00     0.027 A 
BRANCH  21  26
ATOM     26  C   UNL     1       0.625   1.564   0.162  1.00  0.00    -0.013 C 
ATOM     27  C   UNL     1       1.080   0.137  -0.226  1.00  0.00     0.016 C 
ATOM     28  C   UNL     1       1.105   2.531  -0.934  1.00  0.00     0.016 C 
ATOM     29  C   UNL     1      -0.922   1.536   0.186  1.00  0.00     0.016 C 
ENDBRANCH  21  26
ENDBRANCH  18  20
ENDBRANCH  15  18
ENDBRANCH  10  15
ENDBRANCH   7   9
ENDBRANCH   6   7
ENDBRANCH   5   6
ENDBRANCH   4   5
ENDBRANCH   3   4
ENDBRANCH   2   3
ENDBRANCH   1   2
BRANCH   1  30
ATOM     30  O   UNL     1       4.395  -3.336   8.947  1.00  0.00    -0.377 OA
BRANCH  30  31
ATOM     31  C   UNL     1       4.502  -3.998  10.203  1.00  0.00     0.188 C 
BRANCH  31  32
ATOM     32  C   UNL     1       4.119  -5.490  10.296  1.00  0.00     0.188 C 
BRANCH  32  33
ATOM     33  O   UNL     1       2.778  -5.772   9.883  1.00  0.00    -0.376 OA
BRANCH  33  34
ATOM     34  C   UNL     1       1.828  -6.018  10.915  1.00  0.00     0.202 C 
BRANCH  34  35
ATOM     35  C   UNL     1       1.306  -4.750  11.607  1.00  0.00     0.261 C 
BRANCH  35  36
ATOM     36  O   UNL     1       2.287  -4.025  12.362  1.00  0.00    -0.460 OA
BRANCH  36  37
ATOM     37  C   UNL     1       2.911  -4.697  13.354  1.00  0.00     0.338 C 
ATOM     38  O   UNL     1       2.672  -5.827  13.738  1.00  0.00    -0.246 OA
BRANCH  37  39
ATOM     39  C   UNL     1       4.078  -3.903  13.782  1.00  0.00     0.060 A 
ATOM     40  C   UNL     1       5.333  -4.523  13.806  1.00  0.00     0.016 A 
ATOM     41  C   UNL     1       3.929  -2.574  14.184  1.00  0.00     0.016 A 
ATOM     42  C   UNL     1       6.437  -3.831  14.300  1.00  0.00     0.010 A 
ATOM     43  C   UNL     1       5.032  -1.886  14.692  1.00  0.00     0.010 A 
ATOM     44  C   UNL     1       6.277  -2.530  14.797  1.00  0.00    -0.014 A 
BRANCH  44  45
ATOM     45  C   UNL     1       7.342  -1.941  15.639  1.00  0.00     0.031 A 
ATOM     46  C   UNL     1       7.239  -2.113  17.131  1.00  0.00     0.074 A 
ATOM     47  C   UNL     1       8.383  -1.286  15.099  1.00  0.00     0.049 A 
ATOM     48  N   UNL     1       8.050  -1.703  18.071  1.00  0.00    -0.248 NA
ATOM     49  C   UNL     1       6.060  -2.843  17.626  1.00  0.00     0.031 C 
ATOM     50  C   UNL     1       8.604  -1.075  13.670  1.00  0.00     0.029 A 
ATOM     51  N   UNL     1       9.452  -0.672  15.702  1.00  0.00    -0.354 N 
ATOM     52  C   UNL     1       7.477  -2.121  19.267  1.00  0.00     0.074 A 
ATOM     53  C   UNL     1       6.237  -2.787  18.936  1.00  0.00     0.031 C 
ATOM     54  C   UNL     1       9.737  -0.370  13.506  1.00  0.00     0.029 A 
ATOM     55  C   UNL     1      10.308  -0.064  14.818  1.00  0.00     0.049 A 
ATOM     56  H   UNL     1       9.591  -0.668  16.677  1.00  0.00     0.167 HD
ATOM     57  C   UNL     1       7.942  -1.968  20.529  1.00  0.00     0.031 A 
ATOM     58  C   UNL     1      11.419   0.665  15.044  1.00  0.00     0.031 A 
ATOM     59  C   UNL     1       9.161  -1.282  20.858  1.00  0.00     0.049 A 
ATOM     60  C   UNL     1      11.896   0.866  16.459  1.00  0.00     0.074 A 
ATOM     61  C   UNL     1       9.730  -1.086  22.104  1.00  0.00     0.029 A 
ATOM     62  N   UNL     1       9.991  -0.664  19.935  1.00  0.00    -0.354 N 
ATOM     63  N   UNL     1      11.369   0.425  17.578  1.00  0.00    -0.248 NA
ATOM     64  C   UNL     1      13.126   1.648  16.640  1.00  0.00     0.031 C 
ATOM     65  C   UNL     1      10.879  -0.305  21.938  1.00  0.00     0.029 A 
ATOM     66  C   UNL     1      11.056  -0.065  20.584  1.00  0.00     0.049 A 
ATOM     67  H   UNL     1       9.845  -0.654  18.962  1.00  0.00     0.167 HD
ATOM     68  C   UNL     1      12.219   0.854  18.593  1.00  0.00     0.074 A 
ATOM     69  C   UNL     1      13.298   1.581  17.953  1.00  0.00     0.031 C 
ATOM     70  C   UNL     1      12.119   0.659  19.932  1.00  0.00     0.031 A 
BRANCH  57  71
ATOM     71  C   UNL     1       7.092  -2.522  21.641  1.00  0.00    -0.014 A 
ATOM     72  C   UNL     1       6.959  -3.909  21.837  1.00  0.00     0.010 A 
ATOM     73  C   UNL     1       6.405  -1.640  22.494  1.00  0.00     0.010 A 
ATOM     74  C   UNL     1       6.110  -4.403  22.831  1.00  0.00     0.020 A 
ATOM     75  C   UNL     1       5.576  -2.131  23.506  1.00  0.00     0.020 A 
ATOM     76  C   UNL     1       5.415  -3.510  23.652  1.00  0.00     0.054 A 
BRANCH  76  77
ATOM     77  S   UNL     1       4.309  -4.176  24.926  1.00  0.00     0.124 S 
ATOM     78  O   UNL     1       3.164  -4.613  24.130  1.00  0.00    -0.237 OA
ATOM     79  O   UNL     1       5.106  -5.246  25.519  1.00  0.00    -0.237 OA
ATOM     80  O   UNL     1       4.059  -3.032  25.799  1.00  0.00    -0.744 OA
ENDBRANCH  76  77
ENDBRANCH  57  71
BRANCH  58  81
ATOM     81  C   UNL     1      12.156   1.256  13.895  1.00  0.00    -0.014 A 
ATOM     82  C   UNL     1      13.400   0.737  13.496  1.00  0.00     0.010 A 
ATOM     83  C   UNL     1      11.599   2.329  13.174  1.00  0.00     0.010 A 
ATOM     84  C   UNL     1      14.075   1.282  12.399  1.00  0.00     0.020 A 
ATOM     85  C   UNL     1      12.259   2.860  12.062  1.00  0.00     0.020 A 
ATOM     86  C   UNL     1      13.497   2.336  11.685  1.00  0.00     0.054 A 
BRANCH  86  87
ATOM     87  S   UNL     1      14.355   2.974  10.219  1.00  0.00     0.124 S 
ATOM     88  O   UNL     1      15.456   3.726  10.813  1.00  0.00    -0.237 OA
ATOM     89  O   UNL     1      14.732   1.750   9.517  1.00  0.00    -0.237 OA
ATOM     90  O   UNL     1      13.336   3.778   9.549  1.00  0.00    -0.744 OA
ENDBRANCH  86  87
ENDBRANCH  58  81
BRANCH  70  91
ATOM     91  C   UNL     1      13.222   1.208  20.799  1.00  0.00    -0.014 A 
ATOM     92  C   UNL     1      13.346   2.587  21.040  1.00  0.00     0.010 A 
ATOM     93  C   UNL     1      14.113   0.319  21.427  1.00  0.00     0.010 A 
ATOM     94  C   UNL     1      14.364   3.070  21.868  1.00  0.00     0.020 A 
ATOM     95  C   UNL     1      15.115   0.796  22.276  1.00  0.00     0.020 A 
ATOM     96  C   UNL     1      15.244   2.171  22.479  1.00  0.00     0.054 A 
BRANCH  96  97
ATOM     97  S   UNL     1      16.535   2.817  23.578  1.00  0.00     0.124 S 
ATOM     98  O   UNL     1      17.499   3.362  22.626  1.00  0.00    -0.237 OA
ATOM     99  O   UNL     1      15.813   3.805  24.377  1.00  0.00    -0.237 OA
ATOM    100  O   UNL     1      16.984   1.638  24.315  1.00  0.00    -0.744 OA
ENDBRANCH  96  97
ENDBRANCH  70  91
ENDBRANCH  44  45
ENDBRANCH  37  39
ENDBRANCH  36  37
ENDBRANCH  35  36
ENDBRANCH  34  35
ENDBRANCH  33  34
ENDBRANCH  32  33
ENDBRANCH  31  32
ENDBRANCH  30  31
ENDBRANCH   1  30
TORSDOF 27
