REMARK SMILES N#Cc1cc(F)ccc1N1[C@@H]2CC[C@H]1C[C@H](CC(=O)OCCOCCOCCOCCOC(=O)c1ccc(-c3c4nc(c(-c5ccc(S(=O)(=O)[O-])cc5)c5ccc([nH]5)c(-c5ccc(S(=O)(=O)[O-])cc5)c5nc(c(-c6ccc(S(=O)(=O)[O-])cc6)c6ccc3[nH]6)C=C5)C=C4)cc1)C2
REMARK SMILES IDX 26 1 25 2 24 3 23 4 22 5 21 6 20 7 18 8 19 9 17 10 16 11
REMARK SMILES IDX 10 12 11 13 14 14 12 15 95 16 13 17 15 18 9 19 3 20 4 21
REMARK SMILES IDX 5 22 8 23 6 24 7 25 2 26 1 27 27 28 28 29 29 30 30 31 31 32
REMARK SMILES IDX 32 33 33 34 34 35 35 36 36 37 94 38 37 39 93 40 38 41 39 42
REMARK SMILES IDX 40 43 87 44 41 45 92 46 86 47 88 48 42 49 91 50 85 51 84 52
REMARK SMILES IDX 43 54 73 55 54 56 72 57 55 58 58 59 71 60 89 61 56 62 57 63
REMARK SMILES IDX 70 65 90 66 59 67 44 68 45 69 53 70 46 71 52 72 47 73 48 74
REMARK SMILES IDX 49 75 50 76 51 77 74 78 75 79 83 80 76 81 82 82 77 83 78 84
REMARK SMILES IDX 79 85 80 86 81 87 60 88 61 89 69 90 62 91 68 92 63 93 64 94
REMARK SMILES IDX 65 95 66 96 67 97
REMARK H PARENT 88 53 58 64
REMARK Flexibility Score: inf
ROOT
ATOM      1  O   UNL     1      -6.130   4.099  -1.923  1.00  0.00    -0.377 OA
ENDROOT
BRANCH   1   2
ATOM      2  C   UNL     1      -6.227   3.934  -3.326  1.00  0.00     0.188 C 
BRANCH   2   3
ATOM      3  C   UNL     1      -7.406   3.155  -3.915  1.00  0.00     0.188 C 
BRANCH   3   4
ATOM      4  O   UNL     1      -8.628   3.230  -3.224  1.00  0.00    -0.376 OA
BRANCH   4   5
ATOM      5  C   UNL     1      -8.927   2.339  -2.161  1.00  0.00     0.202 C 
BRANCH   5   6
ATOM      6  C   UNL     1      -7.975   1.281  -1.563  1.00  0.00     0.261 C 
BRANCH   6   7
ATOM      7  O   UNL     1      -6.563   1.467  -1.723  1.00  0.00    -0.463 OA
BRANCH   7   8
ATOM      8  C   UNL     1      -5.939   0.557  -2.504  1.00  0.00     0.306 C 
ATOM      9  O   UNL     1      -6.520  -0.335  -3.120  1.00  0.00    -0.252 OA
BRANCH   8  10
ATOM     10  C   UNL     1      -4.446   0.745  -2.663  1.00  0.00     0.126 C 
BRANCH  10  11
ATOM     11  C   UNL     1      -3.664   1.908  -2.031  1.00  0.00     0.004 C 
ATOM     12  N   UNL     1      -1.328   2.324  -0.393  1.00  0.00    -0.364 N 
ATOM     13  C   UNL     1      -1.252   2.766  -1.782  1.00  0.00     0.083 C 
ATOM     14  C   UNL     1      -2.602   2.814   0.129  1.00  0.00     0.083 C 
ATOM     15  C   UNL     1      -1.737   4.218  -1.691  1.00  0.00     0.027 C 
ATOM     16  C   UNL     1      -2.207   1.861  -2.568  1.00  0.00     0.029 C 
ATOM     17  C   UNL     1      -2.600   4.266  -0.420  1.00  0.00     0.027 C 
ATOM     18  C   UNL     1      -3.773   2.036  -0.496  1.00  0.00     0.029 C 
BRANCH  12  19
ATOM     19  C   UNL     1      -0.459   1.347   0.021  1.00  0.00     0.055 A 
ATOM     20  C   UNL     1      -0.729  -0.030   0.158  1.00  0.00     0.078 A 
ATOM     21  C   UNL     1       0.326  -0.952   0.294  1.00  0.00     0.060 A 
ATOM     22  C   UNL     1       1.639  -0.517   0.336  1.00  0.00     0.124 A 
ATOM     23  C   UNL     1       0.892   1.746   0.142  1.00  0.00     0.030 A 
ATOM     24  F   UNL     1       2.630  -1.415   0.394  1.00  0.00    -0.207 F 
ATOM     25  C   UNL     1       1.934   0.831   0.291  1.00  0.00     0.041 A 
BRANCH  20  26
ATOM     26  C   UNL     1      -2.027  -0.627   0.064  1.00  0.00     0.101 C 
ATOM     27  N   UNL     1      -3.018  -1.223  -0.026  1.00  0.00    -0.192 NA
ENDBRANCH  20  26
ENDBRANCH  12  19
ENDBRANCH  10  11
ENDBRANCH   8  10
ENDBRANCH   7   8
ENDBRANCH   6   7
ENDBRANCH   5   6
ENDBRANCH   4   5
ENDBRANCH   3   4
ENDBRANCH   2   3
ENDBRANCH   1   2
BRANCH   1  28
ATOM     28  C   UNL     1      -7.098   4.872  -1.218  1.00  0.00     0.188 C 
BRANCH  28  29
ATOM     29  C   UNL     1      -8.028   5.841  -1.973  1.00  0.00     0.188 C 
BRANCH  29  30
ATOM     30  O   UNL     1      -7.561   6.249  -3.245  1.00  0.00    -0.376 OA
BRANCH  30  31
ATOM     31  C   UNL     1      -6.788   7.435  -3.343  1.00  0.00     0.202 C 
BRANCH  31  32
ATOM     32  C   UNL     1      -5.538   7.595  -2.461  1.00  0.00     0.261 C 
BRANCH  32  33
ATOM     33  O   UNL     1      -5.726   7.505  -1.039  1.00  0.00    -0.460 OA
BRANCH  33  34
ATOM     34  C   UNL     1      -6.589   8.368  -0.462  1.00  0.00     0.338 C 
ATOM     35  O   UNL     1      -7.210   9.261  -1.007  1.00  0.00    -0.246 OA
BRANCH  34  36
ATOM     36  C   UNL     1      -6.798   7.928   0.934  1.00  0.00     0.060 A 
ATOM     37  C   UNL     1      -8.069   7.494   1.332  1.00  0.00     0.016 A 
ATOM     38  C   UNL     1      -5.744   7.961   1.849  1.00  0.00     0.016 A 
ATOM     39  C   UNL     1      -8.302   7.132   2.659  1.00  0.00     0.010 A 
ATOM     40  C   UNL     1      -5.984   7.619   3.183  1.00  0.00     0.010 A 
ATOM     41  C   UNL     1      -7.272   7.239   3.602  1.00  0.00    -0.014 A 
BRANCH  41  42
ATOM     42  C   UNL     1      -7.584   7.145   5.050  1.00  0.00     0.031 A 
ATOM     43  C   UNL     1      -7.725   8.421   5.837  1.00  0.00     0.074 A 
ATOM     44  C   UNL     1      -7.762   5.955   5.653  1.00  0.00     0.049 A 
ATOM     45  N   UNL     1      -7.946   8.588   7.114  1.00  0.00    -0.248 NA
ATOM     46  C   UNL     1      -7.598   9.678   5.079  1.00  0.00     0.031 C 
ATOM     47  C   UNL     1      -7.716   4.653   4.989  1.00  0.00     0.029 A 
ATOM     48  N   UNL     1      -8.017   5.654   6.968  1.00  0.00    -0.354 N 
ATOM     49  C   UNL     1      -7.964   9.964   7.317  1.00  0.00     0.074 A 
ATOM     50  C   UNL     1      -7.707  10.585   6.037  1.00  0.00     0.031 C 
ATOM     51  C   UNL     1      -7.937   3.691   5.902  1.00  0.00     0.029 A 
ATOM     52  C   UNL     1      -8.095   4.305   7.220  1.00  0.00     0.049 A 
ATOM     53  H   UNL     1      -8.133   6.340   7.665  1.00  0.00     0.167 HD
ATOM     54  C   UNL     1      -8.176  10.649   8.466  1.00  0.00     0.031 A 
ATOM     55  C   UNL     1      -8.256   3.642   8.384  1.00  0.00     0.031 A 
ATOM     56  C   UNL     1      -8.420  10.024   9.740  1.00  0.00     0.049 A 
ATOM     57  C   UNL     1      -8.399   4.426   9.665  1.00  0.00     0.074 A 
ATOM     58  C   UNL     1      -8.666  10.630  10.960  1.00  0.00     0.029 A 
ATOM     59  N   UNL     1      -8.437   8.655   9.963  1.00  0.00    -0.354 N 
ATOM     60  N   UNL     1      -8.434   5.726   9.839  1.00  0.00    -0.248 NA
ATOM     61  C   UNL     1      -8.531   3.649  10.906  1.00  0.00     0.031 C 
ATOM     62  C   UNL     1      -8.754   9.630  11.933  1.00  0.00     0.029 A 
ATOM     63  C   UNL     1      -8.650   8.398  11.306  1.00  0.00     0.049 A 
ATOM     64  H   UNL     1      -8.315   7.968   9.268  1.00  0.00     0.167 HD
ATOM     65  C   UNL     1      -8.631   5.921  11.204  1.00  0.00     0.074 A 
ATOM     66  C   UNL     1      -8.719   4.606  11.804  1.00  0.00     0.031 C 
ATOM     67  C   UNL     1      -8.736   7.084  11.895  1.00  0.00     0.031 A 
BRANCH  54  68
ATOM     68  C   UNL     1      -8.105  12.153   8.410  1.00  0.00    -0.014 A 
ATOM     69  C   UNL     1      -9.082  12.914   7.743  1.00  0.00     0.010 A 
ATOM     70  C   UNL     1      -7.061  12.820   9.079  1.00  0.00     0.010 A 
ATOM     71  C   UNL     1      -8.995  14.309   7.715  1.00  0.00     0.020 A 
ATOM     72  C   UNL     1      -6.989  14.215   9.082  1.00  0.00     0.020 A 
ATOM     73  C   UNL     1      -7.950  14.951   8.387  1.00  0.00     0.054 A 
BRANCH  73  74
ATOM     74  S   UNL     1      -7.882  16.763   8.361  1.00  0.00     0.124 S 
ATOM     75  O   UNL     1      -7.542  17.032   6.966  1.00  0.00    -0.237 OA
ATOM     76  O   UNL     1      -9.236  17.138   8.761  1.00  0.00    -0.237 OA
ATOM     77  O   UNL     1      -6.837  17.087   9.329  1.00  0.00    -0.744 OA
ENDBRANCH  73  74
ENDBRANCH  54  68
BRANCH  55  78
ATOM     78  C   UNL     1      -8.286   2.152   8.399  1.00  0.00    -0.014 A 
ATOM     79  C   UNL     1      -9.464   1.465   8.743  1.00  0.00     0.010 A 
ATOM     80  C   UNL     1      -7.135   1.410   8.075  1.00  0.00     0.010 A 
ATOM     81  C   UNL     1      -9.486   0.068   8.778  1.00  0.00     0.020 A 
ATOM     82  C   UNL     1      -7.162   0.013   8.076  1.00  0.00     0.020 A 
ATOM     83  C   UNL     1      -8.336  -0.650   8.438  1.00  0.00     0.054 A 
BRANCH  83  84
ATOM     84  S   UNL     1      -8.409  -2.463   8.437  1.00  0.00     0.124 S 
ATOM     85  O   UNL     1      -8.530  -2.763   9.860  1.00  0.00    -0.237 OA
ATOM     86  O   UNL     1      -9.598  -2.726   7.631  1.00  0.00    -0.237 OA
ATOM     87  O   UNL     1      -7.145  -2.857   7.820  1.00  0.00    -0.744 OA
ENDBRANCH  83  84
ENDBRANCH  55  78
BRANCH  67  88
ATOM     88  C   UNL     1      -9.007   6.997  13.376  1.00  0.00    -0.014 A 
ATOM     89  C   UNL     1      -8.036   6.526  14.278  1.00  0.00     0.010 A 
ATOM     90  C   UNL     1     -10.239   7.457  13.880  1.00  0.00     0.010 A 
ATOM     91  C   UNL     1      -8.306   6.484  15.649  1.00  0.00     0.020 A 
ATOM     92  C   UNL     1     -10.499   7.450  15.252  1.00  0.00     0.020 A 
ATOM     93  C   UNL     1      -9.535   6.949  16.128  1.00  0.00     0.054 A 
BRANCH  93  94
ATOM     94  S   UNL     1      -9.841   6.925  17.915  1.00  0.00     0.124 S 
ATOM     95  O   UNL     1      -9.969   5.495  18.183  1.00  0.00    -0.237 OA
ATOM     96  O   UNL     1      -8.640   7.560  18.452  1.00  0.00    -0.237 OA
ATOM     97  O   UNL     1     -11.070   7.700  18.069  1.00  0.00    -0.744 OA
ENDBRANCH  93  94
ENDBRANCH  67  88
ENDBRANCH  41  42
ENDBRANCH  34  36
ENDBRANCH  33  34
ENDBRANCH  32  33
ENDBRANCH  31  32
ENDBRANCH  30  31
ENDBRANCH  29  30
ENDBRANCH  28  29
ENDBRANCH   1  28
TORSDOF 26
