REMARK SMILES COc1ccc(C2=NN(C(=O)CCC(=O)OCCOCCOCCOCCOC(=O)c3ccc(-c4c5nc(c(-c6ccc(S(=O)(=O)[O-])cc6)c6ccc([nH]6)c(-c6ccc(S(=O)(=O)[O-])cc6)c6nc(c(-c7ccc(S(=O)(=O)[O-])cc7)c7ccc4[nH]7)C=C6)C=C5)cc3)[C@H](c3ccc(Cl)cc3Cl)C2)cc1
REMARK SMILES IDX 21 1 20 2 19 3 18 4 17 5 16 6 14 7 15 8 13 9 12 10 10 11
REMARK SMILES IDX 11 12 9 13 7 14 8 15 100 16 91 17 6 18 3 19 4 20 102 21 5 22
REMARK SMILES IDX 101 23 2 24 1 25 92 26 93 27 98 28 94 29 97 30 99 31 95 32
REMARK SMILES IDX 96 33 22 34 23 35 24 36 25 37 26 38 27 39 28 40 29 41 30 42
REMARK SMILES IDX 31 43 32 44 90 45 33 46 89 47 34 48 35 49 36 50 83 51 37 52
REMARK SMILES IDX 88 53 82 54 84 55 38 56 87 57 81 58 80 59 39 61 69 62 50 63
REMARK SMILES IDX 68 64 51 65 54 66 67 67 85 68 52 69 53 70 66 72 86 73 55 74
REMARK SMILES IDX 40 75 41 76 49 77 42 78 48 79 43 80 44 81 45 82 46 83 47 84
REMARK SMILES IDX 70 85 71 86 79 87 72 88 78 89 73 90 74 91 75 92 76 93 77 94
REMARK SMILES IDX 56 95 57 96 65 97 58 98 64 99 59 100 60 101 61 102 62 103
REMARK SMILES IDX 63 104
REMARK H PARENT 84 60 54 71
REMARK Flexibility Score: inf
ROOT
ATOM      1  C   UNL     1       2.123   4.126   9.637  1.00  0.00     0.188 C 
ENDROOT
BRANCH   1   2
ATOM      2  C   UNL     1       4.052   4.074   9.910  1.00  0.00     0.188 C 
BRANCH   2   3
ATOM      3  O   UNL     1       5.249   4.776   9.187  1.00  0.00    -0.376 OA
BRANCH   3   4
ATOM      4  C   UNL     1       6.051   4.277   8.018  1.00  0.00     0.202 C 
BRANCH   4   5
ATOM      5  C   UNL     1       6.262   2.752   7.705  1.00  0.00     0.261 C 
BRANCH   5   6
ATOM      6  O   UNL     1       5.263   1.906   8.289  1.00  0.00    -0.463 OA
BRANCH   6   7
ATOM      7  C   UNL     1       5.650   1.313   9.437  1.00  0.00     0.306 C 
ATOM      8  O   UNL     1       6.816   1.232   9.808  1.00  0.00    -0.252 OA
BRANCH   7   9
ATOM      9  C   UNL     1       4.514   0.971  10.370  1.00  0.00     0.132 C 
BRANCH   9  10
ATOM     10  C   UNL     1       3.031   1.130  10.044  1.00  0.00     0.114 C 
BRANCH  10  11
ATOM     11  C   UNL     1       2.326   1.463   8.714  1.00  0.00     0.243 C 
ATOM     12  O   UNL     1       1.421   0.633   8.467  1.00  0.00    -0.273 OA
BRANCH  11  13
ATOM     13  N   UNL     1       2.475   2.582   7.863  1.00  0.00    -0.225 N 
ATOM     14  C   UNL     1       2.620   2.800   5.675  1.00  0.00     0.071 C 
ATOM     15  N   UNL     1       2.026   2.167   6.615  1.00  0.00    -0.174 NA
ATOM     16  C   UNL     1       3.548   3.935   6.087  1.00  0.00     0.091 C 
ATOM     17  C   UNL     1       3.248   4.179   7.675  1.00  0.00     0.149 C 
BRANCH  14  18
ATOM     18  C   UNL     1       2.358   2.425   4.272  1.00  0.00    -0.002 A 
ATOM     19  C   UNL     1       1.787   1.712   1.634  1.00  0.00     0.118 A 
ATOM     20  C   UNL     1       1.003   2.655   2.287  1.00  0.00     0.047 A 
ATOM     21  C   UNL     1       2.836   1.089   2.313  1.00  0.00     0.047 A 
ATOM     22  C   UNL     1       1.261   2.978   3.617  1.00  0.00     0.014 A 
ATOM     23  C   UNL     1       3.118   1.438   3.643  1.00  0.00     0.014 A 
BRANCH  19  24
ATOM     24  O   UNL     1       1.469   1.498   0.324  1.00  0.00    -0.497 OA
ATOM     25  C   UNL     1       1.519   0.132  -0.073  1.00  0.00     0.278 C 
ENDBRANCH  19  24
ENDBRANCH  14  18
BRANCH  17  26
ATOM     26  C   UNL     1       2.935   5.852   8.719  1.00  0.00    -0.004 A 
ATOM     27  C   UNL     1       2.026   6.911   7.724  1.00  0.00     0.009 A 
ATOM     28  C   UNL     1       3.244   6.657  10.318  1.00  0.00     0.047 A 
ATOM     29  C   UNL     1       1.663   8.757   7.955  1.00  0.00     0.021 A 
ATOM     30  C   UNL     1       2.876   8.368  10.659  1.00  0.00     0.041 A 
ATOM     31  Cl  UNL     1       3.263   5.978  11.986  1.00  0.00    -0.084 Cl
ATOM     32  C   UNL     1       2.107   9.443   9.514  1.00  0.00     0.042 A 
ATOM     33  Cl  UNL     1       1.727  11.040   9.994  1.00  0.00    -0.084 Cl
ENDBRANCH  17  26
ENDBRANCH  11  13
ENDBRANCH  10  11
ENDBRANCH   9  10
ENDBRANCH   7   9
ENDBRANCH   6   7
ENDBRANCH   5   6
ENDBRANCH   4   5
ENDBRANCH   3   4
ENDBRANCH   2   3
ENDBRANCH   1   2
BRANCH   1  34
ATOM     34  O   UNL     1       1.152   4.650   8.205  1.00  0.00    -0.377 OA
BRANCH  34  35
ATOM     35  C   UNL     1       1.398   5.291   6.542  1.00  0.00     0.188 C 
BRANCH  35  36
ATOM     36  C   UNL     1       2.346   6.830   5.701  1.00  0.00     0.188 C 
BRANCH  36  37
ATOM     37  O   UNL     1       3.489   7.899   6.675  1.00  0.00    -0.376 OA
BRANCH  37  38
ATOM     38  C   UNL     1       3.335   7.967   8.535  1.00  0.00     0.202 C 
BRANCH  38  39
ATOM     39  C   UNL     1       1.363   7.444   9.410  1.00  0.00     0.261 C 
BRANCH  39  40
ATOM     40  O   UNL     1      -0.080   7.106   8.363  1.00  0.00    -0.460 OA
BRANCH  40  41
ATOM     41  C   UNL     1      -0.789   7.754   7.343  1.00  0.00     0.338 C 
ATOM     42  O   UNL     1      -0.835   8.966   7.167  1.00  0.00    -0.246 OA
BRANCH  41  43
ATOM     43  C   UNL     1      -1.356   6.857   6.222  1.00  0.00     0.060 A 
ATOM     44  C   UNL     1      -0.803   6.865   4.908  1.00  0.00     0.016 A 
ATOM     45  C   UNL     1      -2.381   5.943   6.450  1.00  0.00     0.016 A 
ATOM     46  C   UNL     1      -1.135   5.890   3.935  1.00  0.00     0.010 A 
ATOM     47  C   UNL     1      -2.814   5.056   5.427  1.00  0.00     0.010 A 
ATOM     48  C   UNL     1      -2.184   4.993   4.171  1.00  0.00    -0.014 A 
BRANCH  48  49
ATOM     49  C   UNL     1      -2.790   4.224   3.027  1.00  0.00     0.031 A 
ATOM     50  C   UNL     1      -3.675   5.000   2.088  1.00  0.00     0.074 A 
ATOM     51  C   UNL     1      -2.631   2.896   2.828  1.00  0.00     0.049 A 
ATOM     52  N   UNL     1      -4.400   4.571   1.090  1.00  0.00    -0.248 NA
ATOM     53  C   UNL     1      -3.828   6.437   2.371  1.00  0.00     0.031 C 
ATOM     54  C   UNL     1      -1.873   2.013   3.704  1.00  0.00     0.029 A 
ATOM     55  N   UNL     1      -3.036   2.058   1.805  1.00  0.00    -0.354 N 
ATOM     56  C   UNL     1      -5.188   5.653   0.715  1.00  0.00     0.074 A 
ATOM     57  C   UNL     1      -4.801   6.772   1.542  1.00  0.00     0.031 C 
ATOM     58  C   UNL     1      -1.723   0.816   3.108  1.00  0.00     0.029 A 
ATOM     59  C   UNL     1      -2.486   0.785   1.862  1.00  0.00     0.049 A 
ATOM     60  H   UNL     1      -3.661   2.339   1.098  1.00  0.00     0.167 HD
ATOM     61  C   UNL     1      -6.200   5.684  -0.181  1.00  0.00     0.031 A 
ATOM     62  C   UNL     1      -2.600  -0.270   1.014  1.00  0.00     0.031 A 
ATOM     63  C   UNL     1      -6.600   4.549  -0.965  1.00  0.00     0.049 A 
ATOM     64  C   UNL     1      -3.643  -0.163  -0.082  1.00  0.00     0.074 A 
ATOM     65  C   UNL     1      -7.625   4.464  -1.889  1.00  0.00     0.029 A 
ATOM     66  N   UNL     1      -5.998   3.300  -0.913  1.00  0.00    -0.354 N 
ATOM     67  N   UNL     1      -4.370   0.873  -0.430  1.00  0.00    -0.248 NA
ATOM     68  C   UNL     1      -3.944  -1.385  -0.849  1.00  0.00     0.031 C 
ATOM     69  C   UNL     1      -7.682   3.147  -2.350  1.00  0.00     0.029 A 
ATOM     70  C   UNL     1      -6.634   2.437  -1.786  1.00  0.00     0.049 A 
ATOM     71  H   UNL     1      -5.232   3.065  -0.341  1.00  0.00     0.167 HD
ATOM     72  C   UNL     1      -5.228   0.421  -1.426  1.00  0.00     0.074 A 
ATOM     73  C   UNL     1      -4.880  -0.960  -1.686  1.00  0.00     0.031 C 
ATOM     74  C   UNL     1      -6.247   1.071  -2.039  1.00  0.00     0.031 A 
BRANCH  61  75
ATOM     75  C   UNL     1      -7.002   6.955  -0.270  1.00  0.00    -0.014 A 
ATOM     76  C   UNL     1      -6.445   8.149  -0.760  1.00  0.00     0.010 A 
ATOM     77  C   UNL     1      -8.347   6.949   0.150  1.00  0.00     0.010 A 
ATOM     78  C   UNL     1      -7.204   9.320  -0.792  1.00  0.00     0.020 A 
ATOM     79  C   UNL     1      -9.122   8.108   0.079  1.00  0.00     0.020 A 
ATOM     80  C   UNL     1      -8.540   9.290  -0.380  1.00  0.00     0.054 A 
BRANCH  80  81
ATOM     81  S   UNL     1      -9.511  10.817  -0.488  1.00  0.00     0.124 S 
ATOM     82  O   UNL     1      -8.892  11.643   0.545  1.00  0.00    -0.237 OA
ATOM     83  O   UNL     1      -9.270  11.246  -1.864  1.00  0.00    -0.237 OA
ATOM     84  O   UNL     1     -10.876  10.383  -0.203  1.00  0.00    -0.744 OA
ENDBRANCH  80  81
ENDBRANCH  61  75
BRANCH  62  85
ATOM     85  C   UNL     1      -1.782  -1.530   1.151  1.00  0.00    -0.014 A 
ATOM     86  C   UNL     1      -1.059  -2.043   0.049  1.00  0.00     0.010 A 
ATOM     87  C   UNL     1      -1.712  -2.251   2.355  1.00  0.00     0.010 A 
ATOM     88  C   UNL     1      -0.279  -3.205   0.155  1.00  0.00     0.020 A 
ATOM     89  C   UNL     1      -0.892  -3.381   2.487  1.00  0.00     0.020 A 
ATOM     90  C   UNL     1      -0.182  -3.855   1.385  1.00  0.00     0.054 A 
BRANCH  90  91
ATOM     91  S   UNL     1       0.904  -5.301   1.530  1.00  0.00     0.124 S 
ATOM     92  O   UNL     1       0.228  -6.280   0.685  1.00  0.00    -0.237 OA
ATOM     93  O   UNL     1       2.172  -4.788   1.015  1.00  0.00    -0.237 OA
ATOM     94  O   UNL     1       0.896  -5.598   2.961  1.00  0.00    -0.744 OA
ENDBRANCH  90  91
ENDBRANCH  62  85
BRANCH  74  95
ATOM     95  C   UNL     1      -7.031   0.321  -3.081  1.00  0.00    -0.014 A 
ATOM     96  C   UNL     1      -7.913  -0.718  -2.734  1.00  0.00     0.010 A 
ATOM     97  C   UNL     1      -6.955   0.740  -4.422  1.00  0.00     0.010 A 
ATOM     98  C   UNL     1      -8.693  -1.336  -3.715  1.00  0.00     0.020 A 
ATOM     99  C   UNL     1      -7.758   0.150  -5.398  1.00  0.00     0.020 A 
ATOM    100  C   UNL     1      -8.618  -0.889  -5.039  1.00  0.00     0.054 A 
BRANCH 100 101
ATOM    101  S   UNL     1      -9.701  -1.651  -6.277  1.00  0.00     0.124 S 
ATOM    102  O   UNL     1      -9.143  -2.996  -6.385  1.00  0.00    -0.237 OA
ATOM    103  O   UNL     1     -11.015  -1.562  -5.646  1.00  0.00    -0.237 OA
ATOM    104  O   UNL     1      -9.524  -0.808  -7.458  1.00  0.00    -0.744 OA
ENDBRANCH 100 101
ENDBRANCH  74  95
ENDBRANCH  48  49
ENDBRANCH  41  43
ENDBRANCH  40  41
ENDBRANCH  39  40
ENDBRANCH  38  39
ENDBRANCH  37  38
ENDBRANCH  36  37
ENDBRANCH  35  36
ENDBRANCH  34  35
ENDBRANCH   1  34
TORSDOF 29
