REMARK SMILES Cc1ccc(-c2c(C)sc(NC(=O)[C@H]3CC=CC[C@H]3C(=O)OCCOCCOCCOCCOC(=O)c3ccc(-c4c5nc(c(-c6ccc(S(=O)(=O)[O-])cc6)c6ccc([nH]6)c(-c6ccc(S(=O)(=O)[O-])cc6)c6nc(c(-c7ccc(S(=O)(=O)[O-])cc7)c7ccc4[nH]7)C=C6)C=C5)cc3)c2C(N)=O)cc1
REMARK SMILES IDX 28 1 27 2 26 3 25 4 24 5 23 6 22 7 20 8 21 9 19 10 14 11
REMARK SMILES IDX 15 12 16 13 18 14 17 15 12 16 11 17 13 19 10 20 6 21 7 22
REMARK SMILES IDX 97 23 8 24 9 25 5 26 1 27 2 28 3 29 102 30 4 31 101 32 98 33
REMARK SMILES IDX 99 34 100 35 29 38 30 39 31 40 32 41 33 42 34 43 35 44 36 45
REMARK SMILES IDX 37 46 38 47 96 48 39 49 95 50 40 51 41 52 42 53 89 54 43 55
REMARK SMILES IDX 94 56 88 57 90 58 44 59 93 60 87 61 86 62 45 64 75 65 56 66
REMARK SMILES IDX 74 67 57 68 60 69 73 70 91 71 58 72 59 73 72 75 92 76 61 77
REMARK SMILES IDX 46 78 47 79 55 80 48 81 54 82 49 83 50 84 51 85 52 86 53 87
REMARK SMILES IDX 76 88 77 89 85 90 78 91 84 92 79 93 80 94 81 95 82 96 83 97
REMARK SMILES IDX 62 98 63 99 71 100 64 101 70 102 65 103 66 104 67 105 68 106
REMARK SMILES IDX 69 107
REMARK H PARENT 11 18 99 36 99 37 90 63 60 74
REMARK Flexibility Score: inf
ROOT
ATOM      1  O   UNL     1     -10.180  -0.475  -0.070  1.00  0.00    -0.377 OA
ENDROOT
BRANCH   1   2
ATOM      2  C   UNL     1     -10.932   0.404  -0.883  1.00  0.00     0.188 C 
BRANCH   2   3
ATOM      3  C   UNL     1     -11.392  -0.126  -2.244  1.00  0.00     0.188 C 
BRANCH   3   4
ATOM      4  O   UNL     1     -12.086  -1.353  -2.325  1.00  0.00    -0.376 OA
BRANCH   4   5
ATOM      5  C   UNL     1     -11.333  -2.529  -2.060  1.00  0.00     0.202 C 
BRANCH   5   6
ATOM      6  C   UNL     1      -9.967  -2.682  -2.679  1.00  0.00     0.261 C 
BRANCH   6   7
ATOM      7  O   UNL     1      -9.011  -1.991  -1.863  1.00  0.00    -0.463 OA
BRANCH   7   8
ATOM      8  C   UNL     1      -8.185  -1.233  -2.567  1.00  0.00     0.310 C 
ATOM      9  O   UNL     1      -8.126  -1.239  -3.799  1.00  0.00    -0.252 OA
BRANCH   8  10
ATOM     10  C   UNL     1      -7.354  -0.256  -1.789  1.00  0.00     0.116 C 
ATOM     11  C   UNL     1      -7.487   0.622  -0.523  1.00  0.00     0.097 C 
ATOM     12  C   UNL     1      -7.051   2.056  -0.951  1.00  0.00     0.041 C 
ATOM     13  C   UNL     1      -6.022   2.084  -2.083  1.00  0.00    -0.030 C 
ATOM     14  C   UNL     1      -5.910  -0.405  -2.215  1.00  0.00     0.043 C 
ATOM     15  C   UNL     1      -5.486   0.973  -2.632  1.00  0.00    -0.030 C 
BRANCH  11  16
ATOM     16  C   UNL     1      -7.120   0.128   0.911  1.00  0.00     0.229 C 
ATOM     17  N   UNL     1      -5.937  -0.406   1.312  1.00  0.00    -0.317 N 
ATOM     18  H   UNL     1      -5.998  -1.233   1.843  1.00  0.00     0.170 HD
ATOM     19  O   UNL     1      -7.965   0.197   1.817  1.00  0.00    -0.274 OA
BRANCH  17  20
ATOM     20  C   UNL     1      -4.670   0.056   1.073  1.00  0.00     0.109 A 
ATOM     21  C   UNL     1      -2.472   0.183   0.472  1.00  0.00     0.010 A 
ATOM     22  C   UNL     1      -3.084   1.173  -0.289  1.00  0.00     0.012 A 
ATOM     23  C   UNL     1      -3.415  -0.443   1.391  1.00  0.00     0.082 A 
ATOM     24  C   UNL     1      -2.673   1.878  -1.538  1.00  0.00     0.057 C 
ATOM     25  S   UNL     1      -4.439   1.672   0.604  1.00  0.00    -0.122 S 
BRANCH  21  26
ATOM     26  C   UNL     1      -1.046   0.007   0.325  1.00  0.00    -0.016 A 
ATOM     27  C   UNL     1       3.201  -0.239  -0.117  1.00  0.00     0.044 C 
ATOM     28  C   UNL     1       1.713  -0.148  -0.013  1.00  0.00    -0.051 A 
ATOM     29  C   UNL     1       0.917  -1.302  -0.107  1.00  0.00     0.004 A 
ATOM     30  C   UNL     1       1.119   1.087   0.239  1.00  0.00     0.004 A 
ATOM     31  C   UNL     1      -0.467  -1.224   0.043  1.00  0.00     0.009 A 
ATOM     32  C   UNL     1      -0.247   1.155   0.436  1.00  0.00     0.009 A 
ENDBRANCH  21  26
BRANCH  23  33
ATOM     33  C   UNL     1      -3.124  -1.465   2.395  1.00  0.00     0.252 C 
ATOM     34  N   UNL     1      -3.998  -1.522   3.455  1.00  0.00    -0.365 N 
ATOM     35  O   UNL     1      -2.150  -2.192   2.386  1.00  0.00    -0.269 OA
ATOM     36  H   UNL     1      -4.790  -0.938   3.472  1.00  0.00     0.159 HD
ATOM     37  H   UNL     1      -3.831  -2.147   4.197  1.00  0.00     0.159 HD
ENDBRANCH  23  33
ENDBRANCH  17  20
ENDBRANCH  11  16
ENDBRANCH   8  10
ENDBRANCH   7   8
ENDBRANCH   6   7
ENDBRANCH   5   6
ENDBRANCH   4   5
ENDBRANCH   3   4
ENDBRANCH   2   3
ENDBRANCH   1   2
BRANCH   1  38
ATOM     38  C   UNL     1     -10.736  -1.020   1.118  1.00  0.00     0.188 C 
BRANCH  38  39
ATOM     39  C   UNL     1     -11.981  -0.394   1.687  1.00  0.00     0.188 C 
BRANCH  39  40
ATOM     40  O   UNL     1     -12.998  -0.526   0.694  1.00  0.00    -0.376 OA
BRANCH  40  41
ATOM     41  C   UNL     1     -14.079   0.383   0.787  1.00  0.00     0.202 C 
BRANCH  41  42
ATOM     42  C   UNL     1     -14.620   0.543   2.208  1.00  0.00     0.261 C 
BRANCH  42  43
ATOM     43  O   UNL     1     -14.576  -0.699   2.943  1.00  0.00    -0.460 OA
BRANCH  43  44
ATOM     44  C   UNL     1     -15.421  -1.687   2.556  1.00  0.00     0.338 C 
ATOM     45  O   UNL     1     -16.600  -1.535   2.281  1.00  0.00    -0.246 OA
BRANCH  44  46
ATOM     46  C   UNL     1     -14.602  -2.842   2.098  1.00  0.00     0.060 A 
ATOM     47  C   UNL     1     -13.838  -3.675   2.919  1.00  0.00     0.016 A 
ATOM     48  C   UNL     1     -14.460  -2.950   0.726  1.00  0.00     0.016 A 
ATOM     49  C   UNL     1     -12.806  -4.476   2.372  1.00  0.00     0.010 A 
ATOM     50  C   UNL     1     -13.415  -3.700   0.210  1.00  0.00     0.010 A 
ATOM     51  C   UNL     1     -12.514  -4.423   1.013  1.00  0.00    -0.014 A 
BRANCH  51  52
ATOM     52  C   UNL     1     -11.277  -4.935   0.339  1.00  0.00     0.031 A 
ATOM     53  C   UNL     1     -11.428  -5.652  -0.981  1.00  0.00     0.074 A 
ATOM     54  C   UNL     1     -10.050  -4.450   0.693  1.00  0.00     0.049 A 
ATOM     55  N   UNL     1     -10.473  -5.913  -1.806  1.00  0.00    -0.248 NA
ATOM     56  C   UNL     1     -12.719  -6.069  -1.535  1.00  0.00     0.031 C 
ATOM     57  C   UNL     1      -8.843  -4.317  -0.136  1.00  0.00     0.029 A 
ATOM     58  N   UNL     1      -9.597  -3.936   1.896  1.00  0.00    -0.354 N 
ATOM     59  C   UNL     1     -11.007  -6.156  -3.060  1.00  0.00     0.074 A 
ATOM     60  C   UNL     1     -12.419  -6.306  -2.820  1.00  0.00     0.031 C 
ATOM     61  C   UNL     1      -7.792  -3.872   0.574  1.00  0.00     0.029 A 
ATOM     62  C   UNL     1      -8.195  -3.995   1.950  1.00  0.00     0.049 A 
ATOM     63  H   UNL     1     -10.174  -3.580   2.610  1.00  0.00     0.167 HD
ATOM     64  C   UNL     1     -10.187  -6.066  -4.154  1.00  0.00     0.031 A 
ATOM     65  C   UNL     1      -7.619  -4.903   2.798  1.00  0.00     0.031 A 
ATOM     66  C   UNL     1      -8.774  -5.970  -3.738  1.00  0.00     0.049 A 
ATOM     67  C   UNL     1      -6.997  -6.041   1.964  1.00  0.00     0.074 A 
ATOM     68  C   UNL     1      -7.750  -5.056  -3.925  1.00  0.00     0.029 A 
ATOM     69  N   UNL     1      -8.310  -6.870  -2.778  1.00  0.00    -0.354 N 
ATOM     70  N   UNL     1      -7.473  -6.458   0.808  1.00  0.00    -0.248 NA
ATOM     71  C   UNL     1      -5.646  -6.554   2.205  1.00  0.00     0.031 C 
ATOM     72  C   UNL     1      -6.743  -5.329  -2.945  1.00  0.00     0.029 A 
ATOM     73  C   UNL     1      -7.133  -6.440  -2.203  1.00  0.00     0.049 A 
ATOM     74  H   UNL     1      -8.767  -7.709  -2.541  1.00  0.00     0.167 HD
ATOM     75  C   UNL     1      -6.472  -7.073   0.092  1.00  0.00     0.074 A 
ATOM     76  C   UNL     1      -5.373  -7.177   1.043  1.00  0.00     0.031 C 
ATOM     77  C   UNL     1      -6.440  -7.310  -1.260  1.00  0.00     0.031 A 
BRANCH  64  78
ATOM     78  C   UNL     1     -10.622  -5.910  -5.615  1.00  0.00    -0.014 A 
ATOM     79  C   UNL     1      -9.636  -5.762  -6.620  1.00  0.00     0.010 A 
ATOM     80  C   UNL     1     -11.955  -5.835  -6.074  1.00  0.00     0.010 A 
ATOM     81  C   UNL     1      -9.946  -5.559  -7.979  1.00  0.00     0.020 A 
ATOM     82  C   UNL     1     -12.283  -5.657  -7.439  1.00  0.00     0.020 A 
ATOM     83  C   UNL     1     -11.274  -5.519  -8.386  1.00  0.00     0.054 A 
BRANCH  83  84
ATOM     84  S   UNL     1     -11.646  -5.320 -10.155  1.00  0.00     0.124 S 
ATOM     85  O   UNL     1     -11.109  -3.993 -10.447  1.00  0.00    -0.237 OA
ATOM     86  O   UNL     1     -10.923  -6.435 -10.760  1.00  0.00    -0.237 OA
ATOM     87  O   UNL     1     -13.103  -5.423 -10.220  1.00  0.00    -0.744 OA
ENDBRANCH  83  84
ENDBRANCH  64  78
BRANCH  65  88
ATOM     88  C   UNL     1      -8.364  -4.857   4.113  1.00  0.00    -0.014 A 
ATOM     89  C   UNL     1      -8.300  -3.593   4.773  1.00  0.00     0.010 A 
ATOM     90  C   UNL     1      -9.497  -5.655   4.360  1.00  0.00     0.010 A 
ATOM     91  C   UNL     1      -9.410  -3.055   5.442  1.00  0.00     0.020 A 
ATOM     92  C   UNL     1     -10.594  -5.135   5.092  1.00  0.00     0.020 A 
ATOM     93  C   UNL     1     -10.570  -3.814   5.558  1.00  0.00     0.054 A 
BRANCH  93  94
ATOM     94  S   UNL     1     -12.068  -2.982   6.181  1.00  0.00     0.124 S 
ATOM     95  O   UNL     1     -11.614  -2.397   7.438  1.00  0.00    -0.237 OA
ATOM     96  O   UNL     1     -12.345  -2.021   5.116  1.00  0.00    -0.237 OA
ATOM     97  O   UNL     1     -13.037  -4.067   6.309  1.00  0.00    -0.744 OA
ENDBRANCH  93  94
ENDBRANCH  65  88
BRANCH  77  98
ATOM     98  C   UNL     1      -5.755  -8.522  -1.862  1.00  0.00    -0.014 A 
ATOM     99  C   UNL     1      -5.236  -9.566  -1.087  1.00  0.00     0.010 A 
ATOM    100  C   UNL     1      -5.851  -8.747  -3.263  1.00  0.00     0.010 A 
ATOM    101  C   UNL     1      -4.821 -10.763  -1.674  1.00  0.00     0.020 A 
ATOM    102  C   UNL     1      -5.499  -9.961  -3.851  1.00  0.00     0.020 A 
ATOM    103  C   UNL     1      -4.970 -10.959  -3.047  1.00  0.00     0.054 A 
BRANCH 103 104
ATOM    104  S   UNL     1      -4.519 -12.559  -3.747  1.00  0.00     0.124 S 
ATOM    105  O   UNL     1      -3.060 -12.485  -3.735  1.00  0.00    -0.237 OA
ATOM    106  O   UNL     1      -5.107 -13.498  -2.794  1.00  0.00    -0.237 OA
ATOM    107  O   UNL     1      -5.137 -12.551  -5.069  1.00  0.00    -0.744 OA
ENDBRANCH 103 104
ENDBRANCH  77  98
ENDBRANCH  51  52
ENDBRANCH  44  46
ENDBRANCH  43  44
ENDBRANCH  42  43
ENDBRANCH  41  42
ENDBRANCH  40  41
ENDBRANCH  39  40
ENDBRANCH  38  39
ENDBRANCH   1  38
TORSDOF 27
