REMARK SMILES CCC(=O)N1c2ccc(S(=O)(=O)N3CCC(C)CC3)cc2C[C@H]1C(=O)OCCOCCOCCOCCOC(=O)c1ccc(-c2c3nc(c(-c4ccc(S(=O)(=O)[O-])cc4)c4ccc([nH]4)c(-c4ccc(S(=O)(=O)[O-])cc4)c4nc(c(-c5ccc(S(=O)(=O)[O-])cc5)c5ccc2[nH]5)C=C4)C=C3)cc1
REMARK SMILES IDX 33 1 32 2 31 3 30 4 29 5 28 6 27 7 26 8 24 9 25 10 23 11
REMARK SMILES IDX 5 12 6 13 7 14 21 15 22 16 8 17 20 18 9 19 3 20 4 21 2 22
REMARK SMILES IDX 1 23 10 24 11 25 12 26 13 27 14 28 19 29 15 30 18 31 16 32
REMARK SMILES IDX 17 33 34 34 35 35 36 36 37 37 38 38 39 39 40 40 41 41 42 42
REMARK SMILES IDX 100 43 43 44 99 45 44 46 45 47 46 48 93 49 47 50 98 51 92 52
REMARK SMILES IDX 94 53 48 54 97 55 91 56 90 57 49 59 79 60 60 61 78 62 61 63
REMARK SMILES IDX 64 64 77 65 95 66 62 67 63 68 76 70 96 71 65 72 50 73 51 74
REMARK SMILES IDX 59 75 52 76 58 77 53 78 54 79 55 80 56 81 57 82 80 83 81 84
REMARK SMILES IDX 89 85 82 86 88 87 83 88 84 89 85 90 86 91 87 92 66 93 67 94
REMARK SMILES IDX 75 95 68 96 74 97 69 98 70 99 71 100 72 101 73 102
REMARK H PARENT 94 58 64 69
REMARK Flexibility Score: inf
ROOT
ATOM      1  C   UNL     1      -1.066  -4.264   3.011  1.00  0.00     0.188 C 
ENDROOT
BRANCH   1   2
ATOM      2  O   UNL     1       0.029  -4.856   2.304  1.00  0.00    -0.377 OA
BRANCH   2   3
ATOM      3  C   UNL     1      -0.125  -6.136   1.708  1.00  0.00     0.188 C 
BRANCH   3   4
ATOM      4  C   UNL     1       0.960  -7.112   2.168  1.00  0.00     0.188 C 
BRANCH   4   5
ATOM      5  O   UNL     1       0.832  -7.618   3.495  1.00  0.00    -0.376 OA
BRANCH   5   6
ATOM      6  C   UNL     1       0.869  -6.687   4.576  1.00  0.00     0.202 C 
BRANCH   6   7
ATOM      7  C   UNL     1       2.181  -5.922   4.796  1.00  0.00     0.261 C 
BRANCH   7   8
ATOM      8  O   UNL     1       2.443  -4.917   3.793  1.00  0.00    -0.462 OA
BRANCH   8   9
ATOM      9  C   UNL     1       3.542  -5.122   3.029  1.00  0.00     0.329 C 
ATOM     10  O   UNL     1       4.268  -6.113   3.114  1.00  0.00    -0.250 OA
BRANCH   9  11
ATOM     11  C   UNL     1       3.771  -4.088   1.929  1.00  0.00     0.204 C 
ATOM     12  N   UNL     1       3.061  -2.787   1.887  1.00  0.00    -0.298 N 
ATOM     13  C   UNL     1       4.001  -1.826   1.488  1.00  0.00     0.048 A 
ATOM     14  C   UNL     1       3.720  -0.585   0.976  1.00  0.00     0.028 A 
ATOM     15  C   UNL     1       5.305  -2.296   1.585  1.00  0.00    -0.020 A 
ATOM     16  C   UNL     1       5.290  -3.730   1.997  1.00  0.00     0.075 C 
ATOM     17  C   UNL     1       4.785   0.188   0.564  1.00  0.00     0.024 A 
ATOM     18  C   UNL     1       6.383  -1.449   1.349  1.00  0.00     0.027 A 
ATOM     19  C   UNL     1       6.098  -0.172   0.854  1.00  0.00     0.083 A 
BRANCH  12  20
ATOM     20  C   UNL     1       1.729  -2.535   1.648  1.00  0.00     0.227 C 
ATOM     21  O   UNL     1       1.032  -1.936   2.468  1.00  0.00    -0.275 OA
BRANCH  20  22
ATOM     22  C   UNL     1       1.249  -2.756   0.215  1.00  0.00     0.097 C 
ATOM     23  C   UNL     1       0.636  -1.486  -0.380  1.00  0.00     0.014 C 
ENDBRANCH  20  22
ENDBRANCH  12  20
BRANCH  19  24
ATOM     24  S   UNL     1       7.352   1.093   0.751  1.00  0.00     0.243 S 
ATOM     25  O   UNL     1       8.119   1.005   1.980  1.00  0.00    -0.207 OA
ATOM     26  O   UNL     1       7.973   0.945  -0.542  1.00  0.00    -0.207 OA
BRANCH  24  27
ATOM     27  N   UNL     1       6.494   2.553   0.793  1.00  0.00    -0.198 NA
ATOM     28  C   UNL     1       5.820   3.041   2.004  1.00  0.00     0.103 C 
ATOM     29  C   UNL     1       6.300   3.390  -0.394  1.00  0.00     0.103 C 
ATOM     30  C   UNL     1       4.310   3.141   1.783  1.00  0.00     0.020 C 
ATOM     31  C   UNL     1       4.824   3.476  -0.764  1.00  0.00     0.020 C 
ATOM     32  C   UNL     1       3.868   3.726   0.423  1.00  0.00    -0.012 C 
ATOM     33  C   UNL     1       2.461   3.216   0.064  1.00  0.00     0.008 C 
ENDBRANCH  24  27
ENDBRANCH  19  24
ENDBRANCH   9  11
ENDBRANCH   8   9
ENDBRANCH   7   8
ENDBRANCH   6   7
ENDBRANCH   5   6
ENDBRANCH   4   5
ENDBRANCH   3   4
ENDBRANCH   2   3
ENDBRANCH   1   2
BRANCH   1  34
ATOM     34  C   UNL     1      -2.460  -4.855   2.798  1.00  0.00     0.188 C 
BRANCH  34  35
ATOM     35  O   UNL     1      -2.912  -4.879   1.442  1.00  0.00    -0.376 OA
BRANCH  35  36
ATOM     36  C   UNL     1      -2.747  -3.684   0.678  1.00  0.00     0.202 C 
BRANCH  36  37
ATOM     37  C   UNL     1      -3.760  -2.575   0.961  1.00  0.00     0.261 C 
BRANCH  37  38
ATOM     38  O   UNL     1      -3.536  -1.956   2.238  1.00  0.00    -0.460 OA
BRANCH  38  39
ATOM     39  C   UNL     1      -4.440  -2.275   3.195  1.00  0.00     0.338 C 
ATOM     40  O   UNL     1      -5.400  -3.019   3.076  1.00  0.00    -0.246 OA
BRANCH  39  41
ATOM     41  C   UNL     1      -4.027  -1.710   4.494  1.00  0.00     0.060 A 
ATOM     42  C   UNL     1      -4.168  -2.518   5.629  1.00  0.00     0.016 A 
ATOM     43  C   UNL     1      -3.612  -0.381   4.614  1.00  0.00     0.016 A 
ATOM     44  C   UNL     1      -3.967  -1.977   6.896  1.00  0.00     0.010 A 
ATOM     45  C   UNL     1      -3.421   0.164   5.886  1.00  0.00     0.010 A 
ATOM     46  C   UNL     1      -3.649  -0.620   7.030  1.00  0.00    -0.014 A 
BRANCH  46  47
ATOM     47  C   UNL     1      -3.764   0.012   8.363  1.00  0.00     0.031 A 
ATOM     48  C   UNL     1      -5.064   0.674   8.732  1.00  0.00     0.074 A 
ATOM     49  C   UNL     1      -2.753  -0.051   9.246  1.00  0.00     0.049 A 
ATOM     50  N   UNL     1      -5.416   1.240   9.857  1.00  0.00    -0.248 NA
ATOM     51  C   UNL     1      -6.110   0.696   7.695  1.00  0.00     0.031 C 
ATOM     52  C   UNL     1      -1.460  -0.692   9.008  1.00  0.00     0.029 A 
ATOM     53  N   UNL     1      -2.663   0.428  10.527  1.00  0.00    -0.354 N 
ATOM     54  C   UNL     1      -6.721   1.681   9.665  1.00  0.00     0.074 A 
ATOM     55  C   UNL     1      -7.088   1.346   8.307  1.00  0.00     0.031 C 
ATOM     56  C   UNL     1      -0.704  -0.567  10.113  1.00  0.00     0.029 A 
ATOM     57  C   UNL     1      -1.453   0.174  11.126  1.00  0.00     0.049 A 
ATOM     58  H   UNL     1      -3.397   0.907  10.976  1.00  0.00     0.167 HD
ATOM     59  C   UNL     1      -7.544   2.301  10.543  1.00  0.00     0.031 A 
ATOM     60  C   UNL     1      -1.004   0.507  12.351  1.00  0.00     0.031 A 
ATOM     61  C   UNL     1      -7.168   2.654  11.885  1.00  0.00     0.049 A 
ATOM     62  C   UNL     1      -1.921   1.239  13.296  1.00  0.00     0.074 A 
ATOM     63  C   UNL     1      -7.922   3.290  12.855  1.00  0.00     0.029 A 
ATOM     64  N   UNL     1      -5.923   2.404  12.445  1.00  0.00    -0.354 N 
ATOM     65  N   UNL     1      -3.160   1.628  13.106  1.00  0.00    -0.248 NA
ATOM     66  C   UNL     1      -1.384   1.559  14.625  1.00  0.00     0.031 C 
ATOM     67  C   UNL     1      -7.120   3.459  13.989  1.00  0.00     0.029 A 
ATOM     68  C   UNL     1      -5.883   2.885  13.742  1.00  0.00     0.049 A 
ATOM     69  H   UNL     1      -5.179   1.951  11.987  1.00  0.00     0.167 HD
ATOM     70  C   UNL     1      -3.559   2.216  14.303  1.00  0.00     0.074 A 
ATOM     71  C   UNL     1      -2.434   2.119  15.210  1.00  0.00     0.031 C 
ATOM     72  C   UNL     1      -4.750   2.780  14.625  1.00  0.00     0.031 A 
BRANCH  59  73
ATOM     73  C   UNL     1      -8.921   2.661  10.058  1.00  0.00    -0.014 A 
ATOM     74  C   UNL     1      -9.905   1.673   9.868  1.00  0.00     0.010 A 
ATOM     75  C   UNL     1      -9.241   4.005   9.797  1.00  0.00     0.010 A 
ATOM     76  C   UNL     1     -11.171   2.018   9.387  1.00  0.00     0.020 A 
ATOM     77  C   UNL     1     -10.513   4.357   9.336  1.00  0.00     0.020 A 
ATOM     78  C   UNL     1     -11.464   3.358   9.117  1.00  0.00     0.054 A 
BRANCH  78  79
ATOM     79  S   UNL     1     -13.117   3.784   8.500  1.00  0.00     0.124 S 
ATOM     80  O   UNL     1     -13.038   3.352   7.107  1.00  0.00    -0.237 OA
ATOM     81  O   UNL     1     -13.995   2.990   9.355  1.00  0.00    -0.237 OA
ATOM     82  O   UNL     1     -13.199   5.229   8.701  1.00  0.00    -0.744 OA
ENDBRANCH  78  79
ENDBRANCH  59  73
BRANCH  60  83
ATOM     83  C   UNL     1       0.380   0.146  12.757  1.00  0.00    -0.014 A 
ATOM     84  C   UNL     1       0.609  -0.865  13.707  1.00  0.00     0.010 A 
ATOM     85  C   UNL     1       1.480   0.812  12.187  1.00  0.00     0.010 A 
ATOM     86  C   UNL     1       1.913  -1.193  14.090  1.00  0.00     0.020 A 
ATOM     87  C   UNL     1       2.785   0.472  12.550  1.00  0.00     0.020 A 
ATOM     88  C   UNL     1       2.993  -0.522  13.509  1.00  0.00     0.054 A 
BRANCH  88  89
ATOM     89  S   UNL     1       4.680  -0.999  13.979  1.00  0.00     0.124 S 
ATOM     90  O   UNL     1       4.821  -0.366  15.286  1.00  0.00    -0.237 OA
ATOM     91  O   UNL     1       4.607  -2.458  13.985  1.00  0.00    -0.237 OA
ATOM     92  O   UNL     1       5.503  -0.430  12.914  1.00  0.00    -0.744 OA
ENDBRANCH  88  89
ENDBRANCH  60  83
BRANCH  72  93
ATOM     93  C   UNL     1      -4.904   3.303  16.027  1.00  0.00    -0.014 A 
ATOM     94  C   UNL     1      -4.272   4.490  16.436  1.00  0.00     0.010 A 
ATOM     95  C   UNL     1      -5.721   2.609  16.938  1.00  0.00     0.010 A 
ATOM     96  C   UNL     1      -4.419   4.951  17.747  1.00  0.00     0.020 A 
ATOM     97  C   UNL     1      -5.890   3.080  18.242  1.00  0.00     0.020 A 
ATOM     98  C   UNL     1      -5.221   4.238  18.644  1.00  0.00     0.054 A 
BRANCH  98  99
ATOM     99  S   UNL     1      -5.415   4.862  20.336  1.00  0.00     0.124 S 
ATOM    100  O   UNL     1      -4.164   4.438  20.959  1.00  0.00    -0.237 OA
ATOM    101  O   UNL     1      -5.561   6.302  20.136  1.00  0.00    -0.237 OA
ATOM    102  O   UNL     1      -6.615   4.182  20.818  1.00  0.00    -0.744 OA
ENDBRANCH  98  99
ENDBRANCH  72  93
ENDBRANCH  46  47
ENDBRANCH  39  41
ENDBRANCH  38  39
ENDBRANCH  37  38
ENDBRANCH  36  37
ENDBRANCH  35  36
ENDBRANCH  34  35
ENDBRANCH   1  34
TORSDOF 27
