REMARK SMILES C[C@@H]1[C@@H](C(=O)OCCOCCOCCOCCOC(=O)c2ccc(-c3c4nc(c(-c5ccc(S(=O)(=O)[O-])cc5)c5ccc([nH]5)c(-c5ccc(S(=O)(=O)[O-])cc5)c5nc(c(-c6ccc(S(=O)(=O)[O-])cc6)c6ccc3[nH]6)C=C5)C=C4)cc2)CCN1C(=O)Nc1nccs1
REMARK SMILES IDX 13 1 12 2 11 3 10 4 9 5 8 6 7 7 6 8 4 9 5 10 3 11 1 12 2 13
REMARK SMILES IDX 83 14 81 15 82 16 84 17 85 18 86 19 87 21 88 22 91 23 89 24
REMARK SMILES IDX 90 25 14 26 15 27 16 28 17 29 18 30 19 31 20 32 21 33 22 34
REMARK SMILES IDX 80 35 23 36 79 37 24 38 25 39 26 40 73 41 27 42 78 43 72 44
REMARK SMILES IDX 74 45 28 46 77 47 71 48 70 49 29 51 59 52 40 53 58 54 41 55
REMARK SMILES IDX 44 56 57 57 75 58 42 59 43 60 56 62 76 63 45 64 30 65 31 66
REMARK SMILES IDX 39 67 32 68 38 69 33 70 34 71 35 72 36 73 37 74 60 75 61 76
REMARK SMILES IDX 69 77 62 78 68 79 63 80 64 81 65 82 66 83 67 84 46 85 47 86
REMARK SMILES IDX 55 87 48 88 54 89 49 90 50 91 51 92 52 93 53 94
REMARK H PARENT 86 20 74 50 44 61
REMARK Flexibility Score: inf
ROOT
ATOM      1  C   UNL     1      -1.207   4.857  -3.342  1.00  0.00     0.188 C 
ENDROOT
BRANCH   1   2
ATOM      2  O   UNL     1      -1.051   3.747  -2.466  1.00  0.00    -0.377 OA
BRANCH   2   3
ATOM      3  C   UNL     1       0.260   3.272  -2.259  1.00  0.00     0.188 C 
BRANCH   3   4
ATOM      4  C   UNL     1       0.641   2.099  -3.178  1.00  0.00     0.188 C 
BRANCH   4   5
ATOM      5  O   UNL     1      -0.036   1.860  -4.400  1.00  0.00    -0.376 OA
BRANCH   5   6
ATOM      6  C   UNL     1      -1.447   1.752  -4.529  1.00  0.00     0.202 C 
BRANCH   6   7
ATOM      7  C   UNL     1      -2.428   1.219  -3.470  1.00  0.00     0.261 C 
BRANCH   7   8
ATOM      8  O   UNL     1      -2.036   1.329  -2.108  1.00  0.00    -0.463 OA
BRANCH   8   9
ATOM      9  C   UNL     1      -1.385   0.246  -1.625  1.00  0.00     0.311 C 
ATOM     10  O   UNL     1      -1.191  -0.784  -2.258  1.00  0.00    -0.252 OA
BRANCH   9  11
ATOM     11  C   UNL     1      -0.854   0.538  -0.231  1.00  0.00     0.123 C 
ATOM     12  C   UNL     1       1.322   0.362   1.068  1.00  0.00     0.032 C 
ATOM     13  C   UNL     1       0.446  -0.243  -0.034  1.00  0.00     0.098 C 
ATOM     14  N   UNL     1      -0.029  -1.579   0.334  1.00  0.00    -0.321 N 
ATOM     15  C   UNL     1      -1.769  -0.016   0.842  1.00  0.00     0.039 C 
ATOM     16  C   UNL     1      -1.391  -1.492   0.869  1.00  0.00     0.122 C 
BRANCH  14  17
ATOM     17  C   UNL     1       0.374  -2.797  -0.148  1.00  0.00     0.323 C 
ATOM     18  O   UNL     1      -0.286  -3.816   0.100  1.00  0.00    -0.248 OA
ATOM     19  N   UNL     1       1.380  -2.954  -1.034  1.00  0.00    -0.283 N 
ATOM     20  H   UNL     1       1.290  -3.753  -1.600  1.00  0.00     0.174 HD
BRANCH  19  21
ATOM     21  C   UNL     1       2.494  -2.220  -1.293  1.00  0.00     0.190 A 
ATOM     22  N   UNL     1       3.079  -1.282  -0.592  1.00  0.00    -0.228 NA
ATOM     23  S   UNL     1       3.251  -2.624  -2.775  1.00  0.00    -0.105 S 
ATOM     24  C   UNL     1       4.142  -0.765  -1.305  1.00  0.00     0.125 A 
ATOM     25  C   UNL     1       4.368  -1.344  -2.535  1.00  0.00     0.088 A 
ENDBRANCH  19  21
ENDBRANCH  14  17
ENDBRANCH   9  11
ENDBRANCH   8   9
ENDBRANCH   7   8
ENDBRANCH   6   7
ENDBRANCH   5   6
ENDBRANCH   4   5
ENDBRANCH   3   4
ENDBRANCH   2   3
ENDBRANCH   1   2
BRANCH   1  26
ATOM     26  C   UNL     1      -0.255   5.016  -4.552  1.00  0.00     0.188 C 
BRANCH  26  27
ATOM     27  O   UNL     1       1.120   4.805  -4.256  1.00  0.00    -0.376 OA
BRANCH  27  28
ATOM     28  C   UNL     1       1.960   5.940  -4.122  1.00  0.00     0.202 C 
BRANCH  28  29
ATOM     29  C   UNL     1       1.718   6.841  -2.900  1.00  0.00     0.261 C 
BRANCH  29  30
ATOM     30  O   UNL     1       0.396   7.382  -2.768  1.00  0.00    -0.460 OA
BRANCH  30  31
ATOM     31  C   UNL     1      -0.045   8.188  -3.756  1.00  0.00     0.338 C 
ATOM     32  O   UNL     1       0.581   8.547  -4.741  1.00  0.00    -0.246 OA
BRANCH  31  33
ATOM     33  C   UNL     1      -1.494   8.402  -3.557  1.00  0.00     0.060 A 
ATOM     34  C   UNL     1      -2.381   8.023  -4.574  1.00  0.00     0.016 A 
ATOM     35  C   UNL     1      -1.975   8.965  -2.373  1.00  0.00     0.016 A 
ATOM     36  C   UNL     1      -3.750   8.246  -4.426  1.00  0.00     0.010 A 
ATOM     37  C   UNL     1      -3.344   9.209  -2.236  1.00  0.00     0.010 A 
ATOM     38  C   UNL     1      -4.233   8.886  -3.277  1.00  0.00    -0.014 A 
BRANCH  38  39
ATOM     39  C   UNL     1      -5.622   9.407  -3.255  1.00  0.00     0.031 A 
ATOM     40  C   UNL     1      -5.838  10.863  -3.572  1.00  0.00     0.074 A 
ATOM     41  C   UNL     1      -6.670   8.610  -2.983  1.00  0.00     0.049 A 
ATOM     42  N   UNL     1      -6.946  11.557  -3.572  1.00  0.00    -0.248 NA
ATOM     43  C   UNL     1      -4.641  11.640  -3.936  1.00  0.00     0.031 C 
ATOM     44  C   UNL     1      -6.598   7.175  -2.712  1.00  0.00     0.029 A 
ATOM     45  N   UNL     1      -8.008   8.904  -2.885  1.00  0.00    -0.354 N 
ATOM     46  C   UNL     1      -6.580  12.851  -3.923  1.00  0.00     0.074 A 
ATOM     47  C   UNL     1      -5.144  12.854  -4.098  1.00  0.00     0.031 C 
ATOM     48  C   UNL     1      -7.838   6.715  -2.470  1.00  0.00     0.029 A 
ATOM     49  C   UNL     1      -8.786   7.828  -2.531  1.00  0.00     0.049 A 
ATOM     50  H   UNL     1      -8.375   9.802  -3.054  1.00  0.00     0.167 HD
ATOM     51  C   UNL     1      -7.367  13.940  -4.090  1.00  0.00     0.031 A 
ATOM     52  C   UNL     1     -10.105   7.755  -2.263  1.00  0.00     0.031 A 
ATOM     53  C   UNL     1      -8.793  13.937  -3.898  1.00  0.00     0.049 A 
ATOM     54  C   UNL     1     -10.950   9.000  -2.370  1.00  0.00     0.074 A 
ATOM     55  C   UNL     1      -9.682  14.986  -4.052  1.00  0.00     0.029 A 
ATOM     56  N   UNL     1      -9.536  12.837  -3.499  1.00  0.00    -0.354 N 
ATOM     57  N   UNL     1     -10.594  10.212  -2.726  1.00  0.00    -0.248 NA
ATOM     58  C   UNL     1     -12.378   8.864  -2.048  1.00  0.00     0.031 C 
ATOM     59  C   UNL     1     -10.953  14.537  -3.682  1.00  0.00     0.029 A 
ATOM     60  C   UNL     1     -10.869  13.189  -3.372  1.00  0.00     0.049 A 
ATOM     61  H   UNL     1      -9.170  11.938  -3.332  1.00  0.00     0.167 HD
ATOM     62  C   UNL     1     -11.760  10.974  -2.703  1.00  0.00     0.074 A 
ATOM     63  C   UNL     1     -12.832  10.082  -2.312  1.00  0.00     0.031 C 
ATOM     64  C   UNL     1     -11.928  12.290  -2.984  1.00  0.00     0.031 A 
BRANCH  51  65
ATOM     65  C   UNL     1      -6.695  15.236  -4.460  1.00  0.00    -0.014 A 
ATOM     66  C   UNL     1      -6.117  15.427  -5.729  1.00  0.00     0.010 A 
ATOM     67  C   UNL     1      -6.674  16.296  -3.534  1.00  0.00     0.010 A 
ATOM     68  C   UNL     1      -5.499  16.639  -6.050  1.00  0.00     0.020 A 
ATOM     69  C   UNL     1      -6.085  17.519  -3.862  1.00  0.00     0.020 A 
ATOM     70  C   UNL     1      -5.487  17.677  -5.114  1.00  0.00     0.054 A 
BRANCH  70  71
ATOM     71  S   UNL     1      -4.702  19.247  -5.569  1.00  0.00     0.124 S 
ATOM     72  O   UNL     1      -3.287  18.881  -5.590  1.00  0.00    -0.237 OA
ATOM     73  O   UNL     1      -5.295  19.535  -6.872  1.00  0.00    -0.237 OA
ATOM     74  O   UNL     1      -5.092  20.156  -4.494  1.00  0.00    -0.744 OA
ENDBRANCH  70  71
ENDBRANCH  51  65
BRANCH  52  75
ATOM     75  C   UNL     1     -10.713   6.460  -1.843  1.00  0.00    -0.014 A 
ATOM     76  C   UNL     1     -11.637   5.796  -2.668  1.00  0.00     0.010 A 
ATOM     77  C   UNL     1     -10.375   5.889  -0.601  1.00  0.00     0.010 A 
ATOM     78  C   UNL     1     -12.226   4.597  -2.253  1.00  0.00     0.020 A 
ATOM     79  C   UNL     1     -10.936   4.674  -0.197  1.00  0.00     0.020 A 
ATOM     80  C   UNL     1     -11.868   4.041  -1.022  1.00  0.00     0.054 A 
BRANCH  80  81
ATOM     81  S   UNL     1     -12.607   2.459  -0.528  1.00  0.00     0.124 S 
ATOM     82  O   UNL     1     -13.986   2.843  -0.245  1.00  0.00    -0.237 OA
ATOM     83  O   UNL     1     -12.409   1.637  -1.719  1.00  0.00    -0.237 OA
ATOM     84  O   UNL     1     -11.816   2.061   0.634  1.00  0.00    -0.744 OA
ENDBRANCH  80  81
ENDBRANCH  52  75
BRANCH  64  85
ATOM     85  C   UNL     1     -13.329  12.846  -2.927  1.00  0.00    -0.014 A 
ATOM     86  C   UNL     1     -14.007  13.012  -1.706  1.00  0.00     0.010 A 
ATOM     87  C   UNL     1     -13.953  13.267  -4.117  1.00  0.00     0.010 A 
ATOM     88  C   UNL     1     -15.295  13.555  -1.681  1.00  0.00     0.020 A 
ATOM     89  C   UNL     1     -15.226  13.841  -4.092  1.00  0.00     0.020 A 
ATOM     90  C   UNL     1     -15.896  13.968  -2.874  1.00  0.00     0.054 A 
BRANCH  90  91
ATOM     91  S   UNL     1     -17.550  14.709  -2.808  1.00  0.00     0.124 S 
ATOM     92  O   UNL     1     -18.388  13.555  -2.493  1.00  0.00    -0.237 OA
ATOM     93  O   UNL     1     -17.415  15.697  -1.741  1.00  0.00    -0.237 OA
ATOM     94  O   UNL     1     -17.736  15.265  -4.146  1.00  0.00    -0.744 OA
ENDBRANCH  90  91
ENDBRANCH  64  85
ENDBRANCH  38  39
ENDBRANCH  31  33
ENDBRANCH  30  31
ENDBRANCH  29  30
ENDBRANCH  28  29
ENDBRANCH  27  28
ENDBRANCH  26  27
ENDBRANCH   1  26
TORSDOF 25
