REMARK SMILES [NH3+][C@]1(C(=O)OCCOCCOCCOCCOC(=O)c2ccc(-c3c4nc(c(-c5ccc(S(=O)(=O)[O-])cc5)c5ccc([nH]5)c(-c5ccc(S(=O)(=O)[O-])cc5)c5nc(c(-c6ccc(S(=O)(=O)[O-])cc6)c6ccc3[nH]6)C=C5)C=C4)cc2)CC[C@@H](Sc2cc3ccccc3[nH]2)C1
REMARK SMILES IDX 12 1 11 2 10 3 9 4 8 5 7 6 6 7 5 8 3 9 4 10 2 11 80 12 93 13
REMARK SMILES IDX 81 14 82 15 1 16 83 20 84 21 85 22 92 23 86 24 91 25 87 27
REMARK SMILES IDX 90 28 88 29 89 30 13 31 14 32 15 33 16 34 17 35 18 36 19 37
REMARK SMILES IDX 20 38 21 39 79 40 22 41 78 42 23 43 24 44 25 45 72 46 26 47
REMARK SMILES IDX 77 48 71 49 73 50 27 51 76 52 70 53 69 54 28 56 58 57 39 58
REMARK SMILES IDX 57 59 40 60 43 61 56 62 74 63 41 64 42 65 55 67 75 68 44 69
REMARK SMILES IDX 29 70 30 71 38 72 31 73 37 74 32 75 33 76 34 77 35 78 36 79
REMARK SMILES IDX 59 80 60 81 68 82 61 83 67 84 62 85 63 86 64 87 65 88 66 89
REMARK SMILES IDX 45 90 46 91 54 92 47 93 53 94 48 95 49 96 50 97 51 98 52 99
REMARK H PARENT 1 17 1 18 1 19 92 26 73 55 43 66
REMARK Flexibility Score: inf
ROOT
ATOM      1  C   UNL     1       5.125   1.005   0.499  1.00  0.00     0.188 C 
ENDROOT
BRANCH   1   2
ATOM      2  O   UNL     1       3.845   0.403   0.520  1.00  0.00    -0.377 OA
BRANCH   2   3
ATOM      3  C   UNL     1       3.069   0.642  -0.643  1.00  0.00     0.188 C 
BRANCH   3   4
ATOM      4  C   UNL     1       2.022   1.764  -0.453  1.00  0.00     0.188 C 
BRANCH   4   5
ATOM      5  O   UNL     1       1.857   2.410   0.803  1.00  0.00    -0.376 OA
BRANCH   5   6
ATOM      6  C   UNL     1       2.006   1.697   2.020  1.00  0.00     0.202 C 
BRANCH   6   7
ATOM      7  C   UNL     1       1.459   0.271   2.233  1.00  0.00     0.261 C 
BRANCH   7   8
ATOM      8  O   UNL     1       1.172  -0.513   1.073  1.00  0.00    -0.459 OA
BRANCH   8   9
ATOM      9  C   UNL     1      -0.040  -0.312   0.493  1.00  0.00     0.368 C 
ATOM     10  O   UNL     1      -0.886   0.466   0.919  1.00  0.00    -0.245 OA
BRANCH   9  11
ATOM     11  C   UNL     1      -0.176  -1.134  -0.819  1.00  0.00     0.193 C 
ATOM     12  C   UNL     1       0.315  -2.575  -0.619  1.00  0.00     0.082 C 
ATOM     13  C   UNL     1      -1.651  -1.236  -1.210  1.00  0.00     0.096 C 
ATOM     14  C   UNL     1      -0.525  -3.400  -1.576  1.00  0.00     0.022 C 
ATOM     15  C   UNL     1      -1.865  -2.676  -1.641  1.00  0.00     0.060 C 
BRANCH  11  16
ATOM     16  N   UNL     1       0.521  -0.531  -1.988  1.00  0.00    -0.343 N 
ATOM     17  H   UNL     1       0.387  -1.124  -2.807  1.00  0.00     0.345 HD
ATOM     18  H   UNL     1       1.517  -0.451  -1.785  1.00  0.00     0.345 HD
ATOM     19  H   UNL     1       0.136   0.396  -2.172  1.00  0.00     0.345 HD
ENDBRANCH  11  16
BRANCH  15  20
ATOM     20  S   UNL     1      -3.180  -3.367  -0.644  1.00  0.00    -0.105 SA
BRANCH  20  21
ATOM     21  C   UNL     1      -2.441  -3.761   0.899  1.00  0.00     0.073 A 
ATOM     22  C   UNL     1      -2.667  -3.202   2.149  1.00  0.00     0.043 A 
ATOM     23  N   UNL     1      -2.401  -5.115   1.147  1.00  0.00    -0.350 N 
ATOM     24  C   UNL     1      -3.594  -4.141   2.727  1.00  0.00     0.001 A 
ATOM     25  C   UNL     1      -3.501  -5.308   1.965  1.00  0.00     0.046 A 
ATOM     26  H   UNL     1      -1.751  -5.781   0.824  1.00  0.00     0.167 HD
ATOM     27  C   UNL     1      -4.633  -4.033   3.665  1.00  0.00     0.010 A 
ATOM     28  C   UNL     1      -4.459  -6.315   1.958  1.00  0.00     0.027 A 
ATOM     29  C   UNL     1      -5.644  -5.005   3.633  1.00  0.00     0.001 A 
ATOM     30  C   UNL     1      -5.574  -6.102   2.767  1.00  0.00     0.002 A 
ENDBRANCH  20  21
ENDBRANCH  15  20
ENDBRANCH   9  11
ENDBRANCH   8   9
ENDBRANCH   7   8
ENDBRANCH   6   7
ENDBRANCH   5   6
ENDBRANCH   4   5
ENDBRANCH   3   4
ENDBRANCH   2   3
ENDBRANCH   1   2
BRANCH   1  31
ATOM     31  C   UNL     1       5.160   2.516   0.200  1.00  0.00     0.188 C 
BRANCH  31  32
ATOM     32  O   UNL     1       4.507   2.866  -1.016  1.00  0.00    -0.376 OA
BRANCH  32  33
ATOM     33  C   UNL     1       5.280   3.203  -2.152  1.00  0.00     0.202 C 
BRANCH  33  34
ATOM     34  C   UNL     1       5.958   2.045  -2.897  1.00  0.00     0.261 C 
BRANCH  34  35
ATOM     35  O   UNL     1       6.770   1.171  -2.107  1.00  0.00    -0.460 OA
BRANCH  35  36
ATOM     36  C   UNL     1       7.834   1.704  -1.468  1.00  0.00     0.338 C 
ATOM     37  O   UNL     1       8.211   2.863  -1.509  1.00  0.00    -0.246 OA
BRANCH  36  38
ATOM     38  C   UNL     1       8.337   0.673  -0.537  1.00  0.00     0.060 A 
ATOM     39  C   UNL     1       8.381   0.951   0.838  1.00  0.00     0.016 A 
ATOM     40  C   UNL     1       8.691  -0.590  -1.017  1.00  0.00     0.016 A 
ATOM     41  C   UNL     1       8.792  -0.033   1.738  1.00  0.00     0.010 A 
ATOM     42  C   UNL     1       9.142  -1.558  -0.122  1.00  0.00     0.010 A 
ATOM     43  C   UNL     1       9.223  -1.274   1.253  1.00  0.00    -0.014 A 
BRANCH  43  44
ATOM     44  C   UNL     1      10.021  -2.179   2.110  1.00  0.00     0.031 A 
ATOM     45  C   UNL     1      11.516  -2.043   2.034  1.00  0.00     0.074 A 
ATOM     46  C   UNL     1       9.454  -3.118   2.886  1.00  0.00     0.049 A 
ATOM     47  N   UNL     1      12.446  -2.820   2.518  1.00  0.00    -0.248 NA
ATOM     48  C   UNL     1      12.028  -0.874   1.296  1.00  0.00     0.031 C 
ATOM     49  C   UNL     1       8.019  -3.297   3.099  1.00  0.00     0.029 A 
ATOM     50  N   UNL     1      10.033  -4.119   3.627  1.00  0.00    -0.354 N 
ATOM     51  C   UNL     1      13.650  -2.245   2.129  1.00  0.00     0.074 A 
ATOM     52  C   UNL     1      13.335  -1.069   1.351  1.00  0.00     0.031 C 
ATOM     53  C   UNL     1       7.829  -4.362   3.900  1.00  0.00     0.029 A 
ATOM     54  C   UNL     1       9.123  -4.968   4.210  1.00  0.00     0.049 A 
ATOM     55  H   UNL     1      11.007  -4.219   3.730  1.00  0.00     0.167 HD
ATOM     56  C   UNL     1      14.909  -2.663   2.394  1.00  0.00     0.031 A 
ATOM     57  C   UNL     1       9.319  -6.122   4.882  1.00  0.00     0.031 A 
ATOM     58  C   UNL     1      15.210  -3.850   3.143  1.00  0.00     0.049 A 
ATOM     59  C   UNL     1      10.728  -6.632   5.071  1.00  0.00     0.074 A 
ATOM     60  C   UNL     1      16.450  -4.377   3.455  1.00  0.00     0.029 A 
ATOM     61  N   UNL     1      14.260  -4.696   3.695  1.00  0.00    -0.354 N 
ATOM     62  N   UNL     1      11.861  -6.089   4.690  1.00  0.00    -0.248 NA
ATOM     63  C   UNL     1      10.887  -7.911   5.780  1.00  0.00     0.031 C 
ATOM     64  C   UNL     1      16.248  -5.573   4.149  1.00  0.00     0.029 A 
ATOM     65  C   UNL     1      14.885  -5.750   4.333  1.00  0.00     0.049 A 
ATOM     66  H   UNL     1      13.286  -4.564   3.640  1.00  0.00     0.167 HD
ATOM     67  C   UNL     1      12.865  -6.933   5.158  1.00  0.00     0.074 A 
ATOM     68  C   UNL     1      12.207  -8.026   5.842  1.00  0.00     0.031 C 
ATOM     69  C   UNL     1      14.210  -6.810   5.039  1.00  0.00     0.031 A 
BRANCH  56  70
ATOM     70  C   UNL     1      16.043  -1.851   1.832  1.00  0.00    -0.014 A 
ATOM     71  C   UNL     1      16.336  -0.569   2.329  1.00  0.00     0.010 A 
ATOM     72  C   UNL     1      16.844  -2.390   0.809  1.00  0.00     0.010 A 
ATOM     73  C   UNL     1      17.389   0.174   1.790  1.00  0.00     0.020 A 
ATOM     74  C   UNL     1      17.918  -1.664   0.289  1.00  0.00     0.020 A 
ATOM     75  C   UNL     1      18.174  -0.379   0.773  1.00  0.00     0.054 A 
BRANCH  75  76
ATOM     76  S   UNL     1      19.552   0.596   0.115  1.00  0.00     0.124 S 
ATOM     77  O   UNL     1      18.853   1.641  -0.630  1.00  0.00    -0.237 OA
ATOM     78  O   UNL     1      20.237   1.040   1.327  1.00  0.00    -0.237 OA
ATOM     79  O   UNL     1      20.295  -0.359  -0.703  1.00  0.00    -0.744 OA
ENDBRANCH  75  76
ENDBRANCH  56  70
BRANCH  57  80
ATOM     80  C   UNL     1       8.158  -6.899   5.402  1.00  0.00    -0.014 A 
ATOM     81  C   UNL     1       7.959  -7.046   6.787  1.00  0.00     0.010 A 
ATOM     82  C   UNL     1       7.258  -7.521   4.517  1.00  0.00     0.010 A 
ATOM     83  C   UNL     1       6.902  -7.820   7.275  1.00  0.00     0.020 A 
ATOM     84  C   UNL     1       6.181  -8.269   5.001  1.00  0.00     0.020 A 
ATOM     85  C   UNL     1       6.018  -8.426   6.378  1.00  0.00     0.054 A 
BRANCH  85  86
ATOM     86  S   UNL     1       4.637  -9.402   7.036  1.00  0.00     0.124 S 
ATOM     87  O   UNL     1       5.319 -10.584   7.552  1.00  0.00    -0.237 OA
ATOM     88  O   UNL     1       4.072  -8.507   8.042  1.00  0.00    -0.237 OA
ATOM     89  O   UNL     1       3.791  -9.629   5.867  1.00  0.00    -0.744 OA
ENDBRANCH  85  86
ENDBRANCH  57  80
BRANCH  69  90
ATOM     90  C   UNL     1      15.082  -7.827   5.728  1.00  0.00    -0.014 A 
ATOM     91  C   UNL     1      15.235  -9.130   5.227  1.00  0.00     0.010 A 
ATOM     92  C   UNL     1      15.857  -7.419   6.831  1.00  0.00     0.010 A 
ATOM     93  C   UNL     1      16.147 -10.009   5.820  1.00  0.00     0.020 A 
ATOM     94  C   UNL     1      16.790  -8.284   7.407  1.00  0.00     0.020 A 
ATOM     95  C   UNL     1      16.926  -9.576   6.899  1.00  0.00     0.054 A 
BRANCH  95  96
ATOM     96  S   UNL     1      18.171 -10.704   7.585  1.00  0.00     0.124 S 
ATOM     97  O   UNL     1      17.343 -11.694   8.268  1.00  0.00    -0.237 OA
ATOM     98  O   UNL     1      18.863 -11.179   6.389  1.00  0.00    -0.237 OA
ATOM     99  O   UNL     1      18.969  -9.849   8.461  1.00  0.00    -0.744 OA
ENDBRANCH  95  96
ENDBRANCH  69  90
ENDBRANCH  43  44
ENDBRANCH  36  38
ENDBRANCH  35  36
ENDBRANCH  34  35
ENDBRANCH  33  34
ENDBRANCH  32  33
ENDBRANCH  31  32
ENDBRANCH   1  31
TORSDOF 26
