REMARK SMILES C[C@@H](O)[C@@H](NC(=O)Nc1ccc(F)cc1F)C(=O)OCCOCCOCCOCCOC(=O)c1ccc(-c2c3nc(c(-c4ccc(S(=O)(=O)[O-])cc4)c4ccc([nH]4)c(-c4ccc(S(=O)(=O)[O-])cc4)c4nc(c(-c5ccc(S(=O)(=O)[O-])cc5)c5ccc2[nH]5)C=C4)C=C3)cc1
REMARK SMILES IDX 26 1 25 2 24 3 23 4 22 5 21 6 20 7 19 8 17 9 18 10 4 11 2 12
REMARK SMILES IDX 1 13 3 14 5 16 6 17 7 19 8 20 9 22 10 23 15 24 11 25 14 26
REMARK SMILES IDX 16 27 12 28 13 29 27 30 28 31 29 32 30 33 31 34 32 35 33 36
REMARK SMILES IDX 34 37 35 38 93 39 36 40 92 41 37 42 38 43 39 44 86 45 40 46
REMARK SMILES IDX 91 47 85 48 87 49 41 50 90 51 84 52 83 53 42 55 72 56 53 57
REMARK SMILES IDX 71 58 54 59 57 60 70 61 88 62 55 63 56 64 69 66 89 67 58 68
REMARK SMILES IDX 43 69 44 70 52 71 45 72 51 73 46 74 47 75 48 76 49 77 50 78
REMARK SMILES IDX 73 79 74 80 82 81 75 82 81 83 76 84 77 85 78 86 79 87 80 88
REMARK SMILES IDX 59 89 60 90 68 91 61 92 67 93 62 94 63 95 64 96 65 97 66 98
REMARK H PARENT 3 15 5 18 8 21 87 54 57 65
REMARK Flexibility Score: inf
ROOT
ATOM      1  C   UNL     1       1.796  -0.359  -5.843  1.00  0.00     0.188 C 
ENDROOT
BRANCH   1   2
ATOM      2  O   UNL     1       1.639  -1.109  -4.654  1.00  0.00    -0.377 OA
BRANCH   2   3
ATOM      3  C   UNL     1       0.307  -1.350  -4.216  1.00  0.00     0.188 C 
BRANCH   3   4
ATOM      4  C   UNL     1      -0.873  -1.188  -5.194  1.00  0.00     0.188 C 
BRANCH   4   5
ATOM      5  O   UNL     1      -0.871   0.038  -5.931  1.00  0.00    -0.376 OA
BRANCH   5   6
ATOM      6  C   UNL     1      -1.612   1.155  -5.469  1.00  0.00     0.202 C 
BRANCH   6   7
ATOM      7  C   UNL     1      -0.857   2.181  -4.592  1.00  0.00     0.261 C 
BRANCH   7   8
ATOM      8  O   UNL     1      -0.595   1.958  -3.183  1.00  0.00    -0.462 OA
BRANCH   8   9
ATOM      9  C   UNL     1      -1.223   0.970  -2.523  1.00  0.00     0.331 C 
ATOM     10  O   UNL     1      -1.912   0.117  -3.062  1.00  0.00    -0.250 OA
BRANCH   9  11
ATOM     11  C   UNL     1      -1.074   0.978  -1.015  1.00  0.00     0.222 C 
BRANCH  11  12
ATOM     12  C   UNL     1       0.437   1.068  -0.660  1.00  0.00     0.145 C 
ATOM     13  C   UNL     1       0.710   1.114   0.840  1.00  0.00     0.041 C 
BRANCH  12  14
ATOM     14  O   UNL     1       1.098  -0.117  -1.129  1.00  0.00    -0.391 OA
ATOM     15  H   UNL     1       0.730  -0.892  -0.678  1.00  0.00     0.211 HD
ENDBRANCH  12  14
ENDBRANCH  11  12
BRANCH  11  16
ATOM     16  N   UNL     1      -1.926   1.988  -0.375  1.00  0.00    -0.322 N 
ATOM     17  C   UNL     1      -3.229   2.331  -0.498  1.00  0.00     0.320 C 
ATOM     18  H   UNL     1      -1.445   2.535   0.287  1.00  0.00     0.166 HD
ATOM     19  O   UNL     1      -3.669   3.133   0.328  1.00  0.00    -0.248 OA
ATOM     20  N   UNL     1      -3.934   2.074  -1.619  1.00  0.00    -0.305 N 
ATOM     21  H   UNL     1      -4.221   2.883  -2.101  1.00  0.00     0.171 HD
BRANCH  20  22
ATOM     22  C   UNL     1      -4.338   0.875  -2.235  1.00  0.00     0.079 A 
ATOM     23  C   UNL     1      -4.238  -0.383  -1.638  1.00  0.00     0.032 A 
ATOM     24  C   UNL     1      -4.793   0.963  -3.565  1.00  0.00     0.149 A 
ATOM     25  C   UNL     1      -4.474  -1.532  -2.409  1.00  0.00     0.041 A 
ATOM     26  C   UNL     1      -5.022  -0.172  -4.336  1.00  0.00     0.080 A 
ATOM     27  F   UNL     1      -4.879   2.166  -4.156  1.00  0.00    -0.205 F 
ATOM     28  C   UNL     1      -4.832  -1.415  -3.753  1.00  0.00     0.126 A 
ATOM     29  F   UNL     1      -4.965  -2.519  -4.500  1.00  0.00    -0.207 F 
ENDBRANCH  20  22
ENDBRANCH  11  16
ENDBRANCH   9  11
ENDBRANCH   8   9
ENDBRANCH   7   8
ENDBRANCH   6   7
ENDBRANCH   5   6
ENDBRANCH   4   5
ENDBRANCH   3   4
ENDBRANCH   2   3
ENDBRANCH   1   2
BRANCH   1  30
ATOM     30  C   UNL     1       1.503  -1.173  -7.113  1.00  0.00     0.188 C 
BRANCH  30  31
ATOM     31  O   UNL     1       1.554  -2.589  -7.077  1.00  0.00    -0.376 OA
BRANCH  31  32
ATOM     32  C   UNL     1       2.493  -3.298  -6.293  1.00  0.00     0.202 C 
BRANCH  32  33
ATOM     33  C   UNL     1       3.945  -2.845  -6.033  1.00  0.00     0.261 C 
BRANCH  33  34
ATOM     34  O   UNL     1       4.342  -1.528  -6.402  1.00  0.00    -0.460 OA
BRANCH  34  35
ATOM     35  C   UNL     1       4.554  -1.278  -7.718  1.00  0.00     0.338 C 
ATOM     36  O   UNL     1       4.515  -2.069  -8.627  1.00  0.00    -0.246 OA
BRANCH  35  37
ATOM     37  C   UNL     1       4.605   0.208  -7.854  1.00  0.00     0.060 A 
ATOM     38  C   UNL     1       3.791   0.827  -8.815  1.00  0.00     0.016 A 
ATOM     39  C   UNL     1       5.386   0.985  -6.991  1.00  0.00     0.016 A 
ATOM     40  C   UNL     1       3.779   2.216  -8.940  1.00  0.00     0.010 A 
ATOM     41  C   UNL     1       5.417   2.372  -7.150  1.00  0.00     0.010 A 
ATOM     42  C   UNL     1       4.653   2.983  -8.161  1.00  0.00    -0.014 A 
BRANCH  42  43
ATOM     43  C   UNL     1       5.078   4.311  -8.662  1.00  0.00     0.031 A 
ATOM     44  C   UNL     1       6.219   4.310  -9.650  1.00  0.00     0.074 A 
ATOM     45  C   UNL     1       4.504   5.463  -8.275  1.00  0.00     0.049 A 
ATOM     46  N   UNL     1       6.871   5.315 -10.169  1.00  0.00    -0.248 NA
ATOM     47  C   UNL     1       6.687   2.988 -10.110  1.00  0.00     0.031 C 
ATOM     48  C   UNL     1       3.351   5.589  -7.386  1.00  0.00     0.029 A 
ATOM     49  N   UNL     1       4.834   6.759  -8.586  1.00  0.00    -0.354 N 
ATOM     50  C   UNL     1       7.822   4.745 -11.008  1.00  0.00     0.074 A 
ATOM     51  C   UNL     1       7.682   3.312 -10.917  1.00  0.00     0.031 C 
ATOM     52  C   UNL     1       3.079   6.897  -7.211  1.00  0.00     0.029 A 
ATOM     53  C   UNL     1       4.061   7.697  -7.943  1.00  0.00     0.049 A 
ATOM     54  H   UNL     1       5.556   6.995  -9.211  1.00  0.00     0.167 HD
ATOM     55  C   UNL     1       8.741   5.357 -11.787  1.00  0.00     0.031 A 
ATOM     56  C   UNL     1       4.162   9.042  -7.932  1.00  0.00     0.031 A 
ATOM     57  C   UNL     1       8.910   6.779 -11.847  1.00  0.00     0.049 A 
ATOM     58  C   UNL     1       5.263   9.703  -8.729  1.00  0.00     0.074 A 
ATOM     59  C   UNL     1       9.840   7.506 -12.565  1.00  0.00     0.029 A 
ATOM     60  N   UNL     1       8.127   7.688 -11.154  1.00  0.00    -0.354 N 
ATOM     61  N   UNL     1       6.169   9.151  -9.502  1.00  0.00    -0.248 NA
ATOM     62  C   UNL     1       5.355  11.169  -8.650  1.00  0.00     0.031 C 
ATOM     63  C   UNL     1       9.643   8.859 -12.275  1.00  0.00     0.029 A 
ATOM     64  C   UNL     1       8.556   8.973 -11.422  1.00  0.00     0.049 A 
ATOM     65  H   UNL     1       7.378   7.454 -10.560  1.00  0.00     0.167 HD
ATOM     66  C   UNL     1       6.909  10.205 -10.032  1.00  0.00     0.074 A 
ATOM     67  C   UNL     1       6.347  11.425  -9.493  1.00  0.00     0.031 C 
ATOM     68  C   UNL     1       7.958  10.170 -10.892  1.00  0.00     0.031 A 
BRANCH  55  69
ATOM     69  C   UNL     1       9.650   4.477 -12.595  1.00  0.00    -0.014 A 
ATOM     70  C   UNL     1       9.171   3.785 -13.723  1.00  0.00     0.010 A 
ATOM     71  C   UNL     1      10.998   4.337 -12.223  1.00  0.00     0.010 A 
ATOM     72  C   UNL     1      10.020   2.946 -14.448  1.00  0.00     0.020 A 
ATOM     73  C   UNL     1      11.856   3.519 -12.960  1.00  0.00     0.020 A 
ATOM     74  C   UNL     1      11.357   2.817 -14.061  1.00  0.00     0.054 A 
BRANCH  74  75
ATOM     75  S   UNL     1      12.446   1.746 -15.038  1.00  0.00     0.124 S 
ATOM     76  O   UNL     1      11.991   0.415 -14.644  1.00  0.00    -0.237 OA
ATOM     77  O   UNL     1      12.133   2.136 -16.410  1.00  0.00    -0.237 OA
ATOM     78  O   UNL     1      13.786   2.106 -14.582  1.00  0.00    -0.744 OA
ENDBRANCH  74  75
ENDBRANCH  55  69
BRANCH  56  79
ATOM     79  C   UNL     1       3.225   9.868  -7.120  1.00  0.00    -0.014 A 
ATOM     80  C   UNL     1       2.296  10.722  -7.742  1.00  0.00     0.010 A 
ATOM     81  C   UNL     1       3.288   9.842  -5.714  1.00  0.00     0.010 A 
ATOM     82  C   UNL     1       1.471  11.555  -6.978  1.00  0.00     0.020 A 
ATOM     83  C   UNL     1       2.446  10.653  -4.946  1.00  0.00     0.020 A 
ATOM     84  C   UNL     1       1.554  11.517  -5.584  1.00  0.00     0.054 A 
BRANCH  84  85
ATOM     85  S   UNL     1       0.460  12.587  -4.609  1.00  0.00     0.124 S 
ATOM     86  O   UNL     1       1.083  13.896  -4.781  1.00  0.00    -0.237 OA
ATOM     87  O   UNL     1      -0.830  12.407  -5.270  1.00  0.00    -0.237 OA
ATOM     88  O   UNL     1       0.545  12.024  -3.263  1.00  0.00    -0.744 OA
ENDBRANCH  84  85
ENDBRANCH  56  79
BRANCH  68  89
ATOM     89  C   UNL     1       8.525  11.480 -11.365  1.00  0.00    -0.014 A 
ATOM     90  C   UNL     1       9.341  12.268 -10.536  1.00  0.00     0.010 A 
ATOM     91  C   UNL     1       8.315  11.872 -12.701  1.00  0.00     0.010 A 
ATOM     92  C   UNL     1       9.924  13.437 -11.032  1.00  0.00     0.020 A 
ATOM     93  C   UNL     1       8.916  13.026 -13.206  1.00  0.00     0.020 A 
ATOM     94  C   UNL     1       9.711  13.806 -12.364  1.00  0.00     0.054 A 
BRANCH  94  95
ATOM     95  S   UNL     1      10.535  15.290 -13.004  1.00  0.00     0.124 S 
ATOM     96  O   UNL     1       9.744  16.360 -12.402  1.00  0.00    -0.237 OA
ATOM     97  O   UNL     1      11.896  15.148 -12.490  1.00  0.00    -0.237 OA
ATOM     98  O   UNL     1      10.408  15.159 -14.454  1.00  0.00    -0.744 OA
ENDBRANCH  94  95
ENDBRANCH  68  89
ENDBRANCH  42  43
ENDBRANCH  35  37
ENDBRANCH  34  35
ENDBRANCH  33  34
ENDBRANCH  32  33
ENDBRANCH  31  32
ENDBRANCH  30  31
ENDBRANCH   1  30
TORSDOF 27
