REMARK SMILES C[C@@H](C(=O)OCCOCCOCCOCCOC(=O)c1ccc(-c2c3nc(c(-c4ccc(S(=O)(=O)[O-])cc4)c4ccc([nH]4)c(-c4ccc(S(=O)(=O)[O-])cc4)c4nc(c(-c5ccc(S(=O)(=O)[O-])cc5)c5ccc2[nH]5)C=C4)C=C3)cc1)c1ccc(-c2cccc(OC(=O)NC3CC3)c2)c(F)c1
REMARK SMILES IDX 10 1 9 2 8 3 7 4 6 5 5 6 3 7 4 8 2 9 1 10 80 11 81 12 99 13
REMARK SMILES IDX 82 14 97 15 83 16 98 17 84 18 85 19 96 20 86 21 88 22 87 23
REMARK SMILES IDX 89 24 90 25 91 26 92 27 93 29 94 30 95 31 11 32 12 33 13 34
REMARK SMILES IDX 14 35 15 36 16 37 17 38 18 39 19 40 20 41 21 42 79 43 22 44
REMARK SMILES IDX 78 45 23 46 24 47 25 48 72 49 26 50 77 51 71 52 73 53 27 54
REMARK SMILES IDX 76 55 70 56 69 57 28 59 58 60 39 61 57 62 40 63 43 64 56 65
REMARK SMILES IDX 74 66 41 67 42 68 55 70 75 71 44 72 29 73 30 74 38 75 31 76
REMARK SMILES IDX 37 77 32 78 33 79 34 80 35 81 36 82 59 83 60 84 68 85 61 86
REMARK SMILES IDX 67 87 62 88 63 89 64 90 65 91 66 92 45 93 46 94 54 95 47 96
REMARK SMILES IDX 53 97 48 98 49 99 50 100 51 101 52 102
REMARK H PARENT 92 28 73 58 43 69
REMARK Flexibility Score: inf
ROOT
ATOM      1  C   UNL     1       0.873  -1.990   1.867  1.00  0.00     0.188 C 
ENDROOT
BRANCH   1   2
ATOM      2  C   UNL     1       0.221  -3.314   1.444  1.00  0.00     0.188 C 
BRANCH   2   3
ATOM      3  O   UNL     1       0.968  -4.497   1.635  1.00  0.00    -0.376 OA
BRANCH   3   4
ATOM      4  C   UNL     1       2.040  -4.841   0.768  1.00  0.00     0.202 C 
BRANCH   4   5
ATOM      5  C   UNL     1       2.526  -4.030  -0.454  1.00  0.00     0.261 C 
BRANCH   5   6
ATOM      6  O   UNL     1       1.966  -2.726  -0.639  1.00  0.00    -0.463 OA
BRANCH   6   7
ATOM      7  C   UNL     1       1.279  -2.480  -1.778  1.00  0.00     0.313 C 
ATOM      8  O   UNL     1       1.095  -3.307  -2.666  1.00  0.00    -0.252 OA
BRANCH   7   9
ATOM      9  C   UNL     1       0.639  -1.083  -1.796  1.00  0.00     0.126 C 
ATOM     10  C   UNL     1       1.490  -0.016  -1.079  1.00  0.00     0.025 C 
BRANCH   9  11
ATOM     11  C   UNL     1      -0.853  -1.069  -1.425  1.00  0.00    -0.031 A 
ATOM     12  C   UNL     1      -1.528   0.137  -1.170  1.00  0.00     0.005 A 
ATOM     13  C   UNL     1      -1.624  -2.244  -1.401  1.00  0.00     0.044 A 
ATOM     14  C   UNL     1      -2.906   0.161  -0.893  1.00  0.00     0.012 A 
ATOM     15  C   UNL     1      -2.987  -2.218  -1.099  1.00  0.00     0.131 A 
ATOM     16  C   UNL     1      -3.662  -1.020  -0.856  1.00  0.00     0.018 A 
ATOM     17  F   UNL     1      -3.650  -3.385  -1.074  1.00  0.00    -0.206 F 
BRANCH  16  18
ATOM     18  C   UNL     1      -5.112  -0.998  -0.616  1.00  0.00    -0.012 A 
ATOM     19  C   UNL     1      -5.974  -0.356  -1.521  1.00  0.00     0.009 A 
ATOM     20  C   UNL     1      -5.671  -1.644   0.501  1.00  0.00     0.056 A 
ATOM     21  C   UNL     1      -7.356  -0.360  -1.325  1.00  0.00     0.004 A 
ATOM     22  C   UNL     1      -7.051  -1.639   0.699  1.00  0.00     0.133 A 
ATOM     23  C   UNL     1      -7.896  -1.001  -0.213  1.00  0.00     0.047 A 
BRANCH  22  24
ATOM     24  O   UNL     1      -7.715  -2.251   1.793  1.00  0.00    -0.410 OA
BRANCH  24  25
ATOM     25  C   UNL     1      -7.140  -3.070   2.759  1.00  0.00     0.412 C 
ATOM     26  O   UNL     1      -5.947  -3.341   2.861  1.00  0.00    -0.224 OA
ATOM     27  N   UNL     1      -8.038  -3.607   3.645  1.00  0.00    -0.318 N 
ATOM     28  H   UNL     1      -7.653  -4.237   4.295  1.00  0.00     0.167 HD
BRANCH  27  29
ATOM     29  C   UNL     1      -9.441  -3.394   3.773  1.00  0.00     0.085 C 
ATOM     30  C   UNL     1     -10.404  -3.016   2.685  1.00  0.00     0.027 C 
ATOM     31  C   UNL     1     -10.379  -4.424   3.193  1.00  0.00     0.027 C 
ENDBRANCH  27  29
ENDBRANCH  24  25
ENDBRANCH  22  24
ENDBRANCH  16  18
ENDBRANCH   9  11
ENDBRANCH   7   9
ENDBRANCH   6   7
ENDBRANCH   5   6
ENDBRANCH   4   5
ENDBRANCH   3   4
ENDBRANCH   2   3
ENDBRANCH   1   2
BRANCH   1  32
ATOM     32  O   UNL     1       2.287  -1.999   1.897  1.00  0.00    -0.377 OA
BRANCH  32  33
ATOM     33  C   UNL     1       2.940  -2.539   3.040  1.00  0.00     0.188 C 
BRANCH  33  34
ATOM     34  C   UNL     1       2.173  -3.382   4.084  1.00  0.00     0.188 C 
BRANCH  34  35
ATOM     35  O   UNL     1       0.848  -2.950   4.354  1.00  0.00    -0.376 OA
BRANCH  35  36
ATOM     36  C   UNL     1       0.616  -2.139   5.495  1.00  0.00     0.202 C 
BRANCH  36  37
ATOM     37  C   UNL     1       1.275  -0.752   5.526  1.00  0.00     0.261 C 
BRANCH  37  38
ATOM     38  O   UNL     1       2.709  -0.726   5.450  1.00  0.00    -0.460 OA
BRANCH  38  39
ATOM     39  C   UNL     1       3.401  -1.399   6.397  1.00  0.00     0.338 C 
ATOM     40  O   UNL     1       2.948  -1.983   7.359  1.00  0.00    -0.246 OA
BRANCH  39  41
ATOM     41  C   UNL     1       4.809  -1.475   5.948  1.00  0.00     0.060 A 
ATOM     42  C   UNL     1       5.389  -2.735   5.747  1.00  0.00     0.016 A 
ATOM     43  C   UNL     1       5.548  -0.312   5.723  1.00  0.00     0.016 A 
ATOM     44  C   UNL     1       6.725  -2.836   5.359  1.00  0.00     0.010 A 
ATOM     45  C   UNL     1       6.893  -0.415   5.356  1.00  0.00     0.010 A 
ATOM     46  C   UNL     1       7.497  -1.677   5.210  1.00  0.00    -0.014 A 
BRANCH  46  47
ATOM     47  C   UNL     1       8.973  -1.784   5.112  1.00  0.00     0.031 A 
ATOM     48  C   UNL     1       9.784  -1.578   6.364  1.00  0.00     0.074 A 
ATOM     49  C   UNL     1       9.584  -2.079   3.951  1.00  0.00     0.049 A 
ATOM     50  N   UNL     1      11.082  -1.572   6.522  1.00  0.00    -0.248 NA
ATOM     51  C   UNL     1       9.025  -1.345   7.605  1.00  0.00     0.031 C 
ATOM     52  C   UNL     1       8.910  -2.353   2.683  1.00  0.00     0.029 A 
ATOM     53  N   UNL     1      10.921  -2.190   3.654  1.00  0.00    -0.354 N 
ATOM     54  C   UNL     1      11.295  -1.324   7.873  1.00  0.00     0.074 A 
ATOM     55  C   UNL     1       9.996  -1.153   8.484  1.00  0.00     0.031 C 
ATOM     56  C   UNL     1       9.839  -2.589   1.740  1.00  0.00     0.029 A 
ATOM     57  C   UNL     1      11.171  -2.446   2.327  1.00  0.00     0.049 A 
ATOM     58  H   UNL     1      11.632  -2.095   4.328  1.00  0.00     0.167 HD
ATOM     59  C   UNL     1      12.467  -1.251   8.547  1.00  0.00     0.031 A 
ATOM     60  C   UNL     1      12.340  -2.528   1.659  1.00  0.00     0.031 A 
ATOM     61  C   UNL     1      13.758  -1.401   7.931  1.00  0.00     0.049 A 
ATOM     62  C   UNL     1      13.635  -2.356   2.413  1.00  0.00     0.074 A 
ATOM     63  C   UNL     1      15.006  -1.351   8.528  1.00  0.00     0.029 A 
ATOM     64  N   UNL     1      13.970  -1.620   6.578  1.00  0.00    -0.354 N 
ATOM     65  N   UNL     1      13.823  -2.141   3.694  1.00  0.00    -0.248 NA
ATOM     66  C   UNL     1      14.876  -2.447   1.631  1.00  0.00     0.031 C 
ATOM     67  C   UNL     1      15.973  -1.471   7.525  1.00  0.00     0.029 A 
ATOM     68  C   UNL     1      15.328  -1.676   6.315  1.00  0.00     0.049 A 
ATOM     69  H   UNL     1      13.259  -1.721   5.905  1.00  0.00     0.167 HD
ATOM     70  C   UNL     1      15.203  -2.103   3.875  1.00  0.00     0.074 A 
ATOM     71  C   UNL     1      15.800  -2.331   2.576  1.00  0.00     0.031 C 
ATOM     72  C   UNL     1      15.911  -1.902   5.015  1.00  0.00     0.031 A 
BRANCH  59  73
ATOM     73  C   UNL     1      12.402  -0.952  10.023  1.00  0.00    -0.014 A 
ATOM     74  C   UNL     1      11.889  -1.888  10.939  1.00  0.00     0.010 A 
ATOM     75  C   UNL     1      12.887   0.278  10.504  1.00  0.00     0.010 A 
ATOM     76  C   UNL     1      11.822  -1.582  12.302  1.00  0.00     0.020 A 
ATOM     77  C   UNL     1      12.853   0.575  11.869  1.00  0.00     0.020 A 
ATOM     78  C   UNL     1      12.304  -0.351  12.757  1.00  0.00     0.054 A 
BRANCH  78  79
ATOM     79  S   UNL     1      12.221   0.010  14.533  1.00  0.00     0.124 S 
ATOM     80  O   UNL     1      10.785   0.187  14.737  1.00  0.00    -0.237 OA
ATOM     81  O   UNL     1      12.797  -1.191  15.130  1.00  0.00    -0.237 OA
ATOM     82  O   UNL     1      13.023   1.222  14.679  1.00  0.00    -0.744 OA
ENDBRANCH  78  79
ENDBRANCH  59  73
BRANCH  60  83
ATOM     83  C   UNL     1      12.340  -2.761   0.187  1.00  0.00    -0.014 A 
ATOM     84  C   UNL     1      12.829  -3.963  -0.354  1.00  0.00     0.010 A 
ATOM     85  C   UNL     1      11.846  -1.773  -0.685  1.00  0.00     0.010 A 
ATOM     86  C   UNL     1      12.835  -4.168  -1.738  1.00  0.00     0.020 A 
ATOM     87  C   UNL     1      11.820  -1.986  -2.067  1.00  0.00     0.020 A 
ATOM     88  C   UNL     1      12.324  -3.180  -2.585  1.00  0.00     0.054 A 
BRANCH  88  89
ATOM     89  S   UNL     1      12.285  -3.494  -4.372  1.00  0.00     0.124 S 
ATOM     90  O   UNL     1      13.700  -3.430  -4.723  1.00  0.00    -0.237 OA
ATOM     91  O   UNL     1      11.673  -4.819  -4.443  1.00  0.00    -0.237 OA
ATOM     92  O   UNL     1      11.461  -2.406  -4.893  1.00  0.00    -0.744 OA
ENDBRANCH  88  89
ENDBRANCH  60  83
BRANCH  72  93
ATOM     93  C   UNL     1      17.415  -1.961   4.925  1.00  0.00    -0.014 A 
ATOM     94  C   UNL     1      18.154  -0.953   4.281  1.00  0.00     0.010 A 
ATOM     95  C   UNL     1      18.104  -3.015   5.555  1.00  0.00     0.010 A 
ATOM     96  C   UNL     1      19.551  -1.017   4.239  1.00  0.00     0.020 A 
ATOM     97  C   UNL     1      19.500  -3.065   5.545  1.00  0.00     0.020 A 
ATOM     98  C   UNL     1      20.215  -2.071   4.874  1.00  0.00     0.054 A 
BRANCH  98  99
ATOM     99  S   UNL     1      22.028  -2.106   4.842  1.00  0.00     0.124 S 
ATOM    100  O   UNL     1      22.302  -2.438   3.447  1.00  0.00    -0.237 OA
ATOM    101  O   UNL     1      22.380  -0.747   5.247  1.00  0.00    -0.237 OA
ATOM    102  O   UNL     1      22.373  -3.147   5.809  1.00  0.00    -0.744 OA
ENDBRANCH  98  99
ENDBRANCH  72  93
ENDBRANCH  46  47
ENDBRANCH  39  41
ENDBRANCH  38  39
ENDBRANCH  37  38
ENDBRANCH  36  37
ENDBRANCH  35  36
ENDBRANCH  34  35
ENDBRANCH  33  34
ENDBRANCH  32  33
ENDBRANCH   1  32
TORSDOF 28
