REMARK SMILES Cc1ccccc1/[NH+]=C1\S[C@@H](CC(=O)Nc2ccc(C(=O)OCCOCCOCCOCCOC(=O)c3ccc(-c4c5nc(c(-c6ccc(S(=O)(=O)[O-])cc6)c6ccc([nH]6)c(-c6ccc(S(=O)(=O)[O-])cc6)c6nc(c(-c7ccc(S(=O)(=O)[O-])cc7)c7ccc4[nH]7)C=C6)C=C5)cc3)cc2)C(=O)N1C
REMARK SMILES IDX 27 1 26 2 25 3 24 4 23 5 22 6 20 7 21 8 19 9 16 10 17 11
REMARK SMILES IDX 98 12 18 13 97 14 15 15 13 16 14 17 12 19 11 20 8 21 9 22
REMARK SMILES IDX 10 24 101 25 99 26 102 27 100 28 7 29 1 30 2 31 3 32 4 33
REMARK SMILES IDX 6 34 5 35 28 36 29 37 30 38 31 39 32 40 33 41 34 42 35 43
REMARK SMILES IDX 36 44 37 45 38 46 96 47 39 48 95 49 40 50 41 51 42 52 89 53
REMARK SMILES IDX 43 54 94 55 88 56 90 57 44 58 93 59 87 60 86 61 45 63 75 64
REMARK SMILES IDX 56 65 74 66 57 67 60 68 73 69 91 70 58 71 59 72 72 74 92 75
REMARK SMILES IDX 61 76 46 77 47 78 55 79 48 80 54 81 49 82 50 83 51 84 52 85
REMARK SMILES IDX 53 86 76 87 77 88 85 89 78 90 84 91 79 92 80 93 81 94 82 95
REMARK SMILES IDX 83 96 62 97 63 98 71 99 64 100 70 101 65 102 66 103 67 104
REMARK SMILES IDX 68 105 69 106
REMARK H PARENT 15 18 8 23 90 62 60 73
REMARK Flexibility Score: inf
ROOT
ATOM      1  C   UNL     1       6.843   8.951  -2.093  1.00  0.00     0.188 C 
ENDROOT
BRANCH   1   2
ATOM      2  C   UNL     1       6.409   9.873  -3.505  1.00  0.00     0.188 C 
BRANCH   2   3
ATOM      3  O   UNL     1       5.740   9.475  -5.140  1.00  0.00    -0.376 OA
BRANCH   3   4
ATOM      4  C   UNL     1       4.588   8.238  -5.776  1.00  0.00     0.202 C 
BRANCH   4   5
ATOM      5  C   UNL     1       4.215   6.490  -5.094  1.00  0.00     0.261 C 
BRANCH   5   6
ATOM      6  O   UNL     1       5.228   5.526  -3.962  1.00  0.00    -0.460 OA
BRANCH   6   7
ATOM      7  C   UNL     1       6.593   5.316  -3.526  1.00  0.00     0.338 C 
ATOM      8  O   UNL     1       7.669   5.798  -3.898  1.00  0.00    -0.246 OA
BRANCH   7   9
ATOM      9  C   UNL     1       6.992   4.582  -2.326  1.00  0.00     0.060 A 
ATOM     10  C   UNL     1       7.734   3.277   0.059  1.00  0.00     0.041 A 
ATOM     11  C   UNL     1       6.620   2.983  -0.714  1.00  0.00     0.027 A 
ATOM     12  C   UNL     1       8.536   4.307  -0.386  1.00  0.00     0.027 A 
ATOM     13  C   UNL     1       6.280   3.514  -1.936  1.00  0.00     0.018 A 
ATOM     14  C   UNL     1       8.143   4.975  -1.557  1.00  0.00     0.018 A 
BRANCH  10  15
ATOM     15  N   UNL     1       7.959   2.609   1.280  1.00  0.00    -0.326 N 
ATOM     16  C   UNL     1       7.342   1.495   1.808  1.00  0.00     0.226 C 
ATOM     17  O   UNL     1       7.545   1.205   2.992  1.00  0.00    -0.275 OA
ATOM     18  H   UNL     1       8.666   2.999   1.843  1.00  0.00     0.169 HD
BRANCH  16  19
ATOM     19  C   UNL     1       6.486   0.553   0.960  1.00  0.00     0.128 C 
BRANCH  19  20
ATOM     20  C   UNL     1       4.993   0.608   1.312  1.00  0.00     0.183 C 
ATOM     21  N   UNL     1       1.508   0.853  -0.041  1.00  0.00    -0.234 N 
ATOM     22  C   UNL     1       2.779   0.760   0.048  1.00  0.00     0.319 C 
ATOM     23  H   UNL     1       1.207   1.787  -0.126  1.00  0.00     0.313 HD
ATOM     24  S   UNL     1       4.012  -0.440   0.141  1.00  0.00    -0.022 SA
ATOM     25  N   UNL     1       3.418   1.931   0.150  1.00  0.00    -0.193 N 
ATOM     26  C   UNL     1       4.344   1.983   1.152  1.00  0.00     0.324 C 
ATOM     27  C   UNL     1       3.251   2.843  -0.932  1.00  0.00     0.301 C 
ATOM     28  O   UNL     1       4.644   2.978   1.797  1.00  0.00    -0.245 OA
BRANCH  21  29
ATOM     29  C   UNL     1       0.458  -0.039  -0.045  1.00  0.00     0.128 A 
ATOM     30  C   UNL     1       1.609  -2.034   1.056  1.00  0.00     0.049 C 
ATOM     31  C   UNL     1       0.445  -1.357   0.413  1.00  0.00    -0.004 A 
ATOM     32  C   UNL     1      -0.740  -2.101   0.306  1.00  0.00     0.008 A 
ATOM     33  C   UNL     1      -1.932  -1.511  -0.107  1.00  0.00     0.001 A 
ATOM     34  C   UNL     1      -0.764   0.552  -0.426  1.00  0.00     0.052 A 
ATOM     35  C   UNL     1      -1.956  -0.166  -0.439  1.00  0.00     0.004 A 
ENDBRANCH  21  29
ENDBRANCH  19  20
ENDBRANCH  16  19
ENDBRANCH  10  15
ENDBRANCH   7   9
ENDBRANCH   6   7
ENDBRANCH   5   6
ENDBRANCH   4   5
ENDBRANCH   3   4
ENDBRANCH   2   3
ENDBRANCH   1   2
BRANCH   1  36
ATOM     36  O   UNL     1       6.071   8.544  -0.935  1.00  0.00    -0.377 OA
BRANCH  36  37
ATOM     37  C   UNL     1       5.158   9.303  -0.150  1.00  0.00     0.188 C 
BRANCH  37  38
ATOM     38  C   UNL     1       4.714  10.544  -0.822  1.00  0.00     0.188 C 
BRANCH  38  39
ATOM     39  O   UNL     1       5.813  11.406  -1.045  1.00  0.00    -0.376 OA
BRANCH  39  40
ATOM     40  C   UNL     1       5.924  12.445  -0.099  1.00  0.00     0.202 C 
BRANCH  40  41
ATOM     41  C   UNL     1       4.670  13.332  -0.089  1.00  0.00     0.261 C 
BRANCH  41  42
ATOM     42  O   UNL     1       4.297  13.621  -1.460  1.00  0.00    -0.460 OA
BRANCH  42  43
ATOM     43  C   UNL     1       2.977  13.399  -1.787  1.00  0.00     0.338 C 
ATOM     44  O   UNL     1       2.045  13.961  -1.273  1.00  0.00    -0.246 OA
BRANCH  43  45
ATOM     45  C   UNL     1       2.926  12.308  -2.818  1.00  0.00     0.060 A 
ATOM     46  C   UNL     1       2.062  11.222  -2.773  1.00  0.00     0.016 A 
ATOM     47  C   UNL     1       3.881  12.246  -3.788  1.00  0.00     0.016 A 
ATOM     48  C   UNL     1       2.453   9.952  -3.321  1.00  0.00     0.010 A 
ATOM     49  C   UNL     1       4.151  11.005  -4.387  1.00  0.00     0.010 A 
ATOM     50  C   UNL     1       3.736   9.726  -3.849  1.00  0.00    -0.014 A 
BRANCH  50  51
ATOM     51  C   UNL     1       4.785   8.221  -3.527  1.00  0.00     0.031 A 
ATOM     52  C   UNL     1       6.358   7.620  -4.589  1.00  0.00     0.074 A 
ATOM     53  C   UNL     1       4.144   7.488  -2.544  1.00  0.00     0.049 A 
ATOM     54  N   UNL     1       6.289   6.648  -5.573  1.00  0.00    -0.248 NA
ATOM     55  C   UNL     1       7.687   8.335  -5.157  1.00  0.00     0.031 C 
ATOM     56  C   UNL     1       4.609   6.448  -1.632  1.00  0.00     0.029 A 
ATOM     57  N   UNL     1       2.771   7.508  -2.238  1.00  0.00    -0.354 N 
ATOM     58  C   UNL     1       7.373   6.461  -6.378  1.00  0.00     0.074 A 
ATOM     59  C   UNL     1       8.034   7.703  -6.285  1.00  0.00     0.031 C 
ATOM     60  C   UNL     1       3.565   5.836  -1.065  1.00  0.00     0.029 A 
ATOM     61  C   UNL     1       2.364   6.311  -1.658  1.00  0.00     0.049 A 
ATOM     62  H   UNL     1       2.174   8.271  -2.412  1.00  0.00     0.167 HD
ATOM     63  C   UNL     1       7.740   5.262  -6.932  1.00  0.00     0.031 A 
ATOM     64  C   UNL     1       1.359   5.567  -2.178  1.00  0.00     0.031 A 
ATOM     65  C   UNL     1       6.995   4.096  -6.399  1.00  0.00     0.049 A 
ATOM     66  C   UNL     1       1.702   4.451  -3.180  1.00  0.00     0.074 A 
ATOM     67  C   UNL     1       7.362   3.054  -5.557  1.00  0.00     0.029 A 
ATOM     68  N   UNL     1       5.601   3.997  -6.497  1.00  0.00    -0.354 N 
ATOM     69  N   UNL     1       2.858   4.209  -3.775  1.00  0.00    -0.248 NA
ATOM     70  C   UNL     1       0.710   3.424  -3.503  1.00  0.00     0.031 C 
ATOM     71  C   UNL     1       6.180   2.432  -5.053  1.00  0.00     0.029 A 
ATOM     72  C   UNL     1       5.066   3.077  -5.582  1.00  0.00     0.049 A 
ATOM     73  H   UNL     1       5.059   4.513  -7.136  1.00  0.00     0.167 HD
ATOM     74  C   UNL     1       2.733   3.125  -4.656  1.00  0.00     0.074 A 
ATOM     75  C   UNL     1       1.402   2.622  -4.328  1.00  0.00     0.031 C 
ATOM     76  C   UNL     1       3.642   2.664  -5.604  1.00  0.00     0.031 A 
BRANCH  63  77
ATOM     77  C   UNL     1       9.101   5.222  -7.638  1.00  0.00    -0.014 A 
ATOM     78  C   UNL     1      10.020   4.174  -7.463  1.00  0.00     0.010 A 
ATOM     79  C   UNL     1       9.552   6.303  -8.435  1.00  0.00     0.010 A 
ATOM     80  C   UNL     1      11.354   4.274  -7.917  1.00  0.00     0.020 A 
ATOM     81  C   UNL     1      10.894   6.457  -8.817  1.00  0.00     0.020 A 
ATOM     82  C   UNL     1      11.796   5.438  -8.547  1.00  0.00     0.054 A 
BRANCH  82  83
ATOM     83  S   UNL     1      13.540   5.606  -9.027  1.00  0.00     0.124 S 
ATOM     84  O   UNL     1      14.249   5.347  -7.776  1.00  0.00    -0.237 OA
ATOM     85  O   UNL     1      13.681   4.578 -10.055  1.00  0.00    -0.237 OA
ATOM     86  O   UNL     1      13.639   6.982  -9.513  1.00  0.00    -0.744 OA
ENDBRANCH  82  83
ENDBRANCH  63  77
BRANCH  64  87
ATOM     87  C   UNL     1       0.072   6.289  -1.840  1.00  0.00    -0.014 A 
ATOM     88  C   UNL     1      -0.138   6.472  -0.440  1.00  0.00     0.010 A 
ATOM     89  C   UNL     1      -0.411   7.288  -2.703  1.00  0.00     0.010 A 
ATOM     90  C   UNL     1      -0.463   7.733   0.077  1.00  0.00     0.020 A 
ATOM     91  C   UNL     1      -0.787   8.546  -2.182  1.00  0.00     0.020 A 
ATOM     92  C   UNL     1      -0.702   8.782  -0.804  1.00  0.00     0.054 A 
BRANCH  92  93
ATOM     93  S   UNL     1      -0.614  10.480  -0.143  1.00  0.00     0.124 S 
ATOM     94  O   UNL     1      -1.459  10.418   1.044  1.00  0.00    -0.237 OA
ATOM     95  O   UNL     1       0.822  10.603   0.113  1.00  0.00    -0.237 OA
ATOM     96  O   UNL     1      -1.130  11.288  -1.243  1.00  0.00    -0.744 OA
ENDBRANCH  92  93
ENDBRANCH  64  87
BRANCH  76  97
ATOM     97  C   UNL     1       3.339   1.621  -6.715  1.00  0.00    -0.014 A 
ATOM     98  C   UNL     1       2.093   1.054  -7.015  1.00  0.00     0.010 A 
ATOM     99  C   UNL     1       4.393   1.244  -7.598  1.00  0.00     0.010 A 
ATOM    100  C   UNL     1       1.922   0.143  -8.075  1.00  0.00     0.020 A 
ATOM    101  C   UNL     1       4.232   0.380  -8.684  1.00  0.00     0.020 A 
ATOM    102  C   UNL     1       2.992  -0.185  -8.906  1.00  0.00     0.054 A 
BRANCH 102 103
ATOM    103  S   UNL     1       2.731  -1.287 -10.313  1.00  0.00     0.124 S 
ATOM    104  O   UNL     1       2.670  -2.594  -9.666  1.00  0.00    -0.237 OA
ATOM    105  O   UNL     1       1.469  -0.800 -10.866  1.00  0.00    -0.237 OA
ATOM    106  O   UNL     1       3.901  -1.059 -11.156  1.00  0.00    -0.744 OA
ENDBRANCH 102 103
ENDBRANCH  76  97
ENDBRANCH  50  51
ENDBRANCH  43  45
ENDBRANCH  42  43
ENDBRANCH  41  42
ENDBRANCH  40  41
ENDBRANCH  39  40
ENDBRANCH  38  39
ENDBRANCH  37  38
ENDBRANCH  36  37
ENDBRANCH   1  36
TORSDOF 27
