REMARK SMILES O=C(Cc1cc(=O)[nH]c(=O)[nH]1)Nc1cccc(C(=O)OCCOCCOCCOCCOC(=O)c2ccc(-c3c4nc(c(-c5ccc(S(=O)(=O)[O-])cc5)c5ccc([nH]5)c(-c5ccc(S(=O)(=O)[O-])cc5)c5nc(c(-c6ccc(S(=O)(=O)[O-])cc6)c6ccc3[nH]6)C=C5)C=C4)cc2)c1
REMARK SMILES IDX 26 1 25 2 24 3 23 4 22 5 21 6 20 7 18 8 19 9 17 10 13 11
REMARK SMILES IDX 14 12 95 13 15 14 16 15 12 16 1 17 2 18 3 20 4 21 5 22 11 23
REMARK SMILES IDX 6 24 9 25 7 27 8 28 10 29 27 31 28 32 29 33 30 34 31 35
REMARK SMILES IDX 32 36 33 37 34 38 35 39 36 40 94 41 37 42 93 43 38 44 39 45
REMARK SMILES IDX 40 46 87 47 41 48 92 49 86 50 88 51 42 52 91 53 85 54 84 55
REMARK SMILES IDX 43 57 73 58 54 59 72 60 55 61 58 62 71 63 89 64 56 65 57 66
REMARK SMILES IDX 70 68 90 69 59 70 44 71 45 72 53 73 46 74 52 75 47 76 48 77
REMARK SMILES IDX 49 78 50 79 51 80 74 81 75 82 83 83 76 84 82 85 77 86 78 87
REMARK SMILES IDX 79 88 80 89 81 90 60 91 61 92 69 93 62 94 68 95 63 96 64 97
REMARK SMILES IDX 65 98 66 99 67 100
REMARK H PARENT 12 19 11 26 8 30 88 56 58 67
REMARK Flexibility Score: inf
ROOT
ATOM      1  O   UNL     1       0.712   5.830   0.437  1.00  0.00    -0.377 OA
ENDROOT
BRANCH   1   2
ATOM      2  C   UNL     1       0.743   5.832  -0.983  1.00  0.00     0.188 C 
BRANCH   2   3
ATOM      3  C   UNL     1      -0.526   6.173  -1.796  1.00  0.00     0.188 C 
BRANCH   3   4
ATOM      4  O   UNL     1      -1.620   6.611  -1.014  1.00  0.00    -0.376 OA
BRANCH   4   5
ATOM      5  C   UNL     1      -2.747   5.773  -0.852  1.00  0.00     0.202 C 
BRANCH   5   6
ATOM      6  C   UNL     1      -2.564   4.366  -0.268  1.00  0.00     0.261 C 
BRANCH   6   7
ATOM      7  O   UNL     1      -1.432   3.630  -0.742  1.00  0.00    -0.460 OA
BRANCH   7   8
ATOM      8  C   UNL     1      -1.494   3.096  -1.982  1.00  0.00     0.338 C 
ATOM      9  O   UNL     1      -2.410   3.191  -2.779  1.00  0.00    -0.246 OA
BRANCH   8  10
ATOM     10  C   UNL     1      -0.135   2.599  -2.299  1.00  0.00     0.062 A 
ATOM     11  C   UNL     1       1.913   1.516  -1.607  1.00  0.00     0.042 A 
ATOM     12  C   UNL     1       2.534   1.976  -2.776  1.00  0.00     0.026 A 
ATOM     13  C   UNL     1       0.585   1.858  -1.357  1.00  0.00     0.041 A 
ATOM     14  C   UNL     1       1.810   2.700  -3.727  1.00  0.00     0.003 A 
ATOM     15  C   UNL     1       0.467   2.995  -3.499  1.00  0.00     0.016 A 
BRANCH  11  16
ATOM     16  N   UNL     1       2.675   0.721  -0.731  1.00  0.00    -0.326 N 
ATOM     17  O   UNL     1       0.979  -0.395   0.409  1.00  0.00    -0.274 OA
ATOM     18  C   UNL     1       2.167  -0.153   0.220  1.00  0.00     0.230 C 
ATOM     19  H   UNL     1       3.655   0.791  -0.798  1.00  0.00     0.169 HD
BRANCH  18  20
ATOM     20  C   UNL     1       3.247  -0.890   1.006  1.00  0.00     0.154 C 
BRANCH  20  21
ATOM     21  C   UNL     1       3.916  -1.916   0.127  1.00  0.00     0.034 A 
ATOM     22  C   UNL     1       3.525  -3.198   0.074  1.00  0.00     0.093 A 
ATOM     23  N   UNL     1       4.986  -1.503  -0.635  1.00  0.00    -0.311 N 
ATOM     24  C   UNL     1       4.237  -4.137  -0.819  1.00  0.00     0.253 A 
ATOM     25  C   UNL     1       5.647  -2.303  -1.525  1.00  0.00     0.325 A 
ATOM     26  H   UNL     1       5.294  -0.574  -0.533  1.00  0.00     0.171 HD
ATOM     27  O   UNL     1       3.948  -5.327  -0.854  1.00  0.00    -0.269 OA
ATOM     28  N   UNL     1       5.228  -3.597  -1.587  1.00  0.00    -0.274 N 
ATOM     29  O   UNL     1       6.562  -1.867  -2.217  1.00  0.00    -0.248 OA
ATOM     30  H   UNL     1       5.673  -4.188  -2.236  1.00  0.00     0.175 HD
ENDBRANCH  20  21
ENDBRANCH  18  20
ENDBRANCH  11  16
ENDBRANCH   8  10
ENDBRANCH   7   8
ENDBRANCH   6   7
ENDBRANCH   5   6
ENDBRANCH   4   5
ENDBRANCH   3   4
ENDBRANCH   2   3
ENDBRANCH   1   2
BRANCH   1  31
ATOM     31  C   UNL     1      -0.015   6.831   1.141  1.00  0.00     0.188 C 
BRANCH  31  32
ATOM     32  C   UNL     1      -0.140   8.265   0.576  1.00  0.00     0.188 C 
BRANCH  32  33
ATOM     33  O   UNL     1       0.577   8.488  -0.628  1.00  0.00    -0.376 OA
BRANCH  33  34
ATOM     34  C   UNL     1       1.745   9.283  -0.558  1.00  0.00     0.202 C 
BRANCH  34  35
ATOM     35  C   UNL     1       2.904   8.751   0.297  1.00  0.00     0.261 C 
BRANCH  35  36
ATOM     36  O   UNL     1       2.586   8.400   1.651  1.00  0.00    -0.460 OA
BRANCH  36  37
ATOM     37  C   UNL     1       2.215   9.403   2.474  1.00  0.00     0.338 C 
ATOM     38  O   UNL     1       2.125  10.589   2.191  1.00  0.00    -0.246 OA
BRANCH  37  39
ATOM     39  C   UNL     1       1.744   8.802   3.737  1.00  0.00     0.060 A 
ATOM     40  C   UNL     1       0.423   9.025   4.148  1.00  0.00     0.016 A 
ATOM     41  C   UNL     1       2.606   8.021   4.511  1.00  0.00     0.016 A 
ATOM     42  C   UNL     1      -0.026   8.504   5.361  1.00  0.00     0.010 A 
ATOM     43  C   UNL     1       2.160   7.517   5.736  1.00  0.00     0.010 A 
ATOM     44  C   UNL     1       0.856   7.793   6.184  1.00  0.00    -0.014 A 
BRANCH  44  45
ATOM     45  C   UNL     1       0.482   7.530   7.595  1.00  0.00     0.031 A 
ATOM     46  C   UNL     1       1.009   8.460   8.655  1.00  0.00     0.074 A 
ATOM     47  C   UNL     1      -0.335   6.515   7.928  1.00  0.00     0.049 A 
ATOM     48  N   UNL     1       0.829   8.430   9.950  1.00  0.00    -0.248 NA
ATOM     49  C   UNL     1       1.856   9.572   8.191  1.00  0.00     0.031 C 
ATOM     50  C   UNL     1      -0.943   5.573   6.990  1.00  0.00     0.029 A 
ATOM     51  N   UNL     1      -0.791   6.109   9.158  1.00  0.00    -0.354 N 
ATOM     52  C   UNL     1       1.549   9.508  10.454  1.00  0.00     0.074 A 
ATOM     53  C   UNL     1       2.193  10.152   9.332  1.00  0.00     0.031 C 
ATOM     54  C   UNL     1      -1.689   4.693   7.680  1.00  0.00     0.029 A 
ATOM     55  C   UNL     1      -1.584   4.987   9.109  1.00  0.00     0.049 A 
ATOM     56  H   UNL     1      -0.571   6.576   9.995  1.00  0.00     0.167 HD
ATOM     57  C   UNL     1       1.659   9.927  11.737  1.00  0.00     0.031 A 
ATOM     58  C   UNL     1      -2.143   4.269  10.104  1.00  0.00     0.031 A 
ATOM     59  C   UNL     1       1.026   9.275  12.852  1.00  0.00     0.049 A 
ATOM     60  C   UNL     1      -1.952   4.716  11.532  1.00  0.00     0.074 A 
ATOM     61  C   UNL     1       1.058   9.634  14.188  1.00  0.00     0.029 A 
ATOM     62  N   UNL     1       0.259   8.123  12.765  1.00  0.00    -0.354 N 
ATOM     63  N   UNL     1      -1.297   5.756  11.992  1.00  0.00    -0.248 NA
ATOM     64  C   UNL     1      -2.587   3.897  12.575  1.00  0.00     0.031 C 
ATOM     65  C   UNL     1       0.370   8.659  14.917  1.00  0.00     0.029 A 
ATOM     66  C   UNL     1      -0.159   7.737  14.027  1.00  0.00     0.049 A 
ATOM     67  H   UNL     1       0.044   7.649  11.929  1.00  0.00     0.167 HD
ATOM     68  C   UNL     1      -1.468   5.734  13.373  1.00  0.00     0.074 A 
ATOM     69  C   UNL     1      -2.300   4.587  13.671  1.00  0.00     0.031 C 
ATOM     70  C   UNL     1      -0.984   6.588  14.310  1.00  0.00     0.031 A 
BRANCH  57  71
ATOM     71  C   UNL     1       2.537  11.122  12.006  1.00  0.00    -0.014 A 
ATOM     72  C   UNL     1       2.175  12.414  11.581  1.00  0.00     0.010 A 
ATOM     73  C   UNL     1       3.734  10.951  12.726  1.00  0.00     0.010 A 
ATOM     74  C   UNL     1       3.013  13.503  11.834  1.00  0.00     0.020 A 
ATOM     75  C   UNL     1       4.559  12.043  13.010  1.00  0.00     0.020 A 
ATOM     76  C   UNL     1       4.201  13.310  12.546  1.00  0.00     0.054 A 
BRANCH  76  77
ATOM     77  S   UNL     1       5.258  14.745  12.880  1.00  0.00     0.124 S 
ATOM     78  O   UNL     1       5.787  15.045  11.551  1.00  0.00    -0.237 OA
ATOM     79  O   UNL     1       4.312  15.721  13.415  1.00  0.00    -0.237 OA
ATOM     80  O   UNL     1       6.238  14.240  13.839  1.00  0.00    -0.744 OA
ENDBRANCH  76  77
ENDBRANCH  57  71
BRANCH  58  81
ATOM     81  C   UNL     1      -2.920   3.038   9.787  1.00  0.00    -0.014 A 
ATOM     82  C   UNL     1      -4.308   2.981  10.003  1.00  0.00     0.010 A 
ATOM     83  C   UNL     1      -2.265   1.908   9.261  1.00  0.00     0.010 A 
ATOM     84  C   UNL     1      -5.023   1.815   9.713  1.00  0.00     0.020 A 
ATOM     85  C   UNL     1      -2.981   0.752   8.940  1.00  0.00     0.020 A 
ATOM     86  C   UNL     1      -4.355   0.709   9.177  1.00  0.00     0.054 A 
BRANCH  86  87
ATOM     87  S   UNL     1      -5.314  -0.772   8.755  1.00  0.00     0.124 S 
ATOM     88  O   UNL     1      -5.664  -1.294  10.072  1.00  0.00    -0.237 OA
ATOM     89  O   UNL     1      -6.420  -0.217   7.978  1.00  0.00    -0.237 OA
ATOM     90  O   UNL     1      -4.371  -1.584   7.990  1.00  0.00    -0.744 OA
ENDBRANCH  86  87
ENDBRANCH  58  81
BRANCH  70  91
ATOM     91  C   UNL     1      -1.374   6.343  15.747  1.00  0.00    -0.014 A 
ATOM     92  C   UNL     1      -0.880   5.241  16.467  1.00  0.00     0.010 A 
ATOM     93  C   UNL     1      -2.211   7.266  16.401  1.00  0.00     0.010 A 
ATOM     94  C   UNL     1      -1.249   5.045  17.801  1.00  0.00     0.020 A 
ATOM     95  C   UNL     1      -2.554   7.093  17.745  1.00  0.00     0.020 A 
ATOM     96  C   UNL     1      -2.084   5.973  18.431  1.00  0.00     0.054 A 
BRANCH  96  97
ATOM     97  S   UNL     1      -2.523   5.712  20.172  1.00  0.00     0.124 S 
ATOM     98  O   UNL     1      -3.435   4.575  20.089  1.00  0.00    -0.237 OA
ATOM     99  O   UNL     1      -1.228   5.436  20.790  1.00  0.00    -0.237 OA
ATOM    100  O   UNL     1      -3.138   6.977  20.569  1.00  0.00    -0.744 OA
ENDBRANCH  96  97
ENDBRANCH  70  91
ENDBRANCH  44  45
ENDBRANCH  37  39
ENDBRANCH  36  37
ENDBRANCH  35  36
ENDBRANCH  34  35
ENDBRANCH  33  34
ENDBRANCH  32  33
ENDBRANCH  31  32
ENDBRANCH   1  31
TORSDOF 26
