REMARK SMILES C[C@H]1[C@H](C(=O)OCCOCCOCCOCCOC(=O)c2ccc(-c3c4nc(c(-c5ccc(S(=O)(=O)[O-])cc5)c5ccc([nH]5)c(-c5ccc(S(=O)(=O)[O-])cc5)c5nc(c(-c6ccc(S(=O)(=O)[O-])cc6)c6ccc3[nH]6)C=C5)C=C4)cc2)CCN1C(=O)c1ccc2ccccc2c1
REMARK SMILES IDX 13 1 12 2 11 3 10 4 9 5 8 6 7 7 6 8 4 9 5 10 3 11 1 12 2 13
REMARK SMILES IDX 83 14 81 15 82 16 84 17 85 18 86 19 87 20 95 21 88 22 94 23
REMARK SMILES IDX 89 24 93 25 90 26 92 27 91 28 14 29 15 30 16 31 17 32 18 33
REMARK SMILES IDX 19 34 20 35 21 36 22 37 80 38 23 39 79 40 24 41 25 42 26 43
REMARK SMILES IDX 73 44 27 45 78 46 72 47 74 48 28 49 77 50 71 51 70 52 29 54
REMARK SMILES IDX 59 55 40 56 58 57 41 58 44 59 57 60 75 61 42 62 43 63 56 65
REMARK SMILES IDX 76 66 45 67 30 68 31 69 39 70 32 71 38 72 33 73 34 74 35 75
REMARK SMILES IDX 36 76 37 77 60 78 61 79 69 80 62 81 68 82 63 83 64 84 65 85
REMARK SMILES IDX 66 86 67 87 46 88 47 89 55 90 48 91 54 92 49 93 50 94 51 95
REMARK SMILES IDX 52 96 53 97
REMARK H PARENT 74 53 44 64
REMARK Flexibility Score: inf
ROOT
ATOM      1  C   UNL     1       2.448   2.132   4.319  1.00  0.00     0.188 C 
ENDROOT
BRANCH   1   2
ATOM      2  O   UNL     1       1.537   1.989   3.239  1.00  0.00    -0.377 OA
BRANCH   2   3
ATOM      3  C   UNL     1       2.007   2.355   1.961  1.00  0.00     0.188 C 
BRANCH   3   4
ATOM      4  C   UNL     1       1.599   3.746   1.454  1.00  0.00     0.188 C 
BRANCH   4   5
ATOM      5  O   UNL     1       0.856   4.643   2.265  1.00  0.00    -0.376 OA
BRANCH   5   6
ATOM      6  C   UNL     1      -0.084   4.163   3.214  1.00  0.00     0.202 C 
BRANCH   6   7
ATOM      7  C   UNL     1      -1.221   3.216   2.785  1.00  0.00     0.261 C 
BRANCH   7   8
ATOM      8  O   UNL     1      -0.857   2.060   1.998  1.00  0.00    -0.463 OA
BRANCH   8   9
ATOM      9  C   UNL     1      -1.114   2.136   0.673  1.00  0.00     0.311 C 
ATOM     10  O   UNL     1      -1.606   3.118   0.122  1.00  0.00    -0.252 OA
BRANCH   9  11
ATOM     11  C   UNL     1      -0.814   0.872  -0.118  1.00  0.00     0.123 C 
ATOM     12  C   UNL     1       1.464  -0.105  -0.582  1.00  0.00     0.032 C 
ATOM     13  C   UNL     1       0.246  -0.156   0.361  1.00  0.00     0.096 C 
ATOM     14  N   UNL     1      -0.416  -1.460   0.275  1.00  0.00    -0.335 N 
ATOM     15  C   UNL     1      -2.112   0.080  -0.247  1.00  0.00     0.039 C 
ATOM     16  C   UNL     1      -1.671  -1.353  -0.435  1.00  0.00     0.121 C 
BRANCH  14  17
ATOM     17  C   UNL     1       0.002  -2.689   0.760  1.00  0.00     0.254 C 
ATOM     18  O   UNL     1      -0.712  -3.690   0.746  1.00  0.00    -0.269 OA
BRANCH  17  19
ATOM     19  C   UNL     1       1.410  -2.884   1.165  1.00  0.00     0.040 A 
ATOM     20  C   UNL     1       2.268  -3.406   0.192  1.00  0.00     0.014 A 
ATOM     21  C   UNL     1       1.846  -2.746   2.486  1.00  0.00     0.022 A 
ATOM     22  C   UNL     1       3.588  -3.720   0.513  1.00  0.00     0.009 A 
ATOM     23  C   UNL     1       3.154  -3.149   2.839  1.00  0.00    -0.018 A 
ATOM     24  C   UNL     1       4.043  -3.603   1.831  1.00  0.00    -0.018 A 
ATOM     25  C   UNL     1       3.596  -3.179   4.173  1.00  0.00     0.009 A 
ATOM     26  C   UNL     1       5.350  -3.990   2.167  1.00  0.00     0.009 A 
ATOM     27  C   UNL     1       4.874  -3.650   4.499  1.00  0.00     0.001 A 
ATOM     28  C   UNL     1       5.761  -4.026   3.496  1.00  0.00     0.001 A 
ENDBRANCH  17  19
ENDBRANCH  14  17
ENDBRANCH   9  11
ENDBRANCH   8   9
ENDBRANCH   7   8
ENDBRANCH   6   7
ENDBRANCH   5   6
ENDBRANCH   4   5
ENDBRANCH   3   4
ENDBRANCH   2   3
ENDBRANCH   1   2
BRANCH   1  29
ATOM     29  C   UNL     1       3.390   3.349   4.282  1.00  0.00     0.188 C 
BRANCH  29  30
ATOM     30  O   UNL     1       4.112   3.483   3.062  1.00  0.00    -0.376 OA
BRANCH  30  31
ATOM     31  C   UNL     1       5.417   2.929   2.964  1.00  0.00     0.202 C 
BRANCH  31  32
ATOM     32  C   UNL     1       5.583   1.402   3.072  1.00  0.00     0.261 C 
BRANCH  32  33
ATOM     33  O   UNL     1       5.121   0.783   4.281  1.00  0.00    -0.460 OA
BRANCH  33  34
ATOM     34  C   UNL     1       5.599   1.244   5.454  1.00  0.00     0.338 C 
ATOM     35  O   UNL     1       6.458   2.097   5.612  1.00  0.00    -0.246 OA
BRANCH  34  36
ATOM     36  C   UNL     1       4.757   0.692   6.535  1.00  0.00     0.060 A 
ATOM     37  C   UNL     1       4.092   1.568   7.398  1.00  0.00     0.016 A 
ATOM     38  C   UNL     1       4.635  -0.688   6.702  1.00  0.00     0.016 A 
ATOM     39  C   UNL     1       3.358   1.066   8.471  1.00  0.00     0.010 A 
ATOM     40  C   UNL     1       3.902  -1.195   7.778  1.00  0.00     0.010 A 
ATOM     41  C   UNL     1       3.312  -0.316   8.702  1.00  0.00    -0.014 A 
BRANCH  41  42
ATOM     42  C   UNL     1       2.890  -0.801  10.040  1.00  0.00     0.031 A 
ATOM     43  C   UNL     1       3.968  -1.172  11.028  1.00  0.00     0.074 A 
ATOM     44  C   UNL     1       1.595  -0.839  10.405  1.00  0.00     0.049 A 
ATOM     45  N   UNL     1       3.857  -1.583  12.264  1.00  0.00    -0.248 NA
ATOM     46  C   UNL     1       5.360  -1.064  10.556  1.00  0.00     0.031 C 
ATOM     47  C   UNL     1       0.464  -0.463   9.558  1.00  0.00     0.029 A 
ATOM     48  N   UNL     1       1.019  -1.204  11.595  1.00  0.00    -0.354 N 
ATOM     49  C   UNL     1       5.158  -1.792  12.710  1.00  0.00     0.074 A 
ATOM     50  C   UNL     1       6.039  -1.507  11.601  1.00  0.00     0.031 C 
ATOM     51  C   UNL     1      -0.673  -0.610  10.262  1.00  0.00     0.029 A 
ATOM     52  C   UNL     1      -0.353  -1.118  11.595  1.00  0.00     0.049 A 
ATOM     53  H   UNL     1       1.539  -1.500  12.377  1.00  0.00     0.167 HD
ATOM     54  C   UNL     1       5.587  -2.170  13.937  1.00  0.00     0.031 A 
ATOM     55  C   UNL     1      -1.247  -1.422  12.558  1.00  0.00     0.031 A 
ATOM     56  C   UNL     1       4.710  -2.457  15.039  1.00  0.00     0.049 A 
ATOM     57  C   UNL     1      -0.749  -1.907  13.897  1.00  0.00     0.074 A 
ATOM     58  C   UNL     1       5.043  -2.835  16.328  1.00  0.00     0.029 A 
ATOM     59  N   UNL     1       3.325  -2.401  14.983  1.00  0.00    -0.354 N 
ATOM     60  N   UNL     1       0.486  -2.075  14.310  1.00  0.00    -0.248 NA
ATOM     61  C   UNL     1      -1.768  -2.224  14.907  1.00  0.00     0.031 C 
ATOM     62  C   UNL     1       3.858  -3.073  17.031  1.00  0.00     0.029 A 
ATOM     63  C   UNL     1       2.788  -2.766  16.206  1.00  0.00     0.049 A 
ATOM     64  H   UNL     1       2.802  -2.141  14.191  1.00  0.00     0.167 HD
ATOM     65  C   UNL     1       0.390  -2.485  15.638  1.00  0.00     0.074 A 
ATOM     66  C   UNL     1      -1.021  -2.520  15.961  1.00  0.00     0.031 C 
ATOM     67  C   UNL     1       1.380  -2.800  16.512  1.00  0.00     0.031 A 
BRANCH  54  68
ATOM     68  C   UNL     1       7.072  -2.330  14.135  1.00  0.00    -0.014 A 
ATOM     69  C   UNL     1       7.939  -1.221  14.130  1.00  0.00     0.010 A 
ATOM     70  C   UNL     1       7.607  -3.613  14.354  1.00  0.00     0.010 A 
ATOM     71  C   UNL     1       9.315  -1.397  14.299  1.00  0.00     0.020 A 
ATOM     72  C   UNL     1       8.978  -3.789  14.558  1.00  0.00     0.020 A 
ATOM     73  C   UNL     1       9.826  -2.681  14.512  1.00  0.00     0.054 A 
BRANCH  73  74
ATOM     74  S   UNL     1      11.613  -2.876  14.753  1.00  0.00     0.124 S 
ATOM     75  O   UNL     1      12.129  -2.598  13.415  1.00  0.00    -0.237 OA
ATOM     76  O   UNL     1      11.910  -1.864  15.764  1.00  0.00    -0.237 OA
ATOM     77  O   UNL     1      11.754  -4.260  15.199  1.00  0.00    -0.744 OA
ENDBRANCH  73  74
ENDBRANCH  54  68
BRANCH  55  78
ATOM     78  C   UNL     1      -2.707  -1.285  12.294  1.00  0.00    -0.014 A 
ATOM     79  C   UNL     1      -3.478  -0.322  12.970  1.00  0.00     0.010 A 
ATOM     80  C   UNL     1      -3.340  -2.134  11.367  1.00  0.00     0.010 A 
ATOM     81  C   UNL     1      -4.854  -0.225  12.740  1.00  0.00     0.020 A 
ATOM     82  C   UNL     1      -4.709  -2.018  11.110  1.00  0.00     0.020 A 
ATOM     83  C   UNL     1      -5.460  -1.071  11.807  1.00  0.00     0.054 A 
BRANCH  83  84
ATOM     84  S   UNL     1      -7.237  -0.890  11.488  1.00  0.00     0.124 S 
ATOM     85  O   UNL     1      -7.822  -1.404  12.722  1.00  0.00    -0.237 OA
ATOM     86  O   UNL     1      -7.371   0.549  11.273  1.00  0.00    -0.237 OA
ATOM     87  O   UNL     1      -7.457  -1.712  10.300  1.00  0.00    -0.744 OA
ENDBRANCH  83  84
ENDBRANCH  55  78
BRANCH  67  88
ATOM     88  C   UNL     1       0.975  -3.163  17.919  1.00  0.00    -0.014 A 
ATOM     89  C   UNL     1       0.289  -4.356  18.206  1.00  0.00     0.010 A 
ATOM     90  C   UNL     1       1.322  -2.303  18.979  1.00  0.00     0.010 A 
ATOM     91  C   UNL     1      -0.092  -4.655  19.517  1.00  0.00     0.020 A 
ATOM     92  C   UNL     1       0.976  -2.617  20.296  1.00  0.00     0.020 A 
ATOM     93  C   UNL     1       0.251  -3.781  20.554  1.00  0.00     0.054 A 
BRANCH  93  94
ATOM     94  S   UNL     1      -0.246  -4.196  22.248  1.00  0.00     0.124 S 
ATOM     95  O   UNL     1      -1.687  -3.964  22.207  1.00  0.00    -0.237 OA
ATOM     96  O   UNL     1       0.163  -5.593  22.367  1.00  0.00    -0.237 OA
ATOM     97  O   UNL     1       0.513  -3.258  23.072  1.00  0.00    -0.744 OA
ENDBRANCH  93  94
ENDBRANCH  67  88
ENDBRANCH  41  42
ENDBRANCH  34  36
ENDBRANCH  33  34
ENDBRANCH  32  33
ENDBRANCH  31  32
ENDBRANCH  30  31
ENDBRANCH  29  30
ENDBRANCH   1  29
TORSDOF 25
