REMARK SMILES COC(=O)c1ccc(-c2ccc(C(=O)OCCOCCOCCOCCOC(=O)c3ccc(-c4c5nc(c(-c6ccc(S(=O)(=O)[O-])cc6)c6ccc([nH]6)c(-c6ccc(S(=O)(=O)[O-])cc6)c6nc(c(-c7ccc(S(=O)(=O)[O-])cc7)c7ccc4[nH]7)C=C6)C=C5)cc3)cc2O)cc1F
REMARK SMILES IDX 21 1 20 2 19 3 18 4 17 5 16 6 15 7 13 8 14 9 12 10 9 11
REMARK SMILES IDX 10 12 91 13 11 14 90 15 8 16 5 17 6 18 94 19 7 20 93 21
REMARK SMILES IDX 95 22 3 23 4 24 2 25 1 26 92 27 22 29 23 30 24 31 25 32
REMARK SMILES IDX 26 33 27 34 28 35 29 36 30 37 31 38 89 39 32 40 88 41 33 42
REMARK SMILES IDX 34 43 35 44 82 45 36 46 87 47 81 48 83 49 37 50 86 51 80 52
REMARK SMILES IDX 79 53 38 55 68 56 49 57 67 58 50 59 53 60 66 61 84 62 51 63
REMARK SMILES IDX 52 64 65 66 85 67 54 68 39 69 40 70 48 71 41 72 47 73 42 74
REMARK SMILES IDX 43 75 44 76 45 77 46 78 69 79 70 80 78 81 71 82 77 83 72 84
REMARK SMILES IDX 73 85 74 86 75 87 76 88 55 89 56 90 64 91 57 92 63 93 58 94
REMARK SMILES IDX 59 95 60 96 61 97 62 98
REMARK H PARENT 92 28 83 54 53 65
REMARK Flexibility Score: inf
ROOT
ATOM      1  O   UNL     1      -2.090 -10.554  -7.705  1.00  0.00    -0.377 OA
ENDROOT
BRANCH   1   2
ATOM      2  C   UNL     1      -1.165 -10.714  -6.641  1.00  0.00     0.188 C 
BRANCH   2   3
ATOM      3  C   UNL     1      -1.372 -11.920  -5.703  1.00  0.00     0.188 C 
BRANCH   3   4
ATOM      4  O   UNL     1      -2.238 -12.908  -6.229  1.00  0.00    -0.376 OA
BRANCH   4   5
ATOM      5  C   UNL     1      -3.576 -13.002  -5.778  1.00  0.00     0.202 C 
BRANCH   5   6
ATOM      6  C   UNL     1      -4.499 -11.774  -5.724  1.00  0.00     0.261 C 
BRANCH   6   7
ATOM      7  O   UNL     1      -3.898 -10.530  -5.360  1.00  0.00    -0.460 OA
BRANCH   7   8
ATOM      8  C   UNL     1      -3.606 -10.345  -4.057  1.00  0.00     0.338 C 
ATOM      9  O   UNL     1      -3.804 -11.125  -3.143  1.00  0.00    -0.246 OA
BRANCH   8  10
ATOM     10  C   UNL     1      -2.794  -9.110  -3.943  1.00  0.00     0.063 A 
ATOM     11  C   UNL     1      -1.261  -6.785  -3.584  1.00  0.00     0.024 A 
ATOM     12  C   UNL     1      -0.904  -7.979  -2.937  1.00  0.00     0.013 A 
ATOM     13  C   UNL     1      -2.335  -6.815  -4.497  1.00  0.00     0.124 A 
ATOM     14  C   UNL     1      -1.675  -9.130  -3.102  1.00  0.00     0.016 A 
ATOM     15  C   UNL     1      -3.099  -7.965  -4.685  1.00  0.00     0.062 A 
BRANCH  11  16
ATOM     16  C   UNL     1      -0.646  -5.520  -3.163  1.00  0.00    -0.012 A 
ATOM     17  C   UNL     1       0.417  -3.086  -2.227  1.00  0.00     0.095 A 
ATOM     18  C   UNL     1       1.220  -3.973  -2.959  1.00  0.00     0.019 A 
ATOM     19  C   UNL     1      -0.912  -3.412  -1.978  1.00  0.00     0.138 A 
ATOM     20  C   UNL     1       0.692  -5.190  -3.416  1.00  0.00     0.010 A 
ATOM     21  C   UNL     1      -1.436  -4.613  -2.435  1.00  0.00     0.049 A 
ATOM     22  F   UNL     1      -1.730  -2.582  -1.316  1.00  0.00    -0.206 F 
BRANCH  17  23
ATOM     23  C   UNL     1       0.992  -1.807  -1.769  1.00  0.00     0.340 C 
ATOM     24  O   UNL     1       1.881  -1.218  -2.363  1.00  0.00    -0.246 OA
BRANCH  23  25
ATOM     25  O   UNL     1       0.442  -1.443  -0.585  1.00  0.00    -0.465 OA
ATOM     26  C   UNL     1       0.902  -0.192  -0.079  1.00  0.00     0.282 C 
ENDBRANCH  23  25
ENDBRANCH  17  23
ENDBRANCH  11  16
BRANCH  13  27
ATOM     27  O   UNL     1      -2.653  -5.671  -5.181  1.00  0.00    -0.507 OA
ATOM     28  H   UNL     1      -2.143  -4.895  -5.059  1.00  0.00     0.293 HD
ENDBRANCH  13  27
ENDBRANCH   8  10
ENDBRANCH   7   8
ENDBRANCH   6   7
ENDBRANCH   5   6
ENDBRANCH   4   5
ENDBRANCH   3   4
ENDBRANCH   2   3
ENDBRANCH   1   2
BRANCH   1  29
ATOM     29  C   UNL     1      -2.237 -11.587  -8.680  1.00  0.00     0.188 C 
BRANCH  29  30
ATOM     30  C   UNL     1      -1.266 -12.791  -8.785  1.00  0.00     0.188 C 
BRANCH  30  31
ATOM     31  O   UNL     1      -0.028 -12.624  -8.115  1.00  0.00    -0.376 OA
BRANCH  31  32
ATOM     32  C   UNL     1       1.130 -12.417  -8.902  1.00  0.00     0.202 C 
BRANCH  32  33
ATOM     33  C   UNL     1       1.183 -11.122  -9.723  1.00  0.00     0.261 C 
BRANCH  33  34
ATOM     34  O   UNL     1       0.073 -10.886 -10.601  1.00  0.00    -0.460 OA
BRANCH  34  35
ATOM     35  C   UNL     1      -0.093 -11.750 -11.631  1.00  0.00     0.338 C 
ATOM     36  O   UNL     1       0.594 -12.709 -11.900  1.00  0.00    -0.246 OA
BRANCH  35  37
ATOM     37  C   UNL     1      -1.387 -11.421 -12.271  1.00  0.00     0.060 A 
ATOM     38  C   UNL     1      -2.406 -12.382 -12.291  1.00  0.00     0.016 A 
ATOM     39  C   UNL     1      -1.592 -10.158 -12.830  1.00  0.00     0.016 A 
ATOM     40  C   UNL     1      -3.628 -12.089 -12.899  1.00  0.00     0.010 A 
ATOM     41  C   UNL     1      -2.808  -9.874 -13.456  1.00  0.00     0.010 A 
ATOM     42  C   UNL     1      -3.820 -10.848 -13.520  1.00  0.00    -0.014 A 
BRANCH  42  43
ATOM     43  C   UNL     1      -4.994 -10.629 -14.400  1.00  0.00     0.031 A 
ATOM     44  C   UNL     1      -4.805 -10.778 -15.886  1.00  0.00     0.074 A 
ATOM     45  C   UNL     1      -6.200 -10.308 -13.899  1.00  0.00     0.049 A 
ATOM     46  N   UNL     1      -5.656 -10.567 -16.855  1.00  0.00    -0.248 NA
ATOM     47  C   UNL     1      -3.475 -11.222 -16.338  1.00  0.00     0.031 C 
ATOM     48  C   UNL     1      -6.522 -10.183 -12.478  1.00  0.00     0.029 A 
ATOM     49  N   UNL     1      -7.380 -10.017 -14.538  1.00  0.00    -0.354 N 
ATOM     50  C   UNL     1      -4.964 -10.841 -18.030  1.00  0.00     0.074 A 
ATOM     51  C   UNL     1      -3.616 -11.204 -17.654  1.00  0.00     0.031 C 
ATOM     52  C   UNL     1      -7.814  -9.830 -12.354  1.00  0.00     0.029 A 
ATOM     53  C   UNL     1      -8.398  -9.664 -13.685  1.00  0.00     0.049 A 
ATOM     54  H   UNL     1      -7.486 -10.058 -15.516  1.00  0.00     0.167 HD
ATOM     55  C   UNL     1      -5.412 -10.798 -19.307  1.00  0.00     0.031 A 
ATOM     56  C   UNL     1      -9.648  -9.230 -13.949  1.00  0.00     0.031 A 
ATOM     57  C   UNL     1      -6.749 -10.419 -19.677  1.00  0.00     0.049 A 
ATOM     58  C   UNL     1     -10.097  -9.103 -15.384  1.00  0.00     0.074 A 
ATOM     59  C   UNL     1      -7.304 -10.354 -20.943  1.00  0.00     0.029 A 
ATOM     60  N   UNL     1      -7.739 -10.033 -18.785  1.00  0.00    -0.354 N 
ATOM     61  N   UNL     1      -9.439  -9.388 -16.484  1.00  0.00    -0.248 NA
ATOM     62  C   UNL     1     -11.460  -8.602 -15.613  1.00  0.00     0.031 C 
ATOM     63  C   UNL     1      -8.608  -9.865 -20.822  1.00  0.00     0.029 A 
ATOM     64  C   UNL     1      -8.891  -9.698 -19.476  1.00  0.00     0.049 A 
ATOM     65  H   UNL     1      -7.637 -10.002 -17.807  1.00  0.00     0.167 HD
ATOM     66  C   UNL     1     -10.320  -9.132 -17.531  1.00  0.00     0.074 A 
ATOM     67  C   UNL     1     -11.561  -8.685 -16.933  1.00  0.00     0.031 C 
ATOM     68  C   UNL     1     -10.122  -9.259 -18.867  1.00  0.00     0.031 A 
BRANCH  55  69
ATOM     69  C   UNL     1      -4.435 -11.135 -20.402  1.00  0.00    -0.014 A 
ATOM     70  C   UNL     1      -3.971 -12.450 -20.589  1.00  0.00     0.010 A 
ATOM     71  C   UNL     1      -4.011 -10.127 -21.288  1.00  0.00     0.010 A 
ATOM     72  C   UNL     1      -3.078 -12.744 -21.623  1.00  0.00     0.020 A 
ATOM     73  C   UNL     1      -3.142 -10.424 -22.342  1.00  0.00     0.020 A 
ATOM     74  C   UNL     1      -2.671 -11.729 -22.494  1.00  0.00     0.054 A 
BRANCH  74  75
ATOM     75  S   UNL     1      -1.541 -12.149 -23.849  1.00  0.00     0.124 S 
ATOM     76  O   UNL     1      -0.296 -12.417 -23.132  1.00  0.00    -0.237 OA
ATOM     77  O   UNL     1      -2.183 -13.316 -24.448  1.00  0.00    -0.237 OA
ATOM     78  O   UNL     1      -1.533 -10.949 -24.681  1.00  0.00    -0.744 OA
ENDBRANCH  74  75
ENDBRANCH  55  69
BRANCH  56  79
ATOM     79  C   UNL     1     -10.563  -8.854 -12.834  1.00  0.00    -0.014 A 
ATOM     80  C   UNL     1     -11.727  -9.599 -12.574  1.00  0.00     0.010 A 
ATOM     81  C   UNL     1     -10.283  -7.729 -12.036  1.00  0.00     0.010 A 
ATOM     82  C   UNL     1     -12.603  -9.215 -11.554  1.00  0.00     0.020 A 
ATOM     83  C   UNL     1     -11.139  -7.360 -10.994  1.00  0.00     0.020 A 
ATOM     84  C   UNL     1     -12.301  -8.099 -10.768  1.00  0.00     0.054 A 
BRANCH  84  85
ATOM     85  S   UNL     1     -13.429  -7.647  -9.420  1.00  0.00     0.124 S 
ATOM     86  O   UNL     1     -14.584  -7.134 -10.150  1.00  0.00    -0.237 OA
ATOM     87  O   UNL     1     -13.626  -8.922  -8.735  1.00  0.00    -0.237 OA
ATOM     88  O   UNL     1     -12.674  -6.651  -8.662  1.00  0.00    -0.744 OA
ENDBRANCH  84  85
ENDBRANCH  56  79
BRANCH  68  89
ATOM     89  C   UNL     1     -11.283  -8.957 -19.781  1.00  0.00    -0.014 A 
ATOM     90  C   UNL     1     -11.744  -7.643 -19.974  1.00  0.00     0.010 A 
ATOM     91  C   UNL     1     -11.877 -10.004 -20.512  1.00  0.00     0.010 A 
ATOM     92  C   UNL     1     -12.797  -7.386 -20.857  1.00  0.00     0.020 A 
ATOM     93  C   UNL     1     -12.906  -9.747 -21.420  1.00  0.00     0.020 A 
ATOM     94  C   UNL     1     -13.370  -8.440 -21.577  1.00  0.00     0.054 A 
BRANCH  94  95
ATOM     95  S   UNL     1     -14.700  -8.072 -22.753  1.00  0.00     0.124 S 
ATOM     96  O   UNL     1     -15.810  -7.741 -21.864  1.00  0.00    -0.237 OA
ATOM     97  O   UNL     1     -14.151  -6.954 -23.517  1.00  0.00    -0.237 OA
ATOM     98  O   UNL     1     -14.855  -9.316 -23.505  1.00  0.00    -0.744 OA
ENDBRANCH  94  95
ENDBRANCH  68  89
ENDBRANCH  42  43
ENDBRANCH  35  37
ENDBRANCH  34  35
ENDBRANCH  33  34
ENDBRANCH  32  33
ENDBRANCH  31  32
ENDBRANCH  30  31
ENDBRANCH  29  30
ENDBRANCH   1  29
TORSDOF 27
