REMARK SMILES O=C(OCCOCCOCCOCCOC(=O)c1cc(S(=O)(=O)Nc2ccc(F)c(C(F)(F)F)c2)c[nH]1)c1ccc(-c2c3nc(c(-c4ccc(S(=O)(=O)[O-])cc4)c4ccc([nH]4)c(-c4ccc(S(=O)(=O)[O-])cc4)c4nc(c(-c5ccc(S(=O)(=O)[O-])cc5)c5ccc2[nH]5)C=C4)C=C3)cc1
REMARK SMILES IDX 10 1 9 2 8 3 7 4 6 5 5 6 4 7 3 8 2 9 1 10 38 11 39 12 97 13
REMARK SMILES IDX 40 14 96 15 41 16 42 17 43 18 90 19 44 20 95 21 89 22 91 23
REMARK SMILES IDX 45 24 94 25 88 26 87 27 46 29 76 30 57 31 75 32 58 33 61 34
REMARK SMILES IDX 74 35 92 36 59 37 60 38 73 40 93 41 62 42 47 43 48 44 56 45
REMARK SMILES IDX 49 46 55 47 50 48 51 49 52 50 53 51 54 52 77 53 78 54 86 55
REMARK SMILES IDX 79 56 85 57 80 58 81 59 82 60 83 61 84 62 63 63 64 64 72 65
REMARK SMILES IDX 65 66 71 67 66 68 67 69 68 70 69 71 70 72 11 73 12 74 13 75
REMARK SMILES IDX 14 76 15 77 16 78 17 79 18 80 19 81 37 82 20 83 36 84 21 86
REMARK SMILES IDX 22 87 23 88 24 89 25 91 26 92 35 93 27 94 30 95 28 96 29 97
REMARK SMILES IDX 31 98 32 99 33 100 34 101
REMARK H PARENT 91 28 61 39 37 85 24 90
REMARK Flexibility Score: inf
ROOT
ATOM      1  C   UNL     1       4.096   1.048  -3.194  1.00  0.00     0.188 C 
ENDROOT
BRANCH   1   2
ATOM      2  O   UNL     1       2.784   1.490  -2.961  1.00  0.00    -0.377 OA
BRANCH   2   3
ATOM      3  C   UNL     1       2.281   1.087  -1.703  1.00  0.00     0.188 C 
BRANCH   3   4
ATOM      4  C   UNL     1       3.095   1.498  -0.455  1.00  0.00     0.188 C 
BRANCH   4   5
ATOM      5  O   UNL     1       4.437   1.110  -0.174  1.00  0.00    -0.376 OA
BRANCH   5   6
ATOM      6  C   UNL     1       5.118  -0.112  -0.400  1.00  0.00     0.202 C 
BRANCH   6   7
ATOM      7  C   UNL     1       4.473  -1.503  -0.340  1.00  0.00     0.261 C 
BRANCH   7   8
ATOM      8  O   UNL     1       3.071  -1.530  -0.585  1.00  0.00    -0.460 OA
BRANCH   8   9
ATOM      9  C   UNL     1       2.067  -1.259   0.279  1.00  0.00     0.338 C 
ATOM     10  O   UNL     1       0.916  -1.190  -0.149  1.00  0.00    -0.246 OA
BRANCH   9  11
ATOM     11  C   UNL     1       2.291  -1.079   1.726  1.00  0.00     0.060 A 
ATOM     12  C   UNL     1       3.533  -0.903   2.330  1.00  0.00     0.016 A 
ATOM     13  C   UNL     1       1.144  -1.192   2.523  1.00  0.00     0.016 A 
ATOM     14  C   UNL     1       3.695  -1.214   3.650  1.00  0.00     0.010 A 
ATOM     15  C   UNL     1       1.276  -1.427   3.871  1.00  0.00     0.010 A 
ATOM     16  C   UNL     1       2.562  -1.531   4.388  1.00  0.00    -0.014 A 
BRANCH  16  17
ATOM     17  C   UNL     1       2.793  -1.761   5.800  1.00  0.00     0.031 A 
ATOM     18  C   UNL     1       3.030  -0.380   6.456  1.00  0.00     0.074 A 
ATOM     19  C   UNL     1       2.879  -3.091   6.132  1.00  0.00     0.049 A 
ATOM     20  N   UNL     1       3.850  -0.053   7.398  1.00  0.00    -0.248 NA
ATOM     21  C   UNL     1       2.393   0.852   5.882  1.00  0.00     0.031 C 
ATOM     22  C   UNL     1       2.612  -4.240   5.217  1.00  0.00     0.029 A 
ATOM     23  N   UNL     1       3.206  -3.770   7.279  1.00  0.00    -0.354 N 
ATOM     24  C   UNL     1       3.609   1.300   7.723  1.00  0.00     0.074 A 
ATOM     25  C   UNL     1       2.851   1.848   6.646  1.00  0.00     0.031 C 
ATOM     26  C   UNL     1       2.880  -5.427   5.815  1.00  0.00     0.029 A 
ATOM     27  C   UNL     1       3.315  -5.189   7.176  1.00  0.00     0.049 A 
ATOM     28  H   UNL     1       3.359  -3.301   8.131  1.00  0.00     0.167 HD
ATOM     29  C   UNL     1       3.862   1.795   8.970  1.00  0.00     0.031 A 
ATOM     30  C   UNL     1       3.768  -6.072   8.127  1.00  0.00     0.031 A 
ATOM     31  C   UNL     1       4.442   0.761   9.764  1.00  0.00     0.049 A 
ATOM     32  C   UNL     1       3.942  -5.234   9.325  1.00  0.00     0.074 A 
ATOM     33  C   UNL     1       5.656   0.128   9.694  1.00  0.00     0.029 A 
ATOM     34  N   UNL     1       3.539  -0.037  10.434  1.00  0.00    -0.354 N 
ATOM     35  N   UNL     1       2.973  -4.718  10.018  1.00  0.00    -0.248 NA
ATOM     36  C   UNL     1       5.301  -4.824   9.702  1.00  0.00     0.031 C 
ATOM     37  C   UNL     1       5.290  -1.228   9.820  1.00  0.00     0.029 A 
ATOM     38  C   UNL     1       3.975  -1.328  10.296  1.00  0.00     0.049 A 
ATOM     39  H   UNL     1       2.736   0.263  10.918  1.00  0.00     0.167 HD
ATOM     40  C   UNL     1       3.582  -3.642  10.608  1.00  0.00     0.074 A 
ATOM     41  C   UNL     1       5.001  -3.950  10.658  1.00  0.00     0.031 C 
ATOM     42  C   UNL     1       3.032  -2.403  10.483  1.00  0.00     0.031 A 
BRANCH  29  43
ATOM     43  C   UNL     1       3.338   2.997   9.707  1.00  0.00    -0.014 A 
ATOM     44  C   UNL     1       3.897   3.218  10.993  1.00  0.00     0.010 A 
ATOM     45  C   UNL     1       2.136   3.648   9.401  1.00  0.00     0.010 A 
ATOM     46  C   UNL     1       3.200   3.894  11.990  1.00  0.00     0.020 A 
ATOM     47  C   UNL     1       1.452   4.380  10.389  1.00  0.00     0.020 A 
ATOM     48  C   UNL     1       1.960   4.442  11.690  1.00  0.00     0.054 A 
BRANCH  48  49
ATOM     49  S   UNL     1       1.012   5.174  13.049  1.00  0.00     0.124 S 
ATOM     50  O   UNL     1       0.628   3.997  13.823  1.00  0.00    -0.237 OA
ATOM     51  O   UNL     1       1.998   6.046  13.685  1.00  0.00    -0.237 OA
ATOM     52  O   UNL     1      -0.078   5.869  12.370  1.00  0.00    -0.744 OA
ENDBRANCH  48  49
ENDBRANCH  29  43
BRANCH  30  53
ATOM     53  C   UNL     1       4.237  -7.511   8.283  1.00  0.00    -0.014 A 
ATOM     54  C   UNL     1       4.213  -8.528   7.322  1.00  0.00     0.010 A 
ATOM     55  C   UNL     1       4.910  -7.847   9.498  1.00  0.00     0.010 A 
ATOM     56  C   UNL     1       4.964  -9.725   7.505  1.00  0.00     0.020 A 
ATOM     57  C   UNL     1       5.701  -8.986   9.668  1.00  0.00     0.020 A 
ATOM     58  C   UNL     1       5.756  -9.913   8.648  1.00  0.00     0.054 A 
BRANCH  58  59
ATOM     59  S   UNL     1       6.973 -11.263   8.752  1.00  0.00     0.124 S 
ATOM     60  O   UNL     1       6.149 -12.407   9.128  1.00  0.00    -0.237 OA
ATOM     61  O   UNL     1       7.527 -11.298   7.400  1.00  0.00    -0.237 OA
ATOM     62  O   UNL     1       7.908 -10.805   9.779  1.00  0.00    -0.744 OA
ENDBRANCH  58  59
ENDBRANCH  30  53
BRANCH  42  63
ATOM     63  C   UNL     1       1.528  -2.347  10.193  1.00  0.00    -0.014 A 
ATOM     64  C   UNL     1       0.634  -3.012  11.051  1.00  0.00     0.010 A 
ATOM     65  C   UNL     1       0.962  -1.721   9.061  1.00  0.00     0.010 A 
ATOM     66  C   UNL     1      -0.748  -3.057  10.800  1.00  0.00     0.020 A 
ATOM     67  C   UNL     1      -0.423  -1.770   8.787  1.00  0.00     0.020 A 
ATOM     68  C   UNL     1      -1.274  -2.433   9.670  1.00  0.00     0.054 A 
BRANCH  68  69
ATOM     69  S   UNL     1      -3.073  -2.496   9.393  1.00  0.00     0.124 S 
ATOM     70  O   UNL     1      -3.346  -3.931   9.357  1.00  0.00    -0.237 OA
ATOM     71  O   UNL     1      -3.597  -1.792  10.560  1.00  0.00    -0.237 OA
ATOM     72  O   UNL     1      -3.257  -1.806   8.117  1.00  0.00    -0.744 OA
ENDBRANCH  68  69
ENDBRANCH  42  63
ENDBRANCH  16  17
ENDBRANCH   9  11
ENDBRANCH   8   9
ENDBRANCH   7   8
ENDBRANCH   6   7
ENDBRANCH   5   6
ENDBRANCH   4   5
ENDBRANCH   3   4
ENDBRANCH   2   3
ENDBRANCH   1   2
BRANCH   1  73
ATOM     73  C   UNL     1       5.164   2.137  -2.967  1.00  0.00     0.188 C 
BRANCH  73  74
ATOM     74  O   UNL     1       4.839   3.506  -2.745  1.00  0.00    -0.376 OA
BRANCH  74  75
ATOM     75  C   UNL     1       3.572   4.047  -3.081  1.00  0.00     0.202 C 
BRANCH  75  76
ATOM     76  C   UNL     1       3.172   4.117  -4.564  1.00  0.00     0.261 C 
BRANCH  76  77
ATOM     77  O   UNL     1       3.428   2.935  -5.334  1.00  0.00    -0.459 OA
BRANCH  77  78
ATOM     78  C   UNL     1       4.671   2.856  -5.864  1.00  0.00     0.354 C 
ATOM     79  O   UNL     1       5.512   3.752  -5.865  1.00  0.00    -0.244 OA
BRANCH  78  80
ATOM     80  C   UNL     1       4.937   1.522  -6.344  1.00  0.00     0.126 A 
ATOM     81  C   UNL     1       4.117   0.603  -6.979  1.00  0.00     0.057 A 
ATOM     82  N   UNL     1       6.168   0.912  -6.207  1.00  0.00    -0.354 N 
ATOM     83  C   UNL     1       5.000  -0.298  -7.626  1.00  0.00     0.106 A 
ATOM     84  C   UNL     1       6.208  -0.225  -6.964  1.00  0.00     0.105 A 
ATOM     85  H   UNL     1       6.906   1.247  -5.647  1.00  0.00     0.166 HD
BRANCH  83  86
ATOM     86  S   UNL     1       4.653  -1.189  -9.062  1.00  0.00     0.263 S 
ATOM     87  O   UNL     1       5.943  -1.671  -9.512  1.00  0.00    -0.201 OA
ATOM     88  O   UNL     1       3.589  -2.094  -8.696  1.00  0.00    -0.201 OA
BRANCH  86  89
ATOM     89  N   UNL     1       4.058  -0.182 -10.311  1.00  0.00    -0.280 N 
ATOM     90  H   UNL     1       4.176  -0.440 -11.254  1.00  0.00     0.180 HD
BRANCH  89  91
ATOM     91  C   UNL     1       3.386   1.036  -9.978  1.00  0.00     0.050 A 
ATOM     92  C   UNL     1       4.134   2.149  -9.579  1.00  0.00     0.030 A 
ATOM     93  C   UNL     1       1.992   1.113 -10.000  1.00  0.00     0.043 A 
ATOM     94  C   UNL     1       3.489   3.304  -9.131  1.00  0.00     0.042 A 
ATOM     95  C   UNL     1       1.335   2.298  -9.601  1.00  0.00     0.093 A 
ATOM     96  C   UNL     1       2.100   3.368  -9.141  1.00  0.00     0.135 A 
ATOM     97  F   UNL     1       1.513   4.486  -8.698  1.00  0.00    -0.206 F 
BRANCH  95  98
ATOM     98  C   UNL     1      -0.157   2.409  -9.715  1.00  0.00     0.419 C 
ATOM     99  F   UNL     1      -0.560   2.339 -11.017  1.00  0.00    -0.166 F 
ATOM    100  F   UNL     1      -0.802   1.393  -9.080  1.00  0.00    -0.166 F 
ATOM    101  F   UNL     1      -0.695   3.558  -9.227  1.00  0.00    -0.166 F 
ENDBRANCH  95  98
ENDBRANCH  89  91
ENDBRANCH  86  89
ENDBRANCH  83  86
ENDBRANCH  78  80
ENDBRANCH  77  78
ENDBRANCH  76  77
ENDBRANCH  75  76
ENDBRANCH  74  75
ENDBRANCH  73  74
ENDBRANCH   1  73
TORSDOF 27
