REMARK SMILES NS(=O)(=O)c1ccc(/N=C/c2ccc(O)c(C(=O)OCCOCCOCCOCCOC(=O)c3ccc(-c4c5nc(c(-c6ccc(S(=O)(=O)[O-])cc6)c6ccc([nH]6)c(-c6ccc(S(=O)(=O)[O-])cc6)c6nc(c(-c7ccc(S(=O)(=O)[O-])cc7)c7ccc4[nH]7)C=C6)C=C5)cc3)c2)cc1
REMARK SMILES IDX 24 1 23 2 22 3 21 4 20 5 19 6 17 7 18 8 16 9 11 10 12 11
REMARK SMILES IDX 94 12 13 13 14 14 10 15 9 16 8 17 5 18 6 19 96 20 7 21 95 22
REMARK SMILES IDX 2 23 3 24 4 25 1 26 15 29 25 31 26 32 27 33 28 34 29 35
REMARK SMILES IDX 30 36 31 37 32 38 33 39 34 40 35 41 93 42 36 43 92 44 37 45
REMARK SMILES IDX 38 46 39 47 86 48 40 49 91 50 85 51 87 52 41 53 90 54 84 55
REMARK SMILES IDX 83 56 42 58 72 59 53 60 71 61 54 62 57 63 70 64 88 65 55 66
REMARK SMILES IDX 56 67 69 69 89 70 58 71 43 72 44 73 52 74 45 75 51 76 46 77
REMARK SMILES IDX 47 78 48 79 49 80 50 81 73 82 74 83 82 84 75 85 81 86 76 87
REMARK SMILES IDX 77 88 78 89 79 90 80 91 59 92 60 93 68 94 61 95 67 96 62 97
REMARK SMILES IDX 63 98 64 99 65 100 66 101
REMARK H PARENT 1 27 1 28 15 30 87 57 57 68
REMARK Flexibility Score: inf
ROOT
ATOM      1  C   UNL     1      -0.504   5.560 -10.773  1.00  0.00     0.188 C 
ENDROOT
BRANCH   1   2
ATOM      2  C   UNL     1       0.322   6.098 -11.958  1.00  0.00     0.188 C 
BRANCH   2   3
ATOM      3  O   UNL     1       0.318   5.251 -13.090  1.00  0.00    -0.376 OA
BRANCH   3   4
ATOM      4  C   UNL     1       1.444   4.452 -13.392  1.00  0.00     0.202 C 
BRANCH   4   5
ATOM      5  C   UNL     1       2.102   3.547 -12.336  1.00  0.00     0.261 C 
BRANCH   5   6
ATOM      6  O   UNL     1       2.156   4.032 -10.990  1.00  0.00    -0.460 OA
BRANCH   6   7
ATOM      7  C   UNL     1       3.058   4.992 -10.704  1.00  0.00     0.342 C 
ATOM      8  O   UNL     1       3.822   5.542 -11.483  1.00  0.00    -0.246 OA
BRANCH   7   9
ATOM      9  C   UNL     1       2.766   5.523  -9.353  1.00  0.00     0.102 A 
ATOM     10  C   UNL     1       2.006   5.222  -7.077  1.00  0.00    -0.006 A 
ATOM     11  C   UNL     1       1.942   6.610  -6.909  1.00  0.00     0.013 A 
ATOM     12  C   UNL     1       2.408   4.670  -8.299  1.00  0.00     0.029 A 
ATOM     13  C   UNL     1       2.303   7.455  -7.957  1.00  0.00     0.048 A 
ATOM     14  C   UNL     1       2.726   6.914  -9.169  1.00  0.00     0.130 A 
BRANCH  10  15
ATOM     15  C   UNL     1       1.630   4.366  -5.933  1.00  0.00     0.119 C 
ATOM     16  N   UNL     1       1.843   3.094  -5.941  1.00  0.00    -0.256 NA
BRANCH  16  17
ATOM     17  C   UNL     1       1.497   2.269  -4.855  1.00  0.00     0.063 A 
ATOM     18  C   UNL     1       0.859   0.419  -2.832  1.00  0.00     0.082 A 
ATOM     19  C   UNL     1       1.674   0.028  -3.892  1.00  0.00     0.024 A 
ATOM     20  C   UNL     1       0.360   1.721  -2.767  1.00  0.00     0.024 A 
ATOM     21  C   UNL     1       1.987   0.955  -4.891  1.00  0.00     0.030 A 
ATOM     22  C   UNL     1       0.679   2.637  -3.777  1.00  0.00     0.030 A 
BRANCH  18  23
ATOM     23  S   UNL     1       0.407  -0.739  -1.578  1.00  0.00     0.238 S 
ATOM     24  O   UNL     1       1.104  -1.989  -1.785  1.00  0.00    -0.207 OA
ATOM     25  O   UNL     1      -1.015  -0.660  -1.356  1.00  0.00    -0.207 OA
BRANCH  23  26
ATOM     26  N   UNL     1       1.119  -0.073  -0.204  1.00  0.00    -0.225 NA
ATOM     27  H   UNL     1       0.922  -0.667   0.602  1.00  0.00     0.137 HD
ATOM     28  H   UNL     1       0.738   0.859  -0.041  1.00  0.00     0.137 HD
ENDBRANCH  23  26
ENDBRANCH  18  23
ENDBRANCH  16  17
ENDBRANCH  10  15
BRANCH  14  29
ATOM     29  O   UNL     1       3.032   7.813 -10.156  1.00  0.00    -0.507 OA
ATOM     30  H   UNL     1       2.990   8.733  -9.983  1.00  0.00     0.293 HD
ENDBRANCH  14  29
ENDBRANCH   7   9
ENDBRANCH   6   7
ENDBRANCH   5   6
ENDBRANCH   4   5
ENDBRANCH   3   4
ENDBRANCH   2   3
ENDBRANCH   1   2
BRANCH   1  31
ATOM     31  O   UNL     1      -0.937   4.211 -10.810  1.00  0.00    -0.377 OA
BRANCH  31  32
ATOM     32  C   UNL     1      -1.647   3.716 -11.944  1.00  0.00     0.188 C 
BRANCH  32  33
ATOM     33  C   UNL     1      -2.343   4.654 -12.962  1.00  0.00     0.188 C 
BRANCH  33  34
ATOM     34  O   UNL     1      -2.429   6.011 -12.562  1.00  0.00    -0.376 OA
BRANCH  34  35
ATOM     35  C   UNL     1      -3.694   6.515 -12.178  1.00  0.00     0.202 C 
BRANCH  35  36
ATOM     36  C   UNL     1      -4.352   5.888 -10.942  1.00  0.00     0.261 C 
BRANCH  36  37
ATOM     37  O   UNL     1      -4.466   4.458 -10.940  1.00  0.00    -0.460 OA
BRANCH  37  38
ATOM     38  C   UNL     1      -5.287   3.903 -11.859  1.00  0.00     0.338 C 
ATOM     39  O   UNL     1      -5.946   4.486 -12.701  1.00  0.00    -0.246 OA
BRANCH  38  40
ATOM     40  C   UNL     1      -5.099   2.439 -11.791  1.00  0.00     0.060 A 
ATOM     41  C   UNL     1      -4.621   1.755 -12.917  1.00  0.00     0.016 A 
ATOM     42  C   UNL     1      -5.376   1.751 -10.608  1.00  0.00     0.016 A 
ATOM     43  C   UNL     1      -4.447   0.371 -12.870  1.00  0.00     0.010 A 
ATOM     44  C   UNL     1      -5.224   0.363 -10.570  1.00  0.00     0.010 A 
ATOM     45  C   UNL     1      -4.791  -0.337 -11.711  1.00  0.00    -0.014 A 
BRANCH  45  46
ATOM     46  C   UNL     1      -4.894  -1.815 -11.749  1.00  0.00     0.031 A 
ATOM     47  C   UNL     1      -6.258  -2.426 -11.931  1.00  0.00     0.074 A 
ATOM     48  C   UNL     1      -3.808  -2.600 -11.634  1.00  0.00     0.049 A 
ATOM     49  N   UNL     1      -6.609  -3.685 -11.939  1.00  0.00    -0.248 NA
ATOM     50  C   UNL     1      -7.376  -1.487 -12.127  1.00  0.00     0.031 C 
ATOM     51  C   UNL     1      -2.431  -2.128 -11.501  1.00  0.00     0.029 A 
ATOM     52  N   UNL     1      -3.701  -3.969 -11.603  1.00  0.00    -0.354 N 
ATOM     53  C   UNL     1      -7.987  -3.690 -12.125  1.00  0.00     0.074 A 
ATOM     54  C   UNL     1      -8.411  -2.309 -12.197  1.00  0.00     0.031 C 
ATOM     55  C   UNL     1      -1.616  -3.192 -11.391  1.00  0.00     0.029 A 
ATOM     56  C   UNL     1      -2.416  -4.417 -11.406  1.00  0.00     0.049 A 
ATOM     57  H   UNL     1      -4.471  -4.572 -11.711  1.00  0.00     0.167 HD
ATOM     58  C   UNL     1      -8.824  -4.749 -12.230  1.00  0.00     0.031 A 
ATOM     59  C   UNL     1      -1.945  -5.668 -11.232  1.00  0.00     0.031 A 
ATOM     60  C   UNL     1      -8.398  -6.120 -12.139  1.00  0.00     0.049 A 
ATOM     61  C   UNL     1      -2.908  -6.830 -11.271  1.00  0.00     0.074 A 
ATOM     62  C   UNL     1      -9.165  -7.266 -12.248  1.00  0.00     0.029 A 
ATOM     63  N   UNL     1      -7.094  -6.531 -11.906  1.00  0.00    -0.354 N 
ATOM     64  N   UNL     1      -4.204  -6.822 -11.477  1.00  0.00    -0.248 NA
ATOM     65  C   UNL     1      -2.341  -8.170 -11.062  1.00  0.00     0.031 C 
ATOM     66  C   UNL     1      -8.337  -8.368 -12.011  1.00  0.00     0.029 A 
ATOM     67  C   UNL     1      -7.039  -7.912 -11.835  1.00  0.00     0.049 A 
ATOM     68  H   UNL     1      -6.321  -5.929 -11.805  1.00  0.00     0.167 HD
ATOM     69  C   UNL     1      -4.601  -8.157 -11.456  1.00  0.00     0.074 A 
ATOM     70  C   UNL     1      -3.405  -8.943 -11.232  1.00  0.00     0.031 C 
ATOM     71  C   UNL     1      -5.841  -8.684 -11.613  1.00  0.00     0.031 A 
BRANCH  58  72
ATOM     72  C   UNL     1     -10.292  -4.463 -12.411  1.00  0.00    -0.014 A 
ATOM     73  C   UNL     1     -10.790  -3.910 -13.604  1.00  0.00     0.010 A 
ATOM     74  C   UNL     1     -11.193  -4.786 -11.379  1.00  0.00     0.010 A 
ATOM     75  C   UNL     1     -12.157  -3.651 -13.748  1.00  0.00     0.020 A 
ATOM     76  C   UNL     1     -12.563  -4.559 -11.531  1.00  0.00     0.020 A 
ATOM     77  C   UNL     1     -13.034  -3.978 -12.710  1.00  0.00     0.054 A 
BRANCH  77  78
ATOM     78  S   UNL     1     -14.805  -3.657 -12.936  1.00  0.00     0.124 S 
ATOM     79  O   UNL     1     -14.855  -2.198 -12.890  1.00  0.00    -0.237 OA
ATOM     80  O   UNL     1     -15.073  -4.254 -14.241  1.00  0.00    -0.237 OA
ATOM     81  O   UNL     1     -15.430  -4.336 -11.803  1.00  0.00    -0.744 OA
ENDBRANCH  77  78
ENDBRANCH  58  72
BRANCH  59  82
ATOM     82  C   UNL     1      -0.493  -5.892 -10.984  1.00  0.00    -0.014 A 
ATOM     83  C   UNL     1       0.306  -6.556 -11.933  1.00  0.00     0.010 A 
ATOM     84  C   UNL     1       0.100  -5.446  -9.788  1.00  0.00     0.010 A 
ATOM     85  C   UNL     1       1.664  -6.782 -11.684  1.00  0.00     0.020 A 
ATOM     86  C   UNL     1       1.464  -5.642  -9.549  1.00  0.00     0.020 A 
ATOM     87  C   UNL     1       2.235  -6.318 -10.495  1.00  0.00     0.054 A 
BRANCH  87  88
ATOM     88  S   UNL     1       4.011  -6.574 -10.222  1.00  0.00     0.124 S 
ATOM     89  O   UNL     1       4.081  -8.015  -9.999  1.00  0.00    -0.237 OA
ATOM     90  O   UNL     1       4.592  -6.098 -11.475  1.00  0.00    -0.237 OA
ATOM     91  O   UNL     1       4.302  -5.745  -9.055  1.00  0.00    -0.744 OA
ENDBRANCH  87  88
ENDBRANCH  59  82
BRANCH  71  92
ATOM     92  C   UNL     1      -5.972 -10.186 -11.598  1.00  0.00    -0.014 A 
ATOM     93  C   UNL     1      -5.798 -10.930 -10.418  1.00  0.00     0.010 A 
ATOM     94  C   UNL     1      -6.340 -10.857 -12.780  1.00  0.00     0.010 A 
ATOM     95  C   UNL     1      -5.956 -12.320 -10.428  1.00  0.00     0.020 A 
ATOM     96  C   UNL     1      -6.533 -12.241 -12.787  1.00  0.00     0.020 A 
ATOM     97  C   UNL     1      -6.325 -12.966 -11.613  1.00  0.00     0.054 A 
BRANCH  97  98
ATOM     98  S   UNL     1      -6.568 -14.763 -11.588  1.00  0.00     0.124 S 
ATOM     99  O   UNL     1      -5.200 -15.254 -11.447  1.00  0.00    -0.237 OA
ATOM    100  O   UNL     1      -7.428 -14.953 -10.422  1.00  0.00    -0.237 OA
ATOM    101  O   UNL     1      -7.201 -15.047 -12.874  1.00  0.00    -0.744 OA
ENDBRANCH  97  98
ENDBRANCH  71  92
ENDBRANCH  45  46
ENDBRANCH  38  40
ENDBRANCH  37  38
ENDBRANCH  36  37
ENDBRANCH  35  36
ENDBRANCH  34  35
ENDBRANCH  33  34
ENDBRANCH  32  33
ENDBRANCH  31  32
ENDBRANCH   1  31
TORSDOF 28
