REMARK SMILES CC(=O)Nc1cccc(-c2cc(F)ccc2C(=O)OCCOCCOCCOCCOC(=O)c2ccc(-c3c4nc(c(-c5ccc(S(=O)(=O)[O-])cc5)c5ccc([nH]5)c(-c5ccc(S(=O)(=O)[O-])cc5)c5nc(c(-c6ccc(S(=O)(=O)[O-])cc6)c6ccc3[nH]6)C=C5)C=C4)cc2)c1
REMARK SMILES IDX 26 1 25 2 24 3 23 4 22 5 21 6 20 7 19 8 17 9 18 10 16 11
REMARK SMILES IDX 10 12 11 13 12 14 15 15 13 16 14 17 9 18 5 19 6 20 94 21
REMARK SMILES IDX 7 22 8 23 4 24 1 25 2 26 3 27 27 29 28 30 29 31 30 32 31 33
REMARK SMILES IDX 32 34 33 35 34 36 35 37 93 38 36 39 92 40 37 41 38 42 39 43
REMARK SMILES IDX 86 44 40 45 91 46 85 47 87 48 41 49 90 50 84 51 83 52 42 54
REMARK SMILES IDX 72 55 53 56 71 57 54 58 57 59 70 60 88 61 55 62 56 63 69 65
REMARK SMILES IDX 89 66 58 67 43 68 44 69 52 70 45 71 51 72 46 73 47 74 48 75
REMARK SMILES IDX 49 76 50 77 73 78 74 79 82 80 75 81 81 82 76 83 77 84 78 85
REMARK SMILES IDX 79 86 80 87 59 88 60 89 68 90 61 91 67 92 62 93 63 94 64 95
REMARK SMILES IDX 65 96 66 97
REMARK H PARENT 4 28 87 53 57 64
REMARK Flexibility Score: inf
ROOT
ATOM      1  C   UNL     1       4.981   3.726   4.474  1.00  0.00     0.188 C 
ENDROOT
BRANCH   1   2
ATOM      2  O   UNL     1       5.466   2.392   4.440  1.00  0.00    -0.377 OA
BRANCH   2   3
ATOM      3  C   UNL     1       6.499   2.027   3.532  1.00  0.00     0.188 C 
BRANCH   3   4
ATOM      4  C   UNL     1       6.814   2.808   2.227  1.00  0.00     0.188 C 
BRANCH   4   5
ATOM      5  O   UNL     1       6.049   3.974   2.005  1.00  0.00    -0.376 OA
BRANCH   5   6
ATOM      6  C   UNL     1       5.023   4.007   1.034  1.00  0.00     0.202 C 
BRANCH   6   7
ATOM      7  C   UNL     1       4.007   2.866   0.929  1.00  0.00     0.261 C 
BRANCH   7   8
ATOM      8  O   UNL     1       4.466   1.614   1.442  1.00  0.00    -0.460 OA
BRANCH   8   9
ATOM      9  C   UNL     1       4.918   0.705   0.558  1.00  0.00     0.338 C 
ATOM     10  O   UNL     1       5.064   0.872  -0.642  1.00  0.00    -0.246 OA
BRANCH   9  11
ATOM     11  C   UNL     1       5.394  -0.513   1.275  1.00  0.00     0.068 A 
ATOM     12  C   UNL     1       4.710  -1.163   2.341  1.00  0.00    -0.001 A 
ATOM     13  C   UNL     1       5.317  -2.318   2.879  1.00  0.00     0.048 A 
ATOM     14  C   UNL     1       6.564  -2.755   2.436  1.00  0.00     0.123 A 
ATOM     15  C   UNL     1       6.661  -0.966   0.851  1.00  0.00     0.019 A 
ATOM     16  F   UNL     1       7.118  -3.841   2.991  1.00  0.00    -0.207 F 
ATOM     17  C   UNL     1       7.253  -2.075   1.445  1.00  0.00     0.040 A 
BRANCH  12  18
ATOM     18  C   UNL     1       3.458  -0.656   2.960  1.00  0.00    -0.015 A 
ATOM     19  C   UNL     1       1.340   0.554   2.725  1.00  0.00     0.041 A 
ATOM     20  C   UNL     1       1.264   0.684   4.114  1.00  0.00     0.026 A 
ATOM     21  C   UNL     1       2.398  -0.175   2.174  1.00  0.00     0.034 A 
ATOM     22  C   UNL     1       2.245   0.121   4.929  1.00  0.00     0.003 A 
ATOM     23  C   UNL     1       3.342  -0.523   4.355  1.00  0.00     0.009 A 
BRANCH  19  24
ATOM     24  N   UNL     1       0.443   1.318   1.956  1.00  0.00    -0.326 N 
ATOM     25  C   UNL     1       0.546   0.223  -0.282  1.00  0.00     0.114 C 
ATOM     26  C   UNL     1       0.240   1.395   0.608  1.00  0.00     0.221 C 
ATOM     27  O   UNL     1      -0.203   2.441   0.130  1.00  0.00    -0.275 OA
ATOM     28  H   UNL     1      -0.146   1.902   2.486  1.00  0.00     0.169 HD
ENDBRANCH  19  24
ENDBRANCH  12  18
ENDBRANCH   9  11
ENDBRANCH   8   9
ENDBRANCH   7   8
ENDBRANCH   6   7
ENDBRANCH   5   6
ENDBRANCH   4   5
ENDBRANCH   3   4
ENDBRANCH   2   3
ENDBRANCH   1   2
BRANCH   1  29
ATOM     29  C   UNL     1       6.011   4.870   4.572  1.00  0.00     0.188 C 
BRANCH  29  30
ATOM     30  O   UNL     1       7.358   4.431   4.486  1.00  0.00    -0.376 OA
BRANCH  30  31
ATOM     31  C   UNL     1       8.098   4.330   5.689  1.00  0.00     0.202 C 
BRANCH  31  32
ATOM     32  C   UNL     1       7.552   3.466   6.837  1.00  0.00     0.261 C 
BRANCH  32  33
ATOM     33  O   UNL     1       6.198   3.702   7.246  1.00  0.00    -0.460 OA
BRANCH  33  34
ATOM     34  C   UNL     1       5.909   4.898   7.797  1.00  0.00     0.338 C 
ATOM     35  O   UNL     1       6.679   5.825   7.993  1.00  0.00    -0.246 OA
BRANCH  34  36
ATOM     36  C   UNL     1       4.442   4.965   7.951  1.00  0.00     0.060 A 
ATOM     37  C   UNL     1       3.721   5.940   7.248  1.00  0.00     0.016 A 
ATOM     38  C   UNL     1       3.781   4.052   8.776  1.00  0.00     0.016 A 
ATOM     39  C   UNL     1       2.337   6.025   7.395  1.00  0.00     0.010 A 
ATOM     40  C   UNL     1       2.399   4.152   8.940  1.00  0.00     0.010 A 
ATOM     41  C   UNL     1       1.677   5.161   8.278  1.00  0.00    -0.014 A 
BRANCH  41  42
ATOM     42  C   UNL     1       0.273   5.438   8.665  1.00  0.00     0.031 A 
ATOM     43  C   UNL     1       0.022   6.163   9.958  1.00  0.00     0.074 A 
ATOM     44  C   UNL     1      -0.756   5.062   7.887  1.00  0.00     0.049 A 
ATOM     45  N   UNL     1      -1.112   6.479  10.527  1.00  0.00    -0.248 NA
ATOM     46  C   UNL     1       1.214   6.579  10.714  1.00  0.00     0.031 C 
ATOM     47  C   UNL     1      -0.639   4.391   6.594  1.00  0.00     0.029 A 
ATOM     48  N   UNL     1      -2.108   5.188   8.084  1.00  0.00    -0.354 N 
ATOM     49  C   UNL     1      -0.771   7.116  11.714  1.00  0.00     0.074 A 
ATOM     50  C   UNL     1       0.673   7.112  11.798  1.00  0.00     0.031 C 
ATOM     51  C   UNL     1      -1.874   4.150   6.119  1.00  0.00     0.029 A 
ATOM     52  C   UNL     1      -2.864   4.616   7.090  1.00  0.00     0.049 A 
ATOM     53  H   UNL     1      -2.499   5.644   8.864  1.00  0.00     0.167 HD
ATOM     54  C   UNL     1      -1.586   7.655  12.652  1.00  0.00     0.031 A 
ATOM     55  C   UNL     1      -4.199   4.463   6.988  1.00  0.00     0.031 A 
ATOM     56  C   UNL     1      -3.022   7.632  12.574  1.00  0.00     0.049 A 
ATOM     57  C   UNL     1      -5.092   5.010   8.071  1.00  0.00     0.074 A 
ATOM     58  C   UNL     1      -3.941   8.172  13.457  1.00  0.00     0.029 A 
ATOM     59  N   UNL     1      -3.751   7.018  11.565  1.00  0.00    -0.354 N 
ATOM     60  N   UNL     1      -4.760   5.643   9.171  1.00  0.00    -0.248 NA
ATOM     61  C   UNL     1      -6.539   4.830   7.894  1.00  0.00     0.031 C 
ATOM     62  C   UNL     1      -5.222   7.820  13.021  1.00  0.00     0.029 A 
ATOM     63  C   UNL     1      -5.107   7.131  11.823  1.00  0.00     0.049 A 
ATOM     64  H   UNL     1      -3.361   6.569  10.780  1.00  0.00     0.167 HD
ATOM     65  C   UNL     1      -5.957   5.960   9.806  1.00  0.00     0.074 A 
ATOM     66  C   UNL     1      -7.021   5.459   8.958  1.00  0.00     0.031 C 
ATOM     67  C   UNL     1      -6.157   6.613  10.979  1.00  0.00     0.031 A 
BRANCH  54  68
ATOM     68  C   UNL     1      -0.932   8.255  13.871  1.00  0.00    -0.014 A 
ATOM     69  C   UNL     1      -0.143   9.418  13.791  1.00  0.00     0.010 A 
ATOM     70  C   UNL     1      -1.101   7.632  15.121  1.00  0.00     0.010 A 
ATOM     71  C   UNL     1       0.515   9.907  14.923  1.00  0.00     0.020 A 
ATOM     72  C   UNL     1      -0.474   8.138  16.262  1.00  0.00     0.020 A 
ATOM     73  C   UNL     1       0.351   9.258  16.151  1.00  0.00     0.054 A 
BRANCH  73  74
ATOM     74  S   UNL     1       1.232   9.900  17.600  1.00  0.00     0.124 S 
ATOM     75  O   UNL     1       2.614   9.531  17.300  1.00  0.00    -0.237 OA
ATOM     76  O   UNL     1       0.939  11.330  17.544  1.00  0.00    -0.237 OA
ATOM     77  O   UNL     1       0.626   9.185  18.720  1.00  0.00    -0.744 OA
ENDBRANCH  73  74
ENDBRANCH  54  68
BRANCH  55  78
ATOM     78  C   UNL     1      -4.761   3.737   5.816  1.00  0.00    -0.014 A 
ATOM     79  C   UNL     1      -5.468   4.422   4.813  1.00  0.00     0.010 A 
ATOM     80  C   UNL     1      -4.542   2.354   5.676  1.00  0.00     0.010 A 
ATOM     81  C   UNL     1      -5.938   3.737   3.687  1.00  0.00     0.020 A 
ATOM     82  C   UNL     1      -4.985   1.672   4.540  1.00  0.00     0.020 A 
ATOM     83  C   UNL     1      -5.683   2.369   3.553  1.00  0.00     0.054 A 
BRANCH  83  84
ATOM     84  S   UNL     1      -6.216   1.522   2.039  1.00  0.00     0.124 S 
ATOM     85  O   UNL     1      -7.664   1.464   2.217  1.00  0.00    -0.237 OA
ATOM     86  O   UNL     1      -5.742   2.423   0.992  1.00  0.00    -0.237 OA
ATOM     87  O   UNL     1      -5.524   0.237   2.106  1.00  0.00    -0.744 OA
ENDBRANCH  83  84
ENDBRANCH  55  78
BRANCH  67  88
ATOM     88  C   UNL     1      -7.582   6.852  11.412  1.00  0.00    -0.014 A 
ATOM     89  C   UNL     1      -8.406   5.799  11.848  1.00  0.00     0.010 A 
ATOM     90  C   UNL     1      -8.084   8.167  11.442  1.00  0.00     0.010 A 
ATOM     91  C   UNL     1      -9.713   6.053  12.274  1.00  0.00     0.020 A 
ATOM     92  C   UNL     1      -9.379   8.429  11.898  1.00  0.00     0.020 A 
ATOM     93  C   UNL     1     -10.191   7.367  12.298  1.00  0.00     0.054 A 
BRANCH  93  94
ATOM     94  S   UNL     1     -11.877   7.673  12.894  1.00  0.00     0.124 S 
ATOM     95  O   UNL     1     -12.687   7.133  11.806  1.00  0.00    -0.237 OA
ATOM     96  O   UNL     1     -11.916   6.917  14.143  1.00  0.00    -0.237 OA
ATOM     97  O   UNL     1     -11.932   9.125  13.050  1.00  0.00    -0.744 OA
ENDBRANCH  93  94
ENDBRANCH  67  88
ENDBRANCH  41  42
ENDBRANCH  34  36
ENDBRANCH  33  34
ENDBRANCH  32  33
ENDBRANCH  31  32
ENDBRANCH  30  31
ENDBRANCH  29  30
ENDBRANCH   1  29
TORSDOF 25
