REMARK SMILES Cc1cc2c(cc1C(=O)c1ccccc1C(=O)NCCCCCCNC(=O)c1ccc(-c3c4nc(c(-c5c(F)cc(S(=O)(=O)[O-])cc5F)c5ccc([nH]5)c(-c5c(F)cc(S(=O)(=O)[O-])cc5F)c5nc(c(-c6c(F)cc(S(=O)(=O)[O-])cc6F)c6ccc3[nH]6)C=C5)C=C4)cc1)CCCC2
REMARK SMILES IDX 22 1 21 2 20 3 19 4 18 5 16 6 17 7 15 9 10 10 11 11 12 12
REMARK SMILES IDX 14 13 13 14 8 15 9 16 7 17 1 18 2 19 3 20 4 21 6 22 5 23
REMARK SMILES IDX 97 24 94 25 96 26 95 27 23 28 24 29 25 30 26 31 27 33 28 34
REMARK SMILES IDX 29 35 93 36 30 37 92 38 31 39 32 40 33 41 86 42 34 43 91 44
REMARK SMILES IDX 85 45 87 46 35 47 90 48 84 49 83 50 36 52 70 53 49 54 69 55
REMARK SMILES IDX 50 56 53 57 68 58 88 59 51 60 52 61 67 63 89 64 54 65 37 66
REMARK SMILES IDX 38 67 47 68 39 69 40 70 46 71 48 72 41 73 42 74 43 75 44 76
REMARK SMILES IDX 45 77 71 78 72 79 81 80 73 81 74 82 80 83 82 84 75 85 76 86
REMARK SMILES IDX 77 87 78 88 79 89 55 90 56 91 65 92 57 93 58 94 64 95 66 96
REMARK SMILES IDX 59 97 60 98 61 99 62 100 63 101
REMARK H PARENT 18 8 25 32 87 51 53 62
REMARK Flexibility Score: inf
ROOT
ATOM      1  C   UNL     1       1.085   3.548   6.194  1.00  0.00     0.002 C 
ENDROOT
BRANCH   1   2
ATOM      2  C   UNL     1       2.325   2.836   5.649  1.00  0.00     0.002 C 
BRANCH   2   3
ATOM      3  C   UNL     1       2.177   1.923   4.433  1.00  0.00     0.021 C 
BRANCH   3   4
ATOM      4  C   UNL     1       1.453   2.454   3.202  1.00  0.00     0.116 C 
BRANCH   4   5
ATOM      5  N   UNL     1       2.093   3.513   2.478  1.00  0.00    -0.352 N 
ATOM      6  C   UNL     1       2.031   3.892   1.159  1.00  0.00     0.252 C 
ATOM      7  O   UNL     1       2.720   4.886   0.889  1.00  0.00    -0.269 OA
ATOM      8  H   UNL     1       2.687   4.074   3.028  1.00  0.00     0.163 HD
BRANCH   6   9
ATOM      9  C   UNL     1       1.289   3.237   0.013  1.00  0.00     0.050 A 
ATOM     10  C   UNL     1       0.133   2.435  -0.024  1.00  0.00     0.035 A 
ATOM     11  C   UNL     1      -0.494   2.107  -1.251  1.00  0.00     0.013 A 
ATOM     12  C   UNL     1       0.072   2.470  -2.467  1.00  0.00     0.001 A 
ATOM     13  C   UNL     1       1.842   3.569  -1.253  1.00  0.00     0.014 A 
ATOM     14  C   UNL     1       1.259   3.182  -2.468  1.00  0.00     0.001 A 
BRANCH  10  15
ATOM     15  C   UNL     1      -0.570   1.872   1.126  1.00  0.00     0.194 C 
ATOM     16  O   UNL     1      -1.309   2.640   1.737  1.00  0.00    -0.289 OA
BRANCH  15  17
ATOM     17  C   UNL     1      -0.419   0.418   1.543  1.00  0.00     0.026 A 
ATOM     18  C   UNL     1       1.183  -0.426  -0.336  1.00  0.00     0.045 C 
ATOM     19  C   UNL     1       0.383  -0.572   0.928  1.00  0.00    -0.040 A 
ATOM     20  C   UNL     1       0.463  -1.847   1.528  1.00  0.00     0.008 A 
ATOM     21  C   UNL     1      -0.130  -2.132   2.760  1.00  0.00    -0.044 A 
ATOM     22  C   UNL     1      -1.047   0.103   2.769  1.00  0.00     0.016 A 
ATOM     23  C   UNL     1      -0.886  -1.144   3.396  1.00  0.00    -0.044 A 
ATOM     24  C   UNL     1       0.025  -3.513   3.345  1.00  0.00     0.036 C 
ATOM     25  C   UNL     1      -1.422  -1.351   4.790  1.00  0.00     0.036 C 
ATOM     26  C   UNL     1      -0.170  -3.530   4.855  1.00  0.00     0.005 C 
ATOM     27  C   UNL     1      -1.463  -2.816   5.219  1.00  0.00     0.005 C 
ENDBRANCH  15  17
ENDBRANCH  10  15
ENDBRANCH   6   9
ENDBRANCH   4   5
ENDBRANCH   3   4
ENDBRANCH   2   3
ENDBRANCH   1   2
BRANCH   1  28
ATOM     28  C   UNL     1      -0.194   2.736   6.396  1.00  0.00     0.021 C 
BRANCH  28  29
ATOM     29  C   UNL     1      -0.093   1.436   7.187  1.00  0.00     0.116 C 
BRANCH  29  30
ATOM     30  N   UNL     1       0.280   1.602   8.581  1.00  0.00    -0.352 N 
ATOM     31  C   UNL     1      -0.307   1.100   9.722  1.00  0.00     0.251 C 
ATOM     32  H   UNL     1       1.077   2.159   8.734  1.00  0.00     0.163 HD
ATOM     33  O   UNL     1       0.159   1.397  10.820  1.00  0.00    -0.269 OA
BRANCH  31  34
ATOM     34  C   UNL     1      -1.521   0.245   9.651  1.00  0.00     0.039 A 
ATOM     35  C   UNL     1      -1.635  -0.799   8.733  1.00  0.00     0.014 A 
ATOM     36  C   UNL     1      -2.575   0.496  10.538  1.00  0.00     0.014 A 
ATOM     37  C   UNL     1      -2.853  -1.465   8.588  1.00  0.00     0.010 A 
ATOM     38  C   UNL     1      -3.773  -0.227  10.437  1.00  0.00     0.010 A 
ATOM     39  C   UNL     1      -3.943  -1.180   9.423  1.00  0.00    -0.014 A 
BRANCH  39  40
ATOM     40  C   UNL     1      -5.251  -1.852   9.180  1.00  0.00     0.031 A 
ATOM     41  C   UNL     1      -6.449  -1.049   8.739  1.00  0.00     0.074 A 
ATOM     42  C   UNL     1      -5.355  -3.193   9.281  1.00  0.00     0.049 A 
ATOM     43  N   UNL     1      -7.669  -1.454   8.488  1.00  0.00    -0.248 NA
ATOM     44  C   UNL     1      -6.252   0.398   8.555  1.00  0.00     0.031 C 
ATOM     45  C   UNL     1      -4.269  -4.097   9.663  1.00  0.00     0.029 A 
ATOM     46  N   UNL     1      -6.418  -4.032   9.053  1.00  0.00    -0.354 N 
ATOM     47  C   UNL     1      -8.388  -0.315   8.143  1.00  0.00     0.074 A 
ATOM     48  C   UNL     1      -7.473   0.803   8.236  1.00  0.00     0.031 C 
ATOM     49  C   UNL     1      -4.709  -5.364   9.604  1.00  0.00     0.029 A 
ATOM     50  C   UNL     1      -6.123  -5.363   9.239  1.00  0.00     0.049 A 
ATOM     51  H   UNL     1      -7.309  -3.712   8.781  1.00  0.00     0.167 HD
ATOM     52  C   UNL     1      -9.687  -0.207   7.772  1.00  0.00     0.037 A 
ATOM     53  C   UNL     1      -6.901  -6.460   9.147  1.00  0.00     0.037 A 
ATOM     54  C   UNL     1     -10.592  -1.320   7.645  1.00  0.00     0.049 A 
ATOM     55  C   UNL     1      -8.351  -6.312   8.779  1.00  0.00     0.074 A 
ATOM     56  C   UNL     1     -11.920  -1.307   7.252  1.00  0.00     0.029 A 
ATOM     57  N   UNL     1     -10.267  -2.643   7.903  1.00  0.00    -0.354 N 
ATOM     58  N   UNL     1      -9.014  -5.223   8.471  1.00  0.00    -0.248 NA
ATOM     59  C   UNL     1      -9.163  -7.537   8.761  1.00  0.00     0.031 C 
ATOM     60  C   UNL     1     -12.408  -2.616   7.310  1.00  0.00     0.029 A 
ATOM     61  C   UNL     1     -11.374  -3.451   7.699  1.00  0.00     0.049 A 
ATOM     62  H   UNL     1      -9.380  -2.961   8.189  1.00  0.00     0.167 HD
ATOM     63  C   UNL     1     -10.319  -5.633   8.218  1.00  0.00     0.074 A 
ATOM     64  C   UNL     1     -10.348  -7.071   8.389  1.00  0.00     0.031 C 
ATOM     65  C   UNL     1     -11.395  -4.881   7.880  1.00  0.00     0.037 A 
BRANCH  52  66
ATOM     66  C   UNL     1     -10.221   1.169   7.489  1.00  0.00     0.058 A 
ATOM     67  C   UNL     1      -9.893   1.862   6.314  1.00  0.00     0.135 A 
ATOM     68  C   UNL     1     -11.112   1.783   8.385  1.00  0.00     0.135 A 
ATOM     69  F   UNL     1      -9.034   1.328   5.432  1.00  0.00    -0.206 F 
ATOM     70  C   UNL     1     -10.414   3.124   6.046  1.00  0.00     0.059 A 
ATOM     71  C   UNL     1     -11.663   3.034   8.127  1.00  0.00     0.059 A 
ATOM     72  F   UNL     1     -11.459   1.162   9.524  1.00  0.00    -0.206 F 
ATOM     73  C   UNL     1     -11.299   3.702   6.958  1.00  0.00     0.060 A 
BRANCH  73  74
ATOM     74  S   UNL     1     -11.973   5.337   6.591  1.00  0.00     0.124 S 
ATOM     75  O   UNL     1     -10.807   6.188   6.812  1.00  0.00    -0.237 OA
ATOM     76  O   UNL     1     -12.398   5.194   5.202  1.00  0.00    -0.237 OA
ATOM     77  O   UNL     1     -13.052   5.487   7.562  1.00  0.00    -0.744 OA
ENDBRANCH  73  74
ENDBRANCH  52  66
BRANCH  53  78
ATOM     78  C   UNL     1      -6.318  -7.799   9.424  1.00  0.00     0.058 A 
ATOM     79  C   UNL     1      -6.100  -8.720   8.389  1.00  0.00     0.135 A 
ATOM     80  C   UNL     1      -5.933  -8.168  10.722  1.00  0.00     0.135 A 
ATOM     81  F   UNL     1      -6.463  -8.417   7.134  1.00  0.00    -0.206 F 
ATOM     82  C   UNL     1      -5.515  -9.959   8.630  1.00  0.00     0.059 A 
ATOM     83  C   UNL     1      -5.325  -9.391  10.984  1.00  0.00     0.059 A 
ATOM     84  F   UNL     1      -6.114  -7.318  11.745  1.00  0.00    -0.206 F 
ATOM     85  C   UNL     1      -5.122 -10.281   9.931  1.00  0.00     0.060 A 
BRANCH  85  86
ATOM     86  S   UNL     1      -4.285 -11.856  10.217  1.00  0.00     0.124 S 
ATOM     87  O   UNL     1      -5.388 -12.802  10.091  1.00  0.00    -0.237 OA
ATOM     88  O   UNL     1      -3.299 -11.878   9.142  1.00  0.00    -0.237 OA
ATOM     89  O   UNL     1      -3.733 -11.704  11.560  1.00  0.00    -0.744 OA
ENDBRANCH  85  86
ENDBRANCH  53  78
BRANCH  65  90
ATOM     90  C   UNL     1     -12.702  -5.593   7.668  1.00  0.00     0.058 A 
ATOM     91  C   UNL     1     -13.460  -6.065   8.750  1.00  0.00     0.135 A 
ATOM     92  C   UNL     1     -13.234  -5.744   6.378  1.00  0.00     0.135 A 
ATOM     93  F   UNL     1     -12.992  -5.952  10.003  1.00  0.00    -0.206 F 
ATOM     94  C   UNL     1     -14.697  -6.673   8.560  1.00  0.00     0.059 A 
ATOM     95  C   UNL     1     -14.479  -6.329   6.166  1.00  0.00     0.059 A 
ATOM     96  F   UNL     1     -12.552  -5.302   5.309  1.00  0.00    -0.206 F 
ATOM     97  C   UNL     1     -15.200  -6.797   7.264  1.00  0.00     0.060 A 
BRANCH  97  98
ATOM     98  S   UNL     1     -16.826  -7.548   7.036  1.00  0.00     0.124 S 
ATOM     99  O   UNL     1     -16.539  -8.956   7.290  1.00  0.00    -0.237 OA
ATOM    100  O   UNL     1     -17.628  -6.871   8.051  1.00  0.00    -0.237 OA
ATOM    101  O   UNL     1     -17.164  -7.216   5.655  1.00  0.00    -0.744 OA
ENDBRANCH  97  98
ENDBRANCH  65  90
ENDBRANCH  39  40
ENDBRANCH  31  34
ENDBRANCH  29  30
ENDBRANCH  28  29
ENDBRANCH   1  28
TORSDOF 18
