REMARK SMILES CC(C)[C@H]([NH2+]C[C@H]1CC[C@@H](C(=O)NCCCCCCNC(=O)c2ccc(-c3c4nc(c(-c5c(F)cc(S(=O)(=O)[O-])cc5F)c5ccc([nH]5)c(-c5c(F)cc(S(=O)(=O)[O-])cc5F)c5nc(c(-c6c(F)cc(S(=O)(=O)[O-])cc6F)c6ccc3[nH]6)C=C5)C=C4)cc2)CC1)c1ccccc1
REMARK SMILES IDX 16 1 15 2 14 3 13 4 11 5 12 6 10 8 7 9 8 10 90 11 9 12 89 13
REMARK SMILES IDX 6 14 5 15 4 18 2 19 1 20 3 21 91 22 92 23 96 24 93 25 95 26
REMARK SMILES IDX 94 27 17 28 18 29 19 30 20 31 21 32 22 34 23 35 24 36 88 37
REMARK SMILES IDX 25 38 87 39 26 40 27 41 28 42 81 43 29 44 86 45 80 46 82 47
REMARK SMILES IDX 30 48 85 49 79 50 78 51 31 53 65 54 44 55 64 56 45 57 48 58
REMARK SMILES IDX 63 59 83 60 46 61 47 62 62 64 84 65 49 66 32 67 33 68 42 69
REMARK SMILES IDX 34 70 35 71 41 72 43 73 36 74 37 75 38 76 39 77 40 78 66 79
REMARK SMILES IDX 67 80 76 81 68 82 69 83 75 84 77 85 70 86 71 87 72 88 73 89
REMARK SMILES IDX 74 90 50 91 51 92 60 93 52 94 53 95 59 96 61 97 54 98 55 99
REMARK SMILES IDX 56 100 57 101 58 102
REMARK H PARENT 13 7 5 16 5 17 20 33 82 52 48 63
REMARK Flexibility Score: inf
ROOT
ATOM      1  C   UNL     1       0.746  -4.557  -2.684  1.00  0.00     0.002 C 
ENDROOT
BRANCH   1   2
ATOM      2  C   UNL     1       1.758  -3.446  -2.334  1.00  0.00     0.021 C 
BRANCH   2   3
ATOM      3  C   UNL     1       2.293  -3.463  -0.893  1.00  0.00     0.116 C 
BRANCH   3   4
ATOM      4  N   UNL     1       3.660  -3.918  -0.749  1.00  0.00    -0.356 N 
ATOM      5  C   UNL     1       4.780  -3.269  -0.335  1.00  0.00     0.223 C 
ATOM      6  O   UNL     1       5.714  -3.992   0.040  1.00  0.00    -0.275 OA
ATOM      7  H   UNL     1       3.803  -4.861  -0.994  1.00  0.00     0.163 HD
BRANCH   5   8
ATOM      8  C   UNL     1       4.968  -1.741  -0.312  1.00  0.00     0.078 C 
ATOM      9  C   UNL     1       2.651   0.167   0.011  1.00  0.00     0.044 C 
ATOM     10  C   UNL     1       3.209  -0.645   1.186  1.00  0.00     0.010 C 
ATOM     11  C   UNL     1       3.125  -0.254  -1.395  1.00  0.00     0.010 C 
ATOM     12  C   UNL     1       4.663  -1.049   1.014  1.00  0.00     0.014 C 
ATOM     13  C   UNL     1       4.481  -0.949  -1.518  1.00  0.00     0.014 C 
BRANCH   9  14
ATOM     14  C   UNL     1       1.098   0.310   0.088  1.00  0.00     0.264 C 
BRANCH  14  15
ATOM     15  N   UNL     1       0.336  -0.934   0.304  1.00  0.00    -0.340 N 
ATOM     16  H   UNL     1       0.396  -1.491  -0.549  1.00  0.00     0.346 HD
ATOM     17  H   UNL     1       0.756  -1.381   1.119  1.00  0.00     0.346 HD
BRANCH  15  18
ATOM     18  C   UNL     1      -1.122  -0.754   0.638  1.00  0.00     0.216 C 
BRANCH  18  19
ATOM     19  C   UNL     1      -1.773   0.238  -0.413  1.00  0.00     0.046 C 
ATOM     20  C   UNL     1      -1.646  -0.153  -1.889  1.00  0.00     0.014 C 
ATOM     21  C   UNL     1      -3.193   0.728  -0.145  1.00  0.00     0.014 C 
ENDBRANCH  18  19
BRANCH  18  22
ATOM     22  C   UNL     1      -1.764  -2.144   0.925  1.00  0.00     0.009 A 
ATOM     23  C   UNL     1      -3.143  -2.398   0.885  1.00  0.00     0.010 A 
ATOM     24  C   UNL     1      -0.968  -3.242   1.330  1.00  0.00     0.010 A 
ATOM     25  C   UNL     1      -3.676  -3.689   1.059  1.00  0.00     0.001 A 
ATOM     26  C   UNL     1      -1.492  -4.539   1.492  1.00  0.00     0.001 A 
ATOM     27  C   UNL     1      -2.847  -4.770   1.315  1.00  0.00     0.000 A 
ENDBRANCH  18  22
ENDBRANCH  15  18
ENDBRANCH  14  15
ENDBRANCH   9  14
ENDBRANCH   5   8
ENDBRANCH   3   4
ENDBRANCH   2   3
ENDBRANCH   1   2
BRANCH   1  28
ATOM     28  C   UNL     1      -0.613  -4.455  -1.967  1.00  0.00     0.002 C 
BRANCH  28  29
ATOM     29  C   UNL     1      -1.561  -3.366  -2.493  1.00  0.00     0.021 C 
BRANCH  29  30
ATOM     30  C   UNL     1      -2.781  -3.841  -3.288  1.00  0.00     0.116 C 
BRANCH  30  31
ATOM     31  N   UNL     1      -3.917  -4.253  -2.471  1.00  0.00    -0.352 N 
ATOM     32  C   UNL     1      -5.087  -3.689  -2.013  1.00  0.00     0.251 C 
ATOM     33  H   UNL     1      -3.822  -5.183  -2.164  1.00  0.00     0.163 HD
ATOM     34  O   UNL     1      -5.842  -4.460  -1.408  1.00  0.00    -0.269 OA
BRANCH  32  35
ATOM     35  C   UNL     1      -5.515  -2.256  -2.132  1.00  0.00     0.039 A 
ATOM     36  C   UNL     1      -6.540  -1.818  -1.263  1.00  0.00     0.014 A 
ATOM     37  C   UNL     1      -5.026  -1.327  -3.044  1.00  0.00     0.014 A 
ATOM     38  C   UNL     1      -7.053  -0.507  -1.308  1.00  0.00     0.010 A 
ATOM     39  C   UNL     1      -5.492   0.004  -3.049  1.00  0.00     0.010 A 
ATOM     40  C   UNL     1      -6.528   0.432  -2.201  1.00  0.00    -0.014 A 
BRANCH  40  41
ATOM     41  C   UNL     1      -7.079   1.823  -2.321  1.00  0.00     0.031 A 
ATOM     42  C   UNL     1      -7.647   2.297  -3.643  1.00  0.00     0.074 A 
ATOM     43  C   UNL     1      -7.041   2.692  -1.286  1.00  0.00     0.049 A 
ATOM     44  N   UNL     1      -8.050   3.493  -3.998  1.00  0.00    -0.248 NA
ATOM     45  C   UNL     1      -7.748   1.295  -4.715  1.00  0.00     0.031 C 
ATOM     46  C   UNL     1      -6.525   2.400   0.051  1.00  0.00     0.029 A 
ATOM     47  N   UNL     1      -7.431   4.012  -1.203  1.00  0.00    -0.354 N 
ATOM     48  C   UNL     1      -8.418   3.392  -5.337  1.00  0.00     0.074 A 
ATOM     49  C   UNL     1      -8.141   2.031  -5.743  1.00  0.00     0.031 C 
ATOM     50  C   UNL     1      -6.633   3.498   0.818  1.00  0.00     0.029 A 
ATOM     51  C   UNL     1      -7.189   4.590   0.023  1.00  0.00     0.049 A 
ATOM     52  H   UNL     1      -7.845   4.497  -1.953  1.00  0.00     0.167 HD
ATOM     53  C   UNL     1      -8.958   4.331  -6.153  1.00  0.00     0.037 A 
ATOM     54  C   UNL     1      -7.376   5.854   0.461  1.00  0.00     0.037 A 
ATOM     55  C   UNL     1      -9.282   5.675  -5.745  1.00  0.00     0.049 A 
ATOM     56  C   UNL     1      -7.961   6.891  -0.466  1.00  0.00     0.074 A 
ATOM     57  C   UNL     1      -9.887   6.675  -6.487  1.00  0.00     0.029 A 
ATOM     58  N   UNL     1      -9.034   6.207  -4.489  1.00  0.00    -0.354 N 
ATOM     59  N   UNL     1      -8.337   6.761  -1.716  1.00  0.00    -0.248 NA
ATOM     60  C   UNL     1      -8.152   8.245   0.077  1.00  0.00     0.031 C 
ATOM     61  C   UNL     1      -9.954   7.828  -5.699  1.00  0.00     0.029 A 
ATOM     62  C   UNL     1      -9.451   7.528  -4.444  1.00  0.00     0.049 A 
ATOM     63  H   UNL     1      -8.622   5.719  -3.740  1.00  0.00     0.167 HD
ATOM     64  C   UNL     1      -8.841   8.003  -2.094  1.00  0.00     0.074 A 
ATOM     65  C   UNL     1      -8.728   8.870  -0.941  1.00  0.00     0.031 C 
ATOM     66  C   UNL     1      -9.356   8.386  -3.289  1.00  0.00     0.037 A 
BRANCH  53  67
ATOM     67  C   UNL     1      -9.239   3.944  -7.582  1.00  0.00     0.058 A 
ATOM     68  C   UNL     1     -10.251   3.030  -7.919  1.00  0.00     0.135 A 
ATOM     69  C   UNL     1      -8.516   4.532  -8.635  1.00  0.00     0.135 A 
ATOM     70  F   UNL     1     -10.967   2.429  -6.956  1.00  0.00    -0.206 F 
ATOM     71  C   UNL     1     -10.509   2.684  -9.242  1.00  0.00     0.059 A 
ATOM     72  C   UNL     1      -8.781   4.227  -9.967  1.00  0.00     0.059 A 
ATOM     73  F   UNL     1      -7.542   5.418  -8.374  1.00  0.00    -0.206 F 
ATOM     74  C   UNL     1      -9.769   3.288 -10.259  1.00  0.00     0.060 A 
BRANCH  74  75
ATOM     75  S   UNL     1     -10.117   2.827 -11.970  1.00  0.00     0.124 S 
ATOM     76  O   UNL     1      -9.578   1.470 -12.019  1.00  0.00    -0.237 OA
ATOM     77  O   UNL     1     -11.574   2.930 -12.028  1.00  0.00    -0.237 OA
ATOM     78  O   UNL     1      -9.389   3.820 -12.747  1.00  0.00    -0.744 OA
ENDBRANCH  74  75
ENDBRANCH  53  67
BRANCH  54  79
ATOM     79  C   UNL     1      -7.011   6.222   1.860  1.00  0.00     0.058 A 
ATOM     80  C   UNL     1      -7.998   6.542   2.806  1.00  0.00     0.135 A 
ATOM     81  C   UNL     1      -5.672   6.266   2.279  1.00  0.00     0.135 A 
ATOM     82  F   UNL     1      -9.293   6.532   2.454  1.00  0.00    -0.206 F 
ATOM     83  C   UNL     1      -7.672   6.907   4.109  1.00  0.00     0.059 A 
ATOM     84  C   UNL     1      -5.322   6.599   3.584  1.00  0.00     0.059 A 
ATOM     85  F   UNL     1      -4.688   5.962   1.418  1.00  0.00    -0.206 F 
ATOM     86  C   UNL     1      -6.329   6.928   4.490  1.00  0.00     0.060 A 
BRANCH  86  87
ATOM     87  S   UNL     1      -5.920   7.351   6.198  1.00  0.00     0.124 S 
ATOM     88  O   UNL     1      -6.212   8.780   6.225  1.00  0.00    -0.237 OA
ATOM     89  O   UNL     1      -6.835   6.499   6.951  1.00  0.00    -0.237 OA
ATOM     90  O   UNL     1      -4.510   6.993   6.304  1.00  0.00    -0.744 OA
ENDBRANCH  86  87
ENDBRANCH  54  79
BRANCH  66  91
ATOM     91  C   UNL     1      -9.891   9.788  -3.414  1.00  0.00     0.058 A 
ATOM     92  C   UNL     1      -9.046  10.907  -3.461  1.00  0.00     0.135 A 
ATOM     93  C   UNL     1     -11.271  10.006  -3.569  1.00  0.00     0.135 A 
ATOM     94  F   UNL     1      -7.720  10.758  -3.313  1.00  0.00    -0.206 F 
ATOM     95  C   UNL     1      -9.549  12.193  -3.640  1.00  0.00     0.059 A 
ATOM     96  C   UNL     1     -11.793  11.279  -3.780  1.00  0.00     0.059 A 
ATOM     97  F   UNL     1     -12.126   8.972  -3.544  1.00  0.00    -0.206 F 
ATOM     98  C   UNL     1     -10.924  12.368  -3.805  1.00  0.00     0.060 A 
BRANCH  98  99
ATOM     99  S   UNL     1     -11.557  14.036  -4.090  1.00  0.00     0.124 S 
ATOM    100  O   UNL     1     -11.389  14.643  -2.774  1.00  0.00    -0.237 OA
ATOM    101  O   UNL     1     -10.668  14.532  -5.136  1.00  0.00    -0.237 OA
ATOM    102  O   UNL     1     -12.939  13.810  -4.505  1.00  0.00    -0.744 OA
ENDBRANCH  98  99
ENDBRANCH  66  91
ENDBRANCH  40  41
ENDBRANCH  32  35
ENDBRANCH  30  31
ENDBRANCH  29  30
ENDBRANCH  28  29
ENDBRANCH   1  28
TORSDOF 21
