REMARK SMILES Cc1nn(C)c(=O)c(C(=O)N2CCCC[C@H]2C(=O)NCCCCCCNC(=O)c2ccc(-c3c4nc(c(-c5c(F)cc(S(=O)(=O)[O-])cc5F)c5ccc([nH]5)c(-c5c(F)cc(S(=O)(=O)[O-])cc5F)c5nc(c(-c6c(F)cc(S(=O)(=O)[O-])cc6F)c6ccc3[nH]6)C=C5)C=C4)cc2)c1C
REMARK SMILES IDX 23 1 22 2 21 3 20 4 19 5 17 6 18 7 16 9 11 10 12 11 13 12
REMARK SMILES IDX 15 13 14 14 9 15 10 16 8 17 1 18 2 19 3 20 95 21 4 22 96 23
REMARK SMILES IDX 5 24 6 25 7 26 24 27 25 28 26 29 27 30 28 32 29 33 30 34
REMARK SMILES IDX 94 35 31 36 93 37 32 38 33 39 34 40 87 41 35 42 92 43 86 44
REMARK SMILES IDX 88 45 36 46 91 47 85 48 84 49 37 51 71 52 50 53 70 54 51 55
REMARK SMILES IDX 54 56 69 57 89 58 52 59 53 60 68 62 90 63 55 64 38 65 39 66
REMARK SMILES IDX 48 67 40 68 41 69 47 70 49 71 42 72 43 73 44 74 45 75 46 76
REMARK SMILES IDX 72 77 73 78 82 79 74 80 75 81 81 82 83 83 76 84 77 85 78 86
REMARK SMILES IDX 79 87 80 88 56 89 57 90 66 91 58 92 59 93 65 94 67 95 60 96
REMARK SMILES IDX 61 97 62 98 63 99 64 100
REMARK H PARENT 19 8 26 31 88 50 54 61
REMARK Flexibility Score: inf
ROOT
ATOM      1  C   UNL     1       0.136   5.849   6.090  1.00  0.00     0.002 C 
ENDROOT
BRANCH   1   2
ATOM      2  C   UNL     1      -0.166   4.786   5.025  1.00  0.00     0.002 C 
BRANCH   2   3
ATOM      3  C   UNL     1       0.247   5.164   3.600  1.00  0.00     0.021 C 
BRANCH   3   4
ATOM      4  C   UNL     1       1.731   5.497   3.454  1.00  0.00     0.116 C 
BRANCH   4   5
ATOM      5  N   UNL     1       2.543   4.380   3.034  1.00  0.00    -0.354 N 
ATOM      6  C   UNL     1       3.172   4.079   1.870  1.00  0.00     0.242 C 
ATOM      7  O   UNL     1       4.053   3.209   1.973  1.00  0.00    -0.273 OA
ATOM      8  H   UNL     1       2.666   3.699   3.734  1.00  0.00     0.163 HD
BRANCH   6   9
ATOM      9  C   UNL     1       2.979   4.783   0.480  1.00  0.00     0.174 C 
ATOM     10  N   UNL     1       1.691   5.318  -0.042  1.00  0.00    -0.326 N 
ATOM     11  C   UNL     1       1.316   6.688   0.352  1.00  0.00     0.120 C 
ATOM     12  C   UNL     1       2.451   7.696   0.528  1.00  0.00     0.022 C 
ATOM     13  C   UNL     1       4.101   5.831   0.340  1.00  0.00     0.035 C 
ATOM     14  C   UNL     1       3.761   7.131   1.050  1.00  0.00     0.004 C 
BRANCH  10  15
ATOM     15  C   UNL     1       0.840   4.737  -1.000  1.00  0.00     0.260 C 
ATOM     16  O   UNL     1       0.005   5.460  -1.562  1.00  0.00    -0.269 OA
BRANCH  15  17
ATOM     17  C   UNL     1       0.775   3.271  -1.392  1.00  0.00     0.111 A 
ATOM     18  C   UNL     1       0.772  -0.364  -0.286  1.00  0.00     0.069 C 
ATOM     19  C   UNL     1       0.435   0.879  -1.084  1.00  0.00     0.062 A 
ATOM     20  N   UNL     1      -0.203   0.690  -2.189  1.00  0.00    -0.175 NA
ATOM     21  C   UNL     1       0.812   2.223  -0.544  1.00  0.00    -0.010 A 
ATOM     22  N   UNL     1      -0.406   1.778  -2.980  1.00  0.00    -0.232 N 
ATOM     23  C   UNL     1       1.012   2.248   0.927  1.00  0.00     0.047 C 
ATOM     24  C   UNL     1      -1.204   1.532  -4.171  1.00  0.00     0.178 C 
ATOM     25  C   UNL     1       0.257   2.990  -2.794  1.00  0.00     0.279 A 
ATOM     26  O   UNL     1       0.392   3.806  -3.705  1.00  0.00    -0.267 OA
ENDBRANCH  15  17
ENDBRANCH  10  15
ENDBRANCH   6   9
ENDBRANCH   4   5
ENDBRANCH   3   4
ENDBRANCH   2   3
ENDBRANCH   1   2
BRANCH   1  27
ATOM     27  C   UNL     1      -0.396   7.251   5.778  1.00  0.00     0.021 C 
BRANCH  27  28
ATOM     28  C   UNL     1      -1.912   7.322   5.619  1.00  0.00     0.116 C 
BRANCH  28  29
ATOM     29  N   UNL     1      -2.590   6.872   6.825  1.00  0.00    -0.352 N 
ATOM     30  C   UNL     1      -3.343   7.592   7.717  1.00  0.00     0.251 C 
ATOM     31  H   UNL     1      -2.494   5.913   7.030  1.00  0.00     0.163 HD
ATOM     32  O   UNL     1      -3.585   7.134   8.827  1.00  0.00    -0.269 OA
BRANCH  30  33
ATOM     33  C   UNL     1      -3.861   8.918   7.324  1.00  0.00     0.039 A 
ATOM     34  C   UNL     1      -3.790   9.976   8.233  1.00  0.00     0.014 A 
ATOM     35  C   UNL     1      -4.437   9.104   6.064  1.00  0.00     0.014 A 
ATOM     36  C   UNL     1      -4.257  11.236   7.857  1.00  0.00     0.010 A 
ATOM     37  C   UNL     1      -4.835  10.375   5.665  1.00  0.00     0.010 A 
ATOM     38  C   UNL     1      -4.761  11.450   6.562  1.00  0.00    -0.014 A 
BRANCH  38  39
ATOM     39  C   UNL     1      -5.239  12.787   6.137  1.00  0.00     0.031 A 
ATOM     40  C   UNL     1      -6.693  12.995   5.816  1.00  0.00     0.074 A 
ATOM     41  C   UNL     1      -4.358  13.797   6.005  1.00  0.00     0.049 A 
ATOM     42  N   UNL     1      -7.297  14.074   5.391  1.00  0.00    -0.248 NA
ATOM     43  C   UNL     1      -7.583  11.833   5.973  1.00  0.00     0.031 C 
ATOM     44  C   UNL     1      -2.918  13.701   6.258  1.00  0.00     0.029 A 
ATOM     45  N   UNL     1      -4.540  15.103   5.626  1.00  0.00    -0.354 N 
ATOM     46  C   UNL     1      -8.632  13.723   5.232  1.00  0.00     0.074 A 
ATOM     47  C   UNL     1      -8.740  12.315   5.542  1.00  0.00     0.031 C 
ATOM     48  C   UNL     1      -2.356  14.903   6.061  1.00  0.00     0.029 A 
ATOM     49  C   UNL     1      -3.383  15.846   5.629  1.00  0.00     0.049 A 
ATOM     50  H   UNL     1      -5.417  15.473   5.375  1.00  0.00     0.167 HD
ATOM     51  C   UNL     1      -9.678  14.511   4.890  1.00  0.00     0.037 A 
ATOM     52  C   UNL     1      -3.176  17.141   5.319  1.00  0.00     0.037 A 
ATOM     53  C   UNL     1      -9.562  15.915   4.599  1.00  0.00     0.049 A 
ATOM     54  C   UNL     1      -4.350  17.988   4.907  1.00  0.00     0.074 A 
ATOM     55  C   UNL     1     -10.565  16.811   4.274  1.00  0.00     0.029 A 
ATOM     56  N   UNL     1      -8.371  16.629   4.598  1.00  0.00    -0.354 N 
ATOM     57  N   UNL     1      -5.614  17.650   4.805  1.00  0.00    -0.248 NA
ATOM     58  C   UNL     1      -4.072  19.390   4.569  1.00  0.00     0.031 C 
ATOM     59  C   UNL     1      -9.975  18.055   4.030  1.00  0.00     0.029 A 
ATOM     60  C   UNL     1      -8.612  17.949   4.257  1.00  0.00     0.049 A 
ATOM     61  H   UNL     1      -7.487  16.252   4.810  1.00  0.00     0.167 HD
ATOM     62  C   UNL     1      -6.285  18.803   4.415  1.00  0.00     0.074 A 
ATOM     63  C   UNL     1      -5.290  19.851   4.313  1.00  0.00     0.031 C 
ATOM     64  C   UNL     1      -7.607  18.979   4.165  1.00  0.00     0.037 A 
BRANCH  51  65
ATOM     65  C   UNL     1     -11.042  13.878   4.829  1.00  0.00     0.058 A 
ATOM     66  C   UNL     1     -11.708  13.461   5.993  1.00  0.00     0.135 A 
ATOM     67  C   UNL     1     -11.712  13.732   3.604  1.00  0.00     0.135 A 
ATOM     68  F   UNL     1     -11.107  13.560   7.190  1.00  0.00    -0.206 F 
ATOM     69  C   UNL     1     -12.981  12.903   5.943  1.00  0.00     0.059 A 
ATOM     70  C   UNL     1     -12.998  13.203   3.534  1.00  0.00     0.059 A 
ATOM     71  F   UNL     1     -11.120  14.110   2.460  1.00  0.00    -0.206 F 
ATOM     72  C   UNL     1     -13.620  12.783   4.708  1.00  0.00     0.060 A 
BRANCH  72  73
ATOM     73  S   UNL     1     -15.280  12.075   4.668  1.00  0.00     0.124 S 
ATOM     74  O   UNL     1     -15.012  10.683   5.018  1.00  0.00    -0.237 OA
ATOM     75  O   UNL     1     -15.976  12.860   5.683  1.00  0.00    -0.237 OA
ATOM     76  O   UNL     1     -15.716  12.302   3.294  1.00  0.00    -0.744 OA
ENDBRANCH  72  73
ENDBRANCH  51  65
BRANCH  52  77
ATOM     77  C   UNL     1      -1.809  17.718   5.423  1.00  0.00     0.058 A 
ATOM     78  C   UNL     1      -1.495  18.644   6.428  1.00  0.00     0.135 A 
ATOM     79  C   UNL     1      -0.783  17.334   4.545  1.00  0.00     0.135 A 
ATOM     80  F   UNL     1      -2.443  19.048   7.288  1.00  0.00    -0.206 F 
ATOM     81  C   UNL     1      -0.216  19.176   6.556  1.00  0.00     0.059 A 
ATOM     82  C   UNL     1       0.511  17.832   4.669  1.00  0.00     0.059 A 
ATOM     83  F   UNL     1      -1.026  16.438   3.576  1.00  0.00    -0.206 F 
ATOM     84  C   UNL     1       0.783  18.758   5.676  1.00  0.00     0.060 A 
BRANCH  84  85
ATOM     85  S   UNL     1       2.453  19.410   5.892  1.00  0.00     0.124 S 
ATOM     86  O   UNL     1       2.278  20.805   5.504  1.00  0.00    -0.237 OA
ATOM     87  O   UNL     1       2.691  19.167   7.311  1.00  0.00    -0.237 OA
ATOM     88  O   UNL     1       3.253  18.597   4.981  1.00  0.00    -0.744 OA
ENDBRANCH  84  85
ENDBRANCH  52  77
BRANCH  64  89
ATOM     89  C   UNL     1      -8.065  20.357   3.774  1.00  0.00     0.058 A 
ATOM     90  C   UNL     1      -7.787  20.892   2.507  1.00  0.00     0.135 A 
ATOM     91  C   UNL     1      -8.861  21.116   4.647  1.00  0.00     0.135 A 
ATOM     92  F   UNL     1      -7.025  20.210   1.637  1.00  0.00    -0.206 F 
ATOM     93  C   UNL     1      -8.271  22.139   2.125  1.00  0.00     0.059 A 
ATOM     94  C   UNL     1      -9.380  22.352   4.275  1.00  0.00     0.059 A 
ATOM     95  F   UNL     1      -9.166  20.645   5.867  1.00  0.00    -0.206 F 
ATOM     96  C   UNL     1      -9.073  22.858   3.013  1.00  0.00     0.060 A 
BRANCH  96  97
ATOM     97  S   UNL     1      -9.732  24.452   2.481  1.00  0.00     0.124 S 
ATOM     98  O   UNL     1      -8.528  25.275   2.456  1.00  0.00    -0.237 OA
ATOM     99  O   UNL     1     -10.306  24.130   1.178  1.00  0.00    -0.237 OA
ATOM    100  O   UNL     1     -10.699  24.786   3.522  1.00  0.00    -0.744 OA
ENDBRANCH  96  97
ENDBRANCH  64  89
ENDBRANCH  38  39
ENDBRANCH  30  33
ENDBRANCH  28  29
ENDBRANCH  27  28
ENDBRANCH   1  27
TORSDOF 18
