REMARK SMILES O=C(NCCCCCCNC(=O)c1cn(Cc2ccc(N3CCCC3=O)cc2)c2cc(F)c(F)cc2c1=O)c1ccc(-c2c3nc(c(-c4c(F)cc(S(=O)(=O)[O-])cc4F)c4ccc([nH]4)c(-c4c(F)cc(S(=O)(=O)[O-])cc4F)c4nc(c(-c5c(F)cc(S(=O)(=O)[O-])cc5F)c5ccc2[nH]5)C=C4)C=C3)cc1
REMARK SMILES IDX 6 1 5 2 4 3 3 4 1 5 2 6 39 8 40 9 104 10 41 11 103 12 42 13
REMARK SMILES IDX 43 14 44 15 97 16 45 17 102 18 96 19 98 20 46 21 101 22
REMARK SMILES IDX 95 23 94 24 47 26 81 27 60 28 80 29 61 30 64 31 79 32 99 33
REMARK SMILES IDX 62 34 63 35 78 37 100 38 65 39 48 40 49 41 58 42 50 43 51 44
REMARK SMILES IDX 57 45 59 46 52 47 53 48 54 49 55 50 56 51 82 52 83 53 92 54
REMARK SMILES IDX 84 55 85 56 91 57 93 58 86 59 87 60 88 61 89 62 90 63 66 64
REMARK SMILES IDX 67 65 76 66 68 67 69 68 75 69 77 70 70 71 71 72 72 73 73 74
REMARK SMILES IDX 74 75 7 76 8 77 9 78 10 79 11 80 12 82 13 83 14 84 37 85
REMARK SMILES IDX 15 86 36 87 38 88 29 89 35 90 30 91 33 92 31 93 34 94 32 95
REMARK SMILES IDX 16 96 17 97 18 98 28 99 19 100 27 101 20 102 21 103 22 104
REMARK SMILES IDX 25 105 23 106 24 107 26 108
REMARK H PARENT 3 7 98 25 64 36 10 81
REMARK Flexibility Score: inf
ROOT
ATOM      1  C   UNL     1       4.328  -3.727  -0.928  1.00  0.00     0.002 C 
ENDROOT
BRANCH   1   2
ATOM      2  C   UNL     1       4.823  -2.602  -0.018  1.00  0.00     0.021 C 
BRANCH   2   3
ATOM      3  C   UNL     1       4.577  -1.196  -0.546  1.00  0.00     0.116 C 
BRANCH   3   4
ATOM      4  N   UNL     1       3.163  -0.907  -0.691  1.00  0.00    -0.352 N 
ATOM      5  O   UNL     1       1.173  -0.003  -0.181  1.00  0.00    -0.269 OA
ATOM      6  C   UNL     1       2.397   0.058  -0.088  1.00  0.00     0.251 C 
ATOM      7  H   UNL     1       2.679  -1.493  -1.317  1.00  0.00     0.163 HD
BRANCH   6   8
ATOM      8  C   UNL     1       3.027   1.163   0.670  1.00  0.00     0.039 A 
ATOM      9  C   UNL     1       2.379   1.649   1.809  1.00  0.00     0.014 A 
ATOM     10  C   UNL     1       4.206   1.772   0.231  1.00  0.00     0.014 A 
ATOM     11  C   UNL     1       2.909   2.743   2.497  1.00  0.00     0.010 A 
ATOM     12  C   UNL     1       4.789   2.793   0.977  1.00  0.00     0.010 A 
ATOM     13  C   UNL     1       4.116   3.328   2.083  1.00  0.00    -0.014 A 
BRANCH  13  14
ATOM     14  C   UNL     1       4.612   4.579   2.714  1.00  0.00     0.031 A 
ATOM     15  C   UNL     1       4.689   5.842   1.893  1.00  0.00     0.074 A 
ATOM     16  C   UNL     1       4.980   4.591   4.009  1.00  0.00     0.049 A 
ATOM     17  N   UNL     1       5.084   7.037   2.249  1.00  0.00    -0.248 NA
ATOM     18  C   UNL     1       4.298   5.743   0.476  1.00  0.00     0.031 C 
ATOM     19  C   UNL     1       4.976   3.430   4.899  1.00  0.00     0.029 A 
ATOM     20  N   UNL     1       5.417   5.620   4.806  1.00  0.00    -0.354 N 
ATOM     21  C   UNL     1       4.995   7.821   1.103  1.00  0.00     0.074 A 
ATOM     22  C   UNL     1       4.593   6.950   0.024  1.00  0.00     0.031 C 
ATOM     23  C   UNL     1       5.344   3.820   6.130  1.00  0.00     0.029 A 
ATOM     24  C   UNL     1       5.646   5.250   6.109  1.00  0.00     0.049 A 
ATOM     25  H   UNL     1       5.553   6.537   4.474  1.00  0.00     0.167 HD
ATOM     26  C   UNL     1       5.186   9.154   0.968  1.00  0.00     0.037 A 
ATOM     27  C   UNL     1       6.047   5.981   7.168  1.00  0.00     0.037 A 
ATOM     28  C   UNL     1       5.546  10.023   2.054  1.00  0.00     0.049 A 
ATOM     29  C   UNL     1       6.290   7.456   6.993  1.00  0.00     0.074 A 
ATOM     30  C   UNL     1       5.707  11.396   2.039  1.00  0.00     0.029 A 
ATOM     31  N   UNL     1       5.803   9.601   3.351  1.00  0.00    -0.354 N 
ATOM     32  N   UNL     1       6.137   8.193   5.918  1.00  0.00    -0.248 NA
ATOM     33  C   UNL     1       6.765   8.199   8.168  1.00  0.00     0.031 C 
ATOM     34  C   UNL     1       6.116  11.798   3.313  1.00  0.00     0.029 A 
ATOM     35  C   UNL     1       6.161  10.683   4.136  1.00  0.00     0.049 A 
ATOM     36  H   UNL     1       5.740   8.670   3.666  1.00  0.00     0.167 HD
ATOM     37  C   UNL     1       6.488   9.486   6.288  1.00  0.00     0.074 A 
ATOM     38  C   UNL     1       6.842   9.436   7.692  1.00  0.00     0.031 C 
ATOM     39  C   UNL     1       6.520  10.612   5.532  1.00  0.00     0.037 A 
BRANCH  26  40
ATOM     40  C   UNL     1       4.998   9.747  -0.402  1.00  0.00     0.058 A 
ATOM     41  C   UNL     1       3.733   9.814  -1.010  1.00  0.00     0.135 A 
ATOM     42  C   UNL     1       6.093  10.262  -1.115  1.00  0.00     0.135 A 
ATOM     43  F   UNL     1       2.653   9.323  -0.381  1.00  0.00    -0.206 F 
ATOM     44  C   UNL     1       3.567  10.326  -2.292  1.00  0.00     0.059 A 
ATOM     45  C   UNL     1       5.944  10.810  -2.386  1.00  0.00     0.059 A 
ATOM     46  F   UNL     1       7.324  10.225  -0.583  1.00  0.00    -0.206 F 
ATOM     47  C   UNL     1       4.680  10.819  -2.974  1.00  0.00     0.060 A 
BRANCH  47  48
ATOM     48  S   UNL     1       4.448  11.458  -4.646  1.00  0.00     0.124 S 
ATOM     49  O   UNL     1       4.161  10.233  -5.387  1.00  0.00    -0.237 OA
ATOM     50  O   UNL     1       3.324  12.373  -4.474  1.00  0.00    -0.237 OA
ATOM     51  O   UNL     1       5.728  12.089  -4.951  1.00  0.00    -0.744 OA
ENDBRANCH  47  48
ENDBRANCH  26  40
BRANCH  27  52
ATOM     52  C   UNL     1       6.203   5.323   8.493  1.00  0.00     0.058 A 
ATOM     53  C   UNL     1       5.290   5.566   9.529  1.00  0.00     0.135 A 
ATOM     54  C   UNL     1       7.226   4.390   8.729  1.00  0.00     0.135 A 
ATOM     55  F   UNL     1       4.303   6.458   9.357  1.00  0.00    -0.206 F 
ATOM     56  C   UNL     1       5.376   4.900  10.748  1.00  0.00     0.059 A 
ATOM     57  C   UNL     1       7.319   3.694   9.931  1.00  0.00     0.059 A 
ATOM     58  F   UNL     1       8.119   4.113   7.766  1.00  0.00    -0.206 F 
ATOM     59  C   UNL     1       6.386   3.954  10.934  1.00  0.00     0.060 A 
BRANCH  59  60
ATOM     60  S   UNL     1       6.427   3.030  12.485  1.00  0.00     0.124 S 
ATOM     61  O   UNL     1       6.785   4.070  13.441  1.00  0.00    -0.237 OA
ATOM     62  O   UNL     1       5.061   2.524  12.571  1.00  0.00    -0.237 OA
ATOM     63  O   UNL     1       7.449   2.015  12.245  1.00  0.00    -0.744 OA
ENDBRANCH  59  60
ENDBRANCH  27  52
BRANCH  39  64
ATOM     64  C   UNL     1       6.974  11.888   6.186  1.00  0.00     0.058 A 
ATOM     65  C   UNL     1       8.328  12.110   6.478  1.00  0.00     0.135 A 
ATOM     66  C   UNL     1       6.072  12.942   6.404  1.00  0.00     0.135 A 
ATOM     67  F   UNL     1       9.229  11.132   6.293  1.00  0.00    -0.206 F 
ATOM     68  C   UNL     1       8.774  13.335   6.959  1.00  0.00     0.059 A 
ATOM     69  C   UNL     1       6.500  14.185   6.860  1.00  0.00     0.059 A 
ATOM     70  F   UNL     1       4.767  12.784   6.131  1.00  0.00    -0.206 F 
ATOM     71  C   UNL     1       7.854  14.372   7.133  1.00  0.00     0.060 A 
BRANCH  71  72
ATOM     72  S   UNL     1       8.467  15.979   7.680  1.00  0.00     0.124 S 
ATOM     73  O   UNL     1       8.876  15.690   9.050  1.00  0.00    -0.237 OA
ATOM     74  O   UNL     1       9.551  16.233   6.736  1.00  0.00    -0.237 OA
ATOM     75  O   UNL     1       7.306  16.853   7.543  1.00  0.00    -0.744 OA
ENDBRANCH  71  72
ENDBRANCH  39  64
ENDBRANCH  13  14
ENDBRANCH   6   8
ENDBRANCH   3   4
ENDBRANCH   2   3
ENDBRANCH   1   2
BRANCH   1  76
ATOM     76  C   UNL     1       4.862  -3.700  -2.363  1.00  0.00     0.002 C 
BRANCH  76  77
ATOM     77  C   UNL     1       6.385  -3.631  -2.500  1.00  0.00     0.021 C 
BRANCH  77  78
ATOM     78  C   UNL     1       7.156  -4.699  -1.732  1.00  0.00     0.116 C 
BRANCH  78  79
ATOM     79  N   UNL     1       6.834  -6.051  -2.158  1.00  0.00    -0.352 N 
ATOM     80  C   UNL     1       7.658  -7.055  -2.591  1.00  0.00     0.256 C 
ATOM     81  H   UNL     1       5.877  -6.280  -2.130  1.00  0.00     0.163 HD
ATOM     82  O   UNL     1       7.180  -8.140  -2.906  1.00  0.00    -0.269 OA
BRANCH  80  83
ATOM     83  C   UNL     1       9.111  -6.796  -2.663  1.00  0.00     0.104 A 
ATOM     84  C   UNL     1       9.794  -6.426  -1.568  1.00  0.00     0.104 A 
ATOM     85  C   UNL     1       9.871  -6.954  -3.920  1.00  0.00     0.202 A 
ATOM     86  N   UNL     1      11.122  -6.017  -1.520  1.00  0.00    -0.342 N 
ATOM     87  C   UNL     1      11.317  -6.630  -3.882  1.00  0.00     0.050 A 
ATOM     88  O   UNL     1       9.345  -7.274  -4.980  1.00  0.00    -0.288 OA
ATOM     89  C   UNL     1      11.867  -6.037  -2.722  1.00  0.00     0.055 A 
ATOM     90  C   UNL     1      12.089  -6.875  -5.029  1.00  0.00     0.056 A 
ATOM     91  C   UNL     1      13.156  -5.507  -2.849  1.00  0.00     0.069 A 
ATOM     92  C   UNL     1      13.415  -6.480  -5.044  1.00  0.00     0.159 A 
ATOM     93  C   UNL     1      13.934  -5.768  -3.976  1.00  0.00     0.160 A 
ATOM     94  F   UNL     1      14.182  -6.764  -6.104  1.00  0.00    -0.204 F 
ATOM     95  F   UNL     1      15.204  -5.339  -4.002  1.00  0.00    -0.204 F 
BRANCH  86  96
ATOM     96  C   UNL     1      11.767  -5.659  -0.229  1.00  0.00     0.157 C 
BRANCH  96  97
ATOM     97  C   UNL     1      12.610  -6.785   0.346  1.00  0.00    -0.028 A 
ATOM     98  C   UNL     1      13.927  -6.993  -0.076  1.00  0.00     0.008 A 
ATOM     99  C   UNL     1      12.098  -7.660   1.311  1.00  0.00     0.008 A 
ATOM    100  C   UNL     1      14.681  -8.076   0.376  1.00  0.00     0.027 A 
ATOM    101  C   UNL     1      12.860  -8.748   1.770  1.00  0.00     0.027 A 
ATOM    102  C   UNL     1      14.151  -8.990   1.284  1.00  0.00     0.044 A 
BRANCH 102 103
ATOM    103  N   UNL     1      14.897 -10.132   1.661  1.00  0.00    -0.312 N 
ATOM    104  C   UNL     1      16.340 -10.183   1.628  1.00  0.00     0.126 C 
ATOM    105  C   UNL     1      14.361 -11.332   2.140  1.00  0.00     0.227 C 
ATOM    106  C   UNL     1      16.661 -11.661   1.623  1.00  0.00     0.032 C 
ATOM    107  C   UNL     1      15.508 -12.281   2.390  1.00  0.00     0.102 C 
ATOM    108  O   UNL     1      13.191 -11.630   2.338  1.00  0.00    -0.275 OA
ENDBRANCH 102 103
ENDBRANCH  96  97
ENDBRANCH  86  96
ENDBRANCH  80  83
ENDBRANCH  78  79
ENDBRANCH  77  78
ENDBRANCH  76  77
ENDBRANCH   1  76
TORSDOF 19
