REMARK SMILES Cc1c(C[N@H+]2CC[C@@H](C(=O)NCCCCCCNC(=O)c3ccc(-c4c5nc(c(-c6c(F)cc(S(=O)(=O)[O-])cc6F)c6ccc([nH]6)c(-c6c(F)cc(S(=O)(=O)[O-])cc6F)c6nc(c(-c7c(F)cc(S(=O)(=O)[O-])cc7F)c7ccc4[nH]7)C=C6)C=C5)cc3)[C@@H]2C)cccc1[N+](=O)[O-]
REMARK SMILES IDX 14 1 13 2 12 3 11 4 9 5 10 6 8 8 5 9 6 10 87 11 7 13 88 14
REMARK SMILES IDX 4 15 3 16 1 17 2 18 92 19 89 20 91 21 90 22 93 23 94 24
REMARK SMILES IDX 95 25 15 26 16 27 17 28 18 29 19 30 20 32 21 33 22 34 86 35
REMARK SMILES IDX 23 36 85 37 24 38 25 39 26 40 79 41 27 42 84 43 78 44 80 45
REMARK SMILES IDX 28 46 83 47 77 48 76 49 29 51 63 52 42 53 62 54 43 55 46 56
REMARK SMILES IDX 61 57 81 58 44 59 45 60 60 62 82 63 47 64 30 65 31 66 40 67
REMARK SMILES IDX 32 68 33 69 39 70 41 71 34 72 35 73 36 74 37 75 38 76 64 77
REMARK SMILES IDX 65 78 74 79 66 80 67 81 73 82 75 83 68 84 69 85 70 86 71 87
REMARK SMILES IDX 72 88 48 89 49 90 58 91 50 92 51 93 57 94 59 95 52 96 53 97
REMARK SMILES IDX 54 98 55 99 56 100
REMARK H PARENT 11 7 5 12 18 31 80 50 46 61
REMARK Flexibility Score: inf
ROOT
ATOM      1  C   UNL     1      -1.948   0.679  -2.203  1.00  0.00     0.002 C 
ENDROOT
BRANCH   1   2
ATOM      2  C   UNL     1      -0.916  -0.062  -1.015  1.00  0.00     0.021 C 
BRANCH   2   3
ATOM      3  C   UNL     1      -0.997  -0.381   1.162  1.00  0.00     0.116 C 
BRANCH   3   4
ATOM      4  N   UNL     1      -2.116  -1.021   2.109  1.00  0.00    -0.356 N 
ATOM      5  C   UNL     1      -2.222  -2.139   2.866  1.00  0.00     0.229 C 
ATOM      6  O   UNL     1      -3.299  -2.297   3.458  1.00  0.00    -0.275 OA
ATOM      7  H   UNL     1      -2.927  -0.465   2.152  1.00  0.00     0.163 HD
BRANCH   5   8
ATOM      8  C   UNL     1      -1.128  -3.183   3.032  1.00  0.00     0.142 C 
ATOM      9  N   UNL     1       0.522  -3.750   1.370  1.00  0.00    -0.328 N 
ATOM     10  C   UNL     1       1.228  -3.090   2.466  1.00  0.00     0.263 C 
ATOM     11  C   UNL     1      -0.852  -4.036   1.796  1.00  0.00     0.193 C 
ATOM     12  H   UNL     1       1.003  -4.631   1.192  1.00  0.00     0.348 HD
ATOM     13  C   UNL     1       0.207  -2.629   3.495  1.00  0.00     0.081 C 
ATOM     14  C   UNL     1      -0.961  -5.533   2.095  1.00  0.00     0.076 C 
BRANCH   9  15
ATOM     15  C   UNL     1       0.642  -3.128   0.043  1.00  0.00     0.299 C 
BRANCH  15  16
ATOM     16  C   UNL     1      -0.046  -1.789  -0.093  1.00  0.00     0.016 A 
ATOM     17  C   UNL     1       2.393  -0.323   0.039  1.00  0.00     0.052 C 
ATOM     18  C   UNL     1       0.896  -0.255   0.136  1.00  0.00     0.036 A 
ATOM     19  C   UNL     1       0.013   1.306   0.329  1.00  0.00     0.272 A 
ATOM     20  C   UNL     1      -1.860  -1.736  -0.199  1.00  0.00     0.010 A 
ATOM     21  C   UNL     1      -1.793   1.351   0.284  1.00  0.00     0.086 A 
ATOM     22  C   UNL     1      -2.732  -0.164  -0.001  1.00  0.00     0.008 A 
BRANCH  19  23
ATOM     23  N   UNL     1       0.699   2.558   0.612  1.00  0.00     0.062 N 
ATOM     24  O   UNL     1      -0.013   3.556   0.772  1.00  0.00    -0.258 OA
ATOM     25  O   UNL     1       1.928   2.538   0.715  1.00  0.00    -0.258 OA
ENDBRANCH  19  23
ENDBRANCH  15  16
ENDBRANCH   9  15
ENDBRANCH   5   8
ENDBRANCH   3   4
ENDBRANCH   2   3
ENDBRANCH   1   2
BRANCH   1  26
ATOM     26  C   UNL     1      -1.838   2.188  -2.484  1.00  0.00     0.002 C 
BRANCH  26  27
ATOM     27  C   UNL     1      -0.431   2.716  -2.717  1.00  0.00     0.021 C 
BRANCH  27  28
ATOM     28  C   UNL     1       0.128   2.326  -4.065  1.00  0.00     0.116 C 
BRANCH  28  29
ATOM     29  N   UNL     1       0.125   3.490  -4.930  1.00  0.00    -0.352 N 
ATOM     30  C   UNL     1       1.060   3.761  -5.904  1.00  0.00     0.251 C 
ATOM     31  H   UNL     1      -0.606   4.139  -4.811  1.00  0.00     0.163 HD
ATOM     32  O   UNL     1       1.614   4.836  -6.069  1.00  0.00    -0.269 OA
BRANCH  30  33
ATOM     33  C   UNL     1       1.258   2.646  -6.841  1.00  0.00     0.039 A 
ATOM     34  C   UNL     1       0.373   2.622  -7.929  1.00  0.00     0.014 A 
ATOM     35  C   UNL     1       1.824   1.492  -6.306  1.00  0.00     0.014 A 
ATOM     36  C   UNL     1      -0.125   1.405  -8.351  1.00  0.00     0.010 A 
ATOM     37  C   UNL     1       1.213   0.307  -6.618  1.00  0.00     0.010 A 
ATOM     38  C   UNL     1       0.224   0.281  -7.613  1.00  0.00    -0.014 A 
BRANCH  38  39
ATOM     39  C   UNL     1      -0.222  -1.054  -7.927  1.00  0.00     0.031 A 
ATOM     40  C   UNL     1       0.711  -1.829  -8.756  1.00  0.00     0.074 A 
ATOM     41  C   UNL     1      -1.315  -1.557  -7.320  1.00  0.00     0.049 A 
ATOM     42  N   UNL     1       0.441  -2.960  -9.286  1.00  0.00    -0.248 NA
ATOM     43  C   UNL     1       2.050  -1.343  -9.092  1.00  0.00     0.031 C 
ATOM     44  C   UNL     1      -1.744  -2.946  -7.236  1.00  0.00     0.029 A 
ATOM     45  N   UNL     1      -2.409  -0.828  -6.841  1.00  0.00    -0.354 N 
ATOM     46  C   UNL     1       1.618  -3.483  -9.773  1.00  0.00     0.074 A 
ATOM     47  C   UNL     1       2.561  -2.399  -9.725  1.00  0.00     0.031 C 
ATOM     48  C   UNL     1      -3.075  -2.973  -7.038  1.00  0.00     0.029 A 
ATOM     49  C   UNL     1      -3.549  -1.603  -7.160  1.00  0.00     0.049 A 
ATOM     50  H   UNL     1      -2.391   0.041  -6.380  1.00  0.00     0.167 HD
ATOM     51  C   UNL     1       1.645  -4.820 -10.024  1.00  0.00     0.037 A 
ATOM     52  C   UNL     1      -4.391  -1.155  -8.143  1.00  0.00     0.037 A 
ATOM     53  C   UNL     1       0.274  -5.345  -9.963  1.00  0.00     0.049 A 
ATOM     54  C   UNL     1      -4.371  -2.018  -9.404  1.00  0.00     0.074 A 
ATOM     55  C   UNL     1      -0.485  -5.997  -9.006  1.00  0.00     0.029 A 
ATOM     56  N   UNL     1      -0.635  -4.840 -10.876  1.00  0.00    -0.354 N 
ATOM     57  N   UNL     1      -3.549  -3.013  -9.616  1.00  0.00    -0.248 NA
ATOM     58  C   UNL     1      -5.256  -1.793 -10.545  1.00  0.00     0.031 C 
ATOM     59  C   UNL     1      -1.866  -5.827  -9.347  1.00  0.00     0.029 A 
ATOM     60  C   UNL     1      -1.942  -5.102 -10.523  1.00  0.00     0.049 A 
ATOM     61  H   UNL     1      -0.377  -4.348 -11.689  1.00  0.00     0.167 HD
ATOM     62  C   UNL     1      -3.743  -3.533 -10.871  1.00  0.00     0.074 A 
ATOM     63  C   UNL     1      -4.817  -2.718 -11.418  1.00  0.00     0.031 C 
ATOM     64  C   UNL     1      -3.000  -4.570 -11.377  1.00  0.00     0.037 A 
BRANCH  51  65
ATOM     65  C   UNL     1       2.886  -5.684 -10.125  1.00  0.00     0.058 A 
ATOM     66  C   UNL     1       2.754  -7.087 -10.048  1.00  0.00     0.135 A 
ATOM     67  C   UNL     1       4.223  -5.234 -10.207  1.00  0.00     0.135 A 
ATOM     68  F   UNL     1       1.550  -7.674 -10.002  1.00  0.00    -0.206 F 
ATOM     69  C   UNL     1       3.846  -7.957  -9.993  1.00  0.00     0.059 A 
ATOM     70  C   UNL     1       5.331  -6.082 -10.143  1.00  0.00     0.059 A 
ATOM     71  F   UNL     1       4.545  -3.951 -10.370  1.00  0.00    -0.206 F 
ATOM     72  C   UNL     1       5.134  -7.444 -10.023  1.00  0.00     0.060 A 
BRANCH  72  73
ATOM     73  S   UNL     1       6.530  -8.574  -9.916  1.00  0.00     0.124 S 
ATOM     74  O   UNL     1       6.321  -9.188  -8.609  1.00  0.00    -0.237 OA
ATOM     75  O   UNL     1       6.311  -9.438 -11.070  1.00  0.00    -0.237 OA
ATOM     76  O   UNL     1       7.691  -7.693 -10.008  1.00  0.00    -0.744 OA
ENDBRANCH  72  73
ENDBRANCH  51  65
BRANCH  52  77
ATOM     77  C   UNL     1      -4.551   0.337  -8.083  1.00  0.00     0.058 A 
ATOM     78  C   UNL     1      -5.061   0.899  -6.889  1.00  0.00     0.135 A 
ATOM     79  C   UNL     1      -3.824   1.188  -8.925  1.00  0.00     0.135 A 
ATOM     80  F   UNL     1      -5.780   0.140  -6.045  1.00  0.00    -0.206 F 
ATOM     81  C   UNL     1      -4.718   2.184  -6.468  1.00  0.00     0.059 A 
ATOM     82  C   UNL     1      -3.489   2.489  -8.532  1.00  0.00     0.059 A 
ATOM     83  F   UNL     1      -3.312   0.727 -10.075  1.00  0.00    -0.206 F 
ATOM     84  C   UNL     1      -3.886   2.953  -7.277  1.00  0.00     0.060 A 
BRANCH  84  85
ATOM     85  S   UNL     1      -3.204   4.490  -6.607  1.00  0.00     0.124 S 
ATOM     86  O   UNL     1      -4.387   5.340  -6.541  1.00  0.00    -0.237 OA
ATOM     87  O   UNL     1      -2.657   4.057  -5.322  1.00  0.00    -0.237 OA
ATOM     88  O   UNL     1      -2.199   4.870  -7.591  1.00  0.00    -0.744 OA
ENDBRANCH  84  85
ENDBRANCH  52  77
BRANCH  64  89
ATOM     89  C   UNL     1      -3.176  -5.154 -12.768  1.00  0.00     0.058 A 
ATOM     90  C   UNL     1      -4.433  -5.343 -13.364  1.00  0.00     0.135 A 
ATOM     91  C   UNL     1      -2.078  -5.641 -13.523  1.00  0.00     0.135 A 
ATOM     92  F   UNL     1      -5.562  -5.056 -12.698  1.00  0.00    -0.206 F 
ATOM     93  C   UNL     1      -4.579  -5.862 -14.654  1.00  0.00     0.059 A 
ATOM     94  C   UNL     1      -2.204  -6.219 -14.779  1.00  0.00     0.059 A 
ATOM     95  F   UNL     1      -0.813  -5.554 -13.094  1.00  0.00    -0.206 F 
ATOM     96  C   UNL     1      -3.456  -6.287 -15.359  1.00  0.00     0.060 A 
BRANCH  96  97
ATOM     97  S   UNL     1      -3.635  -6.942 -17.024  1.00  0.00     0.124 S 
ATOM     98  O   UNL     1      -4.785  -7.831 -16.886  1.00  0.00    -0.237 OA
ATOM     99  O   UNL     1      -3.864  -5.723 -17.792  1.00  0.00    -0.237 OA
ATOM    100  O   UNL     1      -2.360  -7.610 -17.269  1.00  0.00    -0.744 OA
ENDBRANCH  96  97
ENDBRANCH  64  89
ENDBRANCH  38  39
ENDBRANCH  30  33
ENDBRANCH  28  29
ENDBRANCH  27  28
ENDBRANCH  26  27
ENDBRANCH   1  26
TORSDOF 19
