REMARK SMILES Cc1ccccc1C(=O)Nc1ccc(OCC(=O)NCCCCCCNC(=O)c2ccc(-c3c4nc(c(-c5c(F)cc(S(=O)(=O)[O-])cc5F)c5ccc([nH]5)c(-c5c(F)cc(S(=O)(=O)[O-])cc5F)c5nc(c(-c6c(F)cc(S(=O)(=O)[O-])cc6F)c6ccc3[nH]6)C=C5)C=C4)cc2)c(-c2nc3ccccc3s2)c1
REMARK SMILES IDX 22 1 21 2 20 3 19 4 17 5 18 6 16 8 15 9 14 10 11 11 12 12
REMARK SMILES IDX 105 13 13 14 95 15 10 16 8 17 9 18 7 20 1 21 2 22 3 23 4 24
REMARK SMILES IDX 6 25 5 26 96 27 97 28 104 29 98 30 103 31 99 32 102 33
REMARK SMILES IDX 100 34 101 35 23 36 24 37 25 38 26 39 27 40 28 42 29 43
REMARK SMILES IDX 30 44 94 45 31 46 93 47 32 48 33 49 34 50 87 51 35 52 92 53
REMARK SMILES IDX 86 54 88 55 36 56 91 57 85 58 84 59 37 61 71 62 50 63 70 64
REMARK SMILES IDX 51 65 54 66 69 67 89 68 52 69 53 70 68 72 90 73 55 74 38 75
REMARK SMILES IDX 39 76 48 77 40 78 41 79 47 80 49 81 42 82 43 83 44 84 45 85
REMARK SMILES IDX 46 86 72 87 73 88 82 89 74 90 75 91 81 92 83 93 76 94 77 95
REMARK SMILES IDX 78 96 79 97 80 98 56 99 57 100 66 101 58 102 59 103 65 104
REMARK SMILES IDX 67 105 60 106 61 107 62 108 63 109 64 110
REMARK H PARENT 19 7 10 19 26 41 88 60 54 71
REMARK Flexibility Score: inf
ROOT
ATOM      1  C   UNL     1       2.604  -4.006   3.772  1.00  0.00     0.002 C 
ENDROOT
BRANCH   1   2
ATOM      2  C   UNL     1       3.987  -3.503   3.337  1.00  0.00     0.021 C 
BRANCH   2   3
ATOM      3  C   UNL     1       4.591  -4.181   2.111  1.00  0.00     0.116 C 
BRANCH   3   4
ATOM      4  N   UNL     1       3.725  -4.072   0.960  1.00  0.00    -0.353 N 
ATOM      5  C   UNL     1       3.983  -3.679  -0.314  1.00  0.00     0.257 C 
ATOM      6  O   UNL     1       3.031  -3.712  -1.096  1.00  0.00    -0.271 OA
ATOM      7  H   UNL     1       2.789  -4.325   1.128  1.00  0.00     0.163 HD
BRANCH   5   8
ATOM      8  C   UNL     1       5.415  -3.271  -0.746  1.00  0.00     0.329 C 
BRANCH   8   9
ATOM      9  O   UNL     1       5.670  -2.169  -1.616  1.00  0.00    -0.483 OA
BRANCH   9  10
ATOM     10  C   UNL     1       4.920  -1.063  -1.321  1.00  0.00     0.130 A 
ATOM     11  C   UNL     1       3.392   1.122  -0.504  1.00  0.00     0.042 A 
ATOM     12  C   UNL     1       4.627   0.880   0.096  1.00  0.00     0.030 A 
ATOM     13  C   UNL     1       2.996   0.353  -1.602  1.00  0.00     0.041 A 
ATOM     14  C   UNL     1       5.372  -0.234  -0.286  1.00  0.00     0.049 A 
ATOM     15  C   UNL     1       3.774  -0.729  -2.070  1.00  0.00     0.055 A 
BRANCH  11  16
ATOM     16  N   UNL     1       2.588   2.123   0.057  1.00  0.00    -0.322 N 
ATOM     17  C   UNL     1       1.218   2.206   0.182  1.00  0.00     0.255 C 
ATOM     18  O   UNL     1       0.714   3.299   0.448  1.00  0.00    -0.269 OA
ATOM     19  H   UNL     1       3.082   2.892   0.422  1.00  0.00     0.170 HD
BRANCH  17  20
ATOM     20  C   UNL     1       0.321   1.013   0.090  1.00  0.00     0.043 A 
ATOM     21  C   UNL     1       1.759  -0.573   1.536  1.00  0.00     0.045 C 
ATOM     22  C   UNL     1       0.572  -0.246   0.676  1.00  0.00    -0.038 A 
ATOM     23  C   UNL     1      -0.367  -1.280   0.488  1.00  0.00     0.004 A 
ATOM     24  C   UNL     1      -1.578  -1.048  -0.161  1.00  0.00     0.000 A 
ATOM     25  C   UNL     1      -0.922   1.240  -0.531  1.00  0.00     0.014 A 
ATOM     26  C   UNL     1      -1.869   0.221  -0.645  1.00  0.00     0.001 A 
ENDBRANCH  17  20
ENDBRANCH  11  16
BRANCH  15  27
ATOM     27  C   UNL     1       3.271  -1.469  -3.255  1.00  0.00     0.128 A 
ATOM     28  N   UNL     1       2.185  -1.121  -3.926  1.00  0.00    -0.236 NA
ATOM     29  S   UNL     1       4.034  -2.876  -3.907  1.00  0.00    -0.114 S 
ATOM     30  C   UNL     1       1.742  -2.187  -4.687  1.00  0.00     0.082 A 
ATOM     31  C   UNL     1       2.572  -3.305  -4.683  1.00  0.00     0.055 A 
ATOM     32  C   UNL     1       0.531  -2.251  -5.401  1.00  0.00     0.030 A 
ATOM     33  C   UNL     1       2.193  -4.525  -5.260  1.00  0.00     0.021 A 
ATOM     34  C   UNL     1       0.144  -3.457  -5.995  1.00  0.00     0.002 A 
ATOM     35  C   UNL     1       0.952  -4.587  -5.897  1.00  0.00     0.002 A 
ENDBRANCH  15  27
ENDBRANCH   9  10
ENDBRANCH   8   9
ENDBRANCH   5   8
ENDBRANCH   3   4
ENDBRANCH   2   3
ENDBRANCH   1   2
BRANCH   1  36
ATOM     36  C   UNL     1       2.435  -5.519   3.970  1.00  0.00     0.002 C 
BRANCH  36  37
ATOM     37  C   UNL     1       3.514  -6.239   4.779  1.00  0.00     0.021 C 
BRANCH  37  38
ATOM     38  C   UNL     1       3.754  -5.652   6.162  1.00  0.00     0.116 C 
BRANCH  38  39
ATOM     39  N   UNL     1       3.441  -6.561   7.248  1.00  0.00    -0.352 N 
ATOM     40  C   UNL     1       3.754  -6.396   8.587  1.00  0.00     0.251 C 
ATOM     41  H   UNL     1       2.954  -7.383   7.008  1.00  0.00     0.163 HD
ATOM     42  O   UNL     1       3.711  -7.309   9.393  1.00  0.00    -0.269 OA
BRANCH  40  43
ATOM     43  C   UNL     1       4.010  -5.009   9.034  1.00  0.00     0.039 A 
ATOM     44  C   UNL     1       3.022  -4.399   9.817  1.00  0.00     0.014 A 
ATOM     45  C   UNL     1       5.038  -4.265   8.463  1.00  0.00     0.014 A 
ATOM     46  C   UNL     1       2.976  -3.009   9.899  1.00  0.00     0.010 A 
ATOM     47  C   UNL     1       4.934  -2.887   8.468  1.00  0.00     0.010 A 
ATOM     48  C   UNL     1       3.886  -2.258   9.155  1.00  0.00    -0.014 A 
BRANCH  48  49
ATOM     49  C   UNL     1       3.785  -0.814   8.979  1.00  0.00     0.031 A 
ATOM     50  C   UNL     1       4.730   0.091   9.675  1.00  0.00     0.074 A 
ATOM     51  C   UNL     1       2.871  -0.288   8.133  1.00  0.00     0.049 A 
ATOM     52  N   UNL     1       4.477   1.327   9.951  1.00  0.00    -0.248 NA
ATOM     53  C   UNL     1       6.042  -0.345  10.148  1.00  0.00     0.031 C 
ATOM     54  C   UNL     1       2.840   1.077   7.614  1.00  0.00     0.029 A 
ATOM     55  N   UNL     1       1.665  -0.841   7.711  1.00  0.00    -0.354 N 
ATOM     56  C   UNL     1       5.650   1.909  10.370  1.00  0.00     0.074 A 
ATOM     57  C   UNL     1       6.582   0.817  10.530  1.00  0.00     0.031 C 
ATOM     58  C   UNL     1       1.609   1.342   7.152  1.00  0.00     0.029 A 
ATOM     59  C   UNL     1       0.762   0.211   7.489  1.00  0.00     0.049 A 
ATOM     60  H   UNL     1       1.479  -1.800   7.590  1.00  0.00     0.167 HD
ATOM     61  C   UNL     1       5.763   3.267  10.408  1.00  0.00     0.037 A 
ATOM     62  C   UNL     1      -0.407   0.306   8.189  1.00  0.00     0.037 A 
ATOM     63  C   UNL     1       4.527   3.923  10.003  1.00  0.00     0.049 A 
ATOM     64  C   UNL     1      -0.513   1.546   9.048  1.00  0.00     0.074 A 
ATOM     65  C   UNL     1       4.098   4.435   8.789  1.00  0.00     0.029 A 
ATOM     66  N   UNL     1       3.399   3.839  10.813  1.00  0.00    -0.354 N 
ATOM     67  N   UNL     1       0.501   2.299   9.374  1.00  0.00    -0.248 NA
ATOM     68  C   UNL     1      -1.767   2.032   9.620  1.00  0.00     0.031 C 
ATOM     69  C   UNL     1       2.697   4.613   8.853  1.00  0.00     0.029 A 
ATOM     70  C   UNL     1       2.272   4.223  10.110  1.00  0.00     0.049 A 
ATOM     71  H   UNL     1       3.403   3.547  11.753  1.00  0.00     0.167 HD
ATOM     72  C   UNL     1       0.081   3.312  10.199  1.00  0.00     0.074 A 
ATOM     73  C   UNL     1      -1.353   3.117  10.298  1.00  0.00     0.031 C 
ATOM     74  C   UNL     1       0.956   4.219  10.732  1.00  0.00     0.037 A 
BRANCH  61  75
ATOM     75  C   UNL     1       7.104   3.952  10.512  1.00  0.00     0.058 A 
ATOM     76  C   UNL     1       7.416   5.070   9.711  1.00  0.00     0.135 A 
ATOM     77  C   UNL     1       8.146   3.502  11.346  1.00  0.00     0.135 A 
ATOM     78  F   UNL     1       6.503   5.645   8.918  1.00  0.00    -0.206 F 
ATOM     79  C   UNL     1       8.692   5.631   9.659  1.00  0.00     0.059 A 
ATOM     80  C   UNL     1       9.447   4.015  11.276  1.00  0.00     0.059 A 
ATOM     81  F   UNL     1       7.929   2.543  12.259  1.00  0.00    -0.206 F 
ATOM     82  C   UNL     1       9.713   5.075  10.418  1.00  0.00     0.060 A 
BRANCH  82  83
ATOM     83  S   UNL     1      11.382   5.731  10.227  1.00  0.00     0.124 S 
ATOM     84  O   UNL     1      11.543   5.754   8.776  1.00  0.00    -0.237 OA
ATOM     85  O   UNL     1      11.271   7.033  10.874  1.00  0.00    -0.237 OA
ATOM     86  O   UNL     1      12.211   4.750  10.922  1.00  0.00    -0.744 OA
ENDBRANCH  82  83
ENDBRANCH  61  75
BRANCH  62  87
ATOM     87  C   UNL     1      -1.006  -1.020   8.504  1.00  0.00     0.058 A 
ATOM     88  C   UNL     1      -1.521  -1.770   7.429  1.00  0.00     0.135 A 
ATOM     89  C   UNL     1      -0.660  -1.713   9.672  1.00  0.00     0.135 A 
ATOM     90  F   UNL     1      -1.888  -1.151   6.295  1.00  0.00    -0.206 F 
ATOM     91  C   UNL     1      -1.523  -3.160   7.442  1.00  0.00     0.059 A 
ATOM     92  C   UNL     1      -0.661  -3.110   9.710  1.00  0.00     0.059 A 
ATOM     93  F   UNL     1      -0.171  -1.052  10.731  1.00  0.00    -0.206 F 
ATOM     94  C   UNL     1      -1.019  -3.819   8.562  1.00  0.00     0.060 A 
BRANCH  94  95
ATOM     95  S   UNL     1      -0.677  -5.590   8.417  1.00  0.00     0.124 S 
ATOM     96  O   UNL     1      -1.985  -6.126   8.057  1.00  0.00    -0.237 OA
ATOM     97  O   UNL     1       0.327  -5.615   7.354  1.00  0.00    -0.237 OA
ATOM     98  O   UNL     1      -0.192  -5.947   9.744  1.00  0.00    -0.744 OA
ENDBRANCH  94  95
ENDBRANCH  62  87
BRANCH  74  99
ATOM     99  C   UNL     1       0.653   5.254  11.795  1.00  0.00     0.058 A 
ATOM    100  C   UNL     1      -0.348   5.119  12.771  1.00  0.00     0.135 A 
ATOM    101  C   UNL     1       1.488   6.392  11.942  1.00  0.00     0.135 A 
ATOM    102  F   UNL     1      -1.134   4.035  12.820  1.00  0.00    -0.206 F 
ATOM    103  C   UNL     1      -0.553   6.071  13.775  1.00  0.00     0.059 A 
ATOM    104  C   UNL     1       1.338   7.323  12.967  1.00  0.00     0.059 A 
ATOM    105  F   UNL     1       2.501   6.634  11.095  1.00  0.00    -0.206 F 
ATOM    106  C   UNL     1       0.295   7.170  13.866  1.00  0.00     0.060 A 
BRANCH 106 107
ATOM    107  S   UNL     1       0.085   8.367  15.197  1.00  0.00     0.124 S 
ATOM    108  O   UNL     1      -0.796   9.347  14.571  1.00  0.00    -0.237 OA
ATOM    109  O   UNL     1      -0.517   7.569  16.261  1.00  0.00    -0.237 OA
ATOM    110  O   UNL     1       1.448   8.816  15.458  1.00  0.00    -0.744 OA
ENDBRANCH 106 107
ENDBRANCH  74  99
ENDBRANCH  48  49
ENDBRANCH  40  43
ENDBRANCH  38  39
ENDBRANCH  37  38
ENDBRANCH  36  37
ENDBRANCH   1  36
TORSDOF 21
