REMARK SMILES CCn1c(N2CCC[C@H](C(=O)NCCCCCCNC(=O)c3ccc(-c4c5nc(c(-c6c(F)cc(S(=O)(=O)[O-])cc6F)c6ccc([nH]6)c(-c6c(F)cc(S(=O)(=O)[O-])cc6F)c6nc(c(-c7c(F)cc(S(=O)(=O)[O-])cc7F)c7ccc4[nH]7)C=C6)C=C5)cc3)C2)nc2cc(C)ccc21
REMARK SMILES IDX 16 1 15 2 14 3 13 4 12 5 10 6 11 7 9 9 5 10 6 11 88 12 7 13
REMARK SMILES IDX 8 14 4 15 3 16 96 17 89 18 90 19 95 20 91 21 94 22 92 23
REMARK SMILES IDX 93 24 2 25 1 26 17 27 18 28 19 29 20 30 21 32 22 33 23 34
REMARK SMILES IDX 87 35 24 36 86 37 25 38 26 39 27 40 80 41 28 42 85 43 79 44
REMARK SMILES IDX 81 45 29 46 84 47 78 48 77 49 30 51 64 52 43 53 63 54 44 55
REMARK SMILES IDX 47 56 62 57 82 58 45 59 46 60 61 62 83 63 48 64 31 65 32 66
REMARK SMILES IDX 41 67 33 68 34 69 40 70 42 71 35 72 36 73 37 74 38 75 39 76
REMARK SMILES IDX 65 77 66 78 75 79 67 80 68 81 74 82 76 83 69 84 70 85 71 86
REMARK SMILES IDX 72 87 73 88 49 89 50 90 59 91 51 92 52 93 58 94 60 95 53 96
REMARK SMILES IDX 54 97 55 98 56 99 57 100
REMARK H PARENT 12 8 19 31 81 50 47 61
REMARK Flexibility Score: inf
ROOT
ATOM      1  C   UNL     1       2.394   2.823   6.816  1.00  0.00     0.002 C 
ENDROOT
BRANCH   1   2
ATOM      2  C   UNL     1       1.493   4.058   6.660  1.00  0.00     0.002 C 
BRANCH   2   3
ATOM      3  C   UNL     1       1.001   4.342   5.241  1.00  0.00     0.021 C 
BRANCH   3   4
ATOM      4  C   UNL     1       0.188   3.202   4.638  1.00  0.00     0.116 C 
BRANCH   4   5
ATOM      5  N   UNL     1      -1.229   3.458   4.534  1.00  0.00    -0.356 N 
ATOM      6  C   UNL     1      -2.060   3.209   3.489  1.00  0.00     0.224 C 
ATOM      7  O   UNL     1      -3.267   3.118   3.752  1.00  0.00    -0.275 OA
ATOM      8  H   UNL     1      -1.648   3.868   5.325  1.00  0.00     0.163 HD
BRANCH   6   9
ATOM      9  C   UNL     1      -1.607   3.092   2.026  1.00  0.00     0.098 C 
ATOM     10  N   UNL     1       0.429   1.700   1.706  1.00  0.00    -0.341 N 
ATOM     11  C   UNL     1       1.230   2.784   1.150  1.00  0.00     0.119 C 
ATOM     12  C   UNL     1      -1.022   1.748   1.612  1.00  0.00     0.133 C 
ATOM     13  C   UNL     1       0.663   4.180   1.426  1.00  0.00     0.022 C 
ATOM     14  C   UNL     1      -0.858   4.294   1.456  1.00  0.00     0.017 C 
BRANCH  10  15
ATOM     15  C   UNL     1       1.019   0.706   2.423  1.00  0.00     0.206 A 
ATOM     16  N   UNL     1       0.971  -0.623   2.050  1.00  0.00    -0.310 N 
ATOM     17  C   UNL     1       1.452  -1.377   3.101  1.00  0.00     0.070 A 
ATOM     18  N   UNL     1       1.634   0.840   3.577  1.00  0.00    -0.213 NA
ATOM     19  C   UNL     1       1.830  -0.435   4.050  1.00  0.00     0.091 A 
ATOM     20  C   UNL     1       1.588  -2.754   3.322  1.00  0.00     0.029 A 
ATOM     21  C   UNL     1       2.313  -0.866   5.298  1.00  0.00     0.034 A 
ATOM     22  C   UNL     1       2.082  -3.163   4.568  1.00  0.00     0.006 A 
ATOM     23  C   UNL     1       2.428  -2.241   5.561  1.00  0.00    -0.049 A 
ATOM     24  C   UNL     1       2.904  -2.712   6.906  1.00  0.00     0.044 C 
BRANCH  16  25
ATOM     25  C   UNL     1       0.474  -1.162   0.800  1.00  0.00     0.122 C 
ATOM     26  C   UNL     1       1.103  -0.554  -0.445  1.00  0.00     0.028 C 
ENDBRANCH  16  25
ENDBRANCH  10  15
ENDBRANCH   6   9
ENDBRANCH   4   5
ENDBRANCH   3   4
ENDBRANCH   2   3
ENDBRANCH   1   2
BRANCH   1  27
ATOM     27  C   UNL     1       3.671   2.787   5.963  1.00  0.00     0.021 C 
BRANCH  27  28
ATOM     28  C   UNL     1       4.579   4.004   6.118  1.00  0.00     0.116 C 
BRANCH  28  29
ATOM     29  N   UNL     1       4.840   4.361   7.498  1.00  0.00    -0.352 N 
ATOM     30  C   UNL     1       5.721   3.973   8.463  1.00  0.00     0.251 C 
ATOM     31  H   UNL     1       4.227   5.061   7.819  1.00  0.00     0.163 HD
ATOM     32  O   UNL     1       5.622   4.567   9.542  1.00  0.00    -0.269 OA
BRANCH  30  33
ATOM     33  C   UNL     1       6.727   2.884   8.338  1.00  0.00     0.039 A 
ATOM     34  C   UNL     1       7.022   2.171   7.177  1.00  0.00     0.014 A 
ATOM     35  C   UNL     1       7.399   2.539   9.528  1.00  0.00     0.014 A 
ATOM     36  C   UNL     1       7.884   1.079   7.228  1.00  0.00     0.010 A 
ATOM     37  C   UNL     1       8.276   1.463   9.579  1.00  0.00     0.010 A 
ATOM     38  C   UNL     1       8.476   0.698   8.438  1.00  0.00    -0.014 A 
BRANCH  38  39
ATOM     39  C   UNL     1       9.383  -0.447   8.433  1.00  0.00     0.031 A 
ATOM     40  C   UNL     1      10.553  -0.291   7.522  1.00  0.00     0.074 A 
ATOM     41  C   UNL     1       9.244  -1.521   9.239  1.00  0.00     0.049 A 
ATOM     42  N   UNL     1      10.816  -0.952   6.441  1.00  0.00    -0.248 NA
ATOM     43  C   UNL     1      11.463   0.841   7.762  1.00  0.00     0.031 C 
ATOM     44  C   UNL     1       8.312  -1.706  10.355  1.00  0.00     0.029 A 
ATOM     45  N   UNL     1       9.977  -2.671   9.269  1.00  0.00    -0.354 N 
ATOM     46  C   UNL     1      12.036  -0.464   5.979  1.00  0.00     0.074 A 
ATOM     47  C   UNL     1      12.301   0.736   6.729  1.00  0.00     0.031 C 
ATOM     48  C   UNL     1       8.684  -2.787  11.081  1.00  0.00     0.029 A 
ATOM     49  C   UNL     1       9.779  -3.457  10.402  1.00  0.00     0.049 A 
ATOM     50  H   UNL     1      10.597  -2.925   8.548  1.00  0.00     0.167 HD
ATOM     51  C   UNL     1      12.841  -1.206   5.168  1.00  0.00     0.037 A 
ATOM     52  C   UNL     1      10.488  -4.558  10.765  1.00  0.00     0.037 A 
ATOM     53  C   UNL     1      12.108  -2.278   4.545  1.00  0.00     0.049 A 
ATOM     54  C   UNL     1      11.130  -5.080   9.532  1.00  0.00     0.074 A 
ATOM     55  C   UNL     1      11.054  -2.356   3.656  1.00  0.00     0.029 A 
ATOM     56  N   UNL     1      12.217  -3.525   5.106  1.00  0.00    -0.354 N 
ATOM     57  N   UNL     1      10.472  -5.580   8.523  1.00  0.00    -0.248 NA
ATOM     58  C   UNL     1      12.485  -4.644   9.240  1.00  0.00     0.031 C 
ATOM     59  C   UNL     1      10.299  -3.491   4.074  1.00  0.00     0.029 A 
ATOM     60  C   UNL     1      10.962  -4.075   5.154  1.00  0.00     0.049 A 
ATOM     61  H   UNL     1      13.049  -3.950   5.417  1.00  0.00     0.167 HD
ATOM     62  C   UNL     1      11.153  -5.133   7.400  1.00  0.00     0.074 A 
ATOM     63  C   UNL     1      12.432  -4.640   7.907  1.00  0.00     0.031 C 
ATOM     64  C   UNL     1      10.509  -4.957   6.209  1.00  0.00     0.037 A 
BRANCH  51  65
ATOM     65  C   UNL     1      14.353  -1.197   5.234  1.00  0.00     0.058 A 
ATOM     66  C   UNL     1      15.096  -1.906   4.267  1.00  0.00     0.135 A 
ATOM     67  C   UNL     1      15.084  -0.769   6.366  1.00  0.00     0.135 A 
ATOM     68  F   UNL     1      14.505  -2.369   3.154  1.00  0.00    -0.206 F 
ATOM     69  C   UNL     1      16.443  -2.229   4.447  1.00  0.00     0.059 A 
ATOM     70  C   UNL     1      16.438  -1.035   6.540  1.00  0.00     0.059 A 
ATOM     71  F   UNL     1      14.503  -0.158   7.404  1.00  0.00    -0.206 F 
ATOM     72  C   UNL     1      17.100  -1.801   5.596  1.00  0.00     0.060 A 
BRANCH  72  73
ATOM     73  S   UNL     1      18.806  -2.302   5.884  1.00  0.00     0.124 S 
ATOM     74  O   UNL     1      18.660  -3.745   6.060  1.00  0.00    -0.237 OA
ATOM     75  O   UNL     1      19.456  -1.875   4.646  1.00  0.00    -0.237 OA
ATOM     76  O   UNL     1      19.183  -1.555   7.073  1.00  0.00    -0.744 OA
ENDBRANCH  72  73
ENDBRANCH  51  65
BRANCH  52  77
ATOM     77  C   UNL     1      10.967  -4.943  12.124  1.00  0.00     0.058 A 
ATOM     78  C   UNL     1      11.557  -6.201  12.359  1.00  0.00     0.135 A 
ATOM     79  C   UNL     1      11.148  -3.980  13.136  1.00  0.00     0.135 A 
ATOM     80  F   UNL     1      11.451  -7.176  11.443  1.00  0.00    -0.206 F 
ATOM     81  C   UNL     1      12.332  -6.466  13.495  1.00  0.00     0.059 A 
ATOM     82  C   UNL     1      11.910  -4.223  14.280  1.00  0.00     0.059 A 
ATOM     83  F   UNL     1      10.667  -2.735  12.999  1.00  0.00    -0.206 F 
ATOM     84  C   UNL     1      12.525  -5.460  14.439  1.00  0.00     0.060 A 
BRANCH  84  85
ATOM     85  S   UNL     1      13.674  -5.734  15.811  1.00  0.00     0.124 S 
ATOM     86  O   UNL     1      12.982  -6.761  16.584  1.00  0.00    -0.237 OA
ATOM     87  O   UNL     1      14.883  -6.165  15.118  1.00  0.00    -0.237 OA
ATOM     88  O   UNL     1      13.758  -4.424  16.451  1.00  0.00    -0.744 OA
ENDBRANCH  84  85
ENDBRANCH  52  77
BRANCH  64  89
ATOM     89  C   UNL     1       9.132  -5.555   6.051  1.00  0.00     0.058 A 
ATOM     90  C   UNL     1       7.994  -5.154   6.775  1.00  0.00     0.135 A 
ATOM     91  C   UNL     1       8.935  -6.483   5.018  1.00  0.00     0.135 A 
ATOM     92  F   UNL     1       8.075  -4.203   7.716  1.00  0.00    -0.206 F 
ATOM     93  C   UNL     1       6.726  -5.680   6.506  1.00  0.00     0.059 A 
ATOM     94  C   UNL     1       7.678  -6.998   4.713  1.00  0.00     0.059 A 
ATOM     95  F   UNL     1       9.970  -6.866   4.252  1.00  0.00    -0.206 F 
ATOM     96  C   UNL     1       6.578  -6.602   5.470  1.00  0.00     0.060 A 
BRANCH  96  97
ATOM     97  S   UNL     1       4.933  -7.241   5.081  1.00  0.00     0.124 S 
ATOM     98  O   UNL     1       4.639  -8.071   6.244  1.00  0.00    -0.237 OA
ATOM     99  O   UNL     1       4.136  -6.024   4.959  1.00  0.00    -0.237 OA
ATOM    100  O   UNL     1       5.133  -7.969   3.830  1.00  0.00    -0.744 OA
ENDBRANCH  96  97
ENDBRANCH  64  89
ENDBRANCH  38  39
ENDBRANCH  30  33
ENDBRANCH  28  29
ENDBRANCH  27  28
ENDBRANCH   1  27
TORSDOF 18
