REMARK SMILES COc1ccc(-n2ccnc2C[N@@H+]2CCn3nc(C(=O)NCCCCCCNC(=O)c4ccc(-c5c6nc(c(-c7c(F)cc(S(=O)(=O)[O-])cc7F)c7ccc([nH]7)c(-c7c(F)cc(S(=O)(=O)[O-])cc7F)c7nc(c(-c8c(F)cc(S(=O)(=O)[O-])cc8F)c8ccc5[nH]8)C=C7)C=C6)cc4)cc3C2)cc1
REMARK SMILES IDX 24 1 23 2 22 3 21 4 19 5 20 6 18 8 13 9 14 10 99 11 15 13
REMARK SMILES IDX 98 14 16 15 97 16 17 17 12 18 11 19 7 20 8 21 9 22 10 23
REMARK SMILES IDX 6 24 3 25 4 26 101 27 5 28 100 29 2 30 1 31 25 32 26 33
REMARK SMILES IDX 27 34 28 35 29 36 30 38 31 39 32 40 96 41 33 42 95 43 34 44
REMARK SMILES IDX 35 45 36 46 89 47 37 48 94 49 88 50 90 51 38 52 93 53 87 54
REMARK SMILES IDX 86 55 39 57 73 58 52 59 72 60 53 61 56 62 71 63 91 64 54 65
REMARK SMILES IDX 55 66 70 68 92 69 57 70 40 71 41 72 50 73 42 74 43 75 49 76
REMARK SMILES IDX 51 77 44 78 45 79 46 80 47 81 48 82 74 83 75 84 84 85 76 86
REMARK SMILES IDX 77 87 83 88 85 89 78 90 79 91 80 92 81 93 82 94 58 95 59 96
REMARK SMILES IDX 68 97 60 98 61 99 67 100 69 101 62 102 63 103 64 104 65 105
REMARK SMILES IDX 66 106
REMARK H PARENT 21 7 13 12 28 37 90 56 56 67
REMARK Flexibility Score: inf
ROOT
ATOM      1  C   UNL     1       0.258   3.118  -5.968  1.00  0.00     0.002 C 
ENDROOT
BRANCH   1   2
ATOM      2  C   UNL     1       0.777   4.189  -5.007  1.00  0.00     0.021 C 
BRANCH   2   3
ATOM      3  C   UNL     1       0.010   4.343  -3.700  1.00  0.00     0.116 C 
BRANCH   3   4
ATOM      4  N   UNL     1       0.177   3.236  -2.761  1.00  0.00    -0.351 N 
ATOM      5  C   UNL     1       1.089   3.302  -1.540  1.00  0.00     0.271 C 
ATOM      6  O   UNL     1       2.138   2.960  -2.224  1.00  0.00    -0.267 OA
ATOM      7  H   UNL     1      -0.324   2.405  -2.925  1.00  0.00     0.163 HD
BRANCH   5   8
ATOM      8  C   UNL     1       0.753   3.646   0.488  1.00  0.00     0.150 A 
ATOM      9  N   UNL     1       0.797   7.188   2.425  1.00  0.00    -0.322 N 
ATOM     10  C   UNL     1       2.178   6.710   2.721  1.00  0.00     0.286 C 
ATOM     11  C   UNL     1      -0.238   6.268   2.941  1.00  0.00     0.319 C 
ATOM     12  H   UNL     1       0.772   8.066   2.943  1.00  0.00     0.348 HD
ATOM     13  C   UNL     1       2.321   5.232   3.157  1.00  0.00     0.206 C 
ATOM     14  C   UNL     1       0.047   4.933   2.369  1.00  0.00     0.094 A 
ATOM     15  N   UNL     1       1.302   4.455   2.478  1.00  0.00    -0.257 N 
ATOM     16  C   UNL     1      -0.517   4.192   1.365  1.00  0.00     0.065 A 
ATOM     17  N   UNL     1       1.615   3.487   1.619  1.00  0.00    -0.167 NA
BRANCH   9  18
ATOM     18  C   UNL     1       0.490   7.604   1.024  1.00  0.00     0.339 C 
BRANCH  18  19
ATOM     19  C   UNL     1       1.566   7.604  -0.025  1.00  0.00     0.168 A 
ATOM     20  N   UNL     1       1.981   6.511  -0.773  1.00  0.00    -0.299 N 
ATOM     21  C   UNL     1       3.101   6.901  -1.463  1.00  0.00     0.113 A 
ATOM     22  C   UNL     1       3.260   8.238  -1.197  1.00  0.00     0.132 A 
ATOM     23  N   UNL     1       2.303   8.665  -0.317  1.00  0.00    -0.236 NA
BRANCH  20  24
ATOM     24  C   UNL     1       1.509   5.189  -0.759  1.00  0.00     0.047 A 
ATOM     25  C   UNL     1       0.406   1.731  -0.369  1.00  0.00     0.119 A 
ATOM     26  C   UNL     1      -0.817   3.024  -0.763  1.00  0.00     0.048 A 
ATOM     27  C   UNL     1       2.165   2.149  -0.175  1.00  0.00     0.048 A 
ATOM     28  C   UNL     1      -0.253   4.781  -0.969  1.00  0.00     0.030 A 
ATOM     29  C   UNL     1       2.724   3.897  -0.370  1.00  0.00     0.030 A 
BRANCH  25  30
ATOM     30  O   UNL     1      -0.085   0.458  -0.278  1.00  0.00    -0.497 OA
ATOM     31  C   UNL     1       0.879  -0.469   0.201  1.00  0.00     0.278 C 
ENDBRANCH  25  30
ENDBRANCH  20  24
ENDBRANCH  18  19
ENDBRANCH   9  18
ENDBRANCH   5   8
ENDBRANCH   3   4
ENDBRANCH   2   3
ENDBRANCH   1   2
BRANCH   1  32
ATOM     32  C   UNL     1      -1.255   3.080  -6.241  1.00  0.00     0.002 C 
BRANCH  32  33
ATOM     33  C   UNL     1      -1.974   4.402  -6.549  1.00  0.00     0.021 C 
BRANCH  33  34
ATOM     34  C   UNL     1      -1.415   5.177  -7.726  1.00  0.00     0.116 C 
BRANCH  34  35
ATOM     35  N   UNL     1      -1.587   4.485  -9.003  1.00  0.00    -0.352 N 
ATOM     36  C   UNL     1      -1.153   4.901 -10.250  1.00  0.00     0.251 C 
ATOM     37  H   UNL     1      -2.065   3.625  -8.972  1.00  0.00     0.163 HD
ATOM     38  O   UNL     1      -1.675   4.478 -11.274  1.00  0.00    -0.269 OA
BRANCH  36  39
ATOM     39  C   UNL     1      -0.031   5.854 -10.310  1.00  0.00     0.039 A 
ATOM     40  C   UNL     1       0.018   6.909 -11.225  1.00  0.00     0.014 A 
ATOM     41  C   UNL     1       0.975   5.684  -9.367  1.00  0.00     0.014 A 
ATOM     42  C   UNL     1       1.069   7.820 -11.132  1.00  0.00     0.010 A 
ATOM     43  C   UNL     1       1.852   6.700  -9.127  1.00  0.00     0.010 A 
ATOM     44  C   UNL     1       1.979   7.709 -10.068  1.00  0.00    -0.014 A 
BRANCH  44  45
ATOM     45  C   UNL     1       3.031   8.689  -9.832  1.00  0.00     0.031 A 
ATOM     46  C   UNL     1       2.520  10.078  -9.702  1.00  0.00     0.074 A 
ATOM     47  C   UNL     1       4.293   8.318  -9.508  1.00  0.00     0.049 A 
ATOM     48  N   UNL     1       2.631  11.043 -10.552  1.00  0.00    -0.248 NA
ATOM     49  C   UNL     1       1.592  10.373  -8.595  1.00  0.00     0.031 C 
ATOM     50  C   UNL     1       4.818   6.957  -9.303  1.00  0.00     0.029 A 
ATOM     51  N   UNL     1       5.367   9.087  -9.188  1.00  0.00    -0.354 N 
ATOM     52  C   UNL     1       2.042  12.146  -9.939  1.00  0.00     0.074 A 
ATOM     53  C   UNL     1       1.210  11.617  -8.895  1.00  0.00     0.031 C 
ATOM     54  C   UNL     1       6.010   7.011  -8.669  1.00  0.00     0.029 A 
ATOM     55  C   UNL     1       6.425   8.396  -8.595  1.00  0.00     0.049 A 
ATOM     56  H   UNL     1       5.397  10.056  -9.362  1.00  0.00     0.167 HD
ATOM     57  C   UNL     1       2.554  13.396 -10.128  1.00  0.00     0.037 A 
ATOM     58  C   UNL     1       7.564   8.931  -8.084  1.00  0.00     0.037 A 
ATOM     59  C   UNL     1       3.447  13.403 -11.266  1.00  0.00     0.049 A 
ATOM     60  C   UNL     1       7.709  10.267  -8.714  1.00  0.00     0.074 A 
ATOM     61  C   UNL     1       3.332  13.150 -12.617  1.00  0.00     0.029 A 
ATOM     62  N   UNL     1       4.787  13.319 -10.973  1.00  0.00    -0.354 N 
ATOM     63  N   UNL     1       7.890  10.446  -9.996  1.00  0.00    -0.248 NA
ATOM     64  C   UNL     1       7.191  11.415  -7.992  1.00  0.00     0.031 C 
ATOM     65  C   UNL     1       4.558  12.519 -12.988  1.00  0.00     0.029 A 
ATOM     66  C   UNL     1       5.394  12.483 -11.870  1.00  0.00     0.049 A 
ATOM     67  H   UNL     1       5.239  13.787 -10.234  1.00  0.00     0.167 HD
ATOM     68  C   UNL     1       7.119  11.556 -10.313  1.00  0.00     0.074 A 
ATOM     69  C   UNL     1       6.805  12.171  -9.023  1.00  0.00     0.031 C 
ATOM     70  C   UNL     1       6.571  11.694 -11.558  1.00  0.00     0.037 A 
BRANCH  57  71
ATOM     71  C   UNL     1       2.651  14.460  -9.044  1.00  0.00     0.058 A 
ATOM     72  C   UNL     1       3.206  15.715  -9.382  1.00  0.00     0.135 A 
ATOM     73  C   UNL     1       2.526  14.217  -7.656  1.00  0.00     0.135 A 
ATOM     74  F   UNL     1       3.357  16.072 -10.668  1.00  0.00    -0.206 F 
ATOM     75  C   UNL     1       3.702  16.601  -8.424  1.00  0.00     0.059 A 
ATOM     76  C   UNL     1       2.971  15.108  -6.685  1.00  0.00     0.059 A 
ATOM     77  F   UNL     1       2.050  13.074  -7.157  1.00  0.00    -0.206 F 
ATOM     78  C   UNL     1       3.600  16.275  -7.077  1.00  0.00     0.060 A 
BRANCH  78  79
ATOM     79  S   UNL     1       4.337  17.358  -5.843  1.00  0.00     0.124 S 
ATOM     80  O   UNL     1       5.758  17.193  -6.126  1.00  0.00    -0.237 OA
ATOM     81  O   UNL     1       3.758  18.651  -6.195  1.00  0.00    -0.237 OA
ATOM     82  O   UNL     1       3.872  16.793  -4.580  1.00  0.00    -0.744 OA
ENDBRANCH  78  79
ENDBRANCH  57  71
BRANCH  58  83
ATOM     83  C   UNL     1       8.280   8.550  -6.832  1.00  0.00     0.058 A 
ATOM     84  C   UNL     1       9.560   9.056  -6.535  1.00  0.00     0.135 A 
ATOM     85  C   UNL     1       7.602   7.927  -5.765  1.00  0.00     0.135 A 
ATOM     86  F   UNL     1      10.271   9.683  -7.485  1.00  0.00    -0.206 F 
ATOM     87  C   UNL     1      10.112   8.996  -5.248  1.00  0.00     0.059 A 
ATOM     88  C   UNL     1       8.134   7.850  -4.476  1.00  0.00     0.059 A 
ATOM     89  F   UNL     1       6.357   7.453  -5.923  1.00  0.00    -0.206 F 
ATOM     90  C   UNL     1       9.380   8.408  -4.217  1.00  0.00     0.060 A 
BRANCH  90  91
ATOM     91  S   UNL     1      10.010   8.473  -2.520  1.00  0.00     0.124 S 
ATOM     92  O   UNL     1      11.150   7.566  -2.586  1.00  0.00    -0.237 OA
ATOM     93  O   UNL     1      10.329   9.887  -2.360  1.00  0.00    -0.237 OA
ATOM     94  O   UNL     1       8.882   7.997  -1.722  1.00  0.00    -0.744 OA
ENDBRANCH  90  91
ENDBRANCH  58  83
BRANCH  70  95
ATOM     95  C   UNL     1       7.116  10.831 -12.672  1.00  0.00     0.058 A 
ATOM     96  C   UNL     1       6.953   9.437 -12.773  1.00  0.00     0.135 A 
ATOM     97  C   UNL     1       7.700  11.482 -13.768  1.00  0.00     0.135 A 
ATOM     98  F   UNL     1       6.330   8.744 -11.810  1.00  0.00    -0.206 F 
ATOM     99  C   UNL     1       7.373   8.724 -13.900  1.00  0.00     0.059 A 
ATOM    100  C   UNL     1       8.099  10.798 -14.913  1.00  0.00     0.059 A 
ATOM    101  F   UNL     1       7.835  12.819 -13.758  1.00  0.00    -0.206 F 
ATOM    102  C   UNL     1       7.941   9.416 -14.970  1.00  0.00     0.060 A 
BRANCH 102 103
ATOM    103  S   UNL     1       8.407   8.514 -16.464  1.00  0.00     0.124 S 
ATOM    104  O   UNL     1       9.559   7.741 -16.011  1.00  0.00    -0.237 OA
ATOM    105  O   UNL     1       7.203   7.744 -16.760  1.00  0.00    -0.237 OA
ATOM    106  O   UNL     1       8.708   9.574 -17.424  1.00  0.00    -0.744 OA
ENDBRANCH 102 103
ENDBRANCH  70  95
ENDBRANCH  44  45
ENDBRANCH  36  39
ENDBRANCH  34  35
ENDBRANCH  33  34
ENDBRANCH  32  33
ENDBRANCH   1  32
TORSDOF 20
