REMARK SMILES O=C(NCCCCCCNC(=O)[C@@]1(Cl)C=CC=C(c2ccccc2)[C@H]1Cl)c1ccc(-c2c3nc(c(-c4c(F)cc(S(=O)(=O)[O-])cc4F)c4ccc([nH]4)c(-c4c(F)cc(S(=O)(=O)[O-])cc4F)c4nc(c(-c5c(F)cc(S(=O)(=O)[O-])cc5F)c5ccc2[nH]5)C=C4)C=C3)cc1
REMARK SMILES IDX 5 1 4 2 3 3 1 4 2 5 27 7 28 8 92 9 29 10 91 11 30 12 31 13
REMARK SMILES IDX 32 14 85 15 33 16 90 17 84 18 86 19 34 20 89 21 83 22 82 23
REMARK SMILES IDX 35 25 69 26 48 27 68 28 49 29 52 30 67 31 87 32 50 33 51 34
REMARK SMILES IDX 66 36 88 37 53 38 36 39 37 40 46 41 38 42 39 43 45 44 47 45
REMARK SMILES IDX 40 46 41 47 42 48 43 49 44 50 70 51 71 52 80 53 72 54 73 55
REMARK SMILES IDX 79 56 81 57 74 58 75 59 76 60 77 61 78 62 54 63 55 64 64 65
REMARK SMILES IDX 56 66 57 67 63 68 65 69 58 70 59 71 60 72 61 73 62 74 6 75
REMARK SMILES IDX 7 76 8 77 9 78 10 79 11 80 12 82 13 83 14 84 15 85 25 86
REMARK SMILES IDX 16 87 18 88 26 89 17 90 19 91 20 92 24 93 21 94 23 95 22 96
REMARK H PARENT 3 6 86 24 52 35 10 81
REMARK Flexibility Score: inf
ROOT
ATOM      1  C   UNL     1       4.362   0.966  -2.586  1.00  0.00     0.021 C 
ENDROOT
BRANCH   1   2
ATOM      2  C   UNL     1       4.230   0.842  -1.076  1.00  0.00     0.116 C 
BRANCH   2   3
ATOM      3  N   UNL     1       2.845   0.847  -0.636  1.00  0.00    -0.352 N 
ATOM      4  O   UNL     1       1.001   0.003   0.361  1.00  0.00    -0.269 OA
ATOM      5  C   UNL     1       2.219  -0.035   0.214  1.00  0.00     0.251 C 
ATOM      6  H   UNL     1       2.283   1.573  -0.992  1.00  0.00     0.163 HD
BRANCH   5   7
ATOM      7  C   UNL     1       3.030  -1.045   0.928  1.00  0.00     0.039 A 
ATOM      8  C   UNL     1       4.226  -0.674   1.548  1.00  0.00     0.014 A 
ATOM      9  C   UNL     1       2.604  -2.376   0.962  1.00  0.00     0.014 A 
ATOM     10  C   UNL     1       5.059  -1.651   2.077  1.00  0.00     0.010 A 
ATOM     11  C   UNL     1       3.402  -3.345   1.580  1.00  0.00     0.010 A 
ATOM     12  C   UNL     1       4.646  -2.994   2.123  1.00  0.00    -0.014 A 
BRANCH  12  13
ATOM     13  C   UNL     1       5.505  -3.974   2.836  1.00  0.00     0.031 A 
ATOM     14  C   UNL     1       6.169  -5.115   2.118  1.00  0.00     0.074 A 
ATOM     15  C   UNL     1       5.725  -3.776   4.152  1.00  0.00     0.049 A 
ATOM     16  N   UNL     1       6.996  -6.012   2.594  1.00  0.00    -0.248 NA
ATOM     17  C   UNL     1       5.867  -5.280   0.688  1.00  0.00     0.031 C 
ATOM     18  C   UNL     1       5.106  -2.716   4.956  1.00  0.00     0.029 A 
ATOM     19  N   UNL     1       6.545  -4.424   5.037  1.00  0.00    -0.354 N 
ATOM     20  C   UNL     1       7.306  -6.852   1.531  1.00  0.00     0.074 A 
ATOM     21  C   UNL     1       6.557  -6.374   0.388  1.00  0.00     0.031 C 
ATOM     22  C   UNL     1       5.613  -2.750   6.196  1.00  0.00     0.029 A 
ATOM     23  C   UNL     1       6.542  -3.868   6.294  1.00  0.00     0.049 A 
ATOM     24  H   UNL     1       7.083  -5.213   4.797  1.00  0.00     0.167 HD
ATOM     25  C   UNL     1       8.145  -7.917   1.514  1.00  0.00     0.037 A 
ATOM     26  C   UNL     1       7.205  -4.222   7.410  1.00  0.00     0.037 A 
ATOM     27  C   UNL     1       8.891  -8.378   2.659  1.00  0.00     0.049 A 
ATOM     28  C   UNL     1       8.136  -5.397   7.356  1.00  0.00     0.074 A 
ATOM     29  C   UNL     1       9.771  -9.445   2.741  1.00  0.00     0.029 A 
ATOM     30  N   UNL     1       8.851  -7.800   3.919  1.00  0.00    -0.354 N 
ATOM     31  N   UNL     1       8.422  -6.171   6.336  1.00  0.00    -0.248 NA
ATOM     32  C   UNL     1       8.830  -5.750   8.600  1.00  0.00     0.031 C 
ATOM     33  C   UNL     1      10.239  -9.528   4.058  1.00  0.00     0.029 A 
ATOM     34  C   UNL     1       9.683  -8.491   4.787  1.00  0.00     0.049 A 
ATOM     35  H   UNL     1       8.311  -7.013   4.162  1.00  0.00     0.167 HD
ATOM     36  C   UNL     1       9.328  -7.107   6.817  1.00  0.00     0.074 A 
ATOM     37  C   UNL     1       9.570  -6.777   8.207  1.00  0.00     0.031 C 
ATOM     38  C   UNL     1       9.898  -8.154   6.171  1.00  0.00     0.037 A 
BRANCH  25  39
ATOM     39  C   UNL     1       8.308  -8.665   0.218  1.00  0.00     0.058 A 
ATOM     40  C   UNL     1       9.051  -8.132  -0.847  1.00  0.00     0.135 A 
ATOM     41  C   UNL     1       7.780  -9.957   0.065  1.00  0.00     0.135 A 
ATOM     42  F   UNL     1       9.565  -6.895  -0.761  1.00  0.00    -0.206 F 
ATOM     43  C   UNL     1       9.256  -8.850  -2.022  1.00  0.00     0.059 A 
ATOM     44  C   UNL     1       7.990 -10.702  -1.093  1.00  0.00     0.059 A 
ATOM     45  F   UNL     1       7.061 -10.514   1.052  1.00  0.00    -0.206 F 
ATOM     46  C   UNL     1       8.724 -10.136  -2.135  1.00  0.00     0.060 A 
BRANCH  46  47
ATOM     47  S   UNL     1       9.024 -11.063  -3.655  1.00  0.00     0.124 S 
ATOM     48  O   UNL     1       8.143 -10.375  -4.594  1.00  0.00    -0.237 OA
ATOM     49  O   UNL     1      10.454 -10.864  -3.866  1.00  0.00    -0.237 OA
ATOM     50  O   UNL     1       8.628 -12.425  -3.307  1.00  0.00    -0.744 OA
ENDBRANCH  46  47
ENDBRANCH  25  39
BRANCH  26  51
ATOM     51  C   UNL     1       6.989  -3.465   8.670  1.00  0.00     0.058 A 
ATOM     52  C   UNL     1       7.996  -2.656   9.215  1.00  0.00     0.135 A 
ATOM     53  C   UNL     1       5.758  -3.522   9.341  1.00  0.00     0.135 A 
ATOM     54  F   UNL     1       9.190  -2.570   8.609  1.00  0.00    -0.206 F 
ATOM     55  C   UNL     1       7.798  -1.946  10.395  1.00  0.00     0.059 A 
ATOM     56  C   UNL     1       5.526  -2.798  10.505  1.00  0.00     0.059 A 
ATOM     57  F   UNL     1       4.755  -4.264   8.846  1.00  0.00    -0.206 F 
ATOM     58  C   UNL     1       6.558  -2.025  11.033  1.00  0.00     0.060 A 
BRANCH  58  59
ATOM     59  S   UNL     1       6.289  -1.071  12.542  1.00  0.00     0.124 S 
ATOM     60  O   UNL     1       6.963  -1.901  13.534  1.00  0.00    -0.237 OA
ATOM     61  O   UNL     1       6.935   0.199  12.226  1.00  0.00    -0.237 OA
ATOM     62  O   UNL     1       4.834  -1.016  12.645  1.00  0.00    -0.744 OA
ENDBRANCH  58  59
ENDBRANCH  26  51
BRANCH  38  63
ATOM     63  C   UNL     1      10.838  -9.007   6.974  1.00  0.00     0.058 A 
ATOM     64  C   UNL     1      10.364  -9.890   7.957  1.00  0.00     0.135 A 
ATOM     65  C   UNL     1      12.223  -8.938   6.763  1.00  0.00     0.135 A 
ATOM     66  F   UNL     1       9.047  -9.986   8.201  1.00  0.00    -0.206 F 
ATOM     67  C   UNL     1      11.234 -10.648   8.732  1.00  0.00     0.059 A 
ATOM     68  C   UNL     1      13.111  -9.705   7.509  1.00  0.00     0.059 A 
ATOM     69  F   UNL     1      12.725  -8.116   5.828  1.00  0.00    -0.206 F 
ATOM     70  C   UNL     1      12.608 -10.542   8.505  1.00  0.00     0.060 A 
BRANCH  70  71
ATOM     71  S   UNL     1      13.732 -11.524   9.520  1.00  0.00     0.124 S 
ATOM     72  O   UNL     1      13.745 -10.760  10.764  1.00  0.00    -0.237 OA
ATOM     73  O   UNL     1      13.058 -12.817   9.577  1.00  0.00    -0.237 OA
ATOM     74  O   UNL     1      14.977 -11.506   8.758  1.00  0.00    -0.744 OA
ENDBRANCH  70  71
ENDBRANCH  38  63
ENDBRANCH  12  13
ENDBRANCH   5   7
ENDBRANCH   2   3
ENDBRANCH   1   2
BRANCH   1  75
ATOM     75  C   UNL     1       3.958   2.327  -3.152  1.00  0.00     0.002 C 
BRANCH  75  76
ATOM     76  C   UNL     1       4.714   3.530  -2.578  1.00  0.00     0.002 C 
BRANCH  76  77
ATOM     77  C   UNL     1       6.242   3.407  -2.562  1.00  0.00     0.021 C 
BRANCH  77  78
ATOM     78  C   UNL     1       6.865   3.063  -3.916  1.00  0.00     0.116 C 
BRANCH  78  79
ATOM     79  N   UNL     1       6.682   4.128  -4.885  1.00  0.00    -0.354 N 
ATOM     80  C   UNL     1       7.543   5.044  -5.429  1.00  0.00     0.247 C 
ATOM     81  H   UNL     1       5.758   4.208  -5.217  1.00  0.00     0.163 HD
ATOM     82  O   UNL     1       7.065   5.694  -6.367  1.00  0.00    -0.273 OA
BRANCH  80  83
ATOM     83  C   UNL     1       9.048   5.145  -5.039  1.00  0.00     0.161 C 
ATOM     84  Cl  UNL     1       9.279   4.930  -3.258  1.00  0.00    -0.102 Cl
ATOM     85  C   UNL     1       9.692   3.978  -5.773  1.00  0.00     0.008 C 
ATOM     86  C   UNL     1       9.723   6.518  -5.388  1.00  0.00     0.146 C 
ATOM     87  C   UNL     1      10.460   4.136  -6.861  1.00  0.00    -0.002 C 
ATOM     88  C   UNL     1      10.522   6.565  -6.683  1.00  0.00    -0.020 C 
ATOM     89  Cl  UNL     1       8.625   7.938  -5.213  1.00  0.00    -0.115 Cl
ATOM     90  C   UNL     1      10.824   5.439  -7.356  1.00  0.00     0.006 C 
BRANCH  88  91
ATOM     91  C   UNL     1      11.200   7.823  -7.064  1.00  0.00    -0.021 A 
ATOM     92  C   UNL     1      11.050   8.377  -8.341  1.00  0.00     0.008 A 
ATOM     93  C   UNL     1      12.026   8.479  -6.137  1.00  0.00     0.008 A 
ATOM     94  C   UNL     1      11.700   9.570  -8.674  1.00  0.00     0.001 A 
ATOM     95  C   UNL     1      12.670   9.671  -6.468  1.00  0.00     0.001 A 
ATOM     96  C   UNL     1      12.505  10.217  -7.737  1.00  0.00     0.000 A 
ENDBRANCH  88  91
ENDBRANCH  80  83
ENDBRANCH  78  79
ENDBRANCH  77  78
ENDBRANCH  76  77
ENDBRANCH  75  76
ENDBRANCH   1  75
TORSDOF 17
