REMARK SMILES C[C@H](NS(=O)(=O)c1ccc(-c2cc(-c3ccccc3)c3cc([N+](=O)[O-])ccc3n2)cc1)C(=O)NCCCCCCNC(=O)c1ccc(-c2c3nc(c(-c4c(F)cc(S(=O)(=O)[O-])cc4F)c4ccc([nH]4)c(-c4c(F)cc(S(=O)(=O)[O-])cc4F)c4nc(c(-c5c(F)cc(S(=O)(=O)[O-])cc5F)c5ccc2[nH]5)C=C4)C=C3)cc1
REMARK SMILES IDX 36 1 35 2 34 3 32 4 33 5 2 7 1 8 3 9 4 11 5 12 6 13 7 14
REMARK SMILES IDX 8 15 31 16 9 17 30 18 10 19 11 20 12 21 29 22 13 23 28 24
REMARK SMILES IDX 20 25 27 26 21 27 26 28 22 29 14 30 15 31 19 32 16 33 18 34
REMARK SMILES IDX 17 35 23 36 24 37 25 38 37 39 38 40 39 41 40 42 41 43 42 44
REMARK SMILES IDX 43 46 44 47 45 48 109 49 46 50 108 51 47 52 48 53 49 54
REMARK SMILES IDX 102 55 50 56 107 57 101 58 103 59 51 60 106 61 100 62 99 63
REMARK SMILES IDX 52 65 86 66 65 67 85 68 66 69 69 70 84 71 104 72 67 73 68 74
REMARK SMILES IDX 83 76 105 77 70 78 53 79 54 80 63 81 55 82 56 83 62 84 64 85
REMARK SMILES IDX 57 86 58 87 59 88 60 89 61 90 87 91 88 92 97 93 89 94 90 95
REMARK SMILES IDX 96 96 98 97 91 98 92 99 93 100 94 101 95 102 71 103 72 104
REMARK SMILES IDX 81 105 73 106 74 107 80 108 82 109 75 110 76 111 77 112
REMARK SMILES IDX 78 113 79 114
REMARK H PARENT 34 6 3 10 41 45 103 64 69 75
REMARK Flexibility Score: inf
ROOT
ATOM      1  C   UNL     1      -1.608  -2.610   0.313  1.00  0.00     0.021 C 
ENDROOT
BRANCH   1   2
ATOM      2  C   UNL     1      -0.922  -1.975  -0.890  1.00  0.00     0.116 C 
BRANCH   2   3
ATOM      3  N   UNL     1      -1.321  -0.593  -1.012  1.00  0.00    -0.355 N 
ATOM      4  C   UNL     1      -0.576   0.536  -0.909  1.00  0.00     0.237 C 
ATOM      5  O   UNL     1      -1.201   1.600  -0.863  1.00  0.00    -0.273 OA
ATOM      6  H   UNL     1      -2.277  -0.449  -1.196  1.00  0.00     0.163 HD
BRANCH   4   7
ATOM      7  C   UNL     1       0.963   0.502  -0.904  1.00  0.00     0.155 C 
ATOM      8  C   UNL     1       1.481  -0.178  -2.166  1.00  0.00     0.036 C 
BRANCH   7   9
ATOM      9  N   UNL     1       1.541  -0.013   0.338  1.00  0.00    -0.199 NA
ATOM     10  H   UNL     1       1.312  -1.007   0.362  1.00  0.00     0.142 HD
BRANCH   9  11
ATOM     11  S   UNL     1       3.174   0.091   0.706  1.00  0.00     0.241 S 
ATOM     12  O   UNL     1       3.321  -0.508   2.010  1.00  0.00    -0.207 OA
ATOM     13  O   UNL     1       3.915  -0.398  -0.438  1.00  0.00    -0.207 OA
BRANCH  11  14
ATOM     14  C   UNL     1       3.526   1.833   0.879  1.00  0.00     0.082 A 
ATOM     15  C   UNL     1       3.125   2.525   2.024  1.00  0.00     0.022 A 
ATOM     16  C   UNL     1       4.214   2.511  -0.131  1.00  0.00     0.022 A 
ATOM     17  C   UNL     1       3.197   3.929   2.049  1.00  0.00     0.012 A 
ATOM     18  C   UNL     1       4.327   3.908  -0.079  1.00  0.00     0.012 A 
ATOM     19  C   UNL     1       3.654   4.649   0.924  1.00  0.00     0.000 A 
BRANCH  19  20
ATOM     20  C   UNL     1       2.862   5.875   0.491  1.00  0.00     0.072 A 
ATOM     21  C   UNL     1       3.388   6.856  -0.352  1.00  0.00     0.038 A 
ATOM     22  N   UNL     1       1.627   5.407   0.173  1.00  0.00    -0.248 NA
ATOM     23  C   UNL     1       2.950   6.835  -1.678  1.00  0.00    -0.007 A 
ATOM     24  C   UNL     1       1.484   5.070  -1.110  1.00  0.00     0.072 A 
ATOM     25  C   UNL     1       2.304   5.653  -2.065  1.00  0.00     0.015 A 
ATOM     26  C   UNL     1       0.653   4.041  -1.512  1.00  0.00     0.036 A 
ATOM     27  C   UNL     1       2.514   5.034  -3.314  1.00  0.00     0.096 A 
ATOM     28  C   UNL     1       0.827   3.421  -2.759  1.00  0.00     0.088 A 
ATOM     29  C   UNL     1       1.837   3.862  -3.611  1.00  0.00     0.270 A 
BRANCH  23  30
ATOM     30  C   UNL     1       2.995   7.915  -2.689  1.00  0.00    -0.018 A 
ATOM     31  C   UNL     1       1.843   8.074  -3.511  1.00  0.00     0.009 A 
ATOM     32  C   UNL     1       4.098   8.713  -2.975  1.00  0.00     0.009 A 
ATOM     33  C   UNL     1       1.839   8.864  -4.652  1.00  0.00     0.001 A 
ATOM     34  C   UNL     1       4.083   9.545  -4.108  1.00  0.00     0.001 A 
ATOM     35  C   UNL     1       2.974   9.591  -4.961  1.00  0.00     0.000 A 
ENDBRANCH  23  30
BRANCH  29  36
ATOM     36  N   UNL     1       2.266   3.049  -4.753  1.00  0.00     0.062 N 
ATOM     37  O   UNL     1       3.216   3.466  -5.430  1.00  0.00    -0.258 OA
ATOM     38  O   UNL     1       1.682   1.974  -4.940  1.00  0.00    -0.258 OA
ENDBRANCH  29  36
ENDBRANCH  19  20
ENDBRANCH  11  14
ENDBRANCH   9  11
ENDBRANCH   7   9
ENDBRANCH   4   7
ENDBRANCH   2   3
ENDBRANCH   1   2
BRANCH   1  39
ATOM     39  C   UNL     1      -3.124  -2.791   0.157  1.00  0.00     0.002 C 
BRANCH  39  40
ATOM     40  C   UNL     1      -3.563  -3.602  -1.067  1.00  0.00     0.002 C 
BRANCH  40  41
ATOM     41  C   UNL     1      -2.857  -4.949  -1.235  1.00  0.00     0.021 C 
BRANCH  41  42
ATOM     42  C   UNL     1      -2.947  -5.866  -0.022  1.00  0.00     0.116 C 
BRANCH  42  43
ATOM     43  N   UNL     1      -4.319  -6.236   0.280  1.00  0.00    -0.352 N 
ATOM     44  C   UNL     1      -4.852  -7.489   0.451  1.00  0.00     0.251 C 
ATOM     45  H   UNL     1      -4.952  -5.488   0.374  1.00  0.00     0.163 HD
ATOM     46  O   UNL     1      -6.069  -7.641   0.497  1.00  0.00    -0.269 OA
BRANCH  44  47
ATOM     47  C   UNL     1      -3.947  -8.653   0.556  1.00  0.00     0.039 A 
ATOM     48  C   UNL     1      -4.235  -9.804  -0.179  1.00  0.00     0.014 A 
ATOM     49  C   UNL     1      -2.808  -8.599   1.367  1.00  0.00     0.014 A 
ATOM     50  C   UNL     1      -3.351 -10.883  -0.141  1.00  0.00     0.010 A 
ATOM     51  C   UNL     1      -1.889  -9.642   1.337  1.00  0.00     0.010 A 
ATOM     52  C   UNL     1      -2.154 -10.799   0.591  1.00  0.00    -0.014 A 
BRANCH  52  53
ATOM     53  C   UNL     1      -1.172 -11.913   0.587  1.00  0.00     0.031 A 
ATOM     54  C   UNL     1      -0.840 -12.632   1.867  1.00  0.00     0.074 A 
ATOM     55  C   UNL     1      -0.537 -12.237  -0.556  1.00  0.00     0.049 A 
ATOM     56  N   UNL     1       0.024 -13.592   2.075  1.00  0.00    -0.248 NA
ATOM     57  C   UNL     1      -1.554 -12.196   3.078  1.00  0.00     0.031 C 
ATOM     58  C   UNL     1      -0.738 -11.580  -1.850  1.00  0.00     0.029 A 
ATOM     59  N   UNL     1       0.411 -13.195  -0.816  1.00  0.00    -0.354 N 
ATOM     60  C   UNL     1      -0.035 -13.866   3.436  1.00  0.00     0.074 A 
ATOM     61  C   UNL     1      -0.973 -12.931   4.015  1.00  0.00     0.031 C 
ATOM     62  C   UNL     1       0.041 -12.170  -2.769  1.00  0.00     0.029 A 
ATOM     63  C   UNL     1       0.830 -13.216  -2.126  1.00  0.00     0.049 A 
ATOM     64  H   UNL     1       0.758 -13.809  -0.130  1.00  0.00     0.167 HD
ATOM     65  C   UNL     1       0.616 -14.827   4.135  1.00  0.00     0.037 A 
ATOM     66  C   UNL     1       1.753 -13.984  -2.738  1.00  0.00     0.037 A 
ATOM     67  C   UNL     1       1.540 -15.762   3.546  1.00  0.00     0.049 A 
ATOM     68  C   UNL     1       2.475 -15.035  -1.939  1.00  0.00     0.074 A 
ATOM     69  C   UNL     1       2.210 -16.808   4.155  1.00  0.00     0.029 A 
ATOM     70  N   UNL     1       1.931 -15.758   2.214  1.00  0.00    -0.354 N 
ATOM     71  N   UNL     1       2.356 -15.329  -0.665  1.00  0.00    -0.248 NA
ATOM     72  C   UNL     1       3.451 -15.863  -2.659  1.00  0.00     0.031 C 
ATOM     73  C   UNL     1       3.051 -17.399   3.206  1.00  0.00     0.029 A 
ATOM     74  C   UNL     1       2.856 -16.765   1.989  1.00  0.00     0.049 A 
ATOM     75  H   UNL     1       1.601 -15.132   1.530  1.00  0.00     0.167 HD
ATOM     76  C   UNL     1       3.220 -16.395  -0.438  1.00  0.00     0.074 A 
ATOM     77  C   UNL     1       3.845 -16.701  -1.709  1.00  0.00     0.031 C 
ATOM     78  C   UNL     1       3.469 -17.062   0.717  1.00  0.00     0.037 A 
BRANCH  65  79
ATOM     79  C   UNL     1       0.356 -14.910   5.617  1.00  0.00     0.058 A 
ATOM     80  C   UNL     1      -0.891 -15.305   6.130  1.00  0.00     0.135 A 
ATOM     81  C   UNL     1       1.374 -14.613   6.538  1.00  0.00     0.135 A 
ATOM     82  F   UNL     1      -1.906 -15.588   5.298  1.00  0.00    -0.206 F 
ATOM     83  C   UNL     1      -1.130 -15.365   7.499  1.00  0.00     0.059 A 
ATOM     84  C   UNL     1       1.167 -14.700   7.912  1.00  0.00     0.059 A 
ATOM     85  F   UNL     1       2.587 -14.231   6.106  1.00  0.00    -0.206 F 
ATOM     86  C   UNL     1      -0.094 -15.059   8.383  1.00  0.00     0.060 A 
BRANCH  86  87
ATOM     87  S   UNL     1      -0.425 -15.136  10.155  1.00  0.00     0.124 S 
ATOM     88  O   UNL     1      -1.288 -13.974  10.341  1.00  0.00    -0.237 OA
ATOM     89  O   UNL     1      -1.074 -16.436  10.295  1.00  0.00    -0.237 OA
ATOM     90  O   UNL     1       0.902 -15.033  10.755  1.00  0.00    -0.744 OA
ENDBRANCH  86  87
ENDBRANCH  65  79
BRANCH  66  91
ATOM     91  C   UNL     1       2.026 -13.798  -4.189  1.00  0.00     0.058 A 
ATOM     92  C   UNL     1       1.647 -14.770  -5.127  1.00  0.00     0.135 A 
ATOM     93  C   UNL     1       2.645 -12.634  -4.670  1.00  0.00     0.135 A 
ATOM     94  F   UNL     1       1.057 -15.903  -4.718  1.00  0.00    -0.206 F 
ATOM     95  C   UNL     1       1.882 -14.601  -6.488  1.00  0.00     0.059 A 
ATOM     96  C   UNL     1       2.865 -12.429  -6.028  1.00  0.00     0.059 A 
ATOM     97  F   UNL     1       3.013 -11.665  -3.816  1.00  0.00    -0.206 F 
ATOM     98  C   UNL     1       2.486 -13.422  -6.929  1.00  0.00     0.060 A 
BRANCH  98  99
ATOM     99  S   UNL     1       2.730 -13.188  -8.703  1.00  0.00     0.124 S 
ATOM    100  O   UNL     1       3.789 -14.149  -8.985  1.00  0.00    -0.237 OA
ATOM    101  O   UNL     1       1.411 -13.515  -9.237  1.00  0.00    -0.237 OA
ATOM    102  O   UNL     1       3.109 -11.782  -8.808  1.00  0.00    -0.744 OA
ENDBRANCH  98  99
ENDBRANCH  66  91
BRANCH  78 103
ATOM    103  C   UNL     1       4.432 -18.217   0.658  1.00  0.00     0.058 A 
ATOM    104  C   UNL     1       5.811 -18.027   0.476  1.00  0.00     0.135 A 
ATOM    105  C   UNL     1       3.972 -19.532   0.845  1.00  0.00     0.135 A 
ATOM    106  F   UNL     1       6.304 -16.793   0.286  1.00  0.00    -0.206 F 
ATOM    107  C   UNL     1       6.696 -19.101   0.457  1.00  0.00     0.059 A 
ATOM    108  C   UNL     1       4.843 -20.616   0.862  1.00  0.00     0.059 A 
ATOM    109  F   UNL     1       2.664 -19.770   1.034  1.00  0.00    -0.206 F 
ATOM    110  C   UNL     1       6.202 -20.392   0.655  1.00  0.00     0.060 A 
BRANCH 110 111
ATOM    111  S   UNL     1       7.367 -21.771   0.665  1.00  0.00     0.124 S 
ATOM    112  O   UNL     1       7.732 -21.858  -0.745  1.00  0.00    -0.237 OA
ATOM    113  O   UNL     1       8.413 -21.288   1.562  1.00  0.00    -0.237 OA
ATOM    114  O   UNL     1       6.574 -22.884   1.177  1.00  0.00    -0.744 OA
ENDBRANCH 110 111
ENDBRANCH  78 103
ENDBRANCH  52  53
ENDBRANCH  44  47
ENDBRANCH  42  43
ENDBRANCH  41  42
ENDBRANCH  40  41
ENDBRANCH  39  40
ENDBRANCH   1  39
TORSDOF 22
