REMARK SMILES Cc1ccc([C@@H](C)Nc2ccc(N)cc2C(=O)NCCCCCCNC(=O)c2ccc(-c3c4nc(c(-c5c(F)cc(S(=O)(=O)[O-])cc5F)c5ccc([nH]5)c(-c5c(F)cc(S(=O)(=O)[O-])cc5F)c5nc(c(-c6c(F)cc(S(=O)(=O)[O-])cc6F)c6ccc3[nH]6)C=C5)C=C4)cc2)cc1F
REMARK SMILES IDX 21 1 20 2 19 3 18 4 16 5 17 6 15 8 9 9 10 10 11 11 14 12
REMARK SMILES IDX 12 13 8 14 6 16 7 17 5 18 1 19 2 20 3 21 95 22 4 23 94 24
REMARK SMILES IDX 96 25 13 26 22 29 23 30 24 31 25 32 26 33 27 35 28 36 29 37
REMARK SMILES IDX 93 38 30 39 92 40 31 41 32 42 33 43 86 44 34 45 91 46 85 47
REMARK SMILES IDX 87 48 35 49 90 50 84 51 83 52 36 54 70 55 49 56 69 57 50 58
REMARK SMILES IDX 53 59 68 60 88 61 51 62 52 63 67 65 89 66 54 67 37 68 38 69
REMARK SMILES IDX 47 70 39 71 40 72 46 73 48 74 41 75 42 76 43 77 44 78 45 79
REMARK SMILES IDX 71 80 72 81 81 82 73 83 74 84 80 85 82 86 75 87 76 88 77 89
REMARK SMILES IDX 78 90 79 91 55 92 56 93 65 94 57 95 58 96 64 97 66 98 59 99
REMARK SMILES IDX 60 100 61 101 62 102 63 103
REMARK H PARENT 18 7 8 15 13 27 13 28 25 34 87 53 53 64
REMARK Flexibility Score: inf
ROOT
ATOM      1  C   UNL     1      -1.422   0.526  -0.780  1.00  0.00     0.002 C 
ENDROOT
BRANCH   1   2
ATOM      2  C   UNL     1      -0.510  -1.181   0.262  1.00  0.00     0.021 C 
BRANCH   2   3
ATOM      3  C   UNL     1      -0.756  -2.887   0.406  1.00  0.00     0.116 C 
BRANCH   3   4
ATOM      4  N   UNL     1      -0.960  -3.728  -0.767  1.00  0.00    -0.352 N 
ATOM      5  C   UNL     1      -1.968  -4.611  -1.072  1.00  0.00     0.253 C 
ATOM      6  O   UNL     1      -2.022  -5.107  -2.197  1.00  0.00    -0.269 OA
ATOM      7  H   UNL     1      -0.260  -3.651  -1.455  1.00  0.00     0.163 HD
BRANCH   5   8
ATOM      8  C   UNL     1      -2.879  -5.094  -0.012  1.00  0.00     0.065 A 
ATOM      9  C   UNL     1      -3.479  -4.285   0.958  1.00  0.00     0.048 A 
ATOM     10  C   UNL     1      -3.744  -4.935   2.181  1.00  0.00     0.028 A 
ATOM     11  C   UNL     1      -3.574  -6.321   2.356  1.00  0.00     0.027 A 
ATOM     12  C   UNL     1      -2.865  -6.503   0.104  1.00  0.00     0.041 A 
ATOM     13  C   UNL     1      -3.241  -7.134   1.281  1.00  0.00     0.032 A 
BRANCH   9  14
ATOM     14  N   UNL     1      -3.822  -2.947   0.854  1.00  0.00    -0.378 N 
ATOM     15  H   UNL     1      -4.130  -2.547   1.700  1.00  0.00     0.161 HD
BRANCH  14  16
ATOM     16  C   UNL     1      -3.816  -2.007  -0.282  1.00  0.00     0.106 C 
ATOM     17  C   UNL     1      -4.454  -2.555  -1.552  1.00  0.00     0.036 C 
BRANCH  16  18
ATOM     18  C   UNL     1      -2.506  -1.229  -0.353  1.00  0.00    -0.023 A 
ATOM     19  C   UNL     1       1.869   1.417  -0.055  1.00  0.00     0.047 C 
ATOM     20  C   UNL     1       0.627   0.591  -0.140  1.00  0.00    -0.015 A 
ATOM     21  C   UNL     1      -0.606   0.761   1.164  1.00  0.00     0.007 A 
ATOM     22  C   UNL     1       0.294  -0.471  -1.558  1.00  0.00     0.126 A 
ATOM     23  C   UNL     1      -2.154  -0.159   1.064  1.00  0.00     0.006 A 
ATOM     24  C   UNL     1      -1.280  -1.361  -1.683  1.00  0.00     0.045 A 
ATOM     25  F   UNL     1       1.229  -0.640  -2.501  1.00  0.00    -0.207 F 
ENDBRANCH  16  18
ENDBRANCH  14  16
ENDBRANCH   9  14
BRANCH  13  26
ATOM     26  N   UNL     1      -3.088  -8.503   1.425  1.00  0.00    -0.399 N 
ATOM     27  H   UNL     1      -3.357  -8.944   2.263  1.00  0.00     0.156 HD
ATOM     28  H   UNL     1      -2.709  -9.036   0.688  1.00  0.00     0.156 HD
ENDBRANCH  13  26
ENDBRANCH   5   8
ENDBRANCH   3   4
ENDBRANCH   2   3
ENDBRANCH   1   2
BRANCH   1  29
ATOM     29  C   UNL     1      -2.970   1.209  -1.047  1.00  0.00     0.002 C 
BRANCH  29  30
ATOM     30  C   UNL     1      -3.829   1.982  -0.028  1.00  0.00     0.021 C 
BRANCH  30  31
ATOM     31  C   UNL     1      -3.214   3.131   0.747  1.00  0.00     0.116 C 
BRANCH  31  32
ATOM     32  N   UNL     1      -2.866   4.300  -0.038  1.00  0.00    -0.352 N 
ATOM     33  C   UNL     1      -2.762   5.490   0.679  1.00  0.00     0.251 C 
ATOM     34  H   UNL     1      -2.713   4.255  -1.010  1.00  0.00     0.163 HD
ATOM     35  O   UNL     1      -3.737   6.145   1.028  1.00  0.00    -0.269 OA
BRANCH  33  36
ATOM     36  C   UNL     1      -1.420   5.717   1.282  1.00  0.00     0.039 A 
ATOM     37  C   UNL     1      -1.163   6.843   2.078  1.00  0.00     0.014 A 
ATOM     38  C   UNL     1      -0.482   4.683   1.187  1.00  0.00     0.014 A 
ATOM     39  C   UNL     1       0.039   6.932   2.772  1.00  0.00     0.010 A 
ATOM     40  C   UNL     1       0.642   4.715   1.945  1.00  0.00     0.010 A 
ATOM     41  C   UNL     1       0.921   5.858   2.685  1.00  0.00    -0.014 A 
BRANCH  41  42
ATOM     42  C   UNL     1       2.171   5.738   3.395  1.00  0.00     0.031 A 
ATOM     43  C   UNL     1       2.084   5.528   4.843  1.00  0.00     0.074 A 
ATOM     44  C   UNL     1       3.243   5.583   2.587  1.00  0.00     0.049 A 
ATOM     45  N   UNL     1       2.994   5.860   5.678  1.00  0.00    -0.248 NA
ATOM     46  C   UNL     1       0.890   4.981   5.499  1.00  0.00     0.031 C 
ATOM     47  C   UNL     1       4.580   5.076   2.824  1.00  0.00     0.029 A 
ATOM     48  N   UNL     1       3.302   6.034   1.263  1.00  0.00    -0.354 N 
ATOM     49  C   UNL     1       2.707   5.185   6.849  1.00  0.00     0.074 A 
ATOM     50  C   UNL     1       1.307   4.864   6.766  1.00  0.00     0.031 C 
ATOM     51  C   UNL     1       5.391   5.542   1.848  1.00  0.00     0.029 A 
ATOM     52  C   UNL     1       4.613   6.458   1.022  1.00  0.00     0.049 A 
ATOM     53  H   UNL     1       2.557   6.050   0.620  1.00  0.00     0.167 HD
ATOM     54  C   UNL     1       3.756   4.764   7.613  1.00  0.00     0.037 A 
ATOM     55  C   UNL     1       4.799   7.813   0.926  1.00  0.00     0.037 A 
ATOM     56  C   UNL     1       5.004   5.139   6.938  1.00  0.00     0.049 A 
ATOM     57  C   UNL     1       5.446   8.387   2.171  1.00  0.00     0.074 A 
ATOM     58  C   UNL     1       5.863   4.465   6.088  1.00  0.00     0.029 A 
ATOM     59  N   UNL     1       5.283   6.478   6.772  1.00  0.00    -0.354 N 
ATOM     60  N   UNL     1       5.593   7.735   3.294  1.00  0.00    -0.248 NA
ATOM     61  C   UNL     1       5.971   9.746   2.251  1.00  0.00     0.031 C 
ATOM     62  C   UNL     1       6.639   5.439   5.387  1.00  0.00     0.029 A 
ATOM     63  C   UNL     1       6.243   6.696   5.808  1.00  0.00     0.049 A 
ATOM     64  H   UNL     1       4.846   7.196   7.285  1.00  0.00     0.167 HD
ATOM     65  C   UNL     1       6.223   8.520   4.217  1.00  0.00     0.074 A 
ATOM     66  C   UNL     1       6.392   9.792   3.528  1.00  0.00     0.031 C 
ATOM     67  C   UNL     1       6.567   8.073   5.465  1.00  0.00     0.037 A 
BRANCH  54  68
ATOM     68  C   UNL     1       3.733   3.806   8.786  1.00  0.00     0.058 A 
ATOM     69  C   UNL     1       4.945   3.212   9.209  1.00  0.00     0.135 A 
ATOM     70  C   UNL     1       2.606   3.438   9.550  1.00  0.00     0.135 A 
ATOM     71  F   UNL     1       6.114   3.495   8.618  1.00  0.00    -0.206 F 
ATOM     72  C   UNL     1       5.031   2.305  10.261  1.00  0.00     0.059 A 
ATOM     73  C   UNL     1       2.665   2.513  10.605  1.00  0.00     0.059 A 
ATOM     74  F   UNL     1       1.402   3.984   9.345  1.00  0.00    -0.206 F 
ATOM     75  C   UNL     1       3.885   1.955  10.955  1.00  0.00     0.060 A 
BRANCH  75  76
ATOM     76  S   UNL     1       4.048   0.804  12.330  1.00  0.00     0.124 S 
ATOM     77  O   UNL     1       4.597  -0.378  11.673  1.00  0.00    -0.237 OA
ATOM     78  O   UNL     1       4.959   1.518  13.218  1.00  0.00    -0.237 OA
ATOM     79  O   UNL     1       2.680   0.663  12.821  1.00  0.00    -0.744 OA
ENDBRANCH  75  76
ENDBRANCH  54  68
BRANCH  55  80
ATOM     80  C   UNL     1       3.687   8.449   0.127  1.00  0.00     0.058 A 
ATOM     81  C   UNL     1       3.570   8.044  -1.222  1.00  0.00     0.135 A 
ATOM     82  C   UNL     1       2.518   8.913   0.754  1.00  0.00     0.135 A 
ATOM     83  F   UNL     1       4.658   7.632  -1.893  1.00  0.00    -0.206 F 
ATOM     84  C   UNL     1       2.330   7.877  -1.836  1.00  0.00     0.059 A 
ATOM     85  C   UNL     1       1.265   8.775   0.144  1.00  0.00     0.059 A 
ATOM     86  F   UNL     1       2.559   9.345   2.023  1.00  0.00    -0.206 F 
ATOM     87  C   UNL     1       1.178   8.168  -1.111  1.00  0.00     0.060 A 
BRANCH  87  88
ATOM     88  S   UNL     1      -0.410   7.611  -1.781  1.00  0.00     0.124 S 
ATOM     89  O   UNL     1      -0.369   8.128  -3.145  1.00  0.00    -0.237 OA
ATOM     90  O   UNL     1      -0.301   6.157  -1.661  1.00  0.00    -0.237 OA
ATOM     91  O   UNL     1      -1.385   8.245  -0.903  1.00  0.00    -0.744 OA
ENDBRANCH  87  88
ENDBRANCH  55  80
BRANCH  67  92
ATOM     92  C   UNL     1       7.231   8.947   6.496  1.00  0.00     0.058 A 
ATOM     93  C   UNL     1       8.248   9.851   6.161  1.00  0.00     0.135 A 
ATOM     94  C   UNL     1       6.915   8.865   7.874  1.00  0.00     0.135 A 
ATOM     95  F   UNL     1       8.753   9.894   4.918  1.00  0.00    -0.206 F 
ATOM     96  C   UNL     1       8.789  10.731   7.094  1.00  0.00     0.059 A 
ATOM     97  C   UNL     1       7.500   9.675   8.834  1.00  0.00     0.059 A 
ATOM     98  F   UNL     1       5.995   8.023   8.358  1.00  0.00    -0.206 F 
ATOM     99  C   UNL     1       8.392  10.647   8.425  1.00  0.00     0.060 A 
BRANCH  99 100
ATOM    100  S   UNL     1       9.053  11.811   9.621  1.00  0.00     0.124 S 
ATOM    101  O   UNL     1      10.469  11.846   9.269  1.00  0.00    -0.237 OA
ATOM    102  O   UNL     1       8.289  13.013   9.302  1.00  0.00    -0.237 OA
ATOM    103  O   UNL     1       8.745  11.193  10.906  1.00  0.00    -0.744 OA
ENDBRANCH  99 100
ENDBRANCH  67  92
ENDBRANCH  41  42
ENDBRANCH  33  36
ENDBRANCH  31  32
ENDBRANCH  30  31
ENDBRANCH  29  30
ENDBRANCH   1  29
TORSDOF 20
