REMARK SMILES CCc1ccnc(C(=O)c2[nH]c3ccc(OC(F)(F)F)cc3c2CC(=O)NCCCCCCNC(=O)c2ccc(-c3c4nc(c(-c5c(F)cc(S(=O)(=O)[O-])cc5F)c5ccc([nH]5)c(-c5c(F)cc(S(=O)(=O)[O-])cc5F)c5nc(c(-c6c(F)cc(S(=O)(=O)[O-])cc6F)c6ccc3[nH]6)C=C5)C=C4)cc2)c1
REMARK SMILES IDX 30 1 29 2 28 3 27 4 25 5 26 6 24 8 23 9 10 10 11 11 12 12
REMARK SMILES IDX 22 14 13 15 21 16 14 17 15 18 8 19 9 20 7 21 3 22 4 23
REMARK SMILES IDX 103 24 5 25 6 26 2 27 1 28 16 29 17 30 18 31 19 32 20 33
REMARK SMILES IDX 31 34 32 35 33 36 34 37 35 38 36 40 37 41 38 42 102 43 39 44
REMARK SMILES IDX 101 45 40 46 41 47 42 48 95 49 43 50 100 51 94 52 96 53
REMARK SMILES IDX 44 54 99 55 93 56 92 57 45 59 79 60 58 61 78 62 59 63 62 64
REMARK SMILES IDX 77 65 97 66 60 67 61 68 76 70 98 71 63 72 46 73 47 74 56 75
REMARK SMILES IDX 48 76 49 77 55 78 57 79 50 80 51 81 52 82 53 83 54 84 80 85
REMARK SMILES IDX 81 86 90 87 82 88 83 89 89 90 91 91 84 92 85 93 86 94 87 95
REMARK SMILES IDX 88 96 64 97 65 98 74 99 66 100 67 101 73 102 75 103 68 104
REMARK SMILES IDX 69 105 70 106 71 107 72 108
REMARK H PARENT 27 7 11 13 34 39 96 58 62 69
REMARK Flexibility Score: inf
ROOT
ATOM      1  C   UNL     1       8.767  -4.517  -5.856  1.00  0.00     0.002 C 
ENDROOT
BRANCH   1   2
ATOM      2  C   UNL     1       7.910  -3.252  -5.997  1.00  0.00     0.021 C 
BRANCH   2   3
ATOM      3  C   UNL     1       7.015  -3.219  -7.236  1.00  0.00     0.116 C 
BRANCH   3   4
ATOM      4  N   UNL     1       5.923  -4.169  -7.155  1.00  0.00    -0.356 N 
ATOM      5  C   UNL     1       4.598  -3.951  -6.909  1.00  0.00     0.224 C 
ATOM      6  O   UNL     1       3.825  -4.909  -7.001  1.00  0.00    -0.275 OA
ATOM      7  H   UNL     1       6.174  -5.110  -7.300  1.00  0.00     0.163 HD
BRANCH   5   8
ATOM      8  C   UNL     1       4.068  -2.547  -6.661  1.00  0.00     0.138 C 
BRANCH   8   9
ATOM      9  C   UNL     1       4.606  -1.859  -5.439  1.00  0.00    -0.002 A 
ATOM     10  C   UNL     1       4.487  -2.263  -4.113  1.00  0.00     0.093 A 
ATOM     11  N   UNL     1       5.210  -1.377  -3.347  1.00  0.00    -0.352 N 
ATOM     12  C   UNL     1       5.659  -0.329  -4.111  1.00  0.00     0.046 A 
ATOM     13  H   UNL     1       5.382  -1.480  -2.383  1.00  0.00     0.167 HD
ATOM     14  C   UNL     1       5.288  -0.594  -5.425  1.00  0.00     0.008 A 
ATOM     15  C   UNL     1       6.372   0.816  -3.743  1.00  0.00     0.030 A 
ATOM     16  C   UNL     1       5.639   0.346  -6.417  1.00  0.00     0.057 A 
ATOM     17  C   UNL     1       6.710   1.730  -4.750  1.00  0.00     0.049 A 
ATOM     18  C   UNL     1       6.350   1.506  -6.077  1.00  0.00     0.130 A 
BRANCH  10  19
ATOM     19  C   UNL     1       3.817  -3.426  -3.558  1.00  0.00     0.227 C 
ATOM     20  O   UNL     1       4.254  -4.557  -3.740  1.00  0.00    -0.285 OA
BRANCH  19  21
ATOM     21  C   UNL     1       2.581  -3.204  -2.712  1.00  0.00     0.113 A 
ATOM     22  C   UNL     1       0.932  -1.795  -1.657  1.00  0.00    -0.044 A 
ATOM     23  C   UNL     1       0.364  -2.945  -1.107  1.00  0.00     0.024 A 
ATOM     24  C   UNL     1       2.053  -1.932  -2.485  1.00  0.00     0.036 A 
ATOM     25  C   UNL     1       0.939  -4.171  -1.397  1.00  0.00     0.112 A 
ATOM     26  N   UNL     1       2.031  -4.323  -2.171  1.00  0.00    -0.253 NA
BRANCH  22  27
ATOM     27  C   UNL     1       0.379  -0.432  -1.328  1.00  0.00     0.032 C 
ATOM     28  C   UNL     1       0.944   0.099  -0.018  1.00  0.00     0.009 C 
ENDBRANCH  22  27
ENDBRANCH  19  21
ENDBRANCH  10  19
BRANCH  18  29
ATOM     29  O   UNL     1       6.621   2.320  -7.142  1.00  0.00    -0.406 OA
BRANCH  29  30
ATOM     30  C   UNL     1       7.355   3.509  -6.900  1.00  0.00     0.573 C 
ATOM     31  F   UNL     1       6.685   4.323  -6.056  1.00  0.00    -0.132 F 
ATOM     32  F   UNL     1       8.573   3.232  -6.393  1.00  0.00    -0.132 F 
ATOM     33  F   UNL     1       7.516   4.160  -8.072  1.00  0.00    -0.132 F 
ENDBRANCH  29  30
ENDBRANCH  18  29
ENDBRANCH   8   9
ENDBRANCH   5   8
ENDBRANCH   3   4
ENDBRANCH   2   3
ENDBRANCH   1   2
BRANCH   1  34
ATOM     34  C   UNL     1       9.745  -4.794  -7.003  1.00  0.00     0.002 C 
BRANCH  34  35
ATOM     35  C   UNL     1      10.696  -3.649  -7.367  1.00  0.00     0.021 C 
BRANCH  35  36
ATOM     36  C   UNL     1      11.611  -3.166  -6.241  1.00  0.00     0.116 C 
BRANCH  36  37
ATOM     37  N   UNL     1      12.559  -4.184  -5.822  1.00  0.00    -0.352 N 
ATOM     38  C   UNL     1      13.913  -4.088  -5.609  1.00  0.00     0.251 C 
ATOM     39  H   UNL     1      12.174  -5.077  -5.666  1.00  0.00     0.163 HD
ATOM     40  O   UNL     1      14.568  -5.106  -5.406  1.00  0.00    -0.269 OA
BRANCH  38  41
ATOM     41  C   UNL     1      14.594  -2.772  -5.642  1.00  0.00     0.039 A 
ATOM     42  C   UNL     1      15.810  -2.665  -6.327  1.00  0.00     0.014 A 
ATOM     43  C   UNL     1      14.075  -1.662  -4.968  1.00  0.00     0.014 A 
ATOM     44  C   UNL     1      16.477  -1.437  -6.383  1.00  0.00     0.010 A 
ATOM     45  C   UNL     1      14.724  -0.428  -5.053  1.00  0.00     0.010 A 
ATOM     46  C   UNL     1      15.928  -0.305  -5.763  1.00  0.00    -0.014 A 
BRANCH  46  47
ATOM     47  C   UNL     1      16.597   1.017  -5.854  1.00  0.00     0.031 A 
ATOM     48  C   UNL     1      17.259   1.619  -4.647  1.00  0.00     0.074 A 
ATOM     49  C   UNL     1      16.558   1.705  -7.011  1.00  0.00     0.049 A 
ATOM     50  N   UNL     1      17.813   2.796  -4.511  1.00  0.00    -0.248 NA
ATOM     51  C   UNL     1      17.286   0.795  -3.429  1.00  0.00     0.031 C 
ATOM     52  C   UNL     1      15.920   1.247  -8.246  1.00  0.00     0.029 A 
ATOM     53  N   UNL     1      17.055   2.943  -7.331  1.00  0.00    -0.354 N 
ATOM     54  C   UNL     1      18.231   2.869  -3.189  1.00  0.00     0.074 A 
ATOM     55  C   UNL     1      17.856   1.619  -2.560  1.00  0.00     0.031 C 
ATOM     56  C   UNL     1      16.069   2.189  -9.192  1.00  0.00     0.029 A 
ATOM     57  C   UNL     1      16.792   3.324  -8.624  1.00  0.00     0.049 A 
ATOM     58  H   UNL     1      17.552   3.505  -6.694  1.00  0.00     0.167 HD
ATOM     59  C   UNL     1      18.872   3.881  -2.557  1.00  0.00     0.037 A 
ATOM     60  C   UNL     1      17.093   4.462  -9.278  1.00  0.00     0.037 A 
ATOM     61  C   UNL     1      19.278   5.111  -3.184  1.00  0.00     0.049 A 
ATOM     62  C   UNL     1      17.842   5.553  -8.569  1.00  0.00     0.074 A 
ATOM     63  C   UNL     1      19.973   6.174  -2.632  1.00  0.00     0.029 A 
ATOM     64  N   UNL     1      19.032   5.439  -4.508  1.00  0.00    -0.354 N 
ATOM     65  N   UNL     1      18.251   5.593  -7.325  1.00  0.00    -0.248 NA
ATOM     66  C   UNL     1      18.173   6.751  -9.354  1.00  0.00     0.031 C 
ATOM     67  C   UNL     1      20.137   7.151  -3.622  1.00  0.00     0.029 A 
ATOM     68  C   UNL     1      19.557   6.689  -4.792  1.00  0.00     0.049 A 
ATOM     69  H   UNL     1      18.554   4.868  -5.152  1.00  0.00     0.167 HD
ATOM     70  C   UNL     1      18.895   6.815  -7.178  1.00  0.00     0.074 A 
ATOM     71  C   UNL     1      18.830   7.482  -8.463  1.00  0.00     0.031 C 
ATOM     72  C   UNL     1      19.486   7.337  -6.076  1.00  0.00     0.037 A 
BRANCH  59  73
ATOM     73  C   UNL     1      19.166   3.694  -1.098  1.00  0.00     0.058 A 
ATOM     74  C   UNL     1      20.238   2.899  -0.664  1.00  0.00     0.135 A 
ATOM     75  C   UNL     1      18.367   4.314  -0.125  1.00  0.00     0.135 A 
ATOM     76  F   UNL     1      21.020   2.274  -1.558  1.00  0.00    -0.206 F 
ATOM     77  C   UNL     1      20.491   2.700   0.689  1.00  0.00     0.059 A 
ATOM     78  C   UNL     1      18.611   4.140   1.234  1.00  0.00     0.059 A 
ATOM     79  F   UNL     1      17.328   5.080  -0.491  1.00  0.00    -0.206 F 
ATOM     80  C   UNL     1      19.664   3.316   1.631  1.00  0.00     0.060 A 
BRANCH  80  81
ATOM     81  S   UNL     1      19.974   3.038   3.388  1.00  0.00     0.124 S 
ATOM     82  O   UNL     1      19.265   1.782   3.610  1.00  0.00    -0.237 OA
ATOM     83  O   UNL     1      21.430   2.961   3.450  1.00  0.00    -0.237 OA
ATOM     84  O   UNL     1      19.386   4.215   4.020  1.00  0.00    -0.744 OA
ENDBRANCH  80  81
ENDBRANCH  59  73
BRANCH  60  85
ATOM     85  C   UNL     1      16.694   4.616 -10.698  1.00  0.00     0.058 A 
ATOM     86  C   UNL     1      17.625   4.420 -11.727  1.00  0.00     0.135 A 
ATOM     87  C   UNL     1      15.373   4.926 -11.051  1.00  0.00     0.135 A 
ATOM     88  F   UNL     1      18.900   4.126 -11.430  1.00  0.00    -0.206 F 
ATOM     89  C   UNL     1      17.261   4.526 -13.064  1.00  0.00     0.059 A 
ATOM     90  C   UNL     1      14.983   5.027 -12.382  1.00  0.00     0.059 A 
ATOM     91  F   UNL     1      14.448   5.109 -10.097  1.00  0.00    -0.206 F 
ATOM     92  C   UNL     1      15.936   4.829 -13.382  1.00  0.00     0.060 A 
BRANCH  92  93
ATOM     93  S   UNL     1      15.442   4.894 -15.118  1.00  0.00     0.124 S 
ATOM     94  O   UNL     1      15.809   6.259 -15.476  1.00  0.00    -0.237 OA
ATOM     95  O   UNL     1      16.253   3.837 -15.717  1.00  0.00    -0.237 OA
ATOM     96  O   UNL     1      14.010   4.614 -15.062  1.00  0.00    -0.744 OA
ENDBRANCH  92  93
ENDBRANCH  60  85
BRANCH  72  97
ATOM     97  C   UNL     1      20.120   8.688  -6.217  1.00  0.00     0.058 A 
ATOM     98  C   UNL     1      19.353   9.861  -6.150  1.00  0.00     0.135 A 
ATOM     99  C   UNL     1      21.507   8.813  -6.384  1.00  0.00     0.135 A 
ATOM    100  F   UNL     1      18.021   9.789  -5.998  1.00  0.00    -0.206 F 
ATOM    101  C   UNL     1      19.940  11.117  -6.257  1.00  0.00     0.059 A 
ATOM    102  C   UNL     1      22.117  10.060  -6.482  1.00  0.00     0.059 A 
ATOM    103  F   UNL     1      22.281   7.719  -6.450  1.00  0.00    -0.206 F 
ATOM    104  C   UNL     1      21.323  11.207  -6.427  1.00  0.00     0.060 A 
BRANCH 104 105
ATOM    105  S   UNL     1      22.092  12.838  -6.532  1.00  0.00     0.124 S 
ATOM    106  O   UNL     1      21.922  13.150  -7.947  1.00  0.00    -0.237 OA
ATOM    107  O   UNL     1      21.289  13.632  -5.607  1.00  0.00    -0.237 OA
ATOM    108  O   UNL     1      23.464  12.588  -6.101  1.00  0.00    -0.744 OA
ENDBRANCH 104 105
ENDBRANCH  72  97
ENDBRANCH  46  47
ENDBRANCH  38  41
ENDBRANCH  36  37
ENDBRANCH  35  36
ENDBRANCH  34  35
ENDBRANCH   1  34
TORSDOF 22
