REMARK SMILES Cc1n[nH]c(C[N@H+]2CCC[C@H](c3cccc(C(=O)NCCCCCCNC(=O)c4ccc(-c5c6nc(c(-c7c(F)cc(S(=O)(=O)[O-])cc7F)c7ccc([nH]7)c(-c7c(F)cc(S(=O)(=O)[O-])cc7F)c7nc(c(-c8c(F)cc(S(=O)(=O)[O-])cc8F)c8ccc5[nH]8)C=C7)C=C6)cc4)c3)C2)n1
REMARK SMILES IDX 22 1 21 2 20 3 19 4 17 5 18 6 16 8 12 9 13 10 95 11 14 12
REMARK SMILES IDX 15 13 11 14 7 15 8 16 96 17 9 19 10 20 6 21 5 22 1 23 2 24
REMARK SMILES IDX 3 25 97 26 4 27 23 29 24 30 25 31 26 32 27 33 28 35 29 36
REMARK SMILES IDX 30 37 94 38 31 39 93 40 32 41 33 42 34 43 87 44 35 45 92 46
REMARK SMILES IDX 86 47 88 48 36 49 91 50 85 51 84 52 37 54 71 55 50 56 70 57
REMARK SMILES IDX 51 58 54 59 69 60 89 61 52 62 53 63 68 65 90 66 55 67 38 68
REMARK SMILES IDX 39 69 48 70 40 71 41 72 47 73 49 74 42 75 43 76 44 77 45 78
REMARK SMILES IDX 46 79 72 80 73 81 82 82 74 83 75 84 81 85 83 86 76 87 77 88
REMARK SMILES IDX 78 89 79 90 80 91 56 92 57 93 66 94 58 95 59 96 65 97 67 98
REMARK SMILES IDX 60 99 61 100 62 101 63 102 64 103
REMARK H PARENT 19 7 7 18 4 28 26 34 88 53 54 64
REMARK Flexibility Score: inf
ROOT
ATOM      1  C   UNL     1      -5.090  10.292   0.867  1.00  0.00     0.002 C 
ENDROOT
BRANCH   1   2
ATOM      2  C   UNL     1      -3.926   9.407   0.434  1.00  0.00     0.021 C 
BRANCH   2   3
ATOM      3  C   UNL     1      -4.080   8.659  -0.882  1.00  0.00     0.116 C 
BRANCH   3   4
ATOM      4  N   UNL     1      -4.225   9.494  -2.067  1.00  0.00    -0.352 N 
ATOM      5  C   UNL     1      -3.729   9.345  -3.349  1.00  0.00     0.251 C 
ATOM      6  O   UNL     1      -4.019  10.191  -4.194  1.00  0.00    -0.269 OA
ATOM      7  H   UNL     1      -4.768  10.303  -1.931  1.00  0.00     0.163 HD
BRANCH   5   8
ATOM      8  C   UNL     1      -2.816   8.228  -3.723  1.00  0.00     0.040 A 
ATOM      9  C   UNL     1      -1.840   6.046  -3.217  1.00  0.00    -0.039 A 
ATOM     10  C   UNL     1      -0.852   6.299  -4.180  1.00  0.00     0.004 A 
ATOM     11  C   UNL     1      -2.873   6.984  -3.095  1.00  0.00     0.018 A 
ATOM     12  C   UNL     1      -0.877   7.467  -4.947  1.00  0.00     0.001 A 
ATOM     13  C   UNL     1      -1.838   8.446  -4.696  1.00  0.00     0.014 A 
BRANCH   9  14
ATOM     14  C   UNL     1      -1.744   4.915  -2.190  1.00  0.00     0.074 C 
ATOM     15  N   UNL     1      -1.172   3.012  -3.689  1.00  0.00    -0.328 N 
ATOM     16  C   UNL     1      -2.465   2.363  -3.438  1.00  0.00     0.262 C 
ATOM     17  C   UNL     1      -0.733   3.800  -2.519  1.00  0.00     0.270 C 
ATOM     18  H   UNL     1      -1.324   3.650  -4.470  1.00  0.00     0.348 HD
ATOM     19  C   UNL     1      -3.547   3.367  -3.026  1.00  0.00     0.062 C 
ATOM     20  C   UNL     1      -3.082   4.224  -1.853  1.00  0.00     0.020 C 
BRANCH  15  21
ATOM     21  C   UNL     1      -0.121   2.074  -4.124  1.00  0.00     0.340 C 
BRANCH  21  22
ATOM     22  C   UNL     1       0.243   1.042  -3.112  1.00  0.00     0.179 A 
ATOM     23  C   UNL     1       1.163  -0.212   0.049  1.00  0.00     0.092 C 
ATOM     24  C   UNL     1       0.745  -0.005  -1.352  1.00  0.00     0.147 A 
ATOM     25  N   UNL     1       0.191  -0.958  -2.114  1.00  0.00    -0.159 NA
ATOM     26  N   UNL     1       0.836   1.220  -1.951  1.00  0.00    -0.211 NA
ATOM     27  N   UNL     1      -0.098  -0.273  -3.231  1.00  0.00    -0.258 N 
ATOM     28  H   UNL     1      -0.505  -0.669  -4.035  1.00  0.00     0.192 HD
ENDBRANCH  21  22
ENDBRANCH  15  21
ENDBRANCH   9  14
ENDBRANCH   5   8
ENDBRANCH   3   4
ENDBRANCH   2   3
ENDBRANCH   1   2
BRANCH   1  29
ATOM     29  C   UNL     1      -6.487   9.661   0.892  1.00  0.00     0.002 C 
BRANCH  29  30
ATOM     30  C   UNL     1      -6.666   8.333   1.640  1.00  0.00     0.021 C 
BRANCH  30  31
ATOM     31  C   UNL     1      -6.273   8.344   3.111  1.00  0.00     0.116 C 
BRANCH  31  32
ATOM     32  N   UNL     1      -7.067   9.273   3.909  1.00  0.00    -0.352 N 
ATOM     33  C   UNL     1      -6.896   9.640   5.231  1.00  0.00     0.251 C 
ATOM     34  H   UNL     1      -7.826   9.694   3.444  1.00  0.00     0.163 HD
ATOM     35  O   UNL     1      -7.831  10.100   5.868  1.00  0.00    -0.269 OA
BRANCH  33  36
ATOM     36  C   UNL     1      -5.572   9.466   5.865  1.00  0.00     0.039 A 
ATOM     37  C   UNL     1      -5.462   9.068   7.201  1.00  0.00     0.014 A 
ATOM     38  C   UNL     1      -4.430   9.707   5.106  1.00  0.00     0.014 A 
ATOM     39  C   UNL     1      -4.195   8.833   7.734  1.00  0.00     0.010 A 
ATOM     40  C   UNL     1      -3.195   9.340   5.584  1.00  0.00     0.010 A 
ATOM     41  C   UNL     1      -3.063   8.949   6.911  1.00  0.00    -0.014 A 
BRANCH  41  42
ATOM     42  C   UNL     1      -1.747   8.530   7.392  1.00  0.00     0.031 A 
ATOM     43  C   UNL     1      -1.698   7.123   7.878  1.00  0.00     0.074 A 
ATOM     44  C   UNL     1      -0.619   9.247   7.191  1.00  0.00     0.049 A 
ATOM     45  N   UNL     1      -1.535   6.703   9.089  1.00  0.00    -0.248 NA
ATOM     46  C   UNL     1      -2.034   6.053   6.923  1.00  0.00     0.031 C 
ATOM     47  C   UNL     1      -0.460  10.485   6.418  1.00  0.00     0.029 A 
ATOM     48  N   UNL     1       0.664   8.954   7.541  1.00  0.00    -0.354 N 
ATOM     49  C   UNL     1      -1.495   5.312   9.007  1.00  0.00     0.074 A 
ATOM     50  C   UNL     1      -2.031   4.979   7.715  1.00  0.00     0.031 C 
ATOM     51  C   UNL     1       0.849  10.696   6.162  1.00  0.00     0.029 A 
ATOM     52  C   UNL     1       1.632   9.716   6.891  1.00  0.00     0.049 A 
ATOM     53  H   UNL     1       0.889   8.259   8.201  1.00  0.00     0.167 HD
ATOM     54  C   UNL     1      -0.774   4.574   9.898  1.00  0.00     0.037 A 
ATOM     55  C   UNL     1       2.977   9.533   6.930  1.00  0.00     0.037 A 
ATOM     56  C   UNL     1      -0.435   5.365  11.057  1.00  0.00     0.049 A 
ATOM     57  C   UNL     1       3.262   8.706   8.130  1.00  0.00     0.074 A 
ATOM     58  C   UNL     1      -1.155   6.073  12.001  1.00  0.00     0.029 A 
ATOM     59  N   UNL     1       0.856   5.829  11.147  1.00  0.00    -0.354 N 
ATOM     60  N   UNL     1       3.086   9.113   9.357  1.00  0.00    -0.248 NA
ATOM     61  C   UNL     1       3.338   7.264   7.957  1.00  0.00     0.031 C 
ATOM     62  C   UNL     1      -0.379   7.241  12.259  1.00  0.00     0.029 A 
ATOM     63  C   UNL     1       0.803   7.146  11.523  1.00  0.00     0.049 A 
ATOM     64  H   UNL     1       1.673   5.308  10.973  1.00  0.00     0.167 HD
ATOM     65  C   UNL     1       2.597   8.004  10.030  1.00  0.00     0.074 A 
ATOM     66  C   UNL     1       2.874   6.874   9.146  1.00  0.00     0.031 C 
ATOM     67  C   UNL     1       1.763   8.143  11.102  1.00  0.00     0.037 A 
BRANCH  54  68
ATOM     68  C   UNL     1      -0.035   3.289   9.565  1.00  0.00     0.058 A 
ATOM     69  C   UNL     1       0.642   2.603  10.600  1.00  0.00     0.135 A 
ATOM     70  C   UNL     1       0.282   2.858   8.257  1.00  0.00     0.135 A 
ATOM     71  F   UNL     1       0.419   2.912  11.887  1.00  0.00    -0.206 F 
ATOM     72  C   UNL     1       1.625   1.644  10.351  1.00  0.00     0.059 A 
ATOM     73  C   UNL     1       1.219   1.866   7.989  1.00  0.00     0.059 A 
ATOM     74  F   UNL     1      -0.224   3.433   7.162  1.00  0.00    -0.206 F 
ATOM     75  C   UNL     1       1.920   1.297   9.038  1.00  0.00     0.060 A 
BRANCH  75  76
ATOM     76  S   UNL     1       3.256   0.138   8.703  1.00  0.00     0.124 S 
ATOM     77  O   UNL     1       4.423   0.929   9.072  1.00  0.00    -0.237 OA
ATOM     78  O   UNL     1       2.923  -0.970   9.592  1.00  0.00    -0.237 OA
ATOM     79  O   UNL     1       3.104  -0.143   7.278  1.00  0.00    -0.744 OA
ENDBRANCH  75  76
ENDBRANCH  54  68
BRANCH  55  80
ATOM     80  C   UNL     1       3.997   9.761   5.870  1.00  0.00     0.058 A 
ATOM     81  C   UNL     1       5.372   9.690   6.168  1.00  0.00     0.135 A 
ATOM     82  C   UNL     1       3.662   9.746   4.501  1.00  0.00     0.135 A 
ATOM     83  F   UNL     1       5.786   9.695   7.444  1.00  0.00    -0.206 F 
ATOM     84  C   UNL     1       6.347   9.530   5.178  1.00  0.00     0.059 A 
ATOM     85  C   UNL     1       4.618   9.600   3.495  1.00  0.00     0.059 A 
ATOM     86  F   UNL     1       2.381   9.773   4.102  1.00  0.00    -0.206 F 
ATOM     87  C   UNL     1       5.956   9.456   3.843  1.00  0.00     0.060 A 
BRANCH  87  88
ATOM     88  S   UNL     1       7.182   9.030   2.582  1.00  0.00     0.124 S 
ATOM     89  O   UNL     1       7.991  10.242   2.525  1.00  0.00    -0.237 OA
ATOM     90  O   UNL     1       7.828   7.858   3.163  1.00  0.00    -0.237 OA
ATOM     91  O   UNL     1       6.369   8.765   1.397  1.00  0.00    -0.744 OA
ENDBRANCH  87  88
ENDBRANCH  55  80
BRANCH  67  92
ATOM     92  C   UNL     1       1.673   9.489  11.774  1.00  0.00     0.058 A 
ATOM     93  C   UNL     1       1.186  10.664  11.172  1.00  0.00     0.135 A 
ATOM     94  C   UNL     1       1.954   9.544  13.148  1.00  0.00     0.135 A 
ATOM     95  F   UNL     1       0.802  10.676   9.888  1.00  0.00    -0.206 F 
ATOM     96  C   UNL     1       1.020  11.846  11.899  1.00  0.00     0.059 A 
ATOM     97  C   UNL     1       1.764  10.699  13.898  1.00  0.00     0.059 A 
ATOM     98  F   UNL     1       2.369   8.441  13.794  1.00  0.00    -0.206 F 
ATOM     99  C   UNL     1       1.308  11.852  13.264  1.00  0.00     0.060 A 
BRANCH  99 100
ATOM    100  S   UNL     1       1.014  13.353  14.224  1.00  0.00     0.124 S 
ATOM    101  O   UNL     1       2.084  14.229  13.759  1.00  0.00    -0.237 OA
ATOM    102  O   UNL     1      -0.337  13.731  13.819  1.00  0.00    -0.237 OA
ATOM    103  O   UNL     1       1.135  12.903  15.609  1.00  0.00    -0.744 OA
ENDBRANCH  99 100
ENDBRANCH  67  92
ENDBRANCH  41  42
ENDBRANCH  33  36
ENDBRANCH  31  32
ENDBRANCH  30  31
ENDBRANCH  29  30
ENDBRANCH   1  29
TORSDOF 19
