REMARK SMILES CCCc1nsc(N2CCO[C@H](CC(=O)NCCCCCCNC(=O)c3ccc(-c4c5nc(c(-c6c(F)cc(S(=O)(=O)[O-])cc6F)c6ccc([nH]6)c(-c6c(F)cc(S(=O)(=O)[O-])cc6F)c6nc(c(-c7c(F)cc(S(=O)(=O)[O-])cc7F)c7ccc4[nH]7)C=C6)C=C5)cc3)C2)n1
REMARK SMILES IDX 19 1 18 2 17 3 16 4 14 5 15 6 13 8 12 9 8 10 9 11 92 12
REMARK SMILES IDX 10 13 11 14 7 15 4 16 5 17 93 18 6 19 3 20 2 21 1 22 20 23
REMARK SMILES IDX 21 24 22 25 23 26 24 27 25 29 26 30 27 31 91 32 28 33 90 34
REMARK SMILES IDX 29 35 30 36 31 37 84 38 32 39 89 40 83 41 85 42 33 43 88 44
REMARK SMILES IDX 82 45 81 46 34 48 68 49 47 50 67 51 48 52 51 53 66 54 86 55
REMARK SMILES IDX 49 56 50 57 65 59 87 60 52 61 35 62 36 63 45 64 37 65 38 66
REMARK SMILES IDX 44 67 46 68 39 69 40 70 41 71 42 72 43 73 69 74 70 75 79 76
REMARK SMILES IDX 71 77 72 78 78 79 80 80 73 81 74 82 75 83 76 84 77 85 53 86
REMARK SMILES IDX 54 87 63 88 55 89 56 90 62 91 64 92 57 93 58 94 59 95 60 96
REMARK SMILES IDX 61 97
REMARK H PARENT 16 7 23 28 85 47 51 58
REMARK Flexibility Score: inf
ROOT
ATOM      1  C   UNL     1       4.694  -8.262  -6.463  1.00  0.00     0.002 C 
ENDROOT
BRANCH   1   2
ATOM      2  C   UNL     1       4.199  -8.027  -5.031  1.00  0.00     0.021 C 
BRANCH   2   3
ATOM      3  C   UNL     1       5.093  -7.080  -4.224  1.00  0.00     0.116 C 
BRANCH   3   4
ATOM      4  N   UNL     1       4.978  -5.732  -4.750  1.00  0.00    -0.356 N 
ATOM      5  C   UNL     1       4.278  -4.675  -4.258  1.00  0.00     0.222 C 
ATOM      6  O   UNL     1       4.146  -3.673  -4.960  1.00  0.00    -0.275 OA
ATOM      7  H   UNL     1       5.478  -5.559  -5.580  1.00  0.00     0.163 HD
BRANCH   5   8
ATOM      8  C   UNL     1       3.727  -4.729  -2.856  1.00  0.00     0.133 C 
BRANCH   8   9
ATOM      9  C   UNL     1       2.528  -5.665  -2.683  1.00  0.00     0.147 C 
ATOM     10  N   UNL     1       0.626  -4.110  -2.422  1.00  0.00    -0.342 N 
ATOM     11  C   UNL     1       0.570  -4.418  -0.993  1.00  0.00     0.147 C 
ATOM     12  C   UNL     1       1.202  -5.138  -3.279  1.00  0.00     0.151 C 
ATOM     13  C   UNL     1       1.922  -4.928  -0.491  1.00  0.00     0.182 C 
ATOM     14  O   UNL     1       2.388  -6.027  -1.290  1.00  0.00    -0.374 OA
BRANCH  10  15
ATOM     15  C   UNL     1       0.491  -2.833  -2.848  1.00  0.00     0.205 A 
ATOM     16  C   UNL     1       0.554  -0.632  -2.867  1.00  0.00     0.144 A 
ATOM     17  N   UNL     1      -0.102  -0.726  -4.026  1.00  0.00    -0.174 NA
ATOM     18  N   UNL     1       0.884  -1.782  -2.168  1.00  0.00    -0.203 NA
ATOM     19  S   UNL     1      -0.280  -2.359  -4.327  1.00  0.00     0.004 S 
BRANCH  16  20
ATOM     20  C   UNL     1       0.977   0.694  -2.335  1.00  0.00     0.078 C 
BRANCH  20  21
ATOM     21  C   UNL     1       0.419   1.020  -0.948  1.00  0.00     0.005 C 
ATOM     22  C   UNL     1       0.951   0.124   0.164  1.00  0.00     0.004 C 
ENDBRANCH  20  21
ENDBRANCH  16  20
ENDBRANCH  10  15
ENDBRANCH   8   9
ENDBRANCH   5   8
ENDBRANCH   3   4
ENDBRANCH   2   3
ENDBRANCH   1   2
BRANCH   1  23
ATOM     23  C   UNL     1       6.099  -8.861  -6.558  1.00  0.00     0.002 C 
BRANCH  23  24
ATOM     24  C   UNL     1       6.286 -10.167  -5.783  1.00  0.00     0.021 C 
BRANCH  24  25
ATOM     25  C   UNL     1       5.352 -11.290  -6.221  1.00  0.00     0.116 C 
BRANCH  25  26
ATOM     26  N   UNL     1       5.590 -11.676  -7.604  1.00  0.00    -0.352 N 
ATOM     27  C   UNL     1       5.907 -12.909  -8.112  1.00  0.00     0.251 C 
ATOM     28  H   UNL     1       5.513 -10.951  -8.265  1.00  0.00     0.163 HD
ATOM     29  O   UNL     1       6.307 -13.013  -9.271  1.00  0.00    -0.269 OA
BRANCH  27  30
ATOM     30  C   UNL     1       5.777 -14.107  -7.258  1.00  0.00     0.039 A 
ATOM     31  C   UNL     1       6.801 -15.056  -7.258  1.00  0.00     0.014 A 
ATOM     32  C   UNL     1       4.645 -14.290  -6.457  1.00  0.00     0.014 A 
ATOM     33  C   UNL     1       6.713 -16.163  -6.412  1.00  0.00     0.010 A 
ATOM     34  C   UNL     1       4.597 -15.351  -5.559  1.00  0.00     0.010 A 
ATOM     35  C   UNL     1       5.627 -16.303  -5.532  1.00  0.00    -0.014 A 
BRANCH  35  36
ATOM     36  C   UNL     1       5.551 -17.438  -4.577  1.00  0.00     0.031 A 
ATOM     37  C   UNL     1       4.433 -18.440  -4.679  1.00  0.00     0.074 A 
ATOM     38  C   UNL     1       6.457 -17.532  -3.583  1.00  0.00     0.049 A 
ATOM     39  N   UNL     1       4.165 -19.459  -3.905  1.00  0.00    -0.248 NA
ATOM     40  C   UNL     1       3.474 -18.256  -5.781  1.00  0.00     0.031 C 
ATOM     41  C   UNL     1       7.559 -16.595  -3.352  1.00  0.00     0.029 A 
ATOM     42  N   UNL     1       6.590 -18.453  -2.574  1.00  0.00    -0.354 N 
ATOM     43  C   UNL     1       3.006 -20.031  -4.417  1.00  0.00     0.074 A 
ATOM     44  C   UNL     1       2.589 -19.211  -5.534  1.00  0.00     0.031 C 
ATOM     45  C   UNL     1       8.268 -17.002  -2.287  1.00  0.00     0.029 A 
ATOM     46  C   UNL     1       7.649 -18.202  -1.733  1.00  0.00     0.049 A 
ATOM     47  H   UNL     1       5.985 -19.221  -2.463  1.00  0.00     0.167 HD
ATOM     48  C   UNL     1       2.362 -21.151  -4.009  1.00  0.00     0.037 A 
ATOM     49  C   UNL     1       8.069 -18.859  -0.634  1.00  0.00     0.037 A 
ATOM     50  C   UNL     1       2.796 -21.971  -2.908  1.00  0.00     0.049 A 
ATOM     51  C   UNL     1       7.330 -20.094  -0.193  1.00  0.00     0.074 A 
ATOM     52  C   UNL     1       2.245 -23.155  -2.450  1.00  0.00     0.029 A 
ATOM     53  N   UNL     1       3.881 -21.692  -2.089  1.00  0.00    -0.354 N 
ATOM     54  N   UNL     1       6.273 -20.658  -0.729  1.00  0.00    -0.248 NA
ATOM     55  C   UNL     1       7.842 -20.786   0.997  1.00  0.00     0.031 C 
ATOM     56  C   UNL     1       2.963 -23.564  -1.321  1.00  0.00     0.029 A 
ATOM     57  C   UNL     1       4.000 -22.668  -1.113  1.00  0.00     0.049 A 
ATOM     58  H   UNL     1       4.478 -20.916  -2.187  1.00  0.00     0.167 HD
ATOM     59  C   UNL     1       6.013 -21.787   0.040  1.00  0.00     0.074 A 
ATOM     60  C   UNL     1       7.030 -21.832   1.070  1.00  0.00     0.031 C 
ATOM     61  C   UNL     1       5.023 -22.704  -0.096  1.00  0.00     0.037 A 
BRANCH  48  62
ATOM     62  C   UNL     1       1.120 -21.556  -4.757  1.00  0.00     0.058 A 
ATOM     63  C   UNL     1       1.174 -22.029  -6.079  1.00  0.00     0.135 A 
ATOM     64  C   UNL     1      -0.137 -21.510  -4.132  1.00  0.00     0.135 A 
ATOM     65  F   UNL     1       2.346 -22.080  -6.732  1.00  0.00    -0.206 F 
ATOM     66  C   UNL     1       0.025 -22.413  -6.763  1.00  0.00     0.059 A 
ATOM     67  C   UNL     1      -1.296 -21.920  -4.786  1.00  0.00     0.059 A 
ATOM     68  F   UNL     1      -0.249 -21.067  -2.870  1.00  0.00    -0.206 F 
ATOM     69  C   UNL     1      -1.206 -22.356  -6.107  1.00  0.00     0.060 A 
BRANCH  69  70
ATOM     70  S   UNL     1      -2.684 -22.867  -7.007  1.00  0.00     0.124 S 
ATOM     71  O   UNL     1      -2.841 -21.768  -7.956  1.00  0.00    -0.237 OA
ATOM     72  O   UNL     1      -2.274 -24.145  -7.580  1.00  0.00    -0.237 OA
ATOM     73  O   UNL     1      -3.706 -22.947  -5.968  1.00  0.00    -0.744 OA
ENDBRANCH  69  70
ENDBRANCH  48  62
BRANCH  49  74
ATOM     74  C   UNL     1       9.258 -18.370   0.116  1.00  0.00     0.058 A 
ATOM     75  C   UNL     1      10.459 -19.095   0.120  1.00  0.00     0.135 A 
ATOM     76  C   UNL     1       9.222 -17.163   0.833  1.00  0.00     0.135 A 
ATOM     77  F   UNL     1      10.542 -20.258  -0.544  1.00  0.00    -0.206 F 
ATOM     78  C   UNL     1      11.575 -18.654   0.823  1.00  0.00     0.059 A 
ATOM     79  C   UNL     1      10.334 -16.686   1.519  1.00  0.00     0.059 A 
ATOM     80  F   UNL     1       8.103 -16.422   0.847  1.00  0.00    -0.206 F 
ATOM     81  C   UNL     1      11.504 -17.445   1.517  1.00  0.00     0.060 A 
BRANCH  81  82
ATOM     82  S   UNL     1      12.973 -16.858   2.387  1.00  0.00     0.124 S 
ATOM     83  O   UNL     1      13.038 -17.783   3.512  1.00  0.00    -0.237 OA
ATOM     84  O   UNL     1      14.011 -17.011   1.372  1.00  0.00    -0.237 OA
ATOM     85  O   UNL     1      12.635 -15.478   2.723  1.00  0.00    -0.744 OA
ENDBRANCH  81  82
ENDBRANCH  49  74
BRANCH  61  86
ATOM     86  C   UNL     1       5.009 -23.859   0.868  1.00  0.00     0.058 A 
ATOM     87  C   UNL     1       4.657 -23.694   2.217  1.00  0.00     0.135 A 
ATOM     88  C   UNL     1       5.300 -25.159   0.421  1.00  0.00     0.135 A 
ATOM     89  F   UNL     1       4.377 -22.473   2.699  1.00  0.00    -0.206 F 
ATOM     90  C   UNL     1       4.619 -24.773   3.095  1.00  0.00     0.059 A 
ATOM     91  C   UNL     1       5.237 -26.256   1.273  1.00  0.00     0.059 A 
ATOM     92  F   UNL     1       5.631 -25.374  -0.862  1.00  0.00    -0.206 F 
ATOM     93  C   UNL     1       4.907 -26.052   2.612  1.00  0.00     0.060 A 
BRANCH  93  94
ATOM     94  S   UNL     1       4.819 -27.447   3.754  1.00  0.00     0.124 S 
ATOM     95  O   UNL     1       6.007 -27.232   4.573  1.00  0.00    -0.237 OA
ATOM     96  O   UNL     1       3.540 -27.224   4.420  1.00  0.00    -0.237 OA
ATOM     97  O   UNL     1       4.865 -28.611   2.874  1.00  0.00    -0.744 OA
ENDBRANCH  93  94
ENDBRANCH  61  86
ENDBRANCH  35  36
ENDBRANCH  27  30
ENDBRANCH  25  26
ENDBRANCH  24  25
ENDBRANCH  23  24
ENDBRANCH   1  23
TORSDOF 20
