REMARK SMILES O=C(Cn1nc(C(=O)NCCCCCCNC(=O)c2ccc(-c3c4nc(c(-c5c(F)cc(S(=O)(=O)[O-])cc5F)c5ccc([nH]5)c(-c5c(F)cc(S(=O)(=O)[O-])cc5F)c5nc(c(-c6c(F)cc(S(=O)(=O)[O-])cc6F)c6ccc3[nH]6)C=C5)C=C4)cc2)c2ccccc2c1=O)Nc1ccc2c(c1)C(=O)c1ccccc1C2=O
REMARK SMILES IDX 12 1 11 2 10 3 9 4 7 5 8 6 6 8 4 9 5 10 91 11 90 12 92 13
REMARK SMILES IDX 85 14 89 15 86 16 88 17 87 18 3 19 2 20 1 21 93 22 94 24
REMARK SMILES IDX 95 25 99 26 96 27 98 28 97 29 100 30 108 31 101 32 102 33
REMARK SMILES IDX 107 34 109 35 103 36 106 37 104 38 105 39 13 40 14 41 15 42
REMARK SMILES IDX 16 43 17 44 18 46 19 47 20 48 84 49 21 50 83 51 22 52 23 53
REMARK SMILES IDX 24 54 77 55 25 56 82 57 76 58 78 59 26 60 81 61 75 62 74 63
REMARK SMILES IDX 27 65 61 66 40 67 60 68 41 69 44 70 59 71 79 72 42 73 43 74
REMARK SMILES IDX 58 76 80 77 45 78 28 79 29 80 38 81 30 82 31 83 37 84 39 85
REMARK SMILES IDX 32 86 33 87 34 88 35 89 36 90 62 91 63 92 72 93 64 94 65 95
REMARK SMILES IDX 71 96 73 97 66 98 67 99 68 100 69 101 70 102 46 103 47 104
REMARK SMILES IDX 56 105 48 106 49 107 55 108 57 109 50 110 51 111 52 112
REMARK SMILES IDX 53 113 54 114
REMARK H PARENT 9 7 93 23 16 45 78 64 44 75
REMARK Flexibility Score: inf
ROOT
ATOM      1  C   UNL     1      -0.311  -5.000   0.671  1.00  0.00     0.002 C 
ENDROOT
BRANCH   1   2
ATOM      2  C   UNL     1       0.583  -3.757   0.717  1.00  0.00     0.021 C 
BRANCH   2   3
ATOM      3  C   UNL     1       1.008  -3.323   2.122  1.00  0.00     0.116 C 
BRANCH   3   4
ATOM      4  N   UNL     1       2.171  -4.108   2.523  1.00  0.00    -0.351 N 
ATOM      5  C   UNL     1       3.500  -3.833   2.301  1.00  0.00     0.272 C 
ATOM      6  O   UNL     1       4.310  -4.749   2.193  1.00  0.00    -0.267 OA
ATOM      7  H   UNL     1       1.980  -4.940   3.015  1.00  0.00     0.163 HD
BRANCH   5   8
ATOM      8  C   UNL     1       4.004  -2.387   2.250  1.00  0.00     0.156 A 
ATOM      9  N   UNL     1       3.802  -0.226   1.422  1.00  0.00    -0.219 N 
ATOM     10  N   UNL     1       3.407  -1.551   1.448  1.00  0.00    -0.163 NA
ATOM     11  C   UNL     1       4.831   0.284   2.216  1.00  0.00     0.275 A 
ATOM     12  C   UNL     1       5.559  -0.678   3.066  1.00  0.00     0.051 A 
ATOM     13  O   UNL     1       5.150   1.469   2.247  1.00  0.00    -0.267 OA
ATOM     14  C   UNL     1       5.158  -2.008   3.100  1.00  0.00     0.020 A 
ATOM     15  C   UNL     1       6.644  -0.242   3.845  1.00  0.00     0.014 A 
ATOM     16  C   UNL     1       5.863  -2.912   3.912  1.00  0.00     0.011 A 
ATOM     17  C   UNL     1       7.343  -1.146   4.644  1.00  0.00     0.001 A 
ATOM     18  C   UNL     1       6.955  -2.482   4.673  1.00  0.00     0.001 A 
BRANCH   9  19
ATOM     19  C   UNL     1       2.920   0.736   0.731  1.00  0.00     0.248 C 
BRANCH  19  20
ATOM     20  C   UNL     1       2.211   0.205  -0.519  1.00  0.00     0.246 C 
ATOM     21  O   UNL     1       1.018   0.402  -0.736  1.00  0.00    -0.273 OA
ATOM     22  N   UNL     1       3.073  -0.405  -1.418  1.00  0.00    -0.324 N 
ATOM     23  H   UNL     1       4.030  -0.177  -1.407  1.00  0.00     0.169 HD
BRANCH  22  24
ATOM     24  C   UNL     1       2.592  -1.346  -2.343  1.00  0.00     0.042 A 
ATOM     25  C   UNL     1       2.440  -1.060  -3.703  1.00  0.00     0.027 A 
ATOM     26  C   UNL     1       2.503  -2.652  -1.897  1.00  0.00     0.039 A 
ATOM     27  C   UNL     1       2.412  -2.118  -4.635  1.00  0.00     0.015 A 
ATOM     28  C   UNL     1       2.314  -3.667  -2.815  1.00  0.00     0.036 A 
ATOM     29  C   UNL     1       2.471  -3.433  -4.170  1.00  0.00     0.034 A 
ATOM     30  C   UNL     1       2.241  -5.056  -2.400  1.00  0.00     0.194 C 
ATOM     31  C   UNL     1       3.059  -4.568  -4.960  1.00  0.00     0.194 C 
ATOM     32  O   UNL     1       1.280  -5.559  -1.849  1.00  0.00    -0.289 OA
ATOM     33  C   UNL     1       3.355  -5.850  -2.839  1.00  0.00     0.034 A 
ATOM     34  C   UNL     1       3.764  -5.634  -4.154  1.00  0.00     0.034 A 
ATOM     35  O   UNL     1       3.104  -4.554  -6.180  1.00  0.00    -0.289 OA
ATOM     36  C   UNL     1       4.017  -6.676  -1.935  1.00  0.00     0.013 A 
ATOM     37  C   UNL     1       4.886  -6.320  -4.597  1.00  0.00     0.013 A 
ATOM     38  C   UNL     1       5.165  -7.314  -2.371  1.00  0.00     0.001 A 
ATOM     39  C   UNL     1       5.589  -7.146  -3.698  1.00  0.00     0.001 A 
ENDBRANCH  22  24
ENDBRANCH  19  20
ENDBRANCH   9  19
ENDBRANCH   5   8
ENDBRANCH   3   4
ENDBRANCH   2   3
ENDBRANCH   1   2
BRANCH   1  40
ATOM     40  C   UNL     1      -1.791  -4.788   0.354  1.00  0.00     0.002 C 
BRANCH  40  41
ATOM     41  C   UNL     1      -2.199  -3.757  -0.704  1.00  0.00     0.021 C 
BRANCH  41  42
ATOM     42  C   UNL     1      -1.617  -3.878  -2.112  1.00  0.00     0.116 C 
BRANCH  42  43
ATOM     43  N   UNL     1      -1.949  -5.119  -2.801  1.00  0.00    -0.352 N 
ATOM     44  C   UNL     1      -2.682  -5.310  -3.953  1.00  0.00     0.251 C 
ATOM     45  H   UNL     1      -1.600  -5.939  -2.383  1.00  0.00     0.163 HD
ATOM     46  O   UNL     1      -2.941  -6.436  -4.365  1.00  0.00    -0.269 OA
BRANCH  44  47
ATOM     47  C   UNL     1      -3.184  -4.126  -4.683  1.00  0.00     0.039 A 
ATOM     48  C   UNL     1      -2.286  -3.160  -5.144  1.00  0.00     0.014 A 
ATOM     49  C   UNL     1      -4.561  -3.940  -4.825  1.00  0.00     0.014 A 
ATOM     50  C   UNL     1      -2.771  -1.926  -5.571  1.00  0.00     0.010 A 
ATOM     51  C   UNL     1      -5.044  -2.721  -5.312  1.00  0.00     0.010 A 
ATOM     52  C   UNL     1      -4.153  -1.678  -5.619  1.00  0.00    -0.014 A 
BRANCH  52  53
ATOM     53  C   UNL     1      -4.651  -0.303  -5.896  1.00  0.00     0.031 A 
ATOM     54  C   UNL     1      -5.347   0.483  -4.811  1.00  0.00     0.074 A 
ATOM     55  C   UNL     1      -4.426   0.270  -7.094  1.00  0.00     0.049 A 
ATOM     56  N   UNL     1      -5.865   1.685  -4.860  1.00  0.00    -0.248 NA
ATOM     57  C   UNL     1      -5.483  -0.168  -3.497  1.00  0.00     0.031 C 
ATOM     58  C   UNL     1      -3.736  -0.367  -8.216  1.00  0.00     0.029 A 
ATOM     59  N   UNL     1      -4.736   1.523  -7.561  1.00  0.00    -0.354 N 
ATOM     60  C   UNL     1      -6.397   1.927  -3.598  1.00  0.00     0.074 A 
ATOM     61  C   UNL     1      -6.170   0.734  -2.811  1.00  0.00     0.031 C 
ATOM     62  C   UNL     1      -3.642   0.510  -9.228  1.00  0.00     0.029 A 
ATOM     63  C   UNL     1      -4.311   1.752  -8.848  1.00  0.00     0.049 A 
ATOM     64  H   UNL     1      -5.218   2.194  -7.026  1.00  0.00     0.167 HD
ATOM     65  C   UNL     1      -7.005   3.045  -3.131  1.00  0.00     0.037 A 
ATOM     66  C   UNL     1      -4.453   2.833  -9.640  1.00  0.00     0.037 A 
ATOM     67  C   UNL     1      -7.203   4.243  -3.905  1.00  0.00     0.049 A 
ATOM     68  C   UNL     1      -5.174   4.044  -9.116  1.00  0.00     0.074 A 
ATOM     69  C   UNL     1      -7.800   5.430  -3.515  1.00  0.00     0.029 A 
ATOM     70  N   UNL     1      -6.802   4.413  -5.222  1.00  0.00    -0.354 N 
ATOM     71  N   UNL     1      -5.690   4.245  -7.927  1.00  0.00    -0.248 NA
ATOM     72  C   UNL     1      -5.341   5.171 -10.044  1.00  0.00     0.031 C 
ATOM     73  C   UNL     1      -7.793   6.304  -4.606  1.00  0.00     0.029 A 
ATOM     74  C   UNL     1      -7.153   5.679  -5.663  1.00  0.00     0.049 A 
ATOM     75  H   UNL     1      -6.338   3.735  -5.763  1.00  0.00     0.167 HD
ATOM     76  C   UNL     1      -6.228   5.527  -7.959  1.00  0.00     0.074 A 
ATOM     77  C   UNL     1      -5.964   6.059  -9.279  1.00  0.00     0.031 C 
ATOM     78  C   UNL     1      -6.883   6.199  -6.981  1.00  0.00     0.037 A 
BRANCH  65  79
ATOM     79  C   UNL     1      -7.509   3.032  -1.713  1.00  0.00     0.058 A 
ATOM     80  C   UNL     1      -6.633   3.109  -0.618  1.00  0.00     0.135 A 
ATOM     81  C   UNL     1      -8.888   3.009  -1.446  1.00  0.00     0.135 A 
ATOM     82  F   UNL     1      -5.305   3.119  -0.815  1.00  0.00    -0.206 F 
ATOM     83  C   UNL     1      -7.105   3.146   0.690  1.00  0.00     0.059 A 
ATOM     84  C   UNL     1      -9.383   3.069  -0.146  1.00  0.00     0.059 A 
ATOM     85  F   UNL     1      -9.770   2.937  -2.455  1.00  0.00    -0.206 F 
ATOM     86  C   UNL     1      -8.483   3.128   0.917  1.00  0.00     0.060 A 
BRANCH  86  87
ATOM     87  S   UNL     1      -9.077   3.195   2.621  1.00  0.00     0.124 S 
ATOM     88  O   UNL     1      -8.712   1.869   3.110  1.00  0.00    -0.237 OA
ATOM     89  O   UNL     1      -8.311   4.307   3.175  1.00  0.00    -0.237 OA
ATOM     90  O   UNL     1     -10.509   3.436   2.475  1.00  0.00    -0.744 OA
ENDBRANCH  86  87
ENDBRANCH  65  79
BRANCH  66  91
ATOM     91  C   UNL     1      -3.893   2.812 -11.017  1.00  0.00     0.058 A 
ATOM     92  C   UNL     1      -2.772   3.584 -11.350  1.00  0.00     0.135 A 
ATOM     93  C   UNL     1      -4.447   1.994 -12.014  1.00  0.00     0.135 A 
ATOM     94  F   UNL     1      -2.215   4.390 -10.434  1.00  0.00    -0.206 F 
ATOM     95  C   UNL     1      -2.217   3.547 -12.625  1.00  0.00     0.059 A 
ATOM     96  C   UNL     1      -3.895   1.921 -13.289  1.00  0.00     0.059 A 
ATOM     97  F   UNL     1      -5.516   1.230 -11.741  1.00  0.00    -0.206 F 
ATOM     98  C   UNL     1      -2.782   2.706 -13.586  1.00  0.00     0.060 A 
BRANCH  98  99
ATOM     99  S   UNL     1      -2.011   2.615 -15.217  1.00  0.00     0.124 S 
ATOM    100  O   UNL     1      -2.386   3.902 -15.791  1.00  0.00    -0.237 OA
ATOM    101  O   UNL     1      -0.600   2.452 -14.880  1.00  0.00    -0.237 OA
ATOM    102  O   UNL     1      -2.642   1.446 -15.822  1.00  0.00    -0.744 OA
ENDBRANCH  98  99
ENDBRANCH  66  91
BRANCH  78 103
ATOM    103  C   UNL     1      -7.348   7.596  -7.288  1.00  0.00     0.058 A 
ATOM    104  C   UNL     1      -8.460   7.835  -8.110  1.00  0.00     0.135 A 
ATOM    105  C   UNL     1      -6.715   8.703  -6.700  1.00  0.00     0.135 A 
ATOM    106  F   UNL     1      -9.096   6.811  -8.701  1.00  0.00    -0.206 F 
ATOM    107  C   UNL     1      -8.919   9.125  -8.351  1.00  0.00     0.059 A 
ATOM    108  C   UNL     1      -7.172  10.001  -6.909  1.00  0.00     0.059 A 
ATOM    109  F   UNL     1      -5.653   8.528  -5.898  1.00  0.00    -0.206 F 
ATOM    110  C   UNL     1      -8.271  10.202  -7.743  1.00  0.00     0.060 A 
BRANCH 110 111
ATOM    111  S   UNL     1      -8.905  11.868  -8.032  1.00  0.00     0.124 S 
ATOM    112  O   UNL     1      -8.496  12.104  -9.413  1.00  0.00    -0.237 OA
ATOM    113  O   UNL     1     -10.339  11.698  -7.816  1.00  0.00    -0.237 OA
ATOM    114  O   UNL     1      -8.218  12.674  -7.028  1.00  0.00    -0.744 OA
ENDBRANCH 110 111
ENDBRANCH  78 103
ENDBRANCH  52  53
ENDBRANCH  44  47
ENDBRANCH  42  43
ENDBRANCH  41  42
ENDBRANCH  40  41
ENDBRANCH   1  40
TORSDOF 19
