REMARK SMILES NC(=O)c1c(-c2ccc(Cl)cc2)csc1NC(=O)[C@H]1[C@@H](C(=O)NCCCCCCNC(=O)c2ccc(-c3c4nc(c(-c5c(F)cc(S(=O)(=O)[O-])cc5F)c5ccc([nH]5)c(-c5c(F)cc(S(=O)(=O)[O-])cc5F)c5nc(c(-c6c(F)cc(S(=O)(=O)[O-])cc6F)c6ccc3[nH]6)C=C5)C=C4)cc2)[C@@H]2CC[C@H]1O2
REMARK SMILES IDX 26 1 25 2 24 3 23 4 21 5 22 6 20 8 19 9 102 10 99 11 101 12
REMARK SMILES IDX 103 13 100 14 17 15 16 16 18 18 15 19 4 20 5 21 13 22 14 23
REMARK SMILES IDX 2 24 1 25 3 28 6 29 7 30 12 31 8 32 11 33 9 34 10 35 27 36
REMARK SMILES IDX 28 37 29 38 30 39 31 40 32 42 33 43 34 44 98 45 35 46 97 47
REMARK SMILES IDX 36 48 37 49 38 50 91 51 39 52 96 53 90 54 92 55 40 56 95 57
REMARK SMILES IDX 89 58 88 59 41 61 75 62 54 63 74 64 55 65 58 66 73 67 93 68
REMARK SMILES IDX 56 69 57 70 72 72 94 73 59 74 42 75 43 76 52 77 44 78 45 79
REMARK SMILES IDX 51 80 53 81 46 82 47 83 48 84 49 85 50 86 76 87 77 88 86 89
REMARK SMILES IDX 78 90 79 91 85 92 87 93 80 94 81 95 82 96 83 97 84 98 60 99
REMARK SMILES IDX 61 100 70 101 62 102 63 103 69 104 71 105 64 106 65 107
REMARK SMILES IDX 66 108 67 109 68 110
REMARK H PARENT 23 7 16 17 1 26 1 27 30 41 92 60 58 71
REMARK Flexibility Score: inf
ROOT
ATOM      1  C   UNL     1       0.817 -10.745  -0.465  1.00  0.00     0.002 C 
ENDROOT
BRANCH   1   2
ATOM      2  C   UNL     1      -0.217  -9.655  -0.786  1.00  0.00     0.021 C 
BRANCH   2   3
ATOM      3  C   UNL     1       0.340  -8.236  -0.905  1.00  0.00     0.116 C 
BRANCH   3   4
ATOM      4  N   UNL     1       1.414  -8.158  -1.874  1.00  0.00    -0.356 N 
ATOM      5  C   UNL     1       1.884  -7.104  -2.595  1.00  0.00     0.226 C 
ATOM      6  O   UNL     1       2.936  -7.274  -3.212  1.00  0.00    -0.275 OA
ATOM      7  H   UNL     1       1.881  -9.008  -2.039  1.00  0.00     0.163 HD
BRANCH   5   8
ATOM      8  C   UNL     1       1.153  -5.773  -2.537  1.00  0.00     0.122 C 
ATOM      9  C   UNL     1       0.235  -5.364  -3.715  1.00  0.00     0.123 C 
ATOM     10  C   UNL     1       1.025  -4.187  -4.330  1.00  0.00     0.132 C 
ATOM     11  C   UNL     1       2.201  -4.653  -2.567  1.00  0.00     0.132 C 
ATOM     12  C   UNL     1       0.860  -2.919  -3.491  1.00  0.00     0.035 C 
ATOM     13  O   UNL     1       2.397  -4.482  -3.988  1.00  0.00    -0.373 OA
ATOM     14  C   UNL     1       1.565  -3.311  -2.190  1.00  0.00     0.035 C 
BRANCH   9  15
ATOM     15  C   UNL     1      -0.136  -6.392  -4.776  1.00  0.00     0.231 C 
ATOM     16  N   UNL     1      -1.225  -6.271  -5.599  1.00  0.00    -0.317 N 
ATOM     17  H   UNL     1      -1.320  -7.044  -6.201  1.00  0.00     0.170 HD
ATOM     18  O   UNL     1       0.516  -7.429  -4.926  1.00  0.00    -0.274 OA
BRANCH  16  19
ATOM     19  C   UNL     1      -2.229  -5.333  -5.799  1.00  0.00     0.108 A 
ATOM     20  C   UNL     1      -3.332  -5.480  -6.647  1.00  0.00     0.082 A 
ATOM     21  C   UNL     1      -4.208  -4.323  -6.563  1.00  0.00     0.007 A 
ATOM     22  C   UNL     1      -3.692  -3.354  -5.728  1.00  0.00     0.076 A 
ATOM     23  S   UNL     1      -2.211  -3.817  -5.055  1.00  0.00    -0.125 S 
BRANCH  20  24
ATOM     24  C   UNL     1      -3.524  -6.684  -7.455  1.00  0.00     0.252 C 
ATOM     25  N   UNL     1      -4.242  -6.553  -8.604  1.00  0.00    -0.365 N 
ATOM     26  H   UNL     1      -4.397  -7.337  -9.180  1.00  0.00     0.159 HD
ATOM     27  H   UNL     1      -4.607  -5.675  -8.860  1.00  0.00     0.159 HD
ATOM     28  O   UNL     1      -3.017  -7.769  -7.167  1.00  0.00    -0.269 OA
ENDBRANCH  20  24
BRANCH  21  29
ATOM     29  C   UNL     1      -5.517  -4.099  -7.164  1.00  0.00    -0.017 A 
ATOM     30  C   UNL     1      -5.710  -3.035  -8.057  1.00  0.00     0.010 A 
ATOM     31  C   UNL     1      -6.599  -4.923  -6.828  1.00  0.00     0.010 A 
ATOM     32  C   UNL     1      -6.972  -2.797  -8.605  1.00  0.00     0.021 A 
ATOM     33  C   UNL     1      -7.862  -4.683  -7.378  1.00  0.00     0.021 A 
ATOM     34  C   UNL     1      -8.043  -3.621  -8.262  1.00  0.00     0.041 A 
ATOM     35  Cl  UNL     1      -9.597  -3.320  -8.935  1.00  0.00    -0.084 Cl
ENDBRANCH  21  29
ENDBRANCH  16  19
ENDBRANCH   9  15
ENDBRANCH   5   8
ENDBRANCH   3   4
ENDBRANCH   2   3
ENDBRANCH   1   2
BRANCH   1  36
ATOM     36  C   UNL     1       1.602 -10.547   0.834  1.00  0.00     0.002 C 
BRANCH  36  37
ATOM     37  C   UNL     1       0.750 -10.514   2.102  1.00  0.00     0.021 C 
BRANCH  37  38
ATOM     38  C   UNL     1      -0.113 -11.751   2.322  1.00  0.00     0.116 C 
BRANCH  38  39
ATOM     39  N   UNL     1       0.676 -12.957   2.535  1.00  0.00    -0.352 N 
ATOM     40  C   UNL     1       0.527 -13.909   3.517  1.00  0.00     0.251 C 
ATOM     41  H   UNL     1       1.408 -13.111   1.895  1.00  0.00     0.163 HD
ATOM     42  O   UNL     1       1.361 -14.796   3.665  1.00  0.00    -0.269 OA
BRANCH  40  43
ATOM     43  C   UNL     1      -0.646 -13.826   4.412  1.00  0.00     0.039 A 
ATOM     44  C   UNL     1      -0.456 -13.844   5.796  1.00  0.00     0.014 A 
ATOM     45  C   UNL     1      -1.923 -13.662   3.872  1.00  0.00     0.014 A 
ATOM     46  C   UNL     1      -1.546 -13.621   6.642  1.00  0.00     0.010 A 
ATOM     47  C   UNL     1      -2.989 -13.365   4.712  1.00  0.00     0.010 A 
ATOM     48  C   UNL     1      -2.812 -13.339   6.105  1.00  0.00    -0.014 A 
BRANCH  48  49
ATOM     49  C   UNL     1      -3.986 -13.030   6.961  1.00  0.00     0.031 A 
ATOM     50  C   UNL     1      -5.189 -13.933   6.911  1.00  0.00     0.074 A 
ATOM     51  C   UNL     1      -4.019 -11.894   7.686  1.00  0.00     0.049 A 
ATOM     52  N   UNL     1      -6.381 -13.752   7.414  1.00  0.00    -0.248 NA
ATOM     53  C   UNL     1      -5.035 -15.192   6.163  1.00  0.00     0.031 C 
ATOM     54  C   UNL     1      -2.926 -10.927   7.798  1.00  0.00     0.029 A 
ATOM     55  N   UNL     1      -5.024 -11.347   8.447  1.00  0.00    -0.354 N 
ATOM     56  C   UNL     1      -7.127 -14.857   7.021  1.00  0.00     0.074 A 
ATOM     57  C   UNL     1      -6.267 -15.678   6.198  1.00  0.00     0.031 C 
ATOM     58  C   UNL     1      -3.317  -9.909   8.583  1.00  0.00     0.029 A 
ATOM     59  C   UNL     1      -4.704 -10.123   8.988  1.00  0.00     0.049 A 
ATOM     60  H   UNL     1      -5.891 -11.789   8.591  1.00  0.00     0.167 HD
ATOM     61  C   UNL     1      -8.408 -15.166   7.332  1.00  0.00     0.037 A 
ATOM     62  C   UNL     1      -5.451  -9.259   9.706  1.00  0.00     0.037 A 
ATOM     63  C   UNL     1      -9.245 -14.356   8.176  1.00  0.00     0.049 A 
ATOM     64  C   UNL     1      -6.880  -9.614  10.024  1.00  0.00     0.074 A 
ATOM     65  C   UNL     1     -10.540 -14.605   8.594  1.00  0.00     0.029 A 
ATOM     66  N   UNL     1      -8.870 -13.142   8.733  1.00  0.00    -0.354 N 
ATOM     67  N   UNL     1      -7.560 -10.681   9.678  1.00  0.00    -0.248 NA
ATOM     68  C   UNL     1      -7.646  -8.651  10.829  1.00  0.00     0.031 C 
ATOM     69  C   UNL     1     -10.966 -13.518   9.362  1.00  0.00     0.029 A 
ATOM     70  C   UNL     1      -9.915 -12.621   9.475  1.00  0.00     0.049 A 
ATOM     71  H   UNL     1      -7.990 -12.714   8.617  1.00  0.00     0.167 HD
ATOM     72  C   UNL     1      -8.816 -10.539  10.258  1.00  0.00     0.074 A 
ATOM     73  C   UNL     1      -8.806  -9.279  10.971  1.00  0.00     0.031 C 
ATOM     74  C   UNL     1      -9.877 -11.380  10.209  1.00  0.00     0.037 A 
BRANCH  61  75
ATOM     75  C   UNL     1      -8.983 -16.430   6.754  1.00  0.00     0.058 A 
ATOM     76  C   UNL     1      -8.545 -17.698   7.168  1.00  0.00     0.135 A 
ATOM     77  C   UNL     1     -10.011 -16.373   5.799  1.00  0.00     0.135 A 
ATOM     78  F   UNL     1      -7.554 -17.812   8.067  1.00  0.00    -0.206 F 
ATOM     79  C   UNL     1      -9.082 -18.864   6.633  1.00  0.00     0.059 A 
ATOM     80  C   UNL     1     -10.586 -17.526   5.274  1.00  0.00     0.059 A 
ATOM     81  F   UNL     1     -10.468 -15.187   5.367  1.00  0.00    -0.206 F 
ATOM     82  C   UNL     1     -10.104 -18.767   5.686  1.00  0.00     0.060 A 
BRANCH  82  83
ATOM     83  S   UNL     1     -10.792 -20.290   5.005  1.00  0.00     0.124 S 
ATOM     84  O   UNL     1      -9.701 -20.745   4.149  1.00  0.00    -0.237 OA
ATOM     85  O   UNL     1     -11.032 -21.087   6.204  1.00  0.00    -0.237 OA
ATOM     86  O   UNL     1     -11.991 -19.838   4.305  1.00  0.00    -0.744 OA
ENDBRANCH  82  83
ENDBRANCH  61  75
BRANCH  62  87
ATOM     87  C   UNL     1      -4.860  -7.978  10.179  1.00  0.00     0.058 A 
ATOM     88  C   UNL     1      -4.609  -7.760  11.543  1.00  0.00     0.135 A 
ATOM     89  C   UNL     1      -4.526  -6.950   9.284  1.00  0.00     0.135 A 
ATOM     90  F   UNL     1      -4.918  -8.709  12.440  1.00  0.00    -0.206 F 
ATOM     91  C   UNL     1      -4.066  -6.565  12.004  1.00  0.00     0.059 A 
ATOM     92  C   UNL     1      -3.957  -5.756   9.717  1.00  0.00     0.059 A 
ATOM     93  F   UNL     1      -4.731  -7.111   7.967  1.00  0.00    -0.206 F 
ATOM     94  C   UNL     1      -3.740  -5.569  11.082  1.00  0.00     0.060 A 
BRANCH  94  95
ATOM     95  S   UNL     1      -2.997  -4.039  11.688  1.00  0.00     0.124 S 
ATOM     96  O   UNL     1      -4.131  -3.403  12.349  1.00  0.00    -0.237 OA
ATOM     97  O   UNL     1      -1.942  -4.537  12.565  1.00  0.00    -0.237 OA
ATOM     98  O   UNL     1      -2.531  -3.386  10.467  1.00  0.00    -0.744 OA
ENDBRANCH  94  95
ENDBRANCH  62  87
BRANCH  74  99
ATOM     99  C   UNL     1     -11.106 -11.017  10.996  1.00  0.00     0.058 A 
ATOM    100  C   UNL     1     -11.993 -10.018  10.571  1.00  0.00     0.135 A 
ATOM    101  C   UNL     1     -11.457 -11.770  12.130  1.00  0.00     0.135 A 
ATOM    102  F   UNL     1     -11.700  -9.265   9.499  1.00  0.00    -0.206 F 
ATOM    103  C   UNL     1     -13.190  -9.781  11.239  1.00  0.00     0.059 A 
ATOM    104  C   UNL     1     -12.660 -11.567  12.797  1.00  0.00     0.059 A 
ATOM    105  F   UNL     1     -10.645 -12.742  12.574  1.00  0.00    -0.206 F 
ATOM    106  C   UNL     1     -13.521 -10.570  12.343  1.00  0.00     0.060 A 
BRANCH 106 107
ATOM    107  S   UNL     1     -15.120 -10.312  13.142  1.00  0.00     0.124 S 
ATOM    108  O   UNL     1     -14.909  -9.037  13.819  1.00  0.00    -0.237 OA
ATOM    109  O   UNL     1     -16.034 -10.283  12.005  1.00  0.00    -0.237 OA
ATOM    110  O   UNL     1     -15.254 -11.472  14.018  1.00  0.00    -0.744 OA
ENDBRANCH 106 107
ENDBRANCH  74  99
ENDBRANCH  48  49
ENDBRANCH  40  43
ENDBRANCH  38  39
ENDBRANCH  37  38
ENDBRANCH  36  37
ENDBRANCH   1  36
TORSDOF 20
