REMARK SMILES O=C(NCCCCCCNC(=O)c1cccc2cccc(C(=O)NC3COC3)c12)c1ccc(-c2c3nc(c(-c4c(F)cc(S(=O)(=O)[O-])cc4F)c4ccc([nH]4)c(-c4c(F)cc(S(=O)(=O)[O-])cc4F)c4nc(c(-c5c(F)cc(S(=O)(=O)[O-])cc5F)c5ccc2[nH]5)C=C4)C=C3)cc1
REMARK SMILES IDX 6 1 5 2 4 3 3 4 1 5 2 6 30 8 31 9 95 10 32 11 94 12 33 13
REMARK SMILES IDX 34 14 35 15 88 16 36 17 93 18 87 19 89 20 37 21 92 22 86 23
REMARK SMILES IDX 85 24 38 26 72 27 51 28 71 29 52 30 55 31 70 32 90 33 53 34
REMARK SMILES IDX 54 35 69 37 91 38 56 39 39 40 40 41 49 42 41 43 42 44 48 45
REMARK SMILES IDX 50 46 43 47 44 48 45 49 46 50 47 51 73 52 74 53 83 54 75 55
REMARK SMILES IDX 76 56 82 57 84 58 77 59 78 60 79 61 80 62 81 63 57 64 58 65
REMARK SMILES IDX 67 66 59 67 60 68 66 69 68 70 61 71 62 72 63 73 64 74 65 75
REMARK SMILES IDX 7 76 8 77 9 78 10 79 11 80 12 82 13 83 14 84 29 85 15 86
REMARK SMILES IDX 17 87 21 88 16 89 18 90 20 91 19 92 22 93 23 94 24 95 25 97
REMARK SMILES IDX 26 98 28 99 27 100
REMARK H PARENT 3 7 89 25 55 36 10 81 24 96
REMARK Flexibility Score: inf
ROOT
ATOM      1  C   UNL     1       3.807  -3.430   1.488  1.00  0.00     0.002 C 
ENDROOT
BRANCH   1   2
ATOM      2  C   UNL     1       4.415  -2.030   1.629  1.00  0.00     0.021 C 
BRANCH   2   3
ATOM      3  C   UNL     1       4.256  -1.171   0.391  1.00  0.00     0.116 C 
BRANCH   3   4
ATOM      4  N   UNL     1       2.857  -1.013   0.036  1.00  0.00    -0.352 N 
ATOM      5  O   UNL     1       0.924   0.138  -0.151  1.00  0.00    -0.269 OA
ATOM      6  C   UNL     1       2.148   0.152  -0.094  1.00  0.00     0.251 C 
ATOM      7  H   UNL     1       2.357  -1.844  -0.130  1.00  0.00     0.163 HD
BRANCH   6   8
ATOM      8  C   UNL     1       2.902   1.416  -0.149  1.00  0.00     0.039 A 
ATOM      9  C   UNL     1       4.043   1.501  -0.953  1.00  0.00     0.014 A 
ATOM     10  C   UNL     1       2.501   2.493   0.640  1.00  0.00     0.014 A 
ATOM     11  C   UNL     1       4.862   2.613  -0.861  1.00  0.00     0.010 A 
ATOM     12  C   UNL     1       3.264   3.660   0.636  1.00  0.00     0.010 A 
ATOM     13  C   UNL     1       4.456   3.723  -0.103  1.00  0.00    -0.014 A 
BRANCH  13  14
ATOM     14  C   UNL     1       5.243   4.976  -0.193  1.00  0.00     0.031 A 
ATOM     15  C   UNL     1       5.891   5.581   1.016  1.00  0.00     0.074 A 
ATOM     16  C   UNL     1       5.360   5.559  -1.403  1.00  0.00     0.049 A 
ATOM     17  N   UNL     1       6.586   6.686   1.105  1.00  0.00    -0.248 NA
ATOM     18  C   UNL     1       5.734   4.867   2.293  1.00  0.00     0.031 C 
ATOM     19  C   UNL     1       4.759   5.056  -2.643  1.00  0.00     0.029 A 
ATOM     20  N   UNL     1       6.025   6.690  -1.797  1.00  0.00    -0.354 N 
ATOM     21  C   UNL     1       6.936   6.811   2.443  1.00  0.00     0.074 A 
ATOM     22  C   UNL     1       6.348   5.685   3.138  1.00  0.00     0.031 C 
ATOM     23  C   UNL     1       5.119   5.845  -3.662  1.00  0.00     0.029 A 
ATOM     24  C   UNL     1       5.898   6.958  -3.139  1.00  0.00     0.049 A 
ATOM     25  H   UNL     1       6.543   7.255  -1.180  1.00  0.00     0.167 HD
ATOM     26  C   UNL     1       7.684   7.777   3.029  1.00  0.00     0.037 A 
ATOM     27  C   UNL     1       6.327   8.005  -3.868  1.00  0.00     0.037 A 
ATOM     28  C   UNL     1       8.255   8.893   2.316  1.00  0.00     0.049 A 
ATOM     29  C   UNL     1       7.103   9.088  -3.179  1.00  0.00     0.074 A 
ATOM     30  C   UNL     1       9.054   9.910   2.811  1.00  0.00     0.029 A 
ATOM     31  N   UNL     1       8.078   9.151   0.963  1.00  0.00    -0.354 N 
ATOM     32  N   UNL     1       7.461   9.171  -1.919  1.00  0.00    -0.248 NA
ATOM     33  C   UNL     1       7.535  10.219  -4.006  1.00  0.00     0.031 C 
ATOM     34  C   UNL     1       9.296  10.819   1.777  1.00  0.00     0.029 A 
ATOM     35  C   UNL     1       8.722  10.329   0.615  1.00  0.00     0.049 A 
ATOM     36  H   UNL     1       7.570   8.581   0.342  1.00  0.00     0.167 HD
ATOM     37  C   UNL     1       8.185  10.351  -1.809  1.00  0.00     0.074 A 
ATOM     38  C   UNL     1       8.230  10.935  -3.135  1.00  0.00     0.031 C 
ATOM     39  C   UNL     1       8.761  10.899  -0.711  1.00  0.00     0.037 A 
BRANCH  26  40
ATOM     40  C   UNL     1       7.907   7.691   4.517  1.00  0.00     0.058 A 
ATOM     41  C   UNL     1       8.693   6.682   5.096  1.00  0.00     0.135 A 
ATOM     42  C   UNL     1       7.367   8.667   5.373  1.00  0.00     0.135 A 
ATOM     43  F   UNL     1       9.225   5.715   4.332  1.00  0.00    -0.206 F 
ATOM     44  C   UNL     1       8.913   6.627   6.470  1.00  0.00     0.059 A 
ATOM     45  C   UNL     1       7.603   8.652   6.745  1.00  0.00     0.059 A 
ATOM     46  F   UNL     1       6.608   9.656   4.877  1.00  0.00    -0.206 F 
ATOM     47  C   UNL     1       8.366   7.619   7.286  1.00  0.00     0.060 A 
BRANCH  47  48
ATOM     48  S   UNL     1       8.672   7.536   9.063  1.00  0.00     0.124 S 
ATOM     49  O   UNL     1       7.901   6.354   9.436  1.00  0.00    -0.237 OA
ATOM     50  O   UNL     1      10.123   7.390   9.120  1.00  0.00    -0.237 OA
ATOM     51  O   UNL     1       8.152   8.806   9.559  1.00  0.00    -0.744 OA
ENDBRANCH  47  48
ENDBRANCH  26  40
BRANCH  27  52
ATOM     52  C   UNL     1       6.011   8.077  -5.319  1.00  0.00     0.058 A 
ATOM     53  C   UNL     1       7.022   7.994  -6.285  1.00  0.00     0.135 A 
ATOM     54  C   UNL     1       4.686   8.210  -5.768  1.00  0.00     0.135 A 
ATOM     55  F   UNL     1       8.303   7.867  -5.907  1.00  0.00    -0.206 F 
ATOM     56  C   UNL     1       6.737   8.065  -7.644  1.00  0.00     0.059 A 
ATOM     57  C   UNL     1       4.372   8.244  -7.122  1.00  0.00     0.059 A 
ATOM     58  F   UNL     1       3.677   8.272  -4.885  1.00  0.00    -0.206 F 
ATOM     59  C   UNL     1       5.407   8.185  -8.052  1.00  0.00     0.060 A 
BRANCH  59  60
ATOM     60  S   UNL     1       5.049   8.235  -9.820  1.00  0.00     0.124 S 
ATOM     61  O   UNL     1       5.597   9.534 -10.194  1.00  0.00    -0.237 OA
ATOM     62  O   UNL     1       5.778   7.069 -10.310  1.00  0.00    -0.237 OA
ATOM     63  O   UNL     1       3.595   8.125  -9.872  1.00  0.00    -0.744 OA
ENDBRANCH  59  60
ENDBRANCH  27  52
BRANCH  39  64
ATOM     64  C   UNL     1       9.532  12.178  -0.903  1.00  0.00     0.058 A 
ATOM     65  C   UNL     1       8.898  13.391  -1.214  1.00  0.00     0.135 A 
ATOM     66  C   UNL     1      10.927  12.195  -0.732  1.00  0.00     0.135 A 
ATOM     67  F   UNL     1       7.568  13.432  -1.399  1.00  0.00    -0.206 F 
ATOM     68  C   UNL     1       9.621  14.568  -1.377  1.00  0.00     0.059 A 
ATOM     69  C   UNL     1      11.664  13.367  -0.851  1.00  0.00     0.059 A 
ATOM     70  F   UNL     1      11.585  11.065  -0.428  1.00  0.00    -0.206 F 
ATOM     71  C   UNL     1      11.004  14.547  -1.187  1.00  0.00     0.060 A 
BRANCH  71  72
ATOM     72  S   UNL     1      11.922  16.090  -1.365  1.00  0.00     0.124 S 
ATOM     73  O   UNL     1      11.831  16.324  -2.802  1.00  0.00    -0.237 OA
ATOM     74  O   UNL     1      11.157  17.004  -0.523  1.00  0.00    -0.237 OA
ATOM     75  O   UNL     1      13.253  15.754  -0.868  1.00  0.00    -0.744 OA
ENDBRANCH  71  72
ENDBRANCH  39  64
ENDBRANCH  13  14
ENDBRANCH   6   8
ENDBRANCH   3   4
ENDBRANCH   2   3
ENDBRANCH   1   2
BRANCH   1  76
ATOM     76  C   UNL     1       4.282  -4.239   0.269  1.00  0.00     0.002 C 
BRANCH  76  77
ATOM     77  C   UNL     1       5.788  -4.271   0.063  1.00  0.00     0.021 C 
BRANCH  77  78
ATOM     78  C   UNL     1       6.534  -4.549   1.346  1.00  0.00     0.116 C 
BRANCH  78  79
ATOM     79  N   UNL     1       6.706  -6.202   1.679  1.00  0.00    -0.352 N 
ATOM     80  C   UNL     1       8.153  -7.039   2.903  1.00  0.00     0.251 C 
ATOM     81  H   UNL     1       6.064  -6.817   1.256  1.00  0.00     0.163 HD
ATOM     82  O   UNL     1       8.028  -7.819   3.902  1.00  0.00    -0.269 OA
BRANCH  80  83
ATOM     83  C   UNL     1       9.678  -7.335   2.575  1.00  0.00     0.048 A 
ATOM     84  C   UNL     1      10.475  -6.450   3.344  1.00  0.00     0.014 A 
ATOM     85  C   UNL     1      10.123  -8.136   1.382  1.00  0.00     0.007 A 
ATOM     86  C   UNL     1      11.753  -6.188   2.931  1.00  0.00     0.001 A 
ATOM     87  C   UNL     1      11.517  -7.905   1.165  1.00  0.00    -0.017 A 
ATOM     88  C   UNL     1       9.445  -8.990   0.321  1.00  0.00     0.048 A 
ATOM     89  C   UNL     1      12.261  -6.923   1.869  1.00  0.00     0.009 A 
ATOM     90  C   UNL     1      12.231  -8.582   0.176  1.00  0.00     0.009 A 
ATOM     91  C   UNL     1      10.263  -9.703  -0.585  1.00  0.00     0.014 A 
ATOM     92  C   UNL     1      11.633  -9.516  -0.647  1.00  0.00     0.001 A 
BRANCH  88  93
ATOM     93  C   UNL     1       7.924  -9.184  -0.137  1.00  0.00     0.252 C 
ATOM     94  O   UNL     1       7.633  -9.981  -1.032  1.00  0.00    -0.269 OA
ATOM     95  N   UNL     1       6.860  -8.477   0.426  1.00  0.00    -0.345 N 
ATOM     96  H   UNL     1       5.987  -8.358  -0.014  1.00  0.00     0.164 HD
BRANCH  95  97
ATOM     97  C   UNL     1       7.181  -7.943   1.715  1.00  0.00     0.134 C 
ATOM     98  C   UNL     1       8.364  -6.203   1.237  1.00  0.00     0.187 C 
ATOM     99  C   UNL     1       6.306  -6.778   3.280  1.00  0.00     0.187 C 
ATOM    100  O   UNL     1       7.670  -5.389   2.922  1.00  0.00    -0.377 OA
ENDBRANCH  95  97
ENDBRANCH  88  93
ENDBRANCH  80  83
ENDBRANCH  78  79
ENDBRANCH  77  78
ENDBRANCH  76  77
ENDBRANCH   1  76
TORSDOF 18
