REMARK SMILES Cc1nn(C)c(=O)c(C(=O)N2CC[C@@H](C(=O)NCCCCCCNC(=O)c3ccc(-c4c5nc(c(-c6c(F)cc(S(=O)(=O)[O-])cc6F)c6ccc([nH]6)c(-c6c(F)cc(S(=O)(=O)[O-])cc6F)c6nc(c(-c7c(F)cc(S(=O)(=O)[O-])cc7F)c7ccc4[nH]7)C=C6)C=C5)cc3)[C@@H]2C)c1C
REMARK SMILES IDX 21 1 20 2 19 3 18 4 17 5 15 6 16 7 14 9 11 10 12 11 93 12
REMARK SMILES IDX 13 13 94 14 9 15 10 16 8 17 1 18 2 19 3 20 95 21 4 22 96 23
REMARK SMILES IDX 5 24 6 25 7 26 22 27 23 28 24 29 25 30 26 32 27 33 28 34
REMARK SMILES IDX 92 35 29 36 91 37 30 38 31 39 32 40 85 41 33 42 90 43 84 44
REMARK SMILES IDX 86 45 34 46 89 47 83 48 82 49 35 51 69 52 48 53 68 54 49 55
REMARK SMILES IDX 52 56 67 57 87 58 50 59 51 60 66 62 88 63 53 64 36 65 37 66
REMARK SMILES IDX 46 67 38 68 39 69 45 70 47 71 40 72 41 73 42 74 43 75 44 76
REMARK SMILES IDX 70 77 71 78 80 79 72 80 73 81 79 82 81 83 74 84 75 85 76 86
REMARK SMILES IDX 77 87 78 88 54 89 55 90 64 91 56 92 57 93 63 94 65 95 58 96
REMARK SMILES IDX 59 97 60 98 61 99 62 100
REMARK H PARENT 17 8 24 31 86 50 52 61
REMARK Flexibility Score: inf
ROOT
ATOM      1  C   UNL     1       4.504   1.413  -1.592  1.00  0.00     0.002 C 
ENDROOT
BRANCH   1   2
ATOM      2  C   UNL     1       3.116   1.972  -1.923  1.00  0.00     0.002 C 
BRANCH   2   3
ATOM      3  C   UNL     1       2.247   2.396  -0.736  1.00  0.00     0.021 C 
BRANCH   3   4
ATOM      4  C   UNL     1       2.707   3.628   0.044  1.00  0.00     0.116 C 
BRANCH   4   5
ATOM      5  N   UNL     1       2.177   4.857  -0.523  1.00  0.00    -0.356 N 
ATOM      6  C   UNL     1       1.497   5.900   0.024  1.00  0.00     0.225 C 
ATOM      7  O   UNL     1       1.166   6.805  -0.751  1.00  0.00    -0.275 OA
ATOM      8  H   UNL     1       2.342   4.953  -1.489  1.00  0.00     0.163 HD
BRANCH   6   9
ATOM      9  C   UNL     1       1.063   5.981   1.486  1.00  0.00     0.102 C 
ATOM     10  N   UNL     1       0.393   4.079   2.773  1.00  0.00    -0.335 N 
ATOM     11  C   UNL     1       1.451   4.734   3.526  1.00  0.00     0.121 C 
ATOM     12  C   UNL     1      -0.115   5.041   1.786  1.00  0.00     0.094 C 
ATOM     13  C   UNL     1       2.121   5.696   2.551  1.00  0.00     0.037 C 
ATOM     14  C   UNL     1      -1.341   5.825   2.269  1.00  0.00     0.032 C 
BRANCH  10  15
ATOM     15  C   UNL     1      -0.479   3.253   3.490  1.00  0.00     0.260 C 
ATOM     16  O   UNL     1      -1.235   3.693   4.351  1.00  0.00    -0.269 OA
BRANCH  15  17
ATOM     17  C   UNL     1      -0.403   1.788   3.183  1.00  0.00     0.111 A 
ATOM     18  C   UNL     1      -0.143  -0.694   0.385  1.00  0.00     0.069 C 
ATOM     19  C   UNL     1      -0.448  -0.154   1.764  1.00  0.00     0.062 A 
ATOM     20  N   UNL     1      -0.447  -1.010   2.728  1.00  0.00    -0.175 NA
ATOM     21  C   UNL     1      -0.629   1.311   1.944  1.00  0.00    -0.010 A 
ATOM     22  N   UNL     1      -0.519  -0.521   4.002  1.00  0.00    -0.232 N 
ATOM     23  C   UNL     1      -1.157   2.087   0.787  1.00  0.00     0.047 C 
ATOM     24  C   UNL     1      -0.663  -1.530   5.038  1.00  0.00     0.178 C 
ATOM     25  C   UNL     1      -0.312   0.819   4.324  1.00  0.00     0.279 A 
ATOM     26  O   UNL     1      -0.109   1.213   5.470  1.00  0.00    -0.267 OA
ENDBRANCH  15  17
ENDBRANCH  10  15
ENDBRANCH   6   9
ENDBRANCH   4   5
ENDBRANCH   3   4
ENDBRANCH   2   3
ENDBRANCH   1   2
BRANCH   1  27
ATOM     27  C   UNL     1       4.568   0.298  -0.543  1.00  0.00     0.021 C 
BRANCH  27  28
ATOM     28  C   UNL     1       3.682  -0.919  -0.798  1.00  0.00     0.116 C 
BRANCH  28  29
ATOM     29  N   UNL     1       4.091  -1.717  -1.937  1.00  0.00    -0.352 N 
ATOM     30  C   UNL     1       4.467  -3.039  -2.008  1.00  0.00     0.251 C 
ATOM     31  H   UNL     1       4.101  -1.237  -2.796  1.00  0.00     0.163 HD
ATOM     32  O   UNL     1       4.824  -3.505  -3.082  1.00  0.00    -0.269 OA
BRANCH  30  33
ATOM     33  C   UNL     1       4.494  -3.888  -0.792  1.00  0.00     0.039 A 
ATOM     34  C   UNL     1       5.643  -4.647  -0.551  1.00  0.00     0.014 A 
ATOM     35  C   UNL     1       3.414  -3.962   0.094  1.00  0.00     0.014 A 
ATOM     36  C   UNL     1       5.736  -5.422   0.607  1.00  0.00     0.010 A 
ATOM     37  C   UNL     1       3.533  -4.689   1.282  1.00  0.00     0.010 A 
ATOM     38  C   UNL     1       4.697  -5.424   1.552  1.00  0.00    -0.014 A 
BRANCH  38  39
ATOM     39  C   UNL     1       4.846  -6.194   2.817  1.00  0.00     0.031 A 
ATOM     40  C   UNL     1       4.012  -7.420   3.070  1.00  0.00     0.074 A 
ATOM     41  C   UNL     1       5.754  -5.798   3.732  1.00  0.00     0.049 A 
ATOM     42  N   UNL     1       4.071  -8.261   4.070  1.00  0.00    -0.248 NA
ATOM     43  C   UNL     1       2.973  -7.737   2.079  1.00  0.00     0.031 C 
ATOM     44  C   UNL     1       6.599  -4.607   3.619  1.00  0.00     0.029 A 
ATOM     45  N   UNL     1       6.135  -6.361   4.925  1.00  0.00    -0.354 N 
ATOM     46  C   UNL     1       3.094  -9.217   3.821  1.00  0.00     0.074 A 
ATOM     47  C   UNL     1       2.411  -8.814   2.610  1.00  0.00     0.031 C 
ATOM     48  C   UNL     1       7.431  -4.556   4.671  1.00  0.00     0.029 A 
ATOM     49  C   UNL     1       7.165  -5.694   5.547  1.00  0.00     0.049 A 
ATOM     50  H   UNL     1       5.710  -7.166   5.300  1.00  0.00     0.167 HD
ATOM     51  C   UNL     1       2.813 -10.345   4.516  1.00  0.00     0.037 A 
ATOM     52  C   UNL     1       7.833  -5.976   6.684  1.00  0.00     0.037 A 
ATOM     53  C   UNL     1       3.497 -10.747   5.716  1.00  0.00     0.049 A 
ATOM     54  C   UNL     1       7.476  -7.212   7.463  1.00  0.00     0.074 A 
ATOM     55  C   UNL     1       3.302 -11.887   6.475  1.00  0.00     0.029 A 
ATOM     56  N   UNL     1       4.505 -10.022   6.334  1.00  0.00    -0.354 N 
ATOM     57  N   UNL     1       6.589  -8.135   7.178  1.00  0.00    -0.248 NA
ATOM     58  C   UNL     1       8.208  -7.448   8.716  1.00  0.00     0.031 C 
ATOM     59  C   UNL     1       4.167 -11.834   7.573  1.00  0.00     0.029 A 
ATOM     60  C   UNL     1       4.928 -10.680   7.477  1.00  0.00     0.049 A 
ATOM     61  H   UNL     1       4.867  -9.166   6.009  1.00  0.00     0.167 HD
ATOM     62  C   UNL     1       6.670  -9.070   8.203  1.00  0.00     0.074 A 
ATOM     63  C   UNL     1       7.697  -8.607   9.113  1.00  0.00     0.031 C 
ATOM     64  C   UNL     1       5.957 -10.210   8.371  1.00  0.00     0.037 A 
BRANCH  51  65
ATOM     65  C   UNL     1       1.732 -11.239   3.979  1.00  0.00     0.058 A 
ATOM     66  C   UNL     1       1.934 -12.008   2.821  1.00  0.00     0.135 A 
ATOM     67  C   UNL     1       0.500 -11.361   4.640  1.00  0.00     0.135 A 
ATOM     68  F   UNL     1       3.090 -11.919   2.144  1.00  0.00    -0.206 F 
ATOM     69  C   UNL     1       0.943 -12.846   2.322  1.00  0.00     0.059 A 
ATOM     70  C   UNL     1      -0.498 -12.212   4.172  1.00  0.00     0.059 A 
ATOM     71  F   UNL     1       0.256 -10.649   5.752  1.00  0.00    -0.206 F 
ATOM     72  C   UNL     1      -0.272 -12.939   3.004  1.00  0.00     0.060 A 
BRANCH  72  73
ATOM     73  S   UNL     1      -1.549 -14.027   2.337  1.00  0.00     0.124 S 
ATOM     74  O   UNL     1      -1.979 -13.281   1.158  1.00  0.00    -0.237 OA
ATOM     75  O   UNL     1      -0.806 -15.255   2.073  1.00  0.00    -0.237 OA
ATOM     76  O   UNL     1      -2.526 -14.108   3.418  1.00  0.00    -0.744 OA
ENDBRANCH  72  73
ENDBRANCH  51  65
BRANCH  52  77
ATOM     77  C   UNL     1       8.947  -5.093   7.122  1.00  0.00     0.058 A 
ATOM     78  C   UNL     1      10.280  -5.516   7.019  1.00  0.00     0.135 A 
ATOM     79  C   UNL     1       8.707  -3.802   7.617  1.00  0.00     0.135 A 
ATOM     80  F   UNL     1      10.560  -6.745   6.559  1.00  0.00    -0.206 F 
ATOM     81  C   UNL     1      11.338  -4.692   7.391  1.00  0.00     0.059 A 
ATOM     82  C   UNL     1       9.748  -2.952   7.978  1.00  0.00     0.059 A 
ATOM     83  F   UNL     1       7.449  -3.346   7.723  1.00  0.00    -0.206 F 
ATOM     84  C   UNL     1      11.061  -3.408   7.863  1.00  0.00     0.060 A 
BRANCH  84  85
ATOM     85  S   UNL     1      12.445  -2.323   8.277  1.00  0.00     0.124 S 
ATOM     86  O   UNL     1      12.942  -2.933   9.504  1.00  0.00    -0.237 OA
ATOM     87  O   UNL     1      13.302  -2.460   7.102  1.00  0.00    -0.237 OA
ATOM     88  O   UNL     1      11.813  -1.016   8.431  1.00  0.00    -0.744 OA
ENDBRANCH  84  85
ENDBRANCH  52  77
BRANCH  64  89
ATOM     89  C   UNL     1       6.254 -11.057   9.576  1.00  0.00     0.058 A 
ATOM     90  C   UNL     1       5.777 -10.705  10.848  1.00  0.00     0.135 A 
ATOM     91  C   UNL     1       6.910 -12.290   9.437  1.00  0.00     0.135 A 
ATOM     92  F   UNL     1       5.152  -9.531  11.034  1.00  0.00    -0.206 F 
ATOM     93  C   UNL     1       5.931 -11.553  11.939  1.00  0.00     0.059 A 
ATOM     94  C   UNL     1       7.057 -13.163  10.510  1.00  0.00     0.059 A 
ATOM     95  F   UNL     1       7.379 -12.675   8.239  1.00  0.00    -0.206 F 
ATOM     96  C   UNL     1       6.560 -12.787  11.758  1.00  0.00     0.060 A 
BRANCH  96  97
ATOM     97  S   UNL     1       6.663 -13.916  13.163  1.00  0.00     0.124 S 
ATOM     98  O   UNL     1       7.663 -13.259  13.997  1.00  0.00    -0.237 OA
ATOM     99  O   UNL     1       5.298 -13.899  13.677  1.00  0.00    -0.237 OA
ATOM    100  O   UNL     1       7.082 -15.177  12.557  1.00  0.00    -0.744 OA
ENDBRANCH  96  97
ENDBRANCH  64  89
ENDBRANCH  38  39
ENDBRANCH  30  33
ENDBRANCH  28  29
ENDBRANCH  27  28
ENDBRANCH   1  27
TORSDOF 18
