REMARK SMILES CN(C)S(=O)(=O)c1ccc(N(CC(=O)NCCCCCCNC(=O)c2ccc(-c3c4nc(c(-c5c(F)cc(S(=O)(=O)[O-])cc5F)c5ccc([nH]5)c(-c5c(F)cc(S(=O)(=O)[O-])cc5F)c5nc(c(-c6c(F)cc(S(=O)(=O)[O-])cc6F)c6ccc3[nH]6)C=C5)C=C4)cc2)C(C)(C)C)cc1
REMARK SMILES IDX 18 1 17 2 16 3 15 4 13 5 14 6 12 8 11 9 10 10 7 11 8 12
REMARK SMILES IDX 96 13 9 14 95 15 4 16 5 17 6 18 2 19 1 20 3 21 91 22 92 23
REMARK SMILES IDX 93 24 94 25 19 26 20 27 21 28 22 29 23 30 24 32 25 33 26 34
REMARK SMILES IDX 90 35 27 36 89 37 28 38 29 39 30 40 83 41 31 42 88 43 82 44
REMARK SMILES IDX 84 45 32 46 87 47 81 48 80 49 33 51 67 52 46 53 66 54 47 55
REMARK SMILES IDX 50 56 65 57 85 58 48 59 49 60 64 62 86 63 51 64 34 65 35 66
REMARK SMILES IDX 44 67 36 68 37 69 43 70 45 71 38 72 39 73 40 74 41 75 42 76
REMARK SMILES IDX 68 77 69 78 78 79 70 80 71 81 77 82 79 83 72 84 73 85 74 86
REMARK SMILES IDX 75 87 76 88 52 89 53 90 62 91 54 92 55 93 61 94 63 95 56 96
REMARK SMILES IDX 57 97 58 98 59 99 60 100
REMARK H PARENT 15 7 22 31 84 50 50 61
REMARK Flexibility Score: inf
ROOT
ATOM      1  C   UNL     1       3.009  -3.519  -9.280  1.00  0.00     0.002 C 
ENDROOT
BRANCH   1   2
ATOM      2  C   UNL     1       2.108  -3.474  -8.042  1.00  0.00     0.021 C 
BRANCH   2   3
ATOM      3  C   UNL     1       0.653  -3.160  -8.366  1.00  0.00     0.116 C 
BRANCH   3   4
ATOM      4  N   UNL     1       0.012  -4.244  -9.077  1.00  0.00    -0.355 N 
ATOM      5  C   UNL     1      -0.958  -5.099  -8.648  1.00  0.00     0.239 C 
ATOM      6  O   UNL     1      -1.426  -5.887  -9.479  1.00  0.00    -0.273 OA
ATOM      7  H   UNL     1       0.320  -4.384 -10.001  1.00  0.00     0.163 HD
BRANCH   5   8
ATOM      8  C   UNL     1      -1.532  -5.021  -7.224  1.00  0.00     0.217 C 
BRANCH   8   9
ATOM      9  N   UNL     1      -0.558  -5.257  -6.110  1.00  0.00    -0.357 N 
BRANCH   9  10
ATOM     10  C   UNL     1      -0.305  -4.211  -5.193  1.00  0.00     0.038 A 
ATOM     11  C   UNL     1       0.416  -1.968  -3.545  1.00  0.00     0.082 A 
ATOM     12  C   UNL     1      -0.630  -1.861  -4.445  1.00  0.00     0.024 A 
ATOM     13  C   UNL     1       1.070  -3.180  -3.402  1.00  0.00     0.024 A 
ATOM     14  C   UNL     1      -0.996  -2.976  -5.219  1.00  0.00     0.027 A 
ATOM     15  C   UNL     1       0.701  -4.271  -4.208  1.00  0.00     0.027 A 
BRANCH  11  16
ATOM     16  S   UNL     1       0.971  -0.549  -2.639  1.00  0.00     0.242 S 
ATOM     17  O   UNL     1       0.268   0.609  -3.142  1.00  0.00    -0.207 OA
ATOM     18  O   UNL     1       2.420  -0.602  -2.618  1.00  0.00    -0.207 OA
BRANCH  16  19
ATOM     19  N   UNL     1       0.395  -0.860  -1.056  1.00  0.00    -0.204 NA
ATOM     20  C   UNL     1       0.982   0.064  -0.054  1.00  0.00     0.124 C 
ATOM     21  C   UNL     1      -1.078  -0.920  -0.934  1.00  0.00     0.124 C 
ENDBRANCH  16  19
ENDBRANCH  11  16
ENDBRANCH   9  10
BRANCH   9  22
ATOM     22  C   UNL     1       0.003  -6.662  -5.955  1.00  0.00     0.032 C 
ATOM     23  C   UNL     1       1.534  -6.701  -6.165  1.00  0.00     0.034 C 
ATOM     24  C   UNL     1      -0.428  -7.267  -4.600  1.00  0.00     0.034 C 
ATOM     25  C   UNL     1      -0.535  -7.678  -7.004  1.00  0.00     0.034 C 
ENDBRANCH   9  22
ENDBRANCH   8   9
ENDBRANCH   5   8
ENDBRANCH   3   4
ENDBRANCH   2   3
ENDBRANCH   1   2
BRANCH   1  26
ATOM     26  C   UNL     1       3.058  -2.205 -10.067  1.00  0.00     0.002 C 
BRANCH  26  27
ATOM     27  C   UNL     1       3.450  -0.982  -9.235  1.00  0.00     0.021 C 
BRANCH  27  28
ATOM     28  C   UNL     1       4.800  -1.109  -8.539  1.00  0.00     0.116 C 
BRANCH  28  29
ATOM     29  N   UNL     1       5.878  -1.269  -9.501  1.00  0.00    -0.352 N 
ATOM     30  C   UNL     1       7.007  -0.512  -9.669  1.00  0.00     0.251 C 
ATOM     31  H   UNL     1       5.782  -2.028 -10.120  1.00  0.00     0.163 HD
ATOM     32  O   UNL     1       7.672  -0.631 -10.694  1.00  0.00    -0.269 OA
BRANCH  30  33
ATOM     33  C   UNL     1       7.420   0.443  -8.618  1.00  0.00     0.039 A 
ATOM     34  C   UNL     1       7.949   1.677  -9.001  1.00  0.00     0.014 A 
ATOM     35  C   UNL     1       7.329   0.108  -7.263  1.00  0.00     0.014 A 
ATOM     36  C   UNL     1       8.373   2.578  -8.023  1.00  0.00     0.010 A 
ATOM     37  C   UNL     1       7.667   1.043  -6.290  1.00  0.00     0.010 A 
ATOM     38  C   UNL     1       8.226   2.273  -6.659  1.00  0.00    -0.014 A 
BRANCH  38  39
ATOM     39  C   UNL     1       8.709   3.216  -5.618  1.00  0.00     0.031 A 
ATOM     40  C   UNL     1       9.836   2.815  -4.701  1.00  0.00     0.074 A 
ATOM     41  C   UNL     1       8.133   4.428  -5.497  1.00  0.00     0.049 A 
ATOM     42  N   UNL     1      10.422   3.509  -3.759  1.00  0.00    -0.248 NA
ATOM     43  C   UNL     1      10.360   1.447  -4.845  1.00  0.00     0.031 C 
ATOM     44  C   UNL     1       7.003   4.910  -6.294  1.00  0.00     0.029 A 
ATOM     45  N   UNL     1       8.425   5.479  -4.665  1.00  0.00    -0.354 N 
ATOM     46  C   UNL     1      11.376   2.665  -3.202  1.00  0.00     0.074 A 
ATOM     47  C   UNL     1      11.241   1.385  -3.859  1.00  0.00     0.031 C 
ATOM     48  C   UNL     1       6.727   6.176  -5.944  1.00  0.00     0.029 A 
ATOM     49  C   UNL     1       7.635   6.584  -4.876  1.00  0.00     0.049 A 
ATOM     50  H   UNL     1       9.133   5.445  -3.982  1.00  0.00     0.167 HD
ATOM     51  C   UNL     1      12.303   2.939  -2.253  1.00  0.00     0.037 A 
ATOM     52  C   UNL     1       7.649   7.793  -4.282  1.00  0.00     0.037 A 
ATOM     53  C   UNL     1      12.436   4.221  -1.610  1.00  0.00     0.049 A 
ATOM     54  C   UNL     1       8.683   8.072  -3.224  1.00  0.00     0.074 A 
ATOM     55  C   UNL     1      13.359   4.617  -0.658  1.00  0.00     0.029 A 
ATOM     56  N   UNL     1      11.618   5.316  -1.852  1.00  0.00    -0.354 N 
ATOM     57  N   UNL     1       9.616   7.281  -2.749  1.00  0.00    -0.248 NA
ATOM     58  C   UNL     1       8.677   9.417  -2.634  1.00  0.00     0.031 C 
ATOM     59  C   UNL     1      13.068   5.934  -0.288  1.00  0.00     0.029 A 
ATOM     60  C   UNL     1      12.006   6.383  -1.058  1.00  0.00     0.049 A 
ATOM     61  H   UNL     1      10.872   5.333  -2.494  1.00  0.00     0.167 HD
ATOM     62  C   UNL     1      10.335   8.046  -1.836  1.00  0.00     0.074 A 
ATOM     63  C   UNL     1       9.732   9.363  -1.834  1.00  0.00     0.031 C 
ATOM     64  C   UNL     1      11.402   7.693  -1.074  1.00  0.00     0.037 A 
BRANCH  51  65
ATOM     65  C   UNL     1      13.245   1.831  -1.860  1.00  0.00     0.058 A 
ATOM     66  C   UNL     1      14.211   1.331  -2.750  1.00  0.00     0.135 A 
ATOM     67  C   UNL     1      13.195   1.270  -0.574  1.00  0.00     0.135 A 
ATOM     68  F   UNL     1      14.297   1.817  -3.999  1.00  0.00    -0.206 F 
ATOM     69  C   UNL     1      15.065   0.291  -2.393  1.00  0.00     0.059 A 
ATOM     70  C   UNL     1      14.062   0.252  -0.183  1.00  0.00     0.059 A 
ATOM     71  F   UNL     1      12.294   1.706   0.321  1.00  0.00    -0.206 F 
ATOM     72  C   UNL     1      14.981  -0.243  -1.107  1.00  0.00     0.060 A 
BRANCH  72  73
ATOM     73  S   UNL     1      16.093  -1.594  -0.662  1.00  0.00     0.124 S 
ATOM     74  O   UNL     1      15.537  -2.698  -1.438  1.00  0.00    -0.237 OA
ATOM     75  O   UNL     1      17.388  -1.093  -1.112  1.00  0.00    -0.237 OA
ATOM     76  O   UNL     1      15.935  -1.703   0.785  1.00  0.00    -0.744 OA
ENDBRANCH  72  73
ENDBRANCH  51  65
BRANCH  52  77
ATOM     77  C   UNL     1       6.685   8.844  -4.708  1.00  0.00     0.058 A 
ATOM     78  C   UNL     1       7.120   9.989  -5.393  1.00  0.00     0.135 A 
ATOM     79  C   UNL     1       5.312   8.723  -4.446  1.00  0.00     0.135 A 
ATOM     80  F   UNL     1       8.424  10.154  -5.664  1.00  0.00    -0.206 F 
ATOM     81  C   UNL     1       6.233  10.988  -5.782  1.00  0.00     0.059 A 
ATOM     82  C   UNL     1       4.401   9.694  -4.852  1.00  0.00     0.059 A 
ATOM     83  F   UNL     1       4.841   7.639  -3.810  1.00  0.00    -0.206 F 
ATOM     84  C   UNL     1       4.874  10.829  -5.508  1.00  0.00     0.060 A 
BRANCH  84  85
ATOM     85  S   UNL     1       3.727  12.114  -6.052  1.00  0.00     0.124 S 
ATOM     86  O   UNL     1       4.049  13.203  -5.137  1.00  0.00    -0.237 OA
ATOM     87  O   UNL     1       4.124  12.310  -7.443  1.00  0.00    -0.237 OA
ATOM     88  O   UNL     1       2.417  11.497  -5.863  1.00  0.00    -0.744 OA
ENDBRANCH  84  85
ENDBRANCH  52  77
BRANCH  64  89
ATOM     89  C   UNL     1      12.026   8.766  -0.222  1.00  0.00     0.058 A 
ATOM     90  C   UNL     1      11.374   9.308   0.896  1.00  0.00     0.135 A 
ATOM     91  C   UNL     1      13.311   9.248  -0.527  1.00  0.00     0.135 A 
ATOM     92  F   UNL     1      10.145   8.886   1.234  1.00  0.00    -0.206 F 
ATOM     93  C   UNL     1      11.952  10.324   1.653  1.00  0.00     0.059 A 
ATOM     94  C   UNL     1      13.922  10.236   0.237  1.00  0.00     0.059 A 
ATOM     95  F   UNL     1      13.988   8.754  -1.575  1.00  0.00    -0.206 F 
ATOM     96  C   UNL     1      13.225  10.784   1.312  1.00  0.00     0.060 A 
BRANCH  96  97
ATOM     97  S   UNL     1      13.961  12.105   2.296  1.00  0.00     0.124 S 
ATOM     98  O   UNL     1      13.186  13.263   1.861  1.00  0.00    -0.237 OA
ATOM     99  O   UNL     1      13.713  11.653   3.662  1.00  0.00    -0.237 OA
ATOM    100  O   UNL     1      15.362  12.097   1.885  1.00  0.00    -0.744 OA
ENDBRANCH  96  97
ENDBRANCH  64  89
ENDBRANCH  38  39
ENDBRANCH  30  33
ENDBRANCH  28  29
ENDBRANCH  27  28
ENDBRANCH  26  27
ENDBRANCH   1  26
TORSDOF 21
