REMARK SMILES CC(C)C[C@H](NC(=O)[C@H](C)NC(=O)[C@@H](NC(=O)CNC(=O)OCc1ccccc1)C(C)C)C(=O)NCCCCCCNC(=O)c1ccc(-c2c3nc(c(-c4c(F)cc(S(=O)(=O)[O-])cc4F)c4ccc([nH]4)c(-c4c(F)cc(S(=O)(=O)[O-])cc4F)c4nc(c(-c5c(F)cc(S(=O)(=O)[O-])cc5F)c5ccc2[nH]5)C=C4)C=C3)cc1
REMARK SMILES IDX 33 1 34 2 35 3 5 5 4 6 2 7 1 8 3 9 6 10 7 11 8 13 9 14 10 15
REMARK SMILES IDX 11 16 12 17 13 19 14 20 15 21 16 22 17 24 18 25 19 26 20 27
REMARK SMILES IDX 21 29 22 30 23 31 24 32 25 33 29 34 26 35 28 36 27 37 30 38
REMARK SMILES IDX 31 39 32 40 36 41 37 42 38 43 39 44 40 45 41 46 42 47 43 48
REMARK SMILES IDX 44 50 45 51 46 52 110 53 47 54 109 55 48 56 49 57 50 58
REMARK SMILES IDX 103 59 51 60 108 61 102 62 104 63 52 64 107 65 101 66 100 67
REMARK SMILES IDX 53 69 87 70 66 71 86 72 67 73 70 74 85 75 105 76 68 77 69 78
REMARK SMILES IDX 84 80 106 81 71 82 54 83 55 84 64 85 56 86 57 87 63 88 65 89
REMARK SMILES IDX 58 90 59 91 60 92 61 93 62 94 88 95 89 96 98 97 90 98 91 99
REMARK SMILES IDX 97 100 99 101 92 102 93 103 94 104 95 105 96 106 72 107
REMARK SMILES IDX 73 108 82 109 74 110 75 111 81 112 83 113 76 114 77 115
REMARK SMILES IDX 78 116 79 117 80 118
REMARK H PARENT 35 4 6 12 11 18 15 23 19 28 42 49 104 68 70 79
REMARK Flexibility Score: inf
ROOT
ATOM      1  C   UNL     1      -0.552  -5.625  -3.500  1.00  0.00     0.242 C 
ATOM      2  O   UNL     1      -1.212  -5.124  -4.452  1.00  0.00    -0.273 OA
ATOM      3  N   UNL     1      -1.256  -6.691  -2.964  1.00  0.00    -0.354 N 
ATOM      4  H   UNL     1      -2.042  -6.892  -3.522  1.00  0.00     0.163 HD
ENDROOT
BRANCH   1   5
ATOM      5  C   UNL     1       0.998  -4.777  -3.263  1.00  0.00     0.171 C 
BRANCH   5   6
ATOM      6  C   UNL     1       2.612  -4.785  -2.622  1.00  0.00     0.038 C 
BRANCH   6   7
ATOM      7  C   UNL     1       3.825  -5.923  -2.187  1.00  0.00    -0.015 C 
ATOM      8  C   UNL     1       4.584  -6.602  -3.344  1.00  0.00     0.007 C 
ATOM      9  C   UNL     1       4.950  -5.535  -1.174  1.00  0.00     0.007 C 
ENDBRANCH   6   7
ENDBRANCH   5   6
BRANCH   5  10
ATOM     10  N   UNL     1       0.428  -3.379  -3.323  1.00  0.00    -0.343 N 
ATOM     11  C   UNL     1      -0.100  -2.573  -2.348  1.00  0.00     0.242 C 
ATOM     12  H   UNL     1       0.439  -2.975  -4.221  1.00  0.00     0.164 HD
ATOM     13  O   UNL     1      -1.111  -1.922  -2.636  1.00  0.00    -0.273 OA
BRANCH  11  14
ATOM     14  C   UNL     1       0.731  -2.211  -1.114  1.00  0.00     0.168 C 
ATOM     15  C   UNL     1      -0.112  -1.732   0.060  1.00  0.00     0.041 C 
BRANCH  14  16
ATOM     16  N   UNL     1       1.552  -1.106  -1.586  1.00  0.00    -0.343 N 
ATOM     17  C   UNL     1       2.884  -0.929  -1.641  1.00  0.00     0.243 C 
ATOM     18  H   UNL     1       1.034  -0.343  -1.929  1.00  0.00     0.164 HD
ATOM     19  O   UNL     1       3.276   0.010  -2.347  1.00  0.00    -0.273 OA
BRANCH  17  20
ATOM     20  C   UNL     1       3.915  -1.860  -0.952  1.00  0.00     0.174 C 
BRANCH  20  21
ATOM     21  N   UNL     1       3.532  -2.538   0.370  1.00  0.00    -0.343 N 
ATOM     22  C   UNL     1       3.062  -3.548   1.137  1.00  0.00     0.240 C 
ATOM     23  H   UNL     1       3.753  -1.848   1.037  1.00  0.00     0.164 HD
ATOM     24  O   UNL     1       2.927  -3.152   2.314  1.00  0.00    -0.273 OA
BRANCH  22  25
ATOM     25  C   UNL     1       2.634  -5.059   0.902  1.00  0.00     0.219 C 
BRANCH  25  26
ATOM     26  N   UNL     1       1.341  -5.316   0.312  1.00  0.00    -0.312 N 
ATOM     27  C   UNL     1       0.820  -5.911  -0.792  1.00  0.00     0.407 C 
ATOM     28  H   UNL     1       0.624  -4.950   0.878  1.00  0.00     0.167 HD
ATOM     29  O   UNL     1      -0.200  -5.296  -1.089  1.00  0.00    -0.225 OA
BRANCH  27  30
ATOM     30  O   UNL     1       1.431  -6.946  -1.489  1.00  0.00    -0.445 OA
BRANCH  30  31
ATOM     31  C   UNL     1       1.644  -7.618  -2.996  1.00  0.00     0.270 C 
BRANCH  31  32
ATOM     32  C   UNL     1       0.901  -8.128  -4.286  1.00  0.00    -0.011 A 
ATOM     33  C   UNL     1       0.684  -7.315  -5.436  1.00  0.00     0.007 A 
ATOM     34  C   UNL     1       0.701  -9.496  -4.501  1.00  0.00     0.007 A 
ATOM     35  C   UNL     1       0.123  -7.782  -6.634  1.00  0.00     0.000 A 
ATOM     36  C   UNL     1       0.219  -9.989  -5.736  1.00  0.00     0.000 A 
ATOM     37  C   UNL     1      -0.109  -9.133  -6.785  1.00  0.00     0.000 A 
ENDBRANCH  31  32
ENDBRANCH  30  31
ENDBRANCH  27  30
ENDBRANCH  25  26
ENDBRANCH  22  25
ENDBRANCH  20  21
BRANCH  20  38
ATOM     38  C   UNL     1       4.895  -2.542  -1.951  1.00  0.00     0.015 C 
ATOM     39  C   UNL     1       4.893  -2.091  -3.422  1.00  0.00     0.010 C 
ATOM     40  C   UNL     1       6.343  -2.555  -1.448  1.00  0.00     0.010 C 
ENDBRANCH  20  38
ENDBRANCH  17  20
ENDBRANCH  14  16
ENDBRANCH  11  14
ENDBRANCH   5  10
ENDBRANCH   1   5
BRANCH   3  41
ATOM     41  C   UNL     1      -1.197  -7.628  -1.809  1.00  0.00     0.116 C 
BRANCH  41  42
ATOM     42  C   UNL     1      -2.202  -8.761  -1.623  1.00  0.00     0.021 C 
BRANCH  42  43
ATOM     43  C   UNL     1      -1.581 -10.007  -0.922  1.00  0.00     0.002 C 
BRANCH  43  44
ATOM     44  C   UNL     1      -0.438  -9.862   0.111  1.00  0.00     0.002 C 
BRANCH  44  45
ATOM     45  C   UNL     1      -0.662  -9.033   1.377  1.00  0.00     0.021 C 
BRANCH  45  46
ATOM     46  C   UNL     1      -1.922  -9.327   2.182  1.00  0.00     0.116 C 
BRANCH  46  47
ATOM     47  N   UNL     1      -2.108 -10.734   2.491  1.00  0.00    -0.352 N 
ATOM     48  C   UNL     1      -2.654 -11.326   3.603  1.00  0.00     0.251 C 
ATOM     49  H   UNL     1      -1.794 -11.358   1.798  1.00  0.00     0.163 HD
ATOM     50  O   UNL     1      -2.682 -12.556   3.672  1.00  0.00    -0.269 OA
BRANCH  48  51
ATOM     51  C   UNL     1      -3.164 -10.514   4.733  1.00  0.00     0.039 A 
ATOM     52  C   UNL     1      -2.880 -10.939   6.036  1.00  0.00     0.014 A 
ATOM     53  C   UNL     1      -3.924  -9.359   4.532  1.00  0.00     0.014 A 
ATOM     54  C   UNL     1      -3.301 -10.177   7.128  1.00  0.00     0.010 A 
ATOM     55  C   UNL     1      -4.288  -8.565   5.620  1.00  0.00     0.010 A 
ATOM     56  C   UNL     1      -3.980  -8.965   6.929  1.00  0.00    -0.014 A 
BRANCH  56  57
ATOM     57  C   UNL     1      -4.372  -8.110   8.078  1.00  0.00     0.031 A 
ATOM     58  C   UNL     1      -5.825  -7.885   8.396  1.00  0.00     0.074 A 
ATOM     59  C   UNL     1      -3.416  -7.494   8.803  1.00  0.00     0.049 A 
ATOM     60  N   UNL     1      -6.360  -7.139   9.329  1.00  0.00    -0.248 NA
ATOM     61  C   UNL     1      -6.806  -8.568   7.538  1.00  0.00     0.031 C 
ATOM     62  C   UNL     1      -1.975  -7.595   8.560  1.00  0.00     0.029 A 
ATOM     63  N   UNL     1      -3.510  -6.656   9.885  1.00  0.00    -0.354 N 
ATOM     64  C   UNL     1      -7.736  -7.254   9.164  1.00  0.00     0.074 A 
ATOM     65  C   UNL     1      -7.952  -8.101   8.011  1.00  0.00     0.031 C 
ATOM     66  C   UNL     1      -1.321  -6.865   9.477  1.00  0.00     0.029 A 
ATOM     67  C   UNL     1      -2.293  -6.220  10.354  1.00  0.00     0.049 A 
ATOM     68  H   UNL     1      -4.368  -6.391  10.289  1.00  0.00     0.167 HD
ATOM     69  C   UNL     1      -8.727  -6.719   9.917  1.00  0.00     0.037 A 
ATOM     70  C   UNL     1      -1.993  -5.391  11.374  1.00  0.00     0.037 A 
ATOM     71  C   UNL     1      -8.502  -5.897  11.078  1.00  0.00     0.049 A 
ATOM     72  C   UNL     1      -3.111  -4.821  12.204  1.00  0.00     0.074 A 
ATOM     73  C   UNL     1      -9.436  -5.355  11.943  1.00  0.00     0.029 A 
ATOM     74  N   UNL     1      -7.255  -5.499  11.536  1.00  0.00    -0.354 N 
ATOM     75  N   UNL     1      -4.405  -4.993  12.073  1.00  0.00    -0.248 NA
ATOM     76  C   UNL     1      -2.730  -3.952  13.326  1.00  0.00     0.031 C 
ATOM     77  C   UNL     1      -8.755  -4.599  12.903  1.00  0.00     0.029 A 
ATOM     78  C   UNL     1      -7.395  -4.705  12.662  1.00  0.00     0.049 A 
ATOM     79  H   UNL     1      -6.396  -5.745  11.122  1.00  0.00     0.167 HD
ATOM     80  C   UNL     1      -4.991  -4.274  13.108  1.00  0.00     0.074 A 
ATOM     81  C   UNL     1      -3.910  -3.675  13.864  1.00  0.00     0.031 C 
ATOM     82  C   UNL     1      -6.305  -4.122  13.406  1.00  0.00     0.037 A 
BRANCH  69  83
ATOM     83  C   UNL     1     -10.145  -7.014   9.511  1.00  0.00     0.058 A 
ATOM     84  C   UNL     1     -10.704  -8.293   9.667  1.00  0.00     0.135 A 
ATOM     85  C   UNL     1     -10.966  -6.002   8.988  1.00  0.00     0.135 A 
ATOM     86  F   UNL     1      -9.961  -9.301  10.149  1.00  0.00    -0.206 F 
ATOM     87  C   UNL     1     -12.015  -8.566   9.288  1.00  0.00     0.059 A 
ATOM     88  C   UNL     1     -12.289  -6.246   8.627  1.00  0.00     0.059 A 
ATOM     89  F   UNL     1     -10.484  -4.761   8.818  1.00  0.00    -0.206 F 
ATOM     90  C   UNL     1     -12.799  -7.536   8.766  1.00  0.00     0.060 A 
BRANCH  90  91
ATOM     91  S   UNL     1     -14.497  -7.907   8.279  1.00  0.00     0.124 S 
ATOM     92  O   UNL     1     -14.287  -8.649   7.040  1.00  0.00    -0.237 OA
ATOM     93  O   UNL     1     -14.984  -8.690   9.410  1.00  0.00    -0.237 OA
ATOM     94  O   UNL     1     -15.103  -6.588   8.126  1.00  0.00    -0.744 OA
ENDBRANCH  90  91
ENDBRANCH  69  83
BRANCH  70  95
ATOM     95  C   UNL     1      -0.573  -5.077  11.683  1.00  0.00     0.058 A 
ATOM     96  C   UNL     1       0.048  -5.598  12.828  1.00  0.00     0.135 A 
ATOM     97  C   UNL     1       0.198  -4.270  10.832  1.00  0.00     0.135 A 
ATOM     98  F   UNL     1      -0.649  -6.371  13.675  1.00  0.00    -0.206 F 
ATOM     99  C   UNL     1       1.378  -5.319  13.127  1.00  0.00     0.059 A 
ATOM    100  C   UNL     1       1.536  -3.996  11.097  1.00  0.00     0.059 A 
ATOM    101  F   UNL     1      -0.345  -3.762   9.714  1.00  0.00    -0.206 F 
ATOM    102  C   UNL     1       2.115  -4.519  12.253  1.00  0.00     0.060 A 
BRANCH 102 103
ATOM    103  S   UNL     1       3.856  -4.208  12.621  1.00  0.00     0.124 S 
ATOM    104  O   UNL     1       3.759  -3.247  13.714  1.00  0.00    -0.237 OA
ATOM    105  O   UNL     1       4.336  -5.539  12.982  1.00  0.00    -0.237 OA
ATOM    106  O   UNL     1       4.376  -3.684  11.362  1.00  0.00    -0.744 OA
ENDBRANCH 102 103
ENDBRANCH  70  95
BRANCH  82 107
ATOM    107  C   UNL     1      -6.648  -3.301  14.617  1.00  0.00     0.058 A 
ATOM    108  C   UNL     1      -6.537  -1.902  14.613  1.00  0.00     0.135 A 
ATOM    109  C   UNL     1      -7.142  -3.919  15.777  1.00  0.00     0.135 A 
ATOM    110  F   UNL     1      -6.064  -1.265  13.530  1.00  0.00    -0.206 F 
ATOM    111  C   UNL     1      -6.886  -1.144  15.726  1.00  0.00     0.059 A 
ATOM    112  C   UNL     1      -7.520  -3.178  16.892  1.00  0.00     0.059 A 
ATOM    113  F   UNL     1      -7.276  -5.253  15.828  1.00  0.00    -0.206 F 
ATOM    114  C   UNL     1      -7.377  -1.792  16.861  1.00  0.00     0.060 A 
BRANCH 114 115
ATOM    115  S   UNL     1      -7.858  -0.795  18.287  1.00  0.00     0.124 S 
ATOM    116  O   UNL     1      -6.559  -0.436  18.847  1.00  0.00    -0.237 OA
ATOM    117  O   UNL     1      -8.606   0.296  17.670  1.00  0.00    -0.237 OA
ATOM    118  O   UNL     1      -8.656  -1.716  19.091  1.00  0.00    -0.744 OA
ENDBRANCH 114 115
ENDBRANCH  82 107
ENDBRANCH  56  57
ENDBRANCH  48  51
ENDBRANCH  46  47
ENDBRANCH  45  46
ENDBRANCH  44  45
ENDBRANCH  43  44
ENDBRANCH  42  43
ENDBRANCH  41  42
ENDBRANCH   3  41
TORSDOF 29
