REMARK SMILES CC(C)CSc1cc2c(cc1Cl)C=C(C(=O)NCCCCCCNC(=O)c1ccc(-c3c4nc(c(-c5c(F)cc(S(=O)(=O)[O-])cc5F)c5ccc([nH]5)c(-c5c(F)cc(S(=O)(=O)[O-])cc5F)c5nc(c(-c6c(F)cc(S(=O)(=O)[O-])cc6F)c6ccc3[nH]6)C=C5)C=C4)cc1)[C@@H](C(F)(F)F)O2
REMARK SMILES IDX 20 1 19 2 18 3 17 4 15 5 16 6 14 8 6 9 7 10 11 11 8 12 10 13
REMARK SMILES IDX 12 14 9 15 98 16 13 17 93 18 5 19 4 20 2 21 1 22 3 23 94 24
REMARK SMILES IDX 95 25 96 26 97 27 21 28 22 29 23 30 24 31 25 32 26 34 27 35
REMARK SMILES IDX 28 36 92 37 29 38 91 39 30 40 31 41 32 42 85 43 33 44 90 45
REMARK SMILES IDX 84 46 86 47 34 48 89 49 83 50 82 51 35 53 69 54 48 55 68 56
REMARK SMILES IDX 49 57 52 58 67 59 87 60 50 61 51 62 66 64 88 65 53 66 36 67
REMARK SMILES IDX 37 68 46 69 38 70 39 71 45 72 47 73 40 74 41 75 42 76 43 77
REMARK SMILES IDX 44 78 70 79 71 80 80 81 72 82 73 83 79 84 81 85 74 86 75 87
REMARK SMILES IDX 76 88 77 89 78 90 54 91 55 92 64 93 56 94 57 95 63 96 65 97
REMARK SMILES IDX 58 98 59 99 60 100 61 101 62 102
REMARK H PARENT 17 7 24 33 86 52 52 63
REMARK Flexibility Score: inf
ROOT
ATOM      1  C   UNL     1       0.016   9.215  -4.927  1.00  0.00     0.002 C 
ENDROOT
BRANCH   1   2
ATOM      2  C   UNL     1      -0.139   8.023  -3.977  1.00  0.00     0.021 C 
BRANCH   2   3
ATOM      3  C   UNL     1      -1.107   6.947  -4.462  1.00  0.00     0.116 C 
BRANCH   3   4
ATOM      4  N   UNL     1      -0.480   6.038  -5.405  1.00  0.00    -0.352 N 
ATOM      5  C   UNL     1      -0.289   4.704  -5.521  1.00  0.00     0.251 C 
ATOM      6  O   UNL     1       0.299   4.349  -6.549  1.00  0.00    -0.270 OA
ATOM      7  H   UNL     1      -0.089   6.524  -6.167  1.00  0.00     0.163 HD
BRANCH   5   8
ATOM      8  C   UNL     1      -0.717   3.670  -4.528  1.00  0.00     0.067 C 
ATOM      9  C   UNL     1      -1.226  -0.671  -1.975  1.00  0.00     0.030 A 
ATOM     10  C   UNL     1      -1.611   0.656  -1.753  1.00  0.00     0.063 A 
ATOM     11  C   UNL     1      -0.590  -0.984  -3.192  1.00  0.00     0.055 A 
ATOM     12  C   UNL     1      -1.298   1.652  -2.676  1.00  0.00     0.129 A 
ATOM     13  C   UNL     1      -0.291   0.021  -4.122  1.00  0.00     0.033 A 
ATOM     14  Cl  UNL     1      -0.099  -2.595  -3.598  1.00  0.00    -0.083 Cl
ATOM     15  C   UNL     1      -0.628   1.349  -3.855  1.00  0.00     0.019 A 
ATOM     16  O   UNL     1      -1.627   2.923  -2.315  1.00  0.00    -0.475 OA
ATOM     17  C   UNL     1      -0.253   2.427  -4.760  1.00  0.00     0.025 C 
ATOM     18  C   UNL     1      -1.631   3.932  -3.361  1.00  0.00     0.314 C 
BRANCH   9  19
ATOM     19  S   UNL     1      -1.539  -1.903  -0.712  1.00  0.00    -0.124 SA
BRANCH  19  20
ATOM     20  C   UNL     1      -0.959  -1.072   0.820  1.00  0.00     0.078 C 
BRANCH  20  21
ATOM     21  C   UNL     1       0.569  -1.055   1.017  1.00  0.00    -0.007 C 
ATOM     22  C   UNL     1       1.294  -0.059   0.110  1.00  0.00     0.008 C 
ATOM     23  C   UNL     1       0.882  -0.705   2.477  1.00  0.00     0.008 C 
ENDBRANCH  20  21
ENDBRANCH  19  20
ENDBRANCH   9  19
BRANCH  18  24
ATOM     24  C   UNL     1      -3.087   4.183  -3.788  1.00  0.00     0.429 C 
ATOM     25  F   UNL     1      -3.798   4.712  -2.763  1.00  0.00    -0.167 F 
ATOM     26  F   UNL     1      -3.184   5.057  -4.816  1.00  0.00    -0.167 F 
ATOM     27  F   UNL     1      -3.709   3.046  -4.174  1.00  0.00    -0.167 F 
ENDBRANCH  18  24
ENDBRANCH   5   8
ENDBRANCH   3   4
ENDBRANCH   2   3
ENDBRANCH   1   2
BRANCH   1  28
ATOM     28  C   UNL     1      -1.280   9.952  -5.291  1.00  0.00     0.002 C 
BRANCH  28  29
ATOM     29  C   UNL     1      -2.195  10.319  -4.119  1.00  0.00     0.021 C 
BRANCH  29  30
ATOM     30  C   UNL     1      -1.553  11.175  -3.033  1.00  0.00     0.116 C 
BRANCH  30  31
ATOM     31  N   UNL     1      -1.149  12.486  -3.513  1.00  0.00    -0.352 N 
ATOM     32  C   UNL     1      -1.397  13.723  -2.965  1.00  0.00     0.251 C 
ATOM     33  H   UNL     1      -0.626  12.489  -4.347  1.00  0.00     0.163 HD
ATOM     34  O   UNL     1      -1.093  14.740  -3.582  1.00  0.00    -0.269 OA
BRANCH  32  35
ATOM     35  C   UNL     1      -2.062  13.822  -1.647  1.00  0.00     0.039 A 
ATOM     36  C   UNL     1      -1.644  13.030  -0.575  1.00  0.00     0.014 A 
ATOM     37  C   UNL     1      -3.134  14.705  -1.492  1.00  0.00     0.014 A 
ATOM     38  C   UNL     1      -2.391  13.010   0.600  1.00  0.00     0.010 A 
ATOM     39  C   UNL     1      -3.838  14.738  -0.284  1.00  0.00     0.010 A 
ATOM     40  C   UNL     1      -3.501  13.857   0.756  1.00  0.00    -0.014 A 
BRANCH  40  41
ATOM     41  C   UNL     1      -4.299  13.795   2.008  1.00  0.00     0.031 A 
ATOM     42  C   UNL     1      -5.721  13.300   1.989  1.00  0.00     0.074 A 
ATOM     43  C   UNL     1      -3.717  14.127   3.177  1.00  0.00     0.049 A 
ATOM     44  N   UNL     1      -6.556  13.155   2.986  1.00  0.00    -0.248 NA
ATOM     45  C   UNL     1      -6.280  12.919   0.682  1.00  0.00     0.031 C 
ATOM     46  C   UNL     1      -2.341  14.606   3.325  1.00  0.00     0.029 A 
ATOM     47  N   UNL     1      -4.195  14.087   4.462  1.00  0.00    -0.354 N 
ATOM     48  C   UNL     1      -7.739  12.680   2.430  1.00  0.00     0.074 A 
ATOM     49  C   UNL     1      -7.524  12.589   1.002  1.00  0.00     0.031 C 
ATOM     50  C   UNL     1      -2.067  14.759   4.630  1.00  0.00     0.029 A 
ATOM     51  C   UNL     1      -3.263  14.446   5.407  1.00  0.00     0.049 A 
ATOM     52  H   UNL     1      -5.117  13.825   4.687  1.00  0.00     0.167 HD
ATOM     53  C   UNL     1      -8.892  12.339   3.053  1.00  0.00     0.037 A 
ATOM     54  C   UNL     1      -3.359  14.522   6.748  1.00  0.00     0.037 A 
ATOM     55  C   UNL     1      -9.097  12.414   4.477  1.00  0.00     0.049 A 
ATOM     56  C   UNL     1      -4.661  14.179   7.411  1.00  0.00     0.074 A 
ATOM     57  C   UNL     1     -10.229  12.084   5.202  1.00  0.00     0.029 A 
ATOM     58  N   UNL     1      -8.149  12.846   5.392  1.00  0.00    -0.354 N 
ATOM     59  N   UNL     1      -5.772  13.745   6.866  1.00  0.00    -0.248 NA
ATOM     60  C   UNL     1      -4.730  14.351   8.868  1.00  0.00     0.031 C 
ATOM     61  C   UNL     1      -9.975  12.346   6.553  1.00  0.00     0.029 A 
ATOM     62  C   UNL     1      -8.674  12.805   6.674  1.00  0.00     0.049 A 
ATOM     63  H   UNL     1      -7.237  13.138   5.165  1.00  0.00     0.167 HD
ATOM     64  C   UNL     1      -6.672  13.588   7.913  1.00  0.00     0.074 A 
ATOM     65  C   UNL     1      -5.970  13.955   9.126  1.00  0.00     0.031 C 
ATOM     66  C   UNL     1      -7.964  13.182   7.870  1.00  0.00     0.037 A 
BRANCH  53  67
ATOM     67  C   UNL     1     -10.030  11.856   2.197  1.00  0.00     0.058 A 
ATOM     68  C   UNL     1     -10.023  10.577   1.619  1.00  0.00     0.135 A 
ATOM     69  C   UNL     1     -11.159  12.665   1.986  1.00  0.00     0.135 A 
ATOM     70  F   UNL     1      -8.961   9.771   1.776  1.00  0.00    -0.206 F 
ATOM     71  C   UNL     1     -11.084  10.125   0.842  1.00  0.00     0.059 A 
ATOM     72  C   UNL     1     -12.242  12.224   1.230  1.00  0.00     0.059 A 
ATOM     73  F   UNL     1     -11.217  13.896   2.516  1.00  0.00    -0.206 F 
ATOM     74  C   UNL     1     -12.189  10.957   0.651  1.00  0.00     0.060 A 
BRANCH  74  75
ATOM     75  S   UNL     1     -13.557  10.354  -0.362  1.00  0.00     0.124 S 
ATOM     76  O   UNL     1     -12.979  10.423  -1.700  1.00  0.00    -0.237 OA
ATOM     77  O   UNL     1     -13.769   9.011   0.167  1.00  0.00    -0.237 OA
ATOM     78  O   UNL     1     -14.628  11.308  -0.091  1.00  0.00    -0.744 OA
ENDBRANCH  74  75
ENDBRANCH  53  67
BRANCH  54  79
ATOM     79  C   UNL     1      -2.175  14.933   7.544  1.00  0.00     0.058 A 
ATOM     80  C   UNL     1      -1.471  14.001   8.319  1.00  0.00     0.135 A 
ATOM     81  C   UNL     1      -1.693  16.251   7.504  1.00  0.00     0.135 A 
ATOM     82  F   UNL     1      -1.899  12.731   8.393  1.00  0.00    -0.206 F 
ATOM     83  C   UNL     1      -0.326  14.357   9.023  1.00  0.00     0.059 A 
ATOM     84  C   UNL     1      -0.538  16.626   8.182  1.00  0.00     0.059 A 
ATOM     85  F   UNL     1      -2.325  17.176   6.766  1.00  0.00    -0.206 F 
ATOM     86  C   UNL     1       0.138  15.672   8.941  1.00  0.00     0.060 A 
BRANCH  86  87
ATOM     87  S   UNL     1       1.672  16.103   9.790  1.00  0.00     0.124 S 
ATOM     88  O   UNL     1       1.238  16.135  11.182  1.00  0.00    -0.237 OA
ATOM     89  O   UNL     1       2.548  14.996   9.420  1.00  0.00    -0.237 OA
ATOM     90  O   UNL     1       2.026  17.393   9.207  1.00  0.00    -0.744 OA
ENDBRANCH  86  87
ENDBRANCH  54  79
BRANCH  66  91
ATOM     91  C   UNL     1      -8.707  13.112   9.173  1.00  0.00     0.058 A 
ATOM     92  C   UNL     1      -9.175  14.272   9.809  1.00  0.00     0.135 A 
ATOM     93  C   UNL     1      -9.007  11.872   9.760  1.00  0.00     0.135 A 
ATOM     94  F   UNL     1      -8.907  15.481   9.291  1.00  0.00    -0.206 F 
ATOM     95  C   UNL     1      -9.907  14.207  10.989  1.00  0.00     0.059 A 
ATOM     96  C   UNL     1      -9.755  11.782  10.929  1.00  0.00     0.059 A 
ATOM     97  F   UNL     1      -8.587  10.734   9.186  1.00  0.00    -0.206 F 
ATOM     98  C   UNL     1     -10.195  12.956  11.541  1.00  0.00     0.060 A 
BRANCH  98  99
ATOM     99  S   UNL     1     -11.183  12.884  13.050  1.00  0.00     0.124 S 
ATOM    100  O   UNL     1     -10.221  13.329  14.053  1.00  0.00    -0.237 OA
ATOM    101  O   UNL     1     -12.269  13.815  12.757  1.00  0.00    -0.237 OA
ATOM    102  O   UNL     1     -11.574  11.480  13.133  1.00  0.00    -0.744 OA
ENDBRANCH  98  99
ENDBRANCH  66  91
ENDBRANCH  40  41
ENDBRANCH  32  35
ENDBRANCH  30  31
ENDBRANCH  29  30
ENDBRANCH  28  29
ENDBRANCH   1  28
TORSDOF 20
