REMARK SMILES O=C(NCCCCCCNC(=O)[C@@H]1[C@@H](C(=O)Nc2cccc([N+](=O)[O-])c2)[C@@H]2C=C[C@H]1O2)c1ccc(-c2c3nc(c(-c4c(F)cc(S(=O)(=O)[O-])cc4F)c4ccc([nH]4)c(-c4c(F)cc(S(=O)(=O)[O-])cc4F)c4nc(c(-c5c(F)cc(S(=O)(=O)[O-])cc5F)c5ccc2[nH]5)C=C4)C=C3)cc1
REMARK SMILES IDX 6 1 5 2 4 3 3 4 1 5 2 6 32 8 33 9 97 10 34 11 96 12 35 13
REMARK SMILES IDX 36 14 37 15 90 16 38 17 95 18 89 19 91 20 39 21 94 22 88 23
REMARK SMILES IDX 87 24 40 26 74 27 53 28 73 29 54 30 57 31 72 32 92 33 55 34
REMARK SMILES IDX 56 35 71 37 93 38 58 39 41 40 42 41 51 42 43 43 44 44 50 45
REMARK SMILES IDX 52 46 45 47 46 48 47 49 48 50 49 51 75 52 76 53 85 54 77 55
REMARK SMILES IDX 78 56 84 57 86 58 79 59 80 60 81 61 82 62 83 63 59 64 60 65
REMARK SMILES IDX 69 66 61 67 62 68 68 69 70 70 63 71 64 72 65 73 66 74 67 75
REMARK SMILES IDX 7 76 8 77 9 78 10 79 11 80 12 82 13 83 14 84 30 85 27 86
REMARK SMILES IDX 29 87 31 88 28 89 15 90 16 91 17 92 18 94 19 95 26 96 20 97
REMARK SMILES IDX 22 98 21 99 23 100 24 101 25 102
REMARK H PARENT 3 7 91 25 57 36 10 81 17 93
REMARK Flexibility Score: inf
ROOT
ATOM      1  C   UNL     1       3.906   2.386   2.746  1.00  0.00     0.002 C 
ENDROOT
BRANCH   1   2
ATOM      2  C   UNL     1       4.378   2.114   1.317  1.00  0.00     0.021 C 
BRANCH   2   3
ATOM      3  C   UNL     1       4.305   0.642   0.941  1.00  0.00     0.116 C 
BRANCH   3   4
ATOM      4  N   UNL     1       2.922   0.194   0.894  1.00  0.00    -0.352 N 
ATOM      5  O   UNL     1       0.984  -0.258  -0.174  1.00  0.00    -0.269 OA
ATOM      6  C   UNL     1       2.214  -0.225  -0.200  1.00  0.00     0.251 C 
ATOM      7  H   UNL     1       2.437   0.192   1.751  1.00  0.00     0.163 HD
BRANCH   6   8
ATOM      8  C   UNL     1       2.957  -0.641  -1.403  1.00  0.00     0.039 A 
ATOM      9  C   UNL     1       4.082  -1.461  -1.266  1.00  0.00     0.014 A 
ATOM     10  C   UNL     1       2.530  -0.224  -2.664  1.00  0.00     0.014 A 
ATOM     11  C   UNL     1       4.842  -1.780  -2.380  1.00  0.00     0.010 A 
ATOM     12  C   UNL     1       3.243  -0.625  -3.794  1.00  0.00     0.010 A 
ATOM     13  C   UNL     1       4.404  -1.404  -3.658  1.00  0.00    -0.014 A 
BRANCH  13  14
ATOM     14  C   UNL     1       5.097  -1.954  -4.845  1.00  0.00     0.031 A 
ATOM     15  C   UNL     1       5.807  -1.061  -5.817  1.00  0.00     0.074 A 
ATOM     16  C   UNL     1       5.054  -3.289  -5.034  1.00  0.00     0.049 A 
ATOM     17  N   UNL     1       6.416  -1.383  -6.928  1.00  0.00    -0.248 NA
ATOM     18  C   UNL     1       5.832   0.379  -5.513  1.00  0.00     0.031 C 
ATOM     19  C   UNL     1       4.374  -4.242  -4.149  1.00  0.00     0.029 A 
ATOM     20  N   UNL     1       5.584  -4.078  -6.020  1.00  0.00    -0.354 N 
ATOM     21  C   UNL     1       6.875  -0.190  -7.471  1.00  0.00     0.074 A 
ATOM     22  C   UNL     1       6.464   0.868  -6.573  1.00  0.00     0.031 C 
ATOM     23  C   UNL     1       4.547  -5.484  -4.620  1.00  0.00     0.029 A 
ATOM     24  C   UNL     1       5.280  -5.411  -5.876  1.00  0.00     0.049 A 
ATOM     25  H   UNL     1       6.128  -3.725  -6.760  1.00  0.00     0.167 HD
ATOM     26  C   UNL     1       7.573  -0.006  -8.617  1.00  0.00     0.037 A 
ATOM     27  C   UNL     1       5.524  -6.457  -6.686  1.00  0.00     0.037 A 
ATOM     28  C   UNL     1       7.983  -1.080  -9.488  1.00  0.00     0.049 A 
ATOM     29  C   UNL     1       6.268  -6.214  -7.967  1.00  0.00     0.074 A 
ATOM     30  C   UNL     1       8.751  -1.007 -10.637  1.00  0.00     0.029 A 
ATOM     31  N   UNL     1       7.645  -2.416  -9.318  1.00  0.00    -0.354 N 
ATOM     32  N   UNL     1       6.754  -5.088  -8.433  1.00  0.00    -0.248 NA
ATOM     33  C   UNL     1       6.492  -7.375  -8.836  1.00  0.00     0.031 C 
ATOM     34  C   UNL     1       8.821  -2.286 -11.197  1.00  0.00     0.029 A 
ATOM     35  C   UNL     1       8.152  -3.169 -10.364  1.00  0.00     0.049 A 
ATOM     36  H   UNL     1       7.122  -2.775  -8.565  1.00  0.00     0.167 HD
ATOM     37  C   UNL     1       7.354  -5.408  -9.643  1.00  0.00     0.074 A 
ATOM     38  C   UNL     1       7.190  -6.836  -9.825  1.00  0.00     0.031 C 
ATOM     39  C   UNL     1       7.980  -4.592 -10.527  1.00  0.00     0.037 A 
BRANCH  26  40
ATOM     40  C   UNL     1       7.921   1.400  -9.023  1.00  0.00     0.058 A 
ATOM     41  C   UNL     1       8.895   2.152  -8.350  1.00  0.00     0.135 A 
ATOM     42  C   UNL     1       7.323   1.975 -10.158  1.00  0.00     0.135 A 
ATOM     43  F   UNL     1       9.489   1.659  -7.251  1.00  0.00    -0.206 F 
ATOM     44  C   UNL     1       9.257   3.426  -8.778  1.00  0.00     0.059 A 
ATOM     45  C   UNL     1       7.687   3.236 -10.620  1.00  0.00     0.059 A 
ATOM     46  F   UNL     1       6.382   1.302 -10.840  1.00  0.00    -0.206 F 
ATOM     47  C   UNL     1       8.650   3.958  -9.918  1.00  0.00     0.060 A 
BRANCH  47  48
ATOM     48  S   UNL     1       9.151   5.601 -10.474  1.00  0.00     0.124 S 
ATOM     49  O   UNL     1       8.580   6.448  -9.431  1.00  0.00    -0.237 OA
ATOM     50  O   UNL     1      10.607   5.497 -10.478  1.00  0.00    -0.237 OA
ATOM     51  O   UNL     1       8.530   5.721 -11.789  1.00  0.00    -0.744 OA
ENDBRANCH  47  48
ENDBRANCH  26  40
BRANCH  27  52
ATOM     52  C   UNL     1       5.019  -7.808  -6.326  1.00  0.00     0.058 A 
ATOM     53  C   UNL     1       5.898  -8.850  -6.004  1.00  0.00     0.135 A 
ATOM     54  C   UNL     1       3.640  -8.078  -6.285  1.00  0.00     0.135 A 
ATOM     55  F   UNL     1       7.223  -8.642  -6.029  1.00  0.00    -0.206 F 
ATOM     56  C   UNL     1       5.433 -10.120  -5.678  1.00  0.00     0.059 A 
ATOM     57  C   UNL     1       3.150  -9.329  -5.930  1.00  0.00     0.059 A 
ATOM     58  F   UNL     1       2.755  -7.109  -6.564  1.00  0.00    -0.206 F 
ATOM     59  C   UNL     1       4.055 -10.349  -5.644  1.00  0.00     0.060 A 
BRANCH  59  60
ATOM     60  S   UNL     1       3.462 -11.994  -5.199  1.00  0.00     0.124 S 
ATOM     61  O   UNL     1       3.797 -12.758  -6.395  1.00  0.00    -0.237 OA
ATOM     62  O   UNL     1       4.250 -12.292  -4.008  1.00  0.00    -0.237 OA
ATOM     63  O   UNL     1       2.036 -11.784  -4.963  1.00  0.00    -0.744 OA
ENDBRANCH  59  60
ENDBRANCH  27  52
BRANCH  39  64
ATOM     64  C   UNL     1       8.554  -5.227 -11.762  1.00  0.00     0.058 A 
ATOM     65  C   UNL     1       7.732  -5.684 -12.803  1.00  0.00     0.135 A 
ATOM     66  C   UNL     1       9.945  -5.317 -11.934  1.00  0.00     0.135 A 
ATOM     67  F   UNL     1       6.396  -5.633 -12.682  1.00  0.00    -0.206 F 
ATOM     68  C   UNL     1       8.268  -6.220 -13.968  1.00  0.00     0.059 A 
ATOM     69  C   UNL     1      10.503  -5.821 -13.103  1.00  0.00     0.059 A 
ATOM     70  F   UNL     1      10.775  -4.889 -10.969  1.00  0.00    -0.206 F 
ATOM     71  C   UNL     1       9.656  -6.276 -14.113  1.00  0.00     0.060 A 
BRANCH  71  72
ATOM     72  S   UNL     1      10.337  -6.917 -15.656  1.00  0.00     0.124 S 
ATOM     73  O   UNL     1      10.043  -8.341 -15.540  1.00  0.00    -0.237 OA
ATOM     74  O   UNL     1       9.567  -6.189 -16.660  1.00  0.00    -0.237 OA
ATOM     75  O   UNL     1      11.750  -6.560 -15.579  1.00  0.00    -0.744 OA
ENDBRANCH  71  72
ENDBRANCH  39  64
ENDBRANCH  13  14
ENDBRANCH   6   8
ENDBRANCH   3   4
ENDBRANCH   2   3
ENDBRANCH   1   2
BRANCH   1  76
ATOM     76  C   UNL     1       4.738   1.672   3.816  1.00  0.00     0.002 C 
BRANCH  76  77
ATOM     77  C   UNL     1       6.247   1.933   3.707  1.00  0.00     0.021 C 
BRANCH  77  78
ATOM     78  C   UNL     1       6.593   3.417   3.863  1.00  0.00     0.116 C 
BRANCH  78  79
ATOM     79  N   UNL     1       6.434   3.795   5.247  1.00  0.00    -0.356 N 
ATOM     80  C   UNL     1       7.204   3.469   6.312  1.00  0.00     0.227 C 
ATOM     81  H   UNL     1       5.659   4.369   5.443  1.00  0.00     0.163 HD
ATOM     82  O   UNL     1       6.651   3.497   7.417  1.00  0.00    -0.275 OA
BRANCH  80  83
ATOM     83  C   UNL     1       8.706   3.296   6.232  1.00  0.00     0.127 C 
ATOM     84  C   UNL     1       9.519   2.826   5.004  1.00  0.00     0.127 C 
ATOM     85  C   UNL     1       9.157   2.264   7.286  1.00  0.00     0.155 C 
ATOM     86  C   UNL     1      10.365   1.679   5.576  1.00  0.00     0.155 C 
ATOM     87  C   UNL     1       8.711   0.879   6.917  1.00  0.00     0.004 C 
ATOM     88  O   UNL     1      10.562   2.141   6.933  1.00  0.00    -0.365 OA
ATOM     89  C   UNL     1       9.459   0.514   5.865  1.00  0.00     0.004 C 
BRANCH  84  90
ATOM     90  C   UNL     1      10.386   3.803   4.198  1.00  0.00     0.231 C 
ATOM     91  O   UNL     1      10.695   3.473   3.044  1.00  0.00    -0.274 OA
ATOM     92  N   UNL     1      10.755   5.060   4.577  1.00  0.00    -0.325 N 
ATOM     93  H   UNL     1      11.044   5.636   3.832  1.00  0.00     0.169 HD
BRANCH  92  94
ATOM     94  C   UNL     1      10.799   5.680   5.828  1.00  0.00     0.048 A 
ATOM     95  C   UNL     1      10.262   6.966   5.944  1.00  0.00     0.026 A 
ATOM     96  C   UNL     1      11.295   5.029   6.956  1.00  0.00     0.111 A 
ATOM     97  C   UNL     1      10.060   7.528   7.208  1.00  0.00     0.009 A 
ATOM     98  C   UNL     1      11.058   5.579   8.220  1.00  0.00     0.271 A 
ATOM     99  C   UNL     1      10.423   6.819   8.354  1.00  0.00     0.086 A 
BRANCH  98 100
ATOM    100  N   UNL     1      11.397   4.804   9.416  1.00  0.00     0.062 N 
ATOM    101  O   UNL     1      10.801   5.086  10.466  1.00  0.00    -0.258 OA
ATOM    102  O   UNL     1      12.257   3.920   9.308  1.00  0.00    -0.258 OA
ENDBRANCH  98 100
ENDBRANCH  92  94
ENDBRANCH  84  90
ENDBRANCH  80  83
ENDBRANCH  78  79
ENDBRANCH  77  78
ENDBRANCH  76  77
ENDBRANCH   1  76
TORSDOF 19
