REMARK SMILES CCCCCCNC(=O)Oc1cccc(-c2ccc(CC(=O)NCCCCCCNC(=O)c3ccc(-c4c5nc(c(-c6c(F)cc(S(=O)(=O)[O-])cc6F)c6ccc([nH]6)c(-c6c(F)cc(S(=O)(=O)[O-])cc6F)c6nc(c(-c7c(F)cc(S(=O)(=O)[O-])cc7F)c7ccc4[nH]7)C=C6)C=C5)cc3)cc2F)c1
REMARK SMILES IDX 21 1 22 2 23 3 20 5 19 6 16 7 17 8 100 9 18 10 99 11 101 12
REMARK SMILES IDX 15 13 11 14 12 15 102 16 13 17 14 18 10 19 8 20 7 21 9 23
REMARK SMILES IDX 6 24 5 25 4 26 3 27 2 28 1 29 24 30 25 31 26 32 27 33 28 34
REMARK SMILES IDX 29 35 30 36 31 37 32 39 33 40 34 41 98 42 35 43 97 44 36 45
REMARK SMILES IDX 37 46 38 47 91 48 39 49 96 50 90 51 92 52 40 53 95 54 89 55
REMARK SMILES IDX 88 56 41 58 75 59 54 60 74 61 55 62 58 63 73 64 93 65 56 66
REMARK SMILES IDX 57 67 72 69 94 70 59 71 42 72 43 73 52 74 44 75 45 76 51 77
REMARK SMILES IDX 53 78 46 79 47 80 48 81 49 82 50 83 76 84 77 85 86 86 78 87
REMARK SMILES IDX 79 88 85 89 87 90 80 91 81 92 82 93 83 94 84 95 60 96 61 97
REMARK SMILES IDX 70 98 62 99 63 100 69 101 71 102 64 103 65 104 66 105 67 106
REMARK SMILES IDX 68 107
REMARK H PARENT 23 4 7 22 30 38 92 57 58 68
REMARK Flexibility Score: inf
ROOT
ATOM      1  C   UNL     1      -5.130 -13.395  -5.893  1.00  0.00     0.224 C 
ATOM      2  O   UNL     1      -4.962 -14.131  -6.867  1.00  0.00    -0.275 OA
ATOM      3  N   UNL     1      -6.350 -13.390  -5.281  1.00  0.00    -0.356 N 
ATOM      4  H   UNL     1      -6.993 -14.057  -5.615  1.00  0.00     0.163 HD
ENDROOT
BRANCH   1   5
ATOM      5  C   UNL     1      -3.997 -12.548  -5.340  1.00  0.00     0.135 C 
BRANCH   5   6
ATOM      6  C   UNL     1      -4.199 -11.060  -5.489  1.00  0.00    -0.036 A 
ATOM      7  C   UNL     1      -4.672  -8.273  -5.716  1.00  0.00     0.018 A 
ATOM      8  C   UNL     1      -4.672  -9.101  -6.850  1.00  0.00     0.012 A 
ATOM      9  C   UNL     1      -4.408  -8.872  -4.476  1.00  0.00     0.131 A 
ATOM     10  C   UNL     1      -4.436 -10.478  -6.740  1.00  0.00     0.005 A 
ATOM     11  C   UNL     1      -4.158 -10.235  -4.359  1.00  0.00     0.044 A 
ATOM     12  F   UNL     1      -4.405  -8.138  -3.353  1.00  0.00    -0.206 F 
BRANCH   7  13
ATOM     13  C   UNL     1      -4.908  -6.826  -5.824  1.00  0.00    -0.012 A 
ATOM     14  C   UNL     1      -4.212  -4.547  -5.349  1.00  0.00     0.133 A 
ATOM     15  C   UNL     1      -5.348  -4.041  -5.971  1.00  0.00     0.047 A 
ATOM     16  C   UNL     1      -4.000  -5.921  -5.254  1.00  0.00     0.056 A 
ATOM     17  C   UNL     1      -6.263  -4.925  -6.541  1.00  0.00     0.004 A 
ATOM     18  C   UNL     1      -6.041  -6.306  -6.473  1.00  0.00     0.009 A 
BRANCH  14  19
ATOM     19  O   UNL     1      -3.349  -3.637  -4.721  1.00  0.00    -0.410 OA
BRANCH  19  20
ATOM     20  C   UNL     1      -1.996  -3.754  -4.990  1.00  0.00     0.412 C 
ATOM     21  N   UNL     1      -1.212  -2.955  -4.210  1.00  0.00    -0.321 N 
ATOM     22  H   UNL     1      -0.242  -2.995  -4.375  1.00  0.00     0.167 HD
ATOM     23  O   UNL     1      -1.484  -4.484  -5.841  1.00  0.00    -0.224 OA
BRANCH  21  24
ATOM     24  C   UNL     1      -1.655  -2.055  -3.164  1.00  0.00     0.119 C 
BRANCH  24  25
ATOM     25  C   UNL     1      -1.029  -2.395  -1.811  1.00  0.00     0.021 C 
BRANCH  25  26
ATOM     26  C   UNL     1       0.502  -2.305  -1.762  1.00  0.00     0.002 C 
BRANCH  26  27
ATOM     27  C   UNL     1       1.098  -0.946  -2.143  1.00  0.00    -0.000 C 
BRANCH  27  28
ATOM     28  C   UNL     1       0.630   0.237  -1.291  1.00  0.00    -0.003 C 
ATOM     29  C   UNL     1       1.019   0.115   0.174  1.00  0.00     0.004 C 
ENDBRANCH  27  28
ENDBRANCH  26  27
ENDBRANCH  25  26
ENDBRANCH  24  25
ENDBRANCH  21  24
ENDBRANCH  19  20
ENDBRANCH  14  19
ENDBRANCH   7  13
ENDBRANCH   5   6
ENDBRANCH   1   5
BRANCH   3  30
ATOM     30  C   UNL     1      -6.835 -12.541  -4.208  1.00  0.00     0.116 C 
BRANCH  30  31
ATOM     31  C   UNL     1      -7.803 -11.480  -4.737  1.00  0.00     0.021 C 
BRANCH  31  32
ATOM     32  C   UNL     1      -9.150 -12.049  -5.204  1.00  0.00     0.002 C 
BRANCH  32  33
ATOM     33  C   UNL     1      -9.933 -12.822  -4.137  1.00  0.00     0.002 C 
BRANCH  33  34
ATOM     34  C   UNL     1     -10.220 -12.043  -2.851  1.00  0.00     0.021 C 
BRANCH  34  35
ATOM     35  C   UNL     1     -11.062 -10.785  -3.044  1.00  0.00     0.116 C 
BRANCH  35  36
ATOM     36  N   UNL     1     -12.398 -11.095  -3.530  1.00  0.00    -0.352 N 
ATOM     37  C   UNL     1     -13.618 -10.739  -3.011  1.00  0.00     0.251 C 
ATOM     38  H   UNL     1     -12.432 -11.637  -4.351  1.00  0.00     0.163 HD
ATOM     39  O   UNL     1     -14.642 -11.263  -3.442  1.00  0.00    -0.269 OA
BRANCH  37  40
ATOM     40  C   UNL     1     -13.697  -9.741  -1.922  1.00  0.00     0.039 A 
ATOM     41  C   UNL     1     -14.543  -9.988  -0.838  1.00  0.00     0.014 A 
ATOM     42  C   UNL     1     -12.949  -8.561  -1.974  1.00  0.00     0.014 A 
ATOM     43  C   UNL     1     -14.592  -9.079   0.222  1.00  0.00     0.010 A 
ATOM     44  C   UNL     1     -12.948  -7.691  -0.886  1.00  0.00     0.010 A 
ATOM     45  C   UNL     1     -13.771  -7.940   0.223  1.00  0.00    -0.014 A 
BRANCH  45  46
ATOM     46  C   UNL     1     -13.760  -6.998   1.373  1.00  0.00     0.031 A 
ATOM     47  C   UNL     1     -14.224  -5.577   1.190  1.00  0.00     0.074 A 
ATOM     48  C   UNL     1     -13.290  -7.410   2.568  1.00  0.00     0.049 A 
ATOM     49  N   UNL     1     -14.218  -4.590   2.049  1.00  0.00    -0.248 NA
ATOM     50  C   UNL     1     -14.744  -5.212  -0.138  1.00  0.00     0.031 C 
ATOM     51  C   UNL     1     -12.780  -8.752   2.862  1.00  0.00     0.029 A 
ATOM     52  N   UNL     1     -13.157  -6.740   3.759  1.00  0.00    -0.354 N 
ATOM     53  C   UNL     1     -14.734  -3.493   1.370  1.00  0.00     0.074 A 
ATOM     54  C   UNL     1     -14.984  -3.917   0.010  1.00  0.00     0.031 C 
ATOM     55  C   UNL     1     -12.409  -8.810   4.151  1.00  0.00     0.029 A 
ATOM     56  C   UNL     1     -12.616  -7.504   4.767  1.00  0.00     0.049 A 
ATOM     57  H   UNL     1     -13.424  -5.800   3.880  1.00  0.00     0.167 HD
ATOM     58  C   UNL     1     -15.005  -2.253   1.844  1.00  0.00     0.037 A 
ATOM     59  C   UNL     1     -12.312  -7.184   6.040  1.00  0.00     0.037 A 
ATOM     60  C   UNL     1     -14.769  -1.839   3.203  1.00  0.00     0.049 A 
ATOM     61  C   UNL     1     -12.592  -5.787   6.531  1.00  0.00     0.074 A 
ATOM     62  C   UNL     1     -15.022  -0.608   3.783  1.00  0.00     0.029 A 
ATOM     63  N   UNL     1     -14.235  -2.646   4.196  1.00  0.00    -0.354 N 
ATOM     64  N   UNL     1     -13.115  -4.773   5.882  1.00  0.00    -0.248 NA
ATOM     65  C   UNL     1     -12.246  -5.490   7.928  1.00  0.00     0.031 C 
ATOM     66  C   UNL     1     -14.612  -0.660   5.119  1.00  0.00     0.029 A 
ATOM     67  C   UNL     1     -14.146  -1.938   5.383  1.00  0.00     0.049 A 
ATOM     68  H   UNL     1     -13.960  -3.583   4.075  1.00  0.00     0.167 HD
ATOM     69  C   UNL     1     -13.196  -3.734   6.803  1.00  0.00     0.074 A 
ATOM     70  C   UNL     1     -12.679  -4.244   8.056  1.00  0.00     0.031 C 
ATOM     71  C   UNL     1     -13.655  -2.471   6.629  1.00  0.00     0.037 A 
BRANCH  58  72
ATOM     72  C   UNL     1     -15.616  -1.259   0.896  1.00  0.00     0.058 A 
ATOM     73  C   UNL     1     -16.947  -1.387   0.466  1.00  0.00     0.135 A 
ATOM     74  C   UNL     1     -14.895  -0.134   0.465  1.00  0.00     0.135 A 
ATOM     75  F   UNL     1     -17.677  -2.452   0.834  1.00  0.00    -0.206 F 
ATOM     76  C   UNL     1     -17.536  -0.445  -0.370  1.00  0.00     0.059 A 
ATOM     77  C   UNL     1     -15.473   0.836  -0.350  1.00  0.00     0.059 A 
ATOM     78  F   UNL     1     -13.619   0.037   0.844  1.00  0.00    -0.206 F 
ATOM     79  C   UNL     1     -16.792   0.667  -0.768  1.00  0.00     0.060 A 
BRANCH  79  80
ATOM     80  S   UNL     1     -17.585   1.896  -1.826  1.00  0.00     0.124 S 
ATOM     81  O   UNL     1     -17.671   1.177  -3.094  1.00  0.00    -0.237 OA
ATOM     82  O   UNL     1     -18.853   2.125  -1.141  1.00  0.00    -0.237 OA
ATOM     83  O   UNL     1     -16.652   3.018  -1.804  1.00  0.00    -0.744 OA
ENDBRANCH  79  80
ENDBRANCH  58  72
BRANCH  59  84
ATOM     84  C   UNL     1     -11.713  -8.195   6.953  1.00  0.00     0.058 A 
ATOM     85  C   UNL     1     -12.424  -8.678   8.062  1.00  0.00     0.135 A 
ATOM     86  C   UNL     1     -10.404  -8.664   6.764  1.00  0.00     0.135 A 
ATOM     87  F   UNL     1     -13.678  -8.258   8.289  1.00  0.00    -0.206 F 
ATOM     88  C   UNL     1     -11.845  -9.553   8.976  1.00  0.00     0.059 A 
ATOM     89  C   UNL     1      -9.814  -9.563   7.647  1.00  0.00     0.059 A 
ATOM     90  F   UNL     1      -9.686  -8.251   5.707  1.00  0.00    -0.206 F 
ATOM     91  C   UNL     1     -10.535  -9.983   8.763  1.00  0.00     0.060 A 
BRANCH  91  92
ATOM     92  S   UNL     1      -9.786 -11.110   9.959  1.00  0.00     0.124 S 
ATOM     93  O   UNL     1      -9.506 -10.211  11.072  1.00  0.00    -0.237 OA
ATOM     94  O   UNL     1     -10.851 -12.084  10.175  1.00  0.00    -0.237 OA
ATOM     95  O   UNL     1      -8.616 -11.620   9.249  1.00  0.00    -0.744 OA
ENDBRANCH  91  92
ENDBRANCH  59  84
BRANCH  71  96
ATOM     96  C   UNL     1     -13.675  -1.568   7.831  1.00  0.00     0.058 A 
ATOM     97  C   UNL     1     -12.497  -1.031   8.373  1.00  0.00     0.135 A 
ATOM     98  C   UNL     1     -14.896  -1.197   8.417  1.00  0.00     0.135 A 
ATOM     99  F   UNL     1     -11.303  -1.359   7.853  1.00  0.00    -0.206 F 
ATOM    100  C   UNL     1     -12.527  -0.177   9.470  1.00  0.00     0.059 A 
ATOM    101  C   UNL     1     -14.951  -0.322   9.497  1.00  0.00     0.059 A 
ATOM    102  F   UNL     1     -16.053  -1.674   7.931  1.00  0.00    -0.206 F 
ATOM    103  C   UNL     1     -13.760   0.174  10.024  1.00  0.00     0.060 A 
BRANCH 103 104
ATOM    104  S   UNL     1     -13.786   1.313  11.425  1.00  0.00     0.124 S 
ATOM    105  O   UNL     1     -13.317   0.456  12.509  1.00  0.00    -0.237 OA
ATOM    106  O   UNL     1     -12.861   2.357  10.996  1.00  0.00    -0.237 OA
ATOM    107  O   UNL     1     -15.186   1.719  11.506  1.00  0.00    -0.744 OA
ENDBRANCH 103 104
ENDBRANCH  71  96
ENDBRANCH  45  46
ENDBRANCH  37  40
ENDBRANCH  35  36
ENDBRANCH  34  35
ENDBRANCH  33  34
ENDBRANCH  32  33
ENDBRANCH  31  32
ENDBRANCH  30  31
ENDBRANCH   3  30
TORSDOF 25
