REMARK SMILES Cc1cc2nc(SCC(=O)NCCCCCCNC(=O)c3ccc(-c4c5nc(c(-c6c(F)cc(S(=O)(=O)[O-])cc6F)c6ccc([nH]6)c(-c6c(F)cc(S(=O)(=O)[O-])cc6F)c6nc(c(-c7c(F)cc(S(=O)(=O)[O-])cc7F)c7ccc4[nH]7)C=C6)C=C5)cc3)n(CC(C)C)c(=O)c2[nH]1
REMARK SMILES IDX 14 1 13 2 12 3 11 4 9 5 10 6 8 8 7 9 6 10 1 11 2 12 3 13
REMARK SMILES IDX 95 14 4 15 94 16 5 18 92 19 87 20 93 21 88 22 89 23 90 24
REMARK SMILES IDX 91 25 15 26 16 27 17 28 18 29 19 30 20 32 21 33 22 34 86 35
REMARK SMILES IDX 23 36 85 37 24 38 25 39 26 40 79 41 27 42 84 43 78 44 80 45
REMARK SMILES IDX 28 46 83 47 77 48 76 49 29 51 63 52 42 53 62 54 43 55 46 56
REMARK SMILES IDX 61 57 81 58 44 59 45 60 60 62 82 63 47 64 30 65 31 66 40 67
REMARK SMILES IDX 32 68 33 69 39 70 41 71 34 72 35 73 36 74 37 75 38 76 64 77
REMARK SMILES IDX 65 78 74 79 66 80 67 81 73 82 75 83 68 84 69 85 70 86 71 87
REMARK SMILES IDX 72 88 48 89 49 90 58 91 50 92 51 93 57 94 59 95 52 96 53 97
REMARK SMILES IDX 54 98 55 99 56 100
REMARK H PARENT 11 7 95 17 18 31 80 50 46 61
REMARK Flexibility Score: inf
ROOT
ATOM      1  C   UNL     1       5.708   3.648  -6.773  1.00  0.00     0.002 C 
ENDROOT
BRANCH   1   2
ATOM      2  C   UNL     1       4.345   4.335  -6.621  1.00  0.00     0.021 C 
BRANCH   2   3
ATOM      3  C   UNL     1       3.561   4.528  -7.916  1.00  0.00     0.116 C 
BRANCH   3   4
ATOM      4  N   UNL     1       3.273   3.277  -8.586  1.00  0.00    -0.355 N 
ATOM      5  C   UNL     1       2.085   2.811  -9.044  1.00  0.00     0.230 C 
ATOM      6  O   UNL     1       2.128   1.972  -9.948  1.00  0.00    -0.274 OA
ATOM      7  H   UNL     1       4.045   2.684  -8.728  1.00  0.00     0.163 HD
BRANCH   5   8
ATOM      8  C   UNL     1       0.753   3.344  -8.583  1.00  0.00     0.178 C 
BRANCH   8   9
ATOM      9  S   UNL     1       0.508   3.558  -6.850  1.00  0.00    -0.078 SA
BRANCH   9  10
ATOM     10  C   UNL     1       0.565   2.168  -5.793  1.00  0.00     0.172 A 
ATOM     11  C   UNL     1       0.793   0.187  -0.201  1.00  0.00     0.064 C 
ATOM     12  C   UNL     1       0.618   0.610  -1.614  1.00  0.00     0.014 A 
ATOM     13  C   UNL     1       0.702   1.871  -2.187  1.00  0.00     0.052 A 
ATOM     14  N   UNL     1       0.348  -0.292  -2.625  1.00  0.00    -0.353 N 
ATOM     15  C   UNL     1       0.560   1.681  -3.565  1.00  0.00     0.097 A 
ATOM     16  C   UNL     1       0.330   0.374  -3.820  1.00  0.00     0.131 A 
ATOM     17  H   UNL     1       0.192  -1.257  -2.505  1.00  0.00     0.166 HD
ATOM     18  N   UNL     1       0.613   2.624  -4.571  1.00  0.00    -0.222 NA
ATOM     19  C   UNL     1       0.154  -0.134  -5.135  1.00  0.00     0.278 A 
ATOM     20  N   UNL     1       0.466   0.812  -6.142  1.00  0.00    -0.286 N 
ATOM     21  O   UNL     1      -0.217  -1.278  -5.345  1.00  0.00    -0.267 OA
BRANCH  20  22
ATOM     22  C   UNL     1       0.625   0.197  -7.465  1.00  0.00     0.131 C 
BRANCH  22  23
ATOM     23  C   UNL     1       2.024  -0.450  -7.703  1.00  0.00     0.003 C 
ATOM     24  C   UNL     1       2.378  -1.583  -6.732  1.00  0.00     0.009 C 
ATOM     25  C   UNL     1       2.105  -1.042  -9.118  1.00  0.00     0.009 C 
ENDBRANCH  22  23
ENDBRANCH  20  22
ENDBRANCH   9  10
ENDBRANCH   8   9
ENDBRANCH   5   8
ENDBRANCH   3   4
ENDBRANCH   2   3
ENDBRANCH   1   2
BRANCH   1  26
ATOM     26  C   UNL     1       6.636   4.200  -7.866  1.00  0.00     0.002 C 
BRANCH  26  27
ATOM     27  C   UNL     1       6.871   5.716  -7.865  1.00  0.00     0.021 C 
BRANCH  27  28
ATOM     28  C   UNL     1       7.546   6.236  -6.607  1.00  0.00     0.116 C 
BRANCH  28  29
ATOM     29  N   UNL     1       8.928   5.785  -6.508  1.00  0.00    -0.352 N 
ATOM     30  C   UNL     1       9.867   6.131  -5.564  1.00  0.00     0.251 C 
ATOM     31  H   UNL     1       9.226   5.154  -7.203  1.00  0.00     0.163 HD
ATOM     32  O   UNL     1      11.061   5.995  -5.807  1.00  0.00    -0.269 OA
BRANCH  30  33
ATOM     33  C   UNL     1       9.424   6.656  -4.260  1.00  0.00     0.039 A 
ATOM     34  C   UNL     1      10.155   7.663  -3.621  1.00  0.00     0.014 A 
ATOM     35  C   UNL     1       8.296   6.100  -3.651  1.00  0.00     0.014 A 
ATOM     36  C   UNL     1       9.719   8.137  -2.388  1.00  0.00     0.010 A 
ATOM     37  C   UNL     1       7.809   6.634  -2.482  1.00  0.00     0.010 A 
ATOM     38  C   UNL     1       8.544   7.618  -1.828  1.00  0.00    -0.014 A 
BRANCH  38  39
ATOM     39  C   UNL     1       8.011   8.173  -0.592  1.00  0.00     0.031 A 
ATOM     40  C   UNL     1       7.585   9.594  -0.692  1.00  0.00     0.074 A 
ATOM     41  C   UNL     1       7.704   7.407   0.475  1.00  0.00     0.049 A 
ATOM     42  N   UNL     1       8.124  10.629  -0.139  1.00  0.00    -0.248 NA
ATOM     43  C   UNL     1       6.509   9.922  -1.643  1.00  0.00     0.031 C 
ATOM     44  C   UNL     1       7.750   5.944   0.581  1.00  0.00     0.029 A 
ATOM     45  N   UNL     1       7.174   7.777   1.671  1.00  0.00    -0.354 N 
ATOM     46  C   UNL     1       7.305  11.704  -0.473  1.00  0.00     0.074 A 
ATOM     47  C   UNL     1       6.473  11.253  -1.558  1.00  0.00     0.031 C 
ATOM     48  C   UNL     1       7.067   5.550   1.679  1.00  0.00     0.029 A 
ATOM     49  C   UNL     1       6.675   6.726   2.434  1.00  0.00     0.049 A 
ATOM     50  H   UNL     1       7.146   8.713   1.974  1.00  0.00     0.167 HD
ATOM     51  C   UNL     1       7.185  12.786   0.346  1.00  0.00     0.037 A 
ATOM     52  C   UNL     1       5.959   6.827   3.582  1.00  0.00     0.037 A 
ATOM     53  C   UNL     1       8.246  12.821   1.323  1.00  0.00     0.049 A 
ATOM     54  C   UNL     1       6.229   8.180   4.136  1.00  0.00     0.074 A 
ATOM     55  C   UNL     1       9.625  12.856   1.261  1.00  0.00     0.029 A 
ATOM     56  N   UNL     1       7.939  12.424   2.602  1.00  0.00    -0.354 N 
ATOM     57  N   UNL     1       7.395   8.571   4.574  1.00  0.00    -0.248 NA
ATOM     58  C   UNL     1       5.303   9.248   3.796  1.00  0.00     0.031 C 
ATOM     59  C   UNL     1      10.064  12.022   2.332  1.00  0.00     0.029 A 
ATOM     60  C   UNL     1       8.935  11.582   3.026  1.00  0.00     0.049 A 
ATOM     61  H   UNL     1       7.148  12.695   3.121  1.00  0.00     0.167 HD
ATOM     62  C   UNL     1       7.505   9.891   4.164  1.00  0.00     0.074 A 
ATOM     63  C   UNL     1       6.149  10.281   3.781  1.00  0.00     0.031 C 
ATOM     64  C   UNL     1       8.723  10.453   3.908  1.00  0.00     0.037 A 
BRANCH  51  65
ATOM     65  C   UNL     1       5.914  13.588   0.516  1.00  0.00     0.058 A 
ATOM     66  C   UNL     1       5.948  14.794   1.247  1.00  0.00     0.135 A 
ATOM     67  C   UNL     1       4.622  13.086   0.235  1.00  0.00     0.135 A 
ATOM     68  F   UNL     1       7.120  15.353   1.587  1.00  0.00    -0.206 F 
ATOM     69  C   UNL     1       4.790  15.417   1.717  1.00  0.00     0.059 A 
ATOM     70  C   UNL     1       3.456  13.722   0.642  1.00  0.00     0.059 A 
ATOM     71  F   UNL     1       4.426  11.903  -0.359  1.00  0.00    -0.206 F 
ATOM     72  C   UNL     1       3.549  14.865   1.418  1.00  0.00     0.060 A 
BRANCH  72  73
ATOM     73  S   UNL     1       2.059  15.608   2.103  1.00  0.00     0.124 S 
ATOM     74  O   UNL     1       2.216  15.317   3.523  1.00  0.00    -0.237 OA
ATOM     75  O   UNL     1       2.214  17.006   1.714  1.00  0.00    -0.237 OA
ATOM     76  O   UNL     1       0.983  14.891   1.425  1.00  0.00    -0.744 OA
ENDBRANCH  72  73
ENDBRANCH  51  65
BRANCH  52  77
ATOM     77  C   UNL     1       4.820   5.989   4.047  1.00  0.00     0.058 A 
ATOM     78  C   UNL     1       4.314   6.119   5.354  1.00  0.00     0.135 A 
ATOM     79  C   UNL     1       4.014   5.269   3.142  1.00  0.00     0.135 A 
ATOM     80  F   UNL     1       5.007   6.797   6.281  1.00  0.00    -0.206 F 
ATOM     81  C   UNL     1       3.057   5.626   5.723  1.00  0.00     0.059 A 
ATOM     82  C   UNL     1       2.762   4.760   3.489  1.00  0.00     0.059 A 
ATOM     83  F   UNL     1       4.378   5.120   1.859  1.00  0.00    -0.206 F 
ATOM     84  C   UNL     1       2.276   4.970   4.773  1.00  0.00     0.060 A 
BRANCH  84  85
ATOM     85  S   UNL     1       0.580   4.500   5.192  1.00  0.00     0.124 S 
ATOM     86  O   UNL     1       0.792   3.469   6.202  1.00  0.00    -0.237 OA
ATOM     87  O   UNL     1       0.022   5.759   5.673  1.00  0.00    -0.237 OA
ATOM     88  O   UNL     1       0.036   4.024   3.922  1.00  0.00    -0.744 OA
ENDBRANCH  84  85
ENDBRANCH  52  77
BRANCH  64  89
ATOM     89  C   UNL     1       9.959   9.732   4.386  1.00  0.00     0.058 A 
ATOM     90  C   UNL     1      10.394   8.483   3.909  1.00  0.00     0.135 A 
ATOM     91  C   UNL     1      10.823  10.421   5.250  1.00  0.00     0.135 A 
ATOM     92  F   UNL     1       9.677   7.799   3.008  1.00  0.00    -0.206 F 
ATOM     93  C   UNL     1      11.619   7.933   4.297  1.00  0.00     0.059 A 
ATOM     94  C   UNL     1      12.061   9.907   5.626  1.00  0.00     0.059 A 
ATOM     95  F   UNL     1      10.492  11.644   5.697  1.00  0.00    -0.206 F 
ATOM     96  C   UNL     1      12.450   8.656   5.151  1.00  0.00     0.060 A 
BRANCH  96  97
ATOM     97  S   UNL     1      14.071   7.986   5.582  1.00  0.00     0.124 S 
ATOM     98  O   UNL     1      13.720   6.845   6.422  1.00  0.00    -0.237 OA
ATOM     99  O   UNL     1      14.637   7.661   4.276  1.00  0.00    -0.237 OA
ATOM    100  O   UNL     1      14.726   9.092   6.277  1.00  0.00    -0.744 OA
ENDBRANCH  96  97
ENDBRANCH  64  89
ENDBRANCH  38  39
ENDBRANCH  30  33
ENDBRANCH  28  29
ENDBRANCH  27  28
ENDBRANCH  26  27
ENDBRANCH   1  26
TORSDOF 20
