REMARK SMILES COc1cc(C)cc2c1O[C@H](C(F)(F)F)C(C(=O)NCCCCCCNC(=O)c1ccc(-c3c4nc(c(-c5c(F)cc(S(=O)(=O)[O-])cc5F)c5ccc([nH]5)c(-c5c(F)cc(S(=O)(=O)[O-])cc5F)c5nc(c(-c6c(F)cc(S(=O)(=O)[O-])cc6F)c6ccc3[nH]6)C=C5)C=C4)cc1)=C2
REMARK SMILES IDX 23 1 22 2 21 3 20 4 19 5 17 6 18 7 16 9 3 10 4 11 9 12 5 13
REMARK SMILES IDX 8 14 10 15 6 16 7 17 95 18 11 19 2 20 1 21 12 22 13 23 14 24
REMARK SMILES IDX 15 25 24 26 25 27 26 28 27 29 28 31 29 32 30 33 94 34 31 35
REMARK SMILES IDX 93 36 32 37 33 38 34 39 87 40 35 41 92 42 86 43 88 44 36 45
REMARK SMILES IDX 91 46 85 47 84 48 37 50 71 51 50 52 70 53 51 54 54 55 69 56
REMARK SMILES IDX 89 57 52 58 53 59 68 61 90 62 55 63 38 64 39 65 48 66 40 67
REMARK SMILES IDX 41 68 47 69 49 70 42 71 43 72 44 73 45 74 46 75 72 76 73 77
REMARK SMILES IDX 82 78 74 79 75 80 81 81 83 82 76 83 77 84 78 85 79 86 80 87
REMARK SMILES IDX 56 88 57 89 66 90 58 91 59 92 65 93 67 94 60 95 61 96 62 97
REMARK SMILES IDX 63 98 64 99
REMARK H PARENT 19 8 26 30 88 49 54 60
REMARK Flexibility Score: inf
ROOT
ATOM      1  C   UNL     1      -8.100  -2.544  -5.500  1.00  0.00     0.002 C 
ENDROOT
BRANCH   1   2
ATOM      2  C   UNL     1      -7.430  -1.172  -5.658  1.00  0.00     0.002 C 
BRANCH   2   3
ATOM      3  C   UNL     1      -6.218  -0.913  -4.756  1.00  0.00     0.021 C 
BRANCH   3   4
ATOM      4  C   UNL     1      -5.102  -1.947  -4.887  1.00  0.00     0.116 C 
BRANCH   4   5
ATOM      5  N   UNL     1      -4.227  -1.661  -6.010  1.00  0.00    -0.352 N 
ATOM      6  C   UNL     1      -2.914  -1.393  -6.202  1.00  0.00     0.251 C 
ATOM      7  O   UNL     1      -2.584  -1.227  -7.382  1.00  0.00    -0.270 OA
ATOM      8  H   UNL     1      -4.722  -1.663  -6.862  1.00  0.00     0.163 HD
BRANCH   6   9
ATOM      9  C   UNL     1      -1.879  -1.288  -5.128  1.00  0.00     0.067 C 
ATOM     10  C   UNL     1       1.162  -0.815  -2.263  1.00  0.00     0.161 A 
ATOM     11  C   UNL     1       2.463  -0.516  -2.670  1.00  0.00     0.054 A 
ATOM     12  C   UNL     1       0.139  -0.932  -3.209  1.00  0.00     0.169 A 
ATOM     13  C   UNL     1       2.741  -0.292  -4.024  1.00  0.00    -0.047 A 
ATOM     14  C   UNL     1       0.403  -0.719  -4.561  1.00  0.00     0.021 A 
ATOM     15  O   UNL     1      -1.118  -1.197  -2.748  1.00  0.00    -0.471 OA
ATOM     16  C   UNL     1       4.135   0.025  -4.479  1.00  0.00     0.044 C 
ATOM     17  C   UNL     1       1.704  -0.396  -4.965  1.00  0.00     0.015 A 
ATOM     18  C   UNL     1      -0.684  -0.812  -5.528  1.00  0.00     0.025 C 
ATOM     19  C   UNL     1      -2.079  -1.718  -3.700  1.00  0.00     0.314 C 
BRANCH  10  20
ATOM     20  O   UNL     1       0.870  -1.097  -0.954  1.00  0.00    -0.493 OA
ATOM     21  C   UNL     1       1.144   0.001  -0.088  1.00  0.00     0.278 C 
ENDBRANCH  10  20
BRANCH  19  22
ATOM     22  C   UNL     1      -2.164  -3.247  -3.541  1.00  0.00     0.429 C 
ATOM     23  F   UNL     1      -2.645  -3.576  -2.318  1.00  0.00    -0.167 F 
ATOM     24  F   UNL     1      -3.001  -3.812  -4.444  1.00  0.00    -0.167 F 
ATOM     25  F   UNL     1      -0.964  -3.851  -3.689  1.00  0.00    -0.167 F 
ENDBRANCH  19  22
ENDBRANCH   6   9
ENDBRANCH   4   5
ENDBRANCH   3   4
ENDBRANCH   2   3
ENDBRANCH   1   2
BRANCH   1  26
ATOM     26  C   UNL     1      -8.401  -2.980  -4.064  1.00  0.00     0.021 C 
BRANCH  26  27
ATOM     27  C   UNL     1      -9.291  -2.031  -3.270  1.00  0.00     0.116 C 
BRANCH  27  28
ATOM     28  N   UNL     1     -10.629  -1.916  -3.827  1.00  0.00    -0.352 N 
ATOM     29  C   UNL     1     -11.844  -2.008  -3.189  1.00  0.00     0.251 C 
ATOM     30  H   UNL     1     -10.671  -1.748  -4.796  1.00  0.00     0.163 HD
ATOM     31  O   UNL     1     -12.883  -2.023  -3.843  1.00  0.00    -0.269 OA
BRANCH  29  32
ATOM     32  C   UNL     1     -11.890  -2.123  -1.714  1.00  0.00     0.039 A 
ATOM     33  C   UNL     1     -11.111  -1.289  -0.910  1.00  0.00     0.014 A 
ATOM     34  C   UNL     1     -12.705  -3.098  -1.132  1.00  0.00     0.014 A 
ATOM     35  C   UNL     1     -11.025  -1.534   0.457  1.00  0.00     0.010 A 
ATOM     36  C   UNL     1     -12.677  -3.290   0.254  1.00  0.00     0.010 A 
ATOM     37  C   UNL     1     -11.800  -2.542   1.054  1.00  0.00    -0.014 A 
BRANCH  37  38
ATOM     38  C   UNL     1     -11.665  -2.793   2.513  1.00  0.00     0.031 A 
ATOM     39  C   UNL     1     -11.096  -4.091   3.023  1.00  0.00     0.074 A 
ATOM     40  C   UNL     1     -11.998  -1.817   3.380  1.00  0.00     0.049 A 
ATOM     41  N   UNL     1     -10.856  -4.455   4.257  1.00  0.00    -0.248 NA
ATOM     42  C   UNL     1     -10.756  -5.115   2.022  1.00  0.00     0.031 C 
ATOM     43  C   UNL     1     -12.562  -0.518   3.005  1.00  0.00     0.029 A 
ATOM     44  N   UNL     1     -11.884  -1.748   4.745  1.00  0.00    -0.354 N 
ATOM     45  C   UNL     1     -10.356  -5.750   4.185  1.00  0.00     0.074 A 
ATOM     46  C   UNL     1     -10.351  -6.121   2.787  1.00  0.00     0.031 C 
ATOM     47  C   UNL     1     -12.691   0.239   4.105  1.00  0.00     0.029 A 
ATOM     48  C   UNL     1     -12.270  -0.536   5.268  1.00  0.00     0.049 A 
ATOM     49  H   UNL     1     -11.558  -2.494   5.297  1.00  0.00     0.167 HD
ATOM     50  C   UNL     1      -9.926  -6.550   5.190  1.00  0.00     0.037 A 
ATOM     51  C   UNL     1     -12.289  -0.096   6.541  1.00  0.00     0.037 A 
ATOM     52  C   UNL     1      -9.903  -6.164   6.578  1.00  0.00     0.049 A 
ATOM     53  C   UNL     1     -11.823  -1.007   7.639  1.00  0.00     0.074 A 
ATOM     54  C   UNL     1      -9.449  -6.892   7.664  1.00  0.00     0.029 A 
ATOM     55  N   UNL     1     -10.350  -4.947   7.071  1.00  0.00    -0.354 N 
ATOM     56  N   UNL     1     -11.336  -2.221   7.547  1.00  0.00    -0.248 NA
ATOM     57  C   UNL     1     -11.919  -0.497   9.014  1.00  0.00     0.031 C 
ATOM     58  C   UNL     1      -9.657  -6.130   8.819  1.00  0.00     0.029 A 
ATOM     59  C   UNL     1     -10.204  -4.912   8.448  1.00  0.00     0.049 A 
ATOM     60  H   UNL     1     -10.717  -4.216   6.523  1.00  0.00     0.167 HD
ATOM     61  C   UNL     1     -11.066  -2.621   8.850  1.00  0.00     0.074 A 
ATOM     62  C   UNL     1     -11.424  -1.512   9.711  1.00  0.00     0.031 C 
ATOM     63  C   UNL     1     -10.573  -3.804   9.292  1.00  0.00     0.037 A 
BRANCH  50  64
ATOM     64  C   UNL     1      -9.447  -7.930   4.833  1.00  0.00     0.058 A 
ATOM     65  C   UNL     1      -8.207  -8.141   4.212  1.00  0.00     0.135 A 
ATOM     66  C   UNL     1     -10.214  -9.058   5.167  1.00  0.00     0.135 A 
ATOM     67  F   UNL     1      -7.442  -7.096   3.858  1.00  0.00    -0.206 F 
ATOM     68  C   UNL     1      -7.751  -9.422   3.916  1.00  0.00     0.059 A 
ATOM     69  C   UNL     1      -9.768 -10.350   4.900  1.00  0.00     0.059 A 
ATOM     70  F   UNL     1     -11.408  -8.912   5.763  1.00  0.00    -0.206 F 
ATOM     71  C   UNL     1      -8.540 -10.521   4.264  1.00  0.00     0.060 A 
BRANCH  71  72
ATOM     72  S   UNL     1      -7.929 -12.176   3.880  1.00  0.00     0.124 S 
ATOM     73  O   UNL     1      -8.089 -12.215   2.429  1.00  0.00    -0.237 OA
ATOM     74  O   UNL     1      -6.553 -12.122   4.363  1.00  0.00    -0.237 OA
ATOM     75  O   UNL     1      -8.821 -13.052   4.633  1.00  0.00    -0.744 OA
ENDBRANCH  71  72
ENDBRANCH  50  64
BRANCH  51  76
ATOM     76  C   UNL     1     -12.762   1.282   6.829  1.00  0.00     0.058 A 
ATOM     77  C   UNL     1     -11.862   2.291   7.198  1.00  0.00     0.135 A 
ATOM     78  C   UNL     1     -14.114   1.630   6.680  1.00  0.00     0.135 A 
ATOM     79  F   UNL     1     -10.561   2.004   7.360  1.00  0.00    -0.206 F 
ATOM     80  C   UNL     1     -12.283   3.601   7.404  1.00  0.00     0.059 A 
ATOM     81  C   UNL     1     -14.555   2.937   6.857  1.00  0.00     0.059 A 
ATOM     82  F   UNL     1     -15.011   0.701   6.313  1.00  0.00    -0.206 F 
ATOM     83  C   UNL     1     -13.631   3.916   7.221  1.00  0.00     0.060 A 
BRANCH  83  84
ATOM     84  S   UNL     1     -14.152   5.635   7.404  1.00  0.00     0.124 S 
ATOM     85  O   UNL     1     -14.104   5.804   8.851  1.00  0.00    -0.237 OA
ATOM     86  O   UNL     1     -13.129   6.347   6.643  1.00  0.00    -0.237 OA
ATOM     87  O   UNL     1     -15.485   5.647   6.808  1.00  0.00    -0.744 OA
ENDBRANCH  83  84
ENDBRANCH  51  76
BRANCH  63  88
ATOM     88  C   UNL     1     -10.394  -3.970  10.773  1.00  0.00     0.058 A 
ATOM     89  C   UNL     1     -11.489  -4.212  11.615  1.00  0.00     0.135 A 
ATOM     90  C   UNL     1      -9.111  -3.970  11.344  1.00  0.00     0.135 A 
ATOM     91  F   UNL     1     -12.736  -4.213  11.118  1.00  0.00    -0.206 F 
ATOM     92  C   UNL     1     -11.320  -4.445  12.976  1.00  0.00     0.059 A 
ATOM     93  C   UNL     1      -8.917  -4.221  12.698  1.00  0.00     0.059 A 
ATOM     94  F   UNL     1      -8.031  -3.750  10.578  1.00  0.00    -0.206 F 
ATOM     95  C   UNL     1     -10.029  -4.454  13.507  1.00  0.00     0.060 A 
BRANCH  95  96
ATOM     96  S   UNL     1      -9.821  -4.817  15.263  1.00  0.00     0.124 S 
ATOM     97  O   UNL     1     -10.297  -3.582  15.877  1.00  0.00    -0.237 OA
ATOM     98  O   UNL     1     -10.677  -5.986  15.444  1.00  0.00    -0.237 OA
ATOM     99  O   UNL     1      -8.389  -5.071  15.391  1.00  0.00    -0.744 OA
ENDBRANCH  95  96
ENDBRANCH  63  88
ENDBRANCH  37  38
ENDBRANCH  29  32
ENDBRANCH  27  28
ENDBRANCH  26  27
ENDBRANCH   1  26
TORSDOF 18
