REMARK SMILES O=C(NCCCCCCNC(=O)[C@@H](c1ccccc1)N1C(=O)/C(=C\c2ccc(-c3ccc(F)cc3)o2)SC1=S)c1ccc(-c2c3nc(c(-c4c(F)cc(S(=O)(=O)[O-])cc4F)c4ccc([nH]4)c(-c4c(F)cc(S(=O)(=O)[O-])cc4F)c4nc(c(-c5c(F)cc(S(=O)(=O)[O-])cc5F)c5ccc2[nH]5)C=C4)C=C3)cc1
REMARK SMILES IDX 6 1 5 2 4 3 3 4 1 5 2 6 40 8 41 9 105 10 42 11 104 12 43 13
REMARK SMILES IDX 44 14 45 15 98 16 46 17 103 18 97 19 99 20 47 21 102 22
REMARK SMILES IDX 96 23 95 24 48 26 82 27 61 28 81 29 62 30 65 31 80 32 100 33
REMARK SMILES IDX 63 34 64 35 79 37 101 38 66 39 49 40 50 41 59 42 51 43 52 44
REMARK SMILES IDX 58 45 60 46 53 47 54 48 55 49 56 50 57 51 83 52 84 53 93 54
REMARK SMILES IDX 85 55 86 56 92 57 94 58 87 59 88 60 89 61 90 62 91 63 67 64
REMARK SMILES IDX 68 65 77 66 69 67 70 68 76 69 78 70 71 71 72 72 73 73 74 74
REMARK SMILES IDX 75 75 7 76 8 77 9 78 10 79 11 80 12 82 13 83 14 84 15 85
REMARK SMILES IDX 19 86 16 87 18 88 17 89 20 90 21 91 38 92 22 93 23 94 37 95
REMARK SMILES IDX 39 96 24 97 25 98 26 99 36 100 27 101 28 102 29 103 30 104
REMARK SMILES IDX 35 105 31 106 34 107 32 108 33 109
REMARK H PARENT 3 7 99 25 65 36 10 81
REMARK Flexibility Score: inf
ROOT
ATOM      1  C   UNL     1       3.976   0.065  -3.873  1.00  0.00     0.002 C 
ENDROOT
BRANCH   1   2
ATOM      2  C   UNL     1       4.469  -0.715  -2.653  1.00  0.00     0.021 C 
BRANCH   2   3
ATOM      3  C   UNL     1       4.376   0.053  -1.341  1.00  0.00     0.116 C 
BRANCH   3   4
ATOM      4  N   UNL     1       2.996   0.326  -0.970  1.00  0.00    -0.352 N 
ATOM      5  O   UNL     1       1.118   0.115   0.261  1.00  0.00    -0.269 OA
ATOM      6  C   UNL     1       2.338  -0.000   0.190  1.00  0.00     0.251 C 
ATOM      7  H   UNL     1       2.463   0.810  -1.641  1.00  0.00     0.163 HD
BRANCH   6   8
ATOM      8  C   UNL     1       3.111  -0.504   1.344  1.00  0.00     0.039 A 
ATOM      9  C   UNL     1       4.303   0.124   1.716  1.00  0.00     0.014 A 
ATOM     10  C   UNL     1       2.644  -1.609   2.060  1.00  0.00     0.014 A 
ATOM     11  C   UNL     1       5.091  -0.433   2.713  1.00  0.00     0.010 A 
ATOM     12  C   UNL     1       3.396  -2.114   3.125  1.00  0.00     0.010 A 
ATOM     13  C   UNL     1       4.638  -1.543   3.446  1.00  0.00    -0.014 A 
BRANCH  13  14
ATOM     14  C   UNL     1       5.452  -2.024   4.590  1.00  0.00     0.031 A 
ATOM     15  C   UNL     1       6.085  -3.387   4.585  1.00  0.00     0.074 A 
ATOM     16  C   UNL     1       5.656  -1.181   5.622  1.00  0.00     0.049 A 
ATOM     17  N   UNL     1       6.863  -3.932   5.486  1.00  0.00    -0.248 NA
ATOM     18  C   UNL     1       5.809  -4.254   3.429  1.00  0.00     0.031 C 
ATOM     19  C   UNL     1       5.068   0.158   5.742  1.00  0.00     0.029 A 
ATOM     20  N   UNL     1       6.425  -1.305   6.749  1.00  0.00    -0.354 N 
ATOM     21  C   UNL     1       7.167  -5.203   5.012  1.00  0.00     0.074 A 
ATOM     22  C   UNL     1       6.461  -5.362   3.758  1.00  0.00     0.031 C 
ATOM     23  C   UNL     1       5.537   0.748   6.850  1.00  0.00     0.029 A 
ATOM     24  C   UNL     1       6.407  -0.188   7.551  1.00  0.00     0.049 A 
ATOM     25  H   UNL     1       6.941  -2.115   6.964  1.00  0.00     0.167 HD
ATOM     26  C   UNL     1       7.970  -6.143   5.569  1.00  0.00     0.037 A 
ATOM     27  C   UNL     1       7.009   0.053   8.729  1.00  0.00     0.037 A 
ATOM     28  C   UNL     1       8.667  -5.973   6.819  1.00  0.00     0.049 A 
ATOM     29  C   UNL     1       7.885  -1.009   9.325  1.00  0.00     0.074 A 
ATOM     30  C   UNL     1       9.502  -6.866   7.469  1.00  0.00     0.029 A 
ATOM     31  N   UNL     1       8.612  -4.834   7.611  1.00  0.00    -0.354 N 
ATOM     32  N   UNL     1       8.172  -2.199   8.852  1.00  0.00    -0.248 NA
ATOM     33  C   UNL     1       8.521  -0.699  10.611  1.00  0.00     0.031 C 
ATOM     34  C   UNL     1       9.927  -6.279   8.667  1.00  0.00     0.029 A 
ATOM     35  C   UNL     1       9.392  -5.004   8.744  1.00  0.00     0.049 A 
ATOM     36  H   UNL     1       8.095  -4.023   7.398  1.00  0.00     0.167 HD
ATOM     37  C   UNL     1       9.027  -2.778   9.781  1.00  0.00     0.074 A 
ATOM     38  C   UNL     1       9.234  -1.796  10.826  1.00  0.00     0.031 C 
ATOM     39  C   UNL     1       9.583  -4.015   9.774  1.00  0.00     0.037 A 
BRANCH  26  40
ATOM     40  C   UNL     1       8.141  -7.443   4.832  1.00  0.00     0.058 A 
ATOM     41  C   UNL     1       8.906  -7.524   3.657  1.00  0.00     0.135 A 
ATOM     42  C   UNL     1       7.585  -8.632   5.332  1.00  0.00     0.135 A 
ATOM     43  F   UNL     1       9.448  -6.417   3.125  1.00  0.00    -0.206 F 
ATOM     44  C   UNL     1       9.098  -8.733   2.995  1.00  0.00     0.059 A 
ATOM     45  C   UNL     1       7.782  -9.857   4.698  1.00  0.00     0.059 A 
ATOM     46  F   UNL     1       6.844  -8.612   6.451  1.00  0.00    -0.206 F 
ATOM     47  C   UNL     1       8.532  -9.895   3.523  1.00  0.00     0.060 A 
BRANCH  47  48
ATOM     48  S   UNL     1       8.801 -11.456   2.656  1.00  0.00     0.124 S 
ATOM     49  O   UNL     1       7.943 -11.289   1.488  1.00  0.00    -0.237 OA
ATOM     50  O   UNL     1      10.237 -11.424   2.396  1.00  0.00    -0.237 OA
ATOM     51  O   UNL     1       8.363 -12.460   3.620  1.00  0.00    -0.744 OA
ENDBRANCH  47  48
ENDBRANCH  26  40
BRANCH  27  52
ATOM     52  C   UNL     1       6.784   1.348   9.423  1.00  0.00     0.058 A 
ATOM     53  C   UNL     1       7.809   2.295   9.548  1.00  0.00     0.135 A 
ATOM     54  C   UNL     1       5.526   1.668   9.958  1.00  0.00     0.135 A 
ATOM     55  F   UNL     1       9.029   2.035   9.052  1.00  0.00    -0.206 F 
ATOM     56  C   UNL     1       7.604   3.507  10.200  1.00  0.00     0.059 A 
ATOM     57  C   UNL     1       5.288   2.884  10.587  1.00  0.00     0.059 A 
ATOM     58  F   UNL     1       4.506   0.804   9.843  1.00  0.00    -0.206 F 
ATOM     59  C   UNL     1       6.338   3.791  10.717  1.00  0.00     0.060 A 
BRANCH  59  60
ATOM     60  S   UNL     1       6.065   5.380  11.529  1.00  0.00     0.124 S 
ATOM     61  O   UNL     1       6.694   5.156  12.825  1.00  0.00    -0.237 OA
ATOM     62  O   UNL     1       6.754   6.307  10.636  1.00  0.00    -0.237 OA
ATOM     63  O   UNL     1       4.610   5.502  11.544  1.00  0.00    -0.744 OA
ENDBRANCH  59  60
ENDBRANCH  27  52
BRANCH  39  64
ATOM     64  C   UNL     1      10.484  -4.358  10.927  1.00  0.00     0.058 A 
ATOM     65  C   UNL     1       9.972  -4.615  12.208  1.00  0.00     0.135 A 
ATOM     66  C   UNL     1      11.873  -4.442  10.744  1.00  0.00     0.135 A 
ATOM     67  F   UNL     1       8.651  -4.539  12.436  1.00  0.00    -0.206 F 
ATOM     68  C   UNL     1      10.810  -4.909  13.278  1.00  0.00     0.059 A 
ATOM     69  C   UNL     1      12.728  -4.760  11.794  1.00  0.00     0.059 A 
ATOM     70  F   UNL     1      12.411  -4.213   9.535  1.00  0.00    -0.206 F 
ATOM     71  C   UNL     1      12.187  -4.975  13.061  1.00  0.00     0.060 A 
BRANCH  71  72
ATOM     72  S   UNL     1      13.266  -5.365  14.455  1.00  0.00     0.124 S 
ATOM     73  O   UNL     1      13.281  -4.098  15.177  1.00  0.00    -0.237 OA
ATOM     74  O   UNL     1      12.553  -6.459  15.108  1.00  0.00    -0.237 OA
ATOM     75  O   UNL     1      14.524  -5.740  13.815  1.00  0.00    -0.744 OA
ENDBRANCH  71  72
ENDBRANCH  39  64
ENDBRANCH  13  14
ENDBRANCH   6   8
ENDBRANCH   3   4
ENDBRANCH   2   3
ENDBRANCH   1   2
BRANCH   1  76
ATOM     76  C   UNL     1       4.705   1.388  -4.131  1.00  0.00     0.002 C 
BRANCH  76  77
ATOM     77  C   UNL     1       6.234   1.283  -4.176  1.00  0.00     0.021 C 
BRANCH  77  78
ATOM     78  C   UNL     1       6.745   0.336  -5.260  1.00  0.00     0.116 C 
BRANCH  78  79
ATOM     79  N   UNL     1       6.651   0.957  -6.564  1.00  0.00    -0.354 N 
ATOM     80  C   UNL     1       7.636   1.480  -7.353  1.00  0.00     0.247 C 
ATOM     81  H   UNL     1       5.742   1.012  -6.937  1.00  0.00     0.163 HD
ATOM     82  O   UNL     1       7.287   2.208  -8.290  1.00  0.00    -0.272 OA
BRANCH  80  83
ATOM     83  C   UNL     1       9.150   1.269  -7.030  1.00  0.00     0.211 C 
BRANCH  83  84
ATOM     84  C   UNL     1       9.474   2.249  -5.873  1.00  0.00    -0.016 A 
ATOM     85  C   UNL     1       9.697   1.858  -4.539  1.00  0.00     0.006 A 
ATOM     86  C   UNL     1       9.438   3.631  -6.144  1.00  0.00     0.006 A 
ATOM     87  C   UNL     1       9.872   2.801  -3.523  1.00  0.00     0.000 A 
ATOM     88  C   UNL     1       9.599   4.574  -5.125  1.00  0.00     0.000 A 
ATOM     89  C   UNL     1       9.814   4.159  -3.814  1.00  0.00     0.000 A 
ENDBRANCH  83  84
BRANCH  83  90
ATOM     90  N   UNL     1       9.536  -0.156  -6.834  1.00  0.00    -0.276 N 
ATOM     91  C   UNL     1      10.780  -0.431  -6.298  1.00  0.00     0.267 C 
ATOM     92  C   UNL     1       9.063  -1.228  -7.573  1.00  0.00     0.149 C 
ATOM     93  O   UNL     1      11.703   0.366  -6.187  1.00  0.00    -0.268 OA
ATOM     94  C   UNL     1      10.916  -1.883  -6.016  1.00  0.00     0.084 C 
ATOM     95  S   UNL     1       9.769  -2.732  -6.966  1.00  0.00    -0.054 SA
ATOM     96  S   UNL     1       8.011  -1.278  -8.866  1.00  0.00    -0.052 S 
ATOM     97  C   UNL     1      11.760  -2.470  -5.160  1.00  0.00     0.068 C 
BRANCH  97  98
ATOM     98  C   UNL     1      12.626  -1.720  -4.327  1.00  0.00     0.128 A 
ATOM     99  C   UNL     1      12.322  -0.927  -3.227  1.00  0.00     0.051 A 
ATOM    100  O   UNL     1      13.986  -1.690  -4.507  1.00  0.00    -0.457 OA
ATOM    101  C   UNL     1      13.534  -0.389  -2.738  1.00  0.00     0.051 A 
ATOM    102  C   UNL     1      14.525  -0.879  -3.556  1.00  0.00     0.134 A 
BRANCH 102 103
ATOM    103  C   UNL     1      15.968  -0.732  -3.593  1.00  0.00     0.017 A 
ATOM    104  C   UNL     1      16.631  -0.499  -4.807  1.00  0.00     0.015 A 
ATOM    105  C   UNL     1      16.716  -0.812  -2.409  1.00  0.00     0.015 A 
ATOM    106  C   UNL     1      18.018  -0.344  -4.837  1.00  0.00     0.040 A 
ATOM    107  C   UNL     1      18.104  -0.669  -2.440  1.00  0.00     0.040 A 
ATOM    108  C   UNL     1      18.741  -0.434  -3.653  1.00  0.00     0.123 A 
ATOM    109  F   UNL     1      20.073  -0.291  -3.682  1.00  0.00    -0.207 F 
ENDBRANCH 102 103
ENDBRANCH  97  98
ENDBRANCH  83  90
ENDBRANCH  80  83
ENDBRANCH  78  79
ENDBRANCH  77  78
ENDBRANCH  76  77
ENDBRANCH   1  76
TORSDOF 20
