REMARK SMILES CC(=O)Nc1cccc(-c2cc(F)ccc2C(=O)NCCCCCCNC(=O)c2ccc(-c3c4nc(c(-c5c(F)cc(S(=O)(=O)[O-])cc5F)c5ccc([nH]5)c(-c5c(F)cc(S(=O)(=O)[O-])cc5F)c5nc(c(-c6c(F)cc(S(=O)(=O)[O-])cc6F)c6ccc3[nH]6)C=C5)C=C4)cc2)c1
REMARK SMILES IDX 23 1 22 2 21 3 20 4 19 5 17 6 18 7 16 9 10 10 11 11 12 12
REMARK SMILES IDX 15 13 13 14 14 15 9 16 5 17 6 18 95 19 7 20 8 21 4 22 1 23
REMARK SMILES IDX 2 24 3 25 24 27 25 28 26 29 27 30 28 32 29 33 30 34 94 35
REMARK SMILES IDX 31 36 93 37 32 38 33 39 34 40 87 41 35 42 92 43 86 44 88 45
REMARK SMILES IDX 36 46 91 47 85 48 84 49 37 51 71 52 50 53 70 54 51 55 54 56
REMARK SMILES IDX 69 57 89 58 52 59 53 60 68 62 90 63 55 64 38 65 39 66 48 67
REMARK SMILES IDX 40 68 41 69 47 70 49 71 42 72 43 73 44 74 45 75 46 76 72 77
REMARK SMILES IDX 73 78 82 79 74 80 75 81 81 82 83 83 76 84 77 85 78 86 79 87
REMARK SMILES IDX 80 88 56 89 57 90 66 91 58 92 59 93 65 94 67 95 60 96 61 97
REMARK SMILES IDX 62 98 63 99 64 100
REMARK H PARENT 19 8 4 26 26 31 88 50 54 61
REMARK Flexibility Score: inf
ROOT
ATOM      1  C   UNL     1       1.064  -3.850   3.469  1.00  0.00     0.002 C 
ENDROOT
BRANCH   1   2
ATOM      2  C   UNL     1       2.348  -4.686   3.560  1.00  0.00     0.002 C 
BRANCH   2   3
ATOM      3  C   UNL     1       3.117  -5.021   2.276  1.00  0.00     0.021 C 
BRANCH   3   4
ATOM      4  C   UNL     1       3.469  -3.887   1.320  1.00  0.00     0.116 C 
BRANCH   4   5
ATOM      5  N   UNL     1       4.488  -2.964   1.747  1.00  0.00    -0.352 N 
ATOM      6  C   UNL     1       5.351  -2.159   1.041  1.00  0.00     0.251 C 
ATOM      7  O   UNL     1       6.002  -1.362   1.728  1.00  0.00    -0.269 OA
ATOM      8  H   UNL     1       4.585  -2.897   2.724  1.00  0.00     0.163 HD
BRANCH   6   9
ATOM      9  C   UNL     1       5.650  -2.189  -0.442  1.00  0.00     0.047 A 
ATOM     10  C   UNL     1       4.793  -2.402  -1.553  1.00  0.00    -0.003 A 
ATOM     11  C   UNL     1       5.339  -2.286  -2.862  1.00  0.00     0.048 A 
ATOM     12  C   UNL     1       6.670  -1.965  -3.080  1.00  0.00     0.123 A 
ATOM     13  C   UNL     1       7.009  -1.861  -0.716  1.00  0.00     0.017 A 
ATOM     14  F   UNL     1       7.132  -1.856  -4.332  1.00  0.00    -0.207 F 
ATOM     15  C   UNL     1       7.516  -1.749  -2.014  1.00  0.00     0.040 A 
BRANCH  10  16
ATOM     16  C   UNL     1       3.358  -2.719  -1.513  1.00  0.00    -0.015 A 
ATOM     17  C   UNL     1       1.073  -2.201  -0.849  1.00  0.00     0.041 A 
ATOM     18  C   UNL     1       0.661  -3.452  -1.328  1.00  0.00     0.026 A 
ATOM     19  C   UNL     1       2.418  -1.829  -0.970  1.00  0.00     0.034 A 
ATOM     20  C   UNL     1       1.568  -4.320  -1.929  1.00  0.00     0.003 A 
ATOM     21  C   UNL     1       2.906  -3.952  -2.026  1.00  0.00     0.009 A 
BRANCH  17  22
ATOM     22  N   UNL     1       0.128  -1.468  -0.112  1.00  0.00    -0.326 N 
ATOM     23  C   UNL     1       0.950   0.864  -0.359  1.00  0.00     0.114 C 
ATOM     24  C   UNL     1       0.119  -0.179   0.332  1.00  0.00     0.221 C 
ATOM     25  O   UNL     1      -0.620   0.121   1.271  1.00  0.00    -0.275 OA
ATOM     26  H   UNL     1      -0.678  -1.980   0.127  1.00  0.00     0.169 HD
ENDBRANCH  17  22
ENDBRANCH  10  16
ENDBRANCH   6   9
ENDBRANCH   4   5
ENDBRANCH   3   4
ENDBRANCH   2   3
ENDBRANCH   1   2
BRANCH   1  27
ATOM     27  C   UNL     1       0.041  -4.199   2.386  1.00  0.00     0.021 C 
BRANCH  27  28
ATOM     28  C   UNL     1      -0.482  -5.631   2.334  1.00  0.00     0.116 C 
BRANCH  28  29
ATOM     29  N   UNL     1      -1.335  -5.971   3.456  1.00  0.00    -0.352 N 
ATOM     30  C   UNL     1      -2.646  -6.385   3.497  1.00  0.00     0.251 C 
ATOM     31  H   UNL     1      -0.903  -5.892   4.337  1.00  0.00     0.163 HD
ATOM     32  O   UNL     1      -3.195  -6.495   4.592  1.00  0.00    -0.269 OA
BRANCH  30  33
ATOM     33  C   UNL     1      -3.422  -6.685   2.264  1.00  0.00     0.039 A 
ATOM     34  C   UNL     1      -4.771  -6.310   2.221  1.00  0.00     0.014 A 
ATOM     35  C   UNL     1      -2.879  -7.393   1.189  1.00  0.00     0.014 A 
ATOM     36  C   UNL     1      -5.555  -6.602   1.097  1.00  0.00     0.010 A 
ATOM     37  C   UNL     1      -3.644  -7.630   0.041  1.00  0.00     0.010 A 
ATOM     38  C   UNL     1      -4.994  -7.247  -0.015  1.00  0.00    -0.014 A 
BRANCH  38  39
ATOM     39  C   UNL     1      -5.807  -7.552  -1.227  1.00  0.00     0.031 A 
ATOM     40  C   UNL     1      -6.081  -8.982  -1.618  1.00  0.00     0.074 A 
ATOM     41  C   UNL     1      -6.261  -6.552  -2.008  1.00  0.00     0.049 A 
ATOM     42  N   UNL     1      -6.691  -9.450  -2.678  1.00  0.00    -0.248 NA
ATOM     43  C   UNL     1      -5.582 -10.025  -0.707  1.00  0.00     0.031 C 
ATOM     44  C   UNL     1      -6.055  -5.124  -1.760  1.00  0.00     0.029 A 
ATOM     45  N   UNL     1      -6.982  -6.583  -3.178  1.00  0.00    -0.354 N 
ATOM     46  C   UNL     1      -6.631 -10.835  -2.574  1.00  0.00     0.074 A 
ATOM     47  C   UNL     1      -5.891 -11.133  -1.366  1.00  0.00     0.031 C 
ATOM     48  C   UNL     1      -6.646  -4.417  -2.737  1.00  0.00     0.029 A 
ATOM     49  C   UNL     1      -7.242  -5.338  -3.702  1.00  0.00     0.049 A 
ATOM     50  H   UNL     1      -7.284  -7.419  -3.602  1.00  0.00     0.167 HD
ATOM     51  C   UNL     1      -7.158 -11.775  -3.397  1.00  0.00     0.037 A 
ATOM     52  C   UNL     1      -7.879  -4.976  -4.834  1.00  0.00     0.037 A 
ATOM     53  C   UNL     1      -7.927 -11.480  -4.579  1.00  0.00     0.049 A 
ATOM     54  C   UNL     1      -8.447  -6.036  -5.739  1.00  0.00     0.074 A 
ATOM     55  C   UNL     1      -8.555 -12.365  -5.439  1.00  0.00     0.029 A 
ATOM     56  N   UNL     1      -8.175 -10.206  -5.068  1.00  0.00    -0.354 N 
ATOM     57  N   UNL     1      -8.421  -7.340  -5.597  1.00  0.00    -0.248 NA
ATOM     58  C   UNL     1      -9.131  -5.578  -6.957  1.00  0.00     0.031 C 
ATOM     59  C   UNL     1      -9.149 -11.628  -6.470  1.00  0.00     0.029 A 
ATOM     60  C   UNL     1      -8.927 -10.282  -6.229  1.00  0.00     0.049 A 
ATOM     61  H   UNL     1      -7.862  -9.371  -4.651  1.00  0.00     0.167 HD
ATOM     62  C   UNL     1      -9.111  -7.854  -6.690  1.00  0.00     0.074 A 
ATOM     63  C   UNL     1      -9.545  -6.723  -7.483  1.00  0.00     0.031 C 
ATOM     64  C   UNL     1      -9.364  -9.149  -7.005  1.00  0.00     0.037 A 
BRANCH  51  65
ATOM     65  C   UNL     1      -6.915 -13.219  -3.052  1.00  0.00     0.058 A 
ATOM     66  C   UNL     1      -7.548 -13.834  -1.959  1.00  0.00     0.135 A 
ATOM     67  C   UNL     1      -6.062 -14.007  -3.841  1.00  0.00     0.135 A 
ATOM     68  F   UNL     1      -8.365 -13.124  -1.165  1.00  0.00    -0.206 F 
ATOM     69  C   UNL     1      -7.314 -15.167  -1.639  1.00  0.00     0.059 A 
ATOM     70  C   UNL     1      -5.834 -15.350  -3.556  1.00  0.00     0.059 A 
ATOM     71  F   UNL     1      -5.434 -13.471  -4.900  1.00  0.00    -0.206 F 
ATOM     72  C   UNL     1      -6.451 -15.916  -2.441  1.00  0.00     0.060 A 
BRANCH  72  73
ATOM     73  S   UNL     1      -6.142 -17.642  -2.008  1.00  0.00     0.124 S 
ATOM     74  O   UNL     1      -5.252 -17.495  -0.858  1.00  0.00    -0.237 OA
ATOM     75  O   UNL     1      -7.486 -18.134  -1.706  1.00  0.00    -0.237 OA
ATOM     76  O   UNL     1      -5.532 -18.191  -3.209  1.00  0.00    -0.744 OA
ENDBRANCH  72  73
ENDBRANCH  51  65
BRANCH  52  77
ATOM     77  C   UNL     1      -8.031  -3.535  -5.170  1.00  0.00     0.058 A 
ATOM     78  C   UNL     1      -9.282  -2.906  -5.085  1.00  0.00     0.135 A 
ATOM     79  C   UNL     1      -6.934  -2.758  -5.572  1.00  0.00     0.135 A 
ATOM     80  F   UNL     1     -10.363  -3.610  -4.715  1.00  0.00    -0.206 F 
ATOM     81  C   UNL     1      -9.444  -1.560  -5.397  1.00  0.00     0.059 A 
ATOM     82  C   UNL     1      -7.066  -1.405  -5.868  1.00  0.00     0.059 A 
ATOM     83  F   UNL     1      -5.714  -3.311  -5.657  1.00  0.00    -0.206 F 
ATOM     84  C   UNL     1      -8.328  -0.817  -5.786  1.00  0.00     0.060 A 
BRANCH  84  85
ATOM     85  S   UNL     1      -8.538   0.942  -6.139  1.00  0.00     0.124 S 
ATOM     86  O   UNL     1      -9.192   0.903  -7.442  1.00  0.00    -0.237 OA
ATOM     87  O   UNL     1      -9.365   1.384  -5.021  1.00  0.00    -0.237 OA
ATOM     88  O   UNL     1      -7.168   1.448  -6.135  1.00  0.00    -0.744 OA
ENDBRANCH  84  85
ENDBRANCH  52  77
BRANCH  64  89
ATOM     89  C   UNL     1     -10.178  -9.420  -8.239  1.00  0.00     0.058 A 
ATOM     90  C   UNL     1      -9.633  -9.288  -9.525  1.00  0.00     0.135 A 
ATOM     91  C   UNL     1     -11.500  -9.882  -8.131  1.00  0.00     0.135 A 
ATOM     92  F   UNL     1      -8.376  -8.842  -9.684  1.00  0.00    -0.206 F 
ATOM     93  C   UNL     1     -10.374  -9.593 -10.663  1.00  0.00     0.059 A 
ATOM     94  C   UNL     1     -12.252 -10.215  -9.254  1.00  0.00     0.059 A 
ATOM     95  F   UNL     1     -12.066 -10.034  -6.923  1.00  0.00    -0.206 F 
ATOM     96  C   UNL     1     -11.682 -10.059 -10.517  1.00  0.00     0.060 A 
BRANCH  96  97
ATOM     97  S   UNL     1     -12.616 -10.501 -11.998  1.00  0.00     0.124 S 
ATOM     98  O   UNL     1     -12.963  -9.187 -12.530  1.00  0.00    -0.237 OA
ATOM     99  O   UNL     1     -11.637 -11.259 -12.772  1.00  0.00    -0.237 OA
ATOM    100  O   UNL     1     -13.733 -11.282 -11.475  1.00  0.00    -0.744 OA
ENDBRANCH  96  97
ENDBRANCH  64  89
ENDBRANCH  38  39
ENDBRANCH  30  33
ENDBRANCH  28  29
ENDBRANCH  27  28
ENDBRANCH   1  27
TORSDOF 18
