REMARK SMILES C[C@@H](C(=O)NCCCCCCNC(=O)c1ccc(-c2c3nc(c(-c4c(F)cc(S(=O)(=O)[O-])cc4F)c4ccc([nH]4)c(-c4c(F)cc(S(=O)(=O)[O-])cc4F)c4nc(c(-c5c(F)cc(S(=O)(=O)[O-])cc5F)c5ccc2[nH]5)C=C4)C=C3)cc1)c1ccc(-c2ccc3[nH]ccc3c2)cc1
REMARK SMILES IDX 9 1 8 2 7 3 6 4 5 5 3 6 4 7 2 9 1 10 81 11 82 12 95 13 83 14
REMARK SMILES IDX 94 15 84 16 85 17 86 18 93 19 87 20 92 21 88 22 91 23 89 24
REMARK SMILES IDX 90 25 10 27 11 28 12 29 13 30 14 32 15 33 16 34 80 35 17 36
REMARK SMILES IDX 79 37 18 38 19 39 20 40 73 41 21 42 78 43 72 44 74 45 22 46
REMARK SMILES IDX 77 47 71 48 70 49 23 51 57 52 36 53 56 54 37 55 40 56 55 57
REMARK SMILES IDX 75 58 38 59 39 60 54 62 76 63 41 64 24 65 25 66 34 67 26 68
REMARK SMILES IDX 27 69 33 70 35 71 28 72 29 73 30 74 31 75 32 76 58 77 59 78
REMARK SMILES IDX 68 79 60 80 61 81 67 82 69 83 62 84 63 85 64 86 65 87 66 88
REMARK SMILES IDX 42 89 43 90 52 91 44 92 45 93 51 94 53 95 46 96 47 97 48 98
REMARK SMILES IDX 49 99 50 100
REMARK H PARENT 5 8 89 26 12 31 74 50 40 61
REMARK Flexibility Score: inf
ROOT
ATOM      1  C   UNL     1       6.033  -2.722  -1.809  1.00  0.00     0.002 C 
ENDROOT
BRANCH   1   2
ATOM      2  C   UNL     1       5.092  -2.713  -0.602  1.00  0.00     0.002 C 
BRANCH   2   3
ATOM      3  C   UNL     1       4.376  -1.379  -0.350  1.00  0.00     0.021 C 
BRANCH   3   4
ATOM      4  C   UNL     1       3.598  -0.850  -1.557  1.00  0.00     0.116 C 
BRANCH   4   5
ATOM      5  N   UNL     1       2.575  -1.792  -1.952  1.00  0.00    -0.356 N 
ATOM      6  C   UNL     1       1.228  -1.779  -1.754  1.00  0.00     0.227 C 
ATOM      7  O   UNL     1       0.630  -2.784  -2.144  1.00  0.00    -0.274 OA
ATOM      8  H   UNL     1       2.909  -2.575  -2.447  1.00  0.00     0.163 HD
BRANCH   6   9
ATOM      9  C   UNL     1       0.546  -0.535  -1.150  1.00  0.00     0.105 C 
ATOM     10  C   UNL     1       0.929  -0.253   0.305  1.00  0.00     0.023 C 
BRANCH   9  11
ATOM     11  C   UNL     1      -0.981  -0.530  -1.215  1.00  0.00    -0.036 A 
ATOM     12  C   UNL     1      -1.647   0.694  -1.378  1.00  0.00     0.005 A 
ATOM     13  C   UNL     1      -1.752  -1.683  -1.011  1.00  0.00     0.005 A 
ATOM     14  C   UNL     1      -3.042   0.753  -1.376  1.00  0.00     0.009 A 
ATOM     15  C   UNL     1      -3.145  -1.628  -1.035  1.00  0.00     0.009 A 
ATOM     16  C   UNL     1      -3.807  -0.410  -1.222  1.00  0.00    -0.018 A 
BRANCH  16  17
ATOM     17  C   UNL     1      -5.267  -0.360  -1.281  1.00  0.00    -0.018 A 
ATOM     18  C   UNL     1      -5.908  -0.069  -2.493  1.00  0.00     0.011 A 
ATOM     19  C   UNL     1      -6.040  -0.605  -0.131  1.00  0.00     0.019 A 
ATOM     20  C   UNL     1      -7.301  -0.044  -2.603  1.00  0.00     0.027 A 
ATOM     21  C   UNL     1      -7.445  -0.543  -0.207  1.00  0.00    -0.000 A 
ATOM     22  C   UNL     1      -8.040  -0.286  -1.442  1.00  0.00     0.045 A 
ATOM     23  C   UNL     1      -8.493  -0.666   0.745  1.00  0.00     0.028 A 
ATOM     24  N   UNL     1      -9.401  -0.327  -1.250  1.00  0.00    -0.361 N 
ATOM     25  C   UNL     1      -9.686  -0.507   0.077  1.00  0.00     0.083 A 
ATOM     26  H   UNL     1     -10.074  -0.239  -1.964  1.00  0.00     0.166 HD
ENDBRANCH  16  17
ENDBRANCH   9  11
ENDBRANCH   6   9
ENDBRANCH   4   5
ENDBRANCH   3   4
ENDBRANCH   2   3
ENDBRANCH   1   2
BRANCH   1  27
ATOM     27  C   UNL     1       7.085  -1.612  -1.804  1.00  0.00     0.021 C 
BRANCH  27  28
ATOM     28  C   UNL     1       7.995  -1.621  -0.583  1.00  0.00     0.116 C 
BRANCH  28  29
ATOM     29  N   UNL     1       8.809  -2.823  -0.524  1.00  0.00    -0.352 N 
ATOM     30  C   UNL     1      10.175  -2.933  -0.421  1.00  0.00     0.251 C 
ATOM     31  H   UNL     1       8.316  -3.674  -0.565  1.00  0.00     0.163 HD
ATOM     32  O   UNL     1      10.722  -4.014  -0.603  1.00  0.00    -0.269 OA
BRANCH  30  33
ATOM     33  C   UNL     1      10.975  -1.731  -0.105  1.00  0.00     0.039 A 
ATOM     34  C   UNL     1      12.142  -1.482  -0.830  1.00  0.00     0.014 A 
ATOM     35  C   UNL     1      10.566  -0.849   0.900  1.00  0.00     0.014 A 
ATOM     36  C   UNL     1      12.874  -0.319  -0.578  1.00  0.00     0.010 A 
ATOM     37  C   UNL     1      11.249   0.347   1.090  1.00  0.00     0.010 A 
ATOM     38  C   UNL     1      12.418   0.618   0.364  1.00  0.00    -0.014 A 
BRANCH  38  39
ATOM     39  C   UNL     1      13.160   1.879   0.619  1.00  0.00     0.031 A 
ATOM     40  C   UNL     1      13.750   2.143   1.978  1.00  0.00     0.074 A 
ATOM     41  C   UNL     1      13.252   2.809  -0.351  1.00  0.00     0.049 A 
ATOM     42  N   UNL     1      14.385   3.201   2.413  1.00  0.00    -0.248 NA
ATOM     43  C   UNL     1      13.576   1.090   2.991  1.00  0.00     0.031 C 
ATOM     44  C   UNL     1      12.684   2.688  -1.696  1.00  0.00     0.029 A 
ATOM     45  N   UNL     1      13.851   4.044  -0.355  1.00  0.00    -0.354 N 
ATOM     46  C   UNL     1      14.671   2.948   3.749  1.00  0.00     0.074 A 
ATOM     47  C   UNL     1      14.085   1.665   4.070  1.00  0.00     0.031 C 
ATOM     48  C   UNL     1      12.990   3.787  -2.403  1.00  0.00     0.029 A 
ATOM     49  C   UNL     1      13.737   4.710  -1.552  1.00  0.00     0.049 A 
ATOM     50  H   UNL     1      14.318   4.418   0.427  1.00  0.00     0.167 HD
ATOM     51  C   UNL     1      15.379   3.703   4.623  1.00  0.00     0.037 A 
ATOM     52  C   UNL     1      14.181   5.926  -1.922  1.00  0.00     0.037 A 
ATOM     53  C   UNL     1      15.972   4.972   4.289  1.00  0.00     0.049 A 
ATOM     54  C   UNL     1      14.953   6.756  -0.933  1.00  0.00     0.074 A 
ATOM     55  C   UNL     1      16.756   5.792   5.082  1.00  0.00     0.029 A 
ATOM     56  N   UNL     1      15.838   5.612   3.064  1.00  0.00    -0.354 N 
ATOM     57  N   UNL     1      15.272   6.475   0.308  1.00  0.00    -0.248 NA
ATOM     58  C   UNL     1      15.430   8.066  -1.395  1.00  0.00     0.031 C 
ATOM     59  C   UNL     1      17.047   6.952   4.357  1.00  0.00     0.029 A 
ATOM     60  C   UNL     1      16.501   6.828   3.089  1.00  0.00     0.049 A 
ATOM     61  H   UNL     1      15.344   5.253   2.291  1.00  0.00     0.167 HD
ATOM     62  C   UNL     1      16.017   7.557   0.765  1.00  0.00     0.074 A 
ATOM     63  C   UNL     1      16.104   8.495  -0.336  1.00  0.00     0.031 C 
ATOM     64  C   UNL     1      16.582   7.752   1.983  1.00  0.00     0.037 A 
BRANCH  51  65
ATOM     65  C   UNL     1      15.535   3.177   6.027  1.00  0.00     0.058 A 
ATOM     66  C   UNL     1      16.288   2.025   6.309  1.00  0.00     0.135 A 
ATOM     67  C   UNL     1      14.921   3.833   7.106  1.00  0.00     0.135 A 
ATOM     68  F   UNL     1      16.888   1.348   5.316  1.00  0.00    -0.206 F 
ATOM     69  C   UNL     1      16.382   1.513   7.599  1.00  0.00     0.059 A 
ATOM     70  C   UNL     1      15.031   3.360   8.410  1.00  0.00     0.059 A 
ATOM     71  F   UNL     1      14.192   4.942   6.899  1.00  0.00    -0.206 F 
ATOM     72  C   UNL     1      15.744   2.185   8.643  1.00  0.00     0.060 A 
BRANCH  72  73
ATOM     73  S   UNL     1      15.850   1.491  10.306  1.00  0.00     0.124 S 
ATOM     74  O   UNL     1      14.973   0.330  10.192  1.00  0.00    -0.237 OA
ATOM     75  O   UNL     1      17.274   1.199  10.433  1.00  0.00    -0.237 OA
ATOM     76  O   UNL     1      15.355   2.569  11.156  1.00  0.00    -0.744 OA
ENDBRANCH  72  73
ENDBRANCH  51  65
BRANCH  52  77
ATOM     77  C   UNL     1      13.940   6.408  -3.308  1.00  0.00     0.058 A 
ATOM     78  C   UNL     1      14.993   6.506  -4.229  1.00  0.00     0.135 A 
ATOM     79  C   UNL     1      12.651   6.741  -3.753  1.00  0.00     0.135 A 
ATOM     80  F   UNL     1      16.245   6.206  -3.850  1.00  0.00    -0.206 F 
ATOM     81  C   UNL     1      14.781   6.919  -5.540  1.00  0.00     0.059 A 
ATOM     82  C   UNL     1      12.408   7.132  -5.067  1.00  0.00     0.059 A 
ATOM     83  F   UNL     1      11.605   6.650  -2.916  1.00  0.00    -0.206 F 
ATOM     84  C   UNL     1      13.482   7.222  -5.952  1.00  0.00     0.060 A 
BRANCH  84  85
ATOM     85  S   UNL     1      13.208   7.684  -7.676  1.00  0.00     0.124 S 
ATOM     86  O   UNL     1      13.817   9.008  -7.726  1.00  0.00    -0.237 OA
ATOM     87  O   UNL     1      13.917   6.627  -8.391  1.00  0.00    -0.237 OA
ATOM     88  O   UNL     1      11.755   7.652  -7.806  1.00  0.00    -0.744 OA
ENDBRANCH  84  85
ENDBRANCH  52  77
BRANCH  64  89
ATOM     89  C   UNL     1      17.384   9.011   2.183  1.00  0.00     0.058 A 
ATOM     90  C   UNL     1      16.776  10.273   2.275  1.00  0.00     0.135 A 
ATOM     91  C   UNL     1      18.778   8.943   2.341  1.00  0.00     0.135 A 
ATOM     92  F   UNL     1      15.448  10.397   2.125  1.00  0.00    -0.206 F 
ATOM     93  C   UNL     1      17.525  11.426   2.490  1.00  0.00     0.059 A 
ATOM     94  C   UNL     1      19.543  10.078   2.589  1.00  0.00     0.059 A 
ATOM     95  F   UNL     1      19.410   7.760   2.273  1.00  0.00    -0.206 F 
ATOM     96  C   UNL     1      18.908  11.317   2.649  1.00  0.00     0.060 A 
BRANCH  96  97
ATOM     97  S   UNL     1      19.863  12.817   2.962  1.00  0.00     0.124 S 
ATOM     98  O   UNL     1      19.828  13.466   1.657  1.00  0.00    -0.237 OA
ATOM     99  O   UNL     1      19.088  13.466   4.015  1.00  0.00    -0.237 OA
ATOM    100  O   UNL     1      21.168  12.309   3.376  1.00  0.00    -0.744 OA
ENDBRANCH  96  97
ENDBRANCH  64  89
ENDBRANCH  38  39
ENDBRANCH  30  33
ENDBRANCH  28  29
ENDBRANCH  27  28
ENDBRANCH   1  27
TORSDOF 18
