REMARK SMILES Cc1ncccc1C(=O)NCCOCC(=O)NCCCCCCNC(=O)c1ccc(-c2c3nc(c(-c4c(F)cc(S(=O)(=O)[O-])cc4F)c4ccc([nH]4)c(-c4c(F)cc(S(=O)(=O)[O-])cc4F)c4nc(c(-c5c(F)cc(S(=O)(=O)[O-])cc5F)c5ccc2[nH]5)C=C4)C=C3)cc1
REMARK SMILES IDX 19 1 18 2 17 3 15 4 16 5 14 7 13 8 12 9 11 10 10 11 8 12
REMARK SMILES IDX 9 13 7 15 1 16 2 17 3 18 4 19 6 20 5 21 20 22 21 23 22 24
REMARK SMILES IDX 23 25 24 26 25 27 26 29 27 30 28 31 92 32 29 33 91 34 30 35
REMARK SMILES IDX 31 36 32 37 85 38 33 39 90 40 84 41 86 42 34 43 89 44 83 45
REMARK SMILES IDX 82 46 35 48 69 49 48 50 68 51 49 52 52 53 67 54 87 55 50 56
REMARK SMILES IDX 51 57 66 59 88 60 53 61 36 62 37 63 46 64 38 65 39 66 45 67
REMARK SMILES IDX 47 68 40 69 41 70 42 71 43 72 44 73 70 74 71 75 80 76 72 77
REMARK SMILES IDX 73 78 79 79 81 80 74 81 75 82 76 83 77 84 78 85 54 86 55 87
REMARK SMILES IDX 64 88 56 89 57 90 63 91 65 92 58 93 59 94 60 95 61 96 62 97
REMARK H PARENT 17 6 10 14 24 28 86 47 52 58
REMARK Flexibility Score: inf
ROOT
ATOM      1  C   UNL     1       5.519  -2.431   4.889  1.00  0.00     0.021 C 
ENDROOT
BRANCH   1   2
ATOM      2  C   UNL     1       5.452  -3.766   4.144  1.00  0.00     0.116 C 
BRANCH   2   3
ATOM      3  N   UNL     1       4.087  -4.173   3.875  1.00  0.00    -0.354 N 
ATOM      4  C   UNL     1       3.517  -4.458   2.667  1.00  0.00     0.245 C 
ATOM      5  O   UNL     1       2.335  -4.798   2.623  1.00  0.00    -0.272 OA
ATOM      6  H   UNL     1       3.498  -4.254   4.660  1.00  0.00     0.163 HD
BRANCH   4   7
ATOM      7  C   UNL     1       4.370  -4.319   1.396  1.00  0.00     0.260 C 
BRANCH   7   8
ATOM      8  O   UNL     1       4.932  -3.063   1.047  1.00  0.00    -0.370 OA
BRANCH   8   9
ATOM      9  C   UNL     1       4.194  -1.915   1.456  1.00  0.00     0.182 C 
BRANCH   9  10
ATOM     10  C   UNL     1       3.214  -1.389   0.414  1.00  0.00     0.144 C 
BRANCH  10  11
ATOM     11  N   UNL     1       2.195  -2.316  -0.028  1.00  0.00    -0.350 N 
ATOM     12  C   UNL     1       0.901  -2.125  -0.432  1.00  0.00     0.253 C 
ATOM     13  O   UNL     1       0.290  -3.099  -0.876  1.00  0.00    -0.269 OA
ATOM     14  H   UNL     1       2.485  -3.257  -0.039  1.00  0.00     0.163 HD
BRANCH  12  15
ATOM     15  C   UNL     1       0.163  -0.844  -0.293  1.00  0.00     0.061 A 
ATOM     16  C   UNL     1       1.895   0.751  -1.317  1.00  0.00     0.067 C 
ATOM     17  C   UNL     1       0.589   0.436  -0.659  1.00  0.00     0.050 A 
ATOM     18  N   UNL     1      -0.199   1.540  -0.489  1.00  0.00    -0.261 NA
ATOM     19  C   UNL     1      -1.458   1.368  -0.035  1.00  0.00     0.111 A 
ATOM     20  C   UNL     1      -1.167  -0.976   0.149  1.00  0.00     0.017 A 
ATOM     21  C   UNL     1      -1.992   0.136   0.272  1.00  0.00     0.021 A 
ENDBRANCH  12  15
ENDBRANCH  10  11
ENDBRANCH   9  10
ENDBRANCH   8   9
ENDBRANCH   7   8
ENDBRANCH   4   7
ENDBRANCH   2   3
ENDBRANCH   1   2
BRANCH   1  22
ATOM     22  C   UNL     1       4.839  -2.430   6.263  1.00  0.00     0.002 C 
BRANCH  22  23
ATOM     23  C   UNL     1       5.275  -3.559   7.201  1.00  0.00     0.002 C 
BRANCH  23  24
ATOM     24  C   UNL     1       6.786  -3.669   7.418  1.00  0.00     0.021 C 
BRANCH  24  25
ATOM     25  C   UNL     1       7.435  -2.416   7.992  1.00  0.00     0.116 C 
BRANCH  25  26
ATOM     26  N   UNL     1       6.941  -2.111   9.324  1.00  0.00    -0.352 N 
ATOM     27  C   UNL     1       7.646  -1.947  10.488  1.00  0.00     0.251 C 
ATOM     28  H   UNL     1       5.965  -2.009   9.402  1.00  0.00     0.163 HD
ATOM     29  O   UNL     1       7.053  -1.912  11.566  1.00  0.00    -0.269 OA
BRANCH  27  30
ATOM     30  C   UNL     1       9.118  -1.831  10.444  1.00  0.00     0.039 A 
ATOM     31  C   UNL     1       9.884  -2.549  11.365  1.00  0.00     0.014 A 
ATOM     32  C   UNL     1       9.742  -1.018   9.493  1.00  0.00     0.014 A 
ATOM     33  C   UNL     1      11.278  -2.493  11.296  1.00  0.00     0.010 A 
ATOM     34  C   UNL     1      11.128  -1.026   9.376  1.00  0.00     0.010 A 
ATOM     35  C   UNL     1      11.912  -1.757  10.280  1.00  0.00    -0.014 A 
BRANCH  35  36
ATOM     36  C   UNL     1      13.392  -1.742  10.150  1.00  0.00     0.031 A 
ATOM     37  C   UNL     1      14.152  -0.453  10.311  1.00  0.00     0.074 A 
ATOM     38  C   UNL     1      14.044  -2.877   9.830  1.00  0.00     0.049 A 
ATOM     39  N   UNL     1      15.433  -0.228  10.177  1.00  0.00    -0.248 NA
ATOM     40  C   UNL     1      13.365   0.747  10.642  1.00  0.00     0.031 C 
ATOM     41  C   UNL     1      13.412  -4.179   9.602  1.00  0.00     0.029 A 
ATOM     42  N   UNL     1      15.380  -3.119   9.630  1.00  0.00    -0.354 N 
ATOM     43  C   UNL     1      15.604   1.135  10.394  1.00  0.00     0.074 A 
ATOM     44  C   UNL     1      14.289   1.695  10.613  1.00  0.00     0.031 C 
ATOM     45  C   UNL     1      14.361  -5.086   9.319  1.00  0.00     0.029 A 
ATOM     46  C   UNL     1      15.662  -4.425   9.302  1.00  0.00     0.049 A 
ATOM     47  H   UNL     1      16.071  -2.424   9.715  1.00  0.00     0.167 HD
ATOM     48  C   UNL     1      16.755   1.848  10.432  1.00  0.00     0.037 A 
ATOM     49  C   UNL     1      16.835  -5.020   9.010  1.00  0.00     0.037 A 
ATOM     50  C   UNL     1      18.062   1.278  10.233  1.00  0.00     0.049 A 
ATOM     51  C   UNL     1      18.099  -4.203   9.046  1.00  0.00     0.074 A 
ATOM     52  C   UNL     1      19.294   1.904  10.306  1.00  0.00     0.029 A 
ATOM     53  N   UNL     1      18.309  -0.051   9.915  1.00  0.00    -0.354 N 
ATOM     54  N   UNL     1      18.250  -2.929   9.320  1.00  0.00    -0.248 NA
ATOM     55  C   UNL     1      19.354  -4.905   8.742  1.00  0.00     0.031 C 
ATOM     56  C   UNL     1      20.281   0.968   9.980  1.00  0.00     0.029 A 
ATOM     57  C   UNL     1      19.670  -0.257   9.764  1.00  0.00     0.049 A 
ATOM     58  H   UNL     1      17.618  -0.744   9.812  1.00  0.00     0.167 HD
ATOM     59  C   UNL     1      19.617  -2.683   9.250  1.00  0.00     0.074 A 
ATOM     60  C   UNL     1      20.250  -3.944   8.921  1.00  0.00     0.031 C 
ATOM     61  C   UNL     1      20.287  -1.520   9.442  1.00  0.00     0.037 A 
BRANCH  48  62
ATOM     62  C   UNL     1      16.654   3.326  10.701  1.00  0.00     0.058 A 
ATOM     63  C   UNL     1      16.264   3.825  11.955  1.00  0.00     0.135 A 
ATOM     64  C   UNL     1      16.990   4.258   9.705  1.00  0.00     0.135 A 
ATOM     65  F   UNL     1      15.917   2.982  12.940  1.00  0.00    -0.206 F 
ATOM     66  C   UNL     1      16.180   5.192  12.201  1.00  0.00     0.059 A 
ATOM     67  C   UNL     1      16.944   5.629   9.939  1.00  0.00     0.059 A 
ATOM     68  F   UNL     1      17.369   3.838   8.487  1.00  0.00    -0.206 F 
ATOM     69  C   UNL     1      16.524   6.086  11.187  1.00  0.00     0.060 A 
BRANCH  69  70
ATOM     70  S   UNL     1      16.416   7.856  11.527  1.00  0.00     0.124 S 
ATOM     71  O   UNL     1      14.970   8.055  11.574  1.00  0.00    -0.237 OA
ATOM     72  O   UNL     1      17.113   7.970  12.804  1.00  0.00    -0.237 OA
ATOM     73  O   UNL     1      17.095   8.464  10.387  1.00  0.00    -0.744 OA
ENDBRANCH  69  70
ENDBRANCH  48  62
BRANCH  49  74
ATOM     74  C   UNL     1      16.871  -6.470   8.675  1.00  0.00     0.058 A 
ATOM     75  C   UNL     1      17.456  -7.399   9.547  1.00  0.00     0.135 A 
ATOM     76  C   UNL     1      16.311  -6.956   7.483  1.00  0.00     0.135 A 
ATOM     77  F   UNL     1      18.010  -6.984  10.696  1.00  0.00    -0.206 F 
ATOM     78  C   UNL     1      17.503  -8.756   9.243  1.00  0.00     0.059 A 
ATOM     79  C   UNL     1      16.320  -8.311   7.169  1.00  0.00     0.059 A 
ATOM     80  F   UNL     1      15.723  -6.111   6.621  1.00  0.00    -0.206 F 
ATOM     81  C   UNL     1      16.929  -9.203   8.051  1.00  0.00     0.060 A 
BRANCH  81  82
ATOM     82  S   UNL     1      16.955 -10.972   7.688  1.00  0.00     0.124 S 
ATOM     83  O   UNL     1      18.363 -11.187   7.378  1.00  0.00    -0.237 OA
ATOM     84  O   UNL     1      16.481 -11.548   8.942  1.00  0.00    -0.237 OA
ATOM     85  O   UNL     1      16.034 -11.096   6.562  1.00  0.00    -0.744 OA
ENDBRANCH  81  82
ENDBRANCH  49  74
BRANCH  61  86
ATOM     86  C   UNL     1      21.788  -1.559   9.341  1.00  0.00     0.058 A 
ATOM     87  C   UNL     1      22.445  -1.721   8.112  1.00  0.00     0.135 A 
ATOM     88  C   UNL     1      22.580  -1.376  10.487  1.00  0.00     0.135 A 
ATOM     89  F   UNL     1      21.737  -1.907   6.986  1.00  0.00    -0.206 F 
ATOM     90  C   UNL     1      23.834  -1.726   8.024  1.00  0.00     0.059 A 
ATOM     91  C   UNL     1      23.969  -1.345  10.419  1.00  0.00     0.059 A 
ATOM     92  F   UNL     1      22.004  -1.205  11.688  1.00  0.00    -0.206 F 
ATOM     93  C   UNL     1      24.587  -1.533   9.184  1.00  0.00     0.060 A 
BRANCH  93  94
ATOM     94  S   UNL     1      26.387  -1.506   9.050  1.00  0.00     0.124 S 
ATOM     95  O   UNL     1      26.686  -2.913   8.808  1.00  0.00    -0.237 OA
ATOM     96  O   UNL     1      26.602  -0.608   7.920  1.00  0.00    -0.237 OA
ATOM     97  O   UNL     1      26.817  -0.988  10.346  1.00  0.00    -0.744 OA
ENDBRANCH  93  94
ENDBRANCH  61  86
ENDBRANCH  35  36
ENDBRANCH  27  30
ENDBRANCH  25  26
ENDBRANCH  24  25
ENDBRANCH  23  24
ENDBRANCH  22  23
ENDBRANCH   1  22
TORSDOF 21
