REMARK SMILES CC(=O)c1c(C)nn(CC(=O)N2CCC[C@H](c3cccc(C(=O)NCCCCCCNC(=O)c4ccc(-c5c6nc(c(-c7c(F)cc(S(=O)(=O)[O-])cc7F)c7ccc([nH]7)c(-c7c(F)cc(S(=O)(=O)[O-])cc7F)c7nc(c(-c8c(F)cc(S(=O)(=O)[O-])cc8F)c8ccc5[nH]8)C=C7)C=C6)cc4)c3)C2)c1C
REMARK SMILES IDX 26 1 25 2 24 3 22 4 23 5 21 7 17 8 18 9 100 10 19 11 20 12
REMARK SMILES IDX 16 13 12 14 13 15 101 16 14 17 15 18 10 19 11 20 9 21 8 22
REMARK SMILES IDX 4 23 5 24 102 25 6 26 7 27 103 28 2 29 1 30 3 31 27 32 28 33
REMARK SMILES IDX 29 34 30 35 31 36 32 37 33 39 34 40 35 41 99 42 36 43 98 44
REMARK SMILES IDX 37 45 38 46 39 47 92 48 40 49 97 50 91 51 93 52 41 53 96 54
REMARK SMILES IDX 90 55 89 56 42 58 76 59 55 60 75 61 56 62 59 63 74 64 94 65
REMARK SMILES IDX 57 66 58 67 73 69 95 70 60 71 43 72 44 73 53 74 45 75 46 76
REMARK SMILES IDX 52 77 54 78 47 79 48 80 49 81 50 82 51 83 77 84 78 85 87 86
REMARK SMILES IDX 79 87 80 88 86 89 88 90 81 91 82 92 83 93 84 94 85 95 61 96
REMARK SMILES IDX 62 97 71 98 63 99 64 100 70 101 72 102 65 103 66 104 67 105
REMARK SMILES IDX 68 106 69 107
REMARK H PARENT 24 6 31 38 93 57 59 68
REMARK Flexibility Score: inf
ROOT
ATOM      1  C   UNL     1      -0.889  -0.902 -10.243  1.00  0.00     0.021 C 
ENDROOT
BRANCH   1   2
ATOM      2  C   UNL     1       0.045   0.289 -10.105  1.00  0.00     0.116 C 
BRANCH   2   3
ATOM      3  N   UNL     1      -0.446   1.534 -10.675  1.00  0.00    -0.352 N 
ATOM      4  C   UNL     1      -0.286   2.835 -10.247  1.00  0.00     0.251 C 
ATOM      5  O   UNL     1      -0.782   3.745 -10.909  1.00  0.00    -0.269 OA
ATOM      6  H   UNL     1      -0.978   1.431 -11.497  1.00  0.00     0.163 HD
BRANCH   4   7
ATOM      7  C   UNL     1       0.414   3.152  -8.975  1.00  0.00     0.040 A 
ATOM      8  C   UNL     1       1.903   2.467  -7.165  1.00  0.00    -0.042 A 
ATOM      9  C   UNL     1       1.404   3.542  -6.424  1.00  0.00     0.004 A 
ATOM     10  C   UNL     1       1.467   2.369  -8.489  1.00  0.00     0.018 A 
ATOM     11  C   UNL     1       0.466   4.436  -6.944  1.00  0.00     0.001 A 
ATOM     12  C   UNL     1      -0.057   4.223  -8.211  1.00  0.00     0.014 A 
BRANCH   8  13
ATOM     13  C   UNL     1       2.744   1.334  -6.562  1.00  0.00     0.039 C 
ATOM     14  N   UNL     1       4.289   2.624  -5.095  1.00  0.00    -0.340 N 
ATOM     15  C   UNL     1       5.422   2.382  -6.005  1.00  0.00     0.119 C 
ATOM     16  C   UNL     1       3.272   1.570  -5.129  1.00  0.00     0.127 C 
ATOM     17  C   UNL     1       4.997   2.015  -7.429  1.00  0.00     0.022 C 
ATOM     18  C   UNL     1       3.943   0.914  -7.428  1.00  0.00     0.012 C 
BRANCH  14  19
ATOM     19  C   UNL     1       4.249   3.813  -4.382  1.00  0.00     0.244 C 
ATOM     20  O   UNL     1       5.024   4.729  -4.715  1.00  0.00    -0.273 OA
BRANCH  19  21
ATOM     21  C   UNL     1       3.427   4.092  -3.123  1.00  0.00     0.244 C 
BRANCH  21  22
ATOM     22  N   UNL     1       2.320   3.242  -2.720  1.00  0.00    -0.259 N 
ATOM     23  C   UNL     1       1.079   1.576  -2.005  1.00  0.00     0.061 A 
ATOM     24  C   UNL     1       0.338   2.494  -2.796  1.00  0.00     0.070 A 
ATOM     25  C   UNL     1       2.349   2.134  -1.901  1.00  0.00     0.047 A 
ATOM     26  C   UNL     1      -1.060   2.374  -3.292  1.00  0.00     0.069 C 
ATOM     27  N   UNL     1       1.074   3.565  -3.119  1.00  0.00    -0.177 NA
ATOM     28  C   UNL     1       3.595   1.672  -1.244  1.00  0.00     0.067 C 
BRANCH  23  29
ATOM     29  C   UNL     1       0.614   0.281  -1.525  1.00  0.00     0.163 C 
ATOM     30  C   UNL     1       0.791  -0.060  -0.070  1.00  0.00     0.093 C 
ATOM     31  O   UNL     1       0.134  -0.524  -2.320  1.00  0.00    -0.294 OA
ENDBRANCH  23  29
ENDBRANCH  21  22
ENDBRANCH  19  21
ENDBRANCH  14  19
ENDBRANCH   8  13
ENDBRANCH   4   7
ENDBRANCH   2   3
ENDBRANCH   1   2
BRANCH   1  32
ATOM     32  C   UNL     1      -1.293  -1.288 -11.661  1.00  0.00     0.002 C 
BRANCH  32  33
ATOM     33  C   UNL     1      -0.171  -1.436 -12.697  1.00  0.00     0.002 C 
BRANCH  33  34
ATOM     34  C   UNL     1       1.017  -2.344 -12.349  1.00  0.00     0.021 C 
BRANCH  34  35
ATOM     35  C   UNL     1       0.653  -3.772 -11.978  1.00  0.00     0.116 C 
BRANCH  35  36
ATOM     36  N   UNL     1      -0.015  -4.495 -13.057  1.00  0.00    -0.352 N 
ATOM     37  C   UNL     1      -0.556  -5.771 -13.036  1.00  0.00     0.251 C 
ATOM     38  H   UNL     1      -0.092  -4.013 -13.911  1.00  0.00     0.163 HD
ATOM     39  O   UNL     1      -0.740  -6.383 -14.074  1.00  0.00    -0.269 OA
BRANCH  37  40
ATOM     40  C   UNL     1      -0.898  -6.377 -11.733  1.00  0.00     0.039 A 
ATOM     41  C   UNL     1      -0.705  -7.739 -11.485  1.00  0.00     0.014 A 
ATOM     42  C   UNL     1      -1.404  -5.546 -10.739  1.00  0.00     0.014 A 
ATOM     43  C   UNL     1      -0.952  -8.230 -10.204  1.00  0.00     0.010 A 
ATOM     44  C   UNL     1      -1.459  -5.985  -9.444  1.00  0.00     0.010 A 
ATOM     45  C   UNL     1      -1.309  -7.339  -9.179  1.00  0.00    -0.014 A 
BRANCH  45  46
ATOM     46  C   UNL     1      -1.428  -7.785  -7.794  1.00  0.00     0.031 A 
ATOM     47  C   UNL     1      -0.207  -8.459  -7.282  1.00  0.00     0.074 A 
ATOM     48  C   UNL     1      -2.441  -7.409  -6.979  1.00  0.00     0.049 A 
ATOM     49  N   UNL     1      -0.032  -9.721  -7.067  1.00  0.00    -0.248 NA
ATOM     50  C   UNL     1       1.030  -7.666  -7.169  1.00  0.00     0.031 C 
ATOM     51  C   UNL     1      -3.511  -6.443  -7.276  1.00  0.00     0.029 A 
ATOM     52  N   UNL     1      -2.675  -7.711  -5.670  1.00  0.00    -0.354 N 
ATOM     53  C   UNL     1       1.237  -9.823  -6.502  1.00  0.00     0.074 A 
ATOM     54  C   UNL     1       1.921  -8.604  -6.834  1.00  0.00     0.031 C 
ATOM     55  C   UNL     1      -4.104  -6.051  -6.129  1.00  0.00     0.029 A 
ATOM     56  C   UNL     1      -3.608  -6.883  -5.050  1.00  0.00     0.049 A 
ATOM     57  H   UNL     1      -2.224  -8.451  -5.203  1.00  0.00     0.167 HD
ATOM     58  C   UNL     1       1.482 -10.738  -5.522  1.00  0.00     0.037 A 
ATOM     59  C   UNL     1      -3.967  -6.876  -3.743  1.00  0.00     0.037 A 
ATOM     60  C   UNL     1       0.381 -11.663  -5.414  1.00  0.00     0.049 A 
ATOM     61  C   UNL     1      -3.621  -8.205  -3.188  1.00  0.00     0.074 A 
ATOM     62  C   UNL     1      -0.108 -12.731  -6.131  1.00  0.00     0.029 A 
ATOM     63  N   UNL     1      -0.624 -11.221  -4.593  1.00  0.00    -0.354 N 
ATOM     64  N   UNL     1      -4.176  -9.318  -3.591  1.00  0.00    -0.248 NA
ATOM     65  C   UNL     1      -2.380  -8.365  -2.439  1.00  0.00     0.031 C 
ATOM     66  C   UNL     1      -1.499 -12.813  -5.822  1.00  0.00     0.029 A 
ATOM     67  C   UNL     1      -1.815 -11.826  -4.891  1.00  0.00     0.049 A 
ATOM     68  H   UNL     1      -0.504 -10.554  -3.879  1.00  0.00     0.167 HD
ATOM     69  C   UNL     1      -3.160 -10.252  -3.526  1.00  0.00     0.074 A 
ATOM     70  C   UNL     1      -2.150  -9.662  -2.658  1.00  0.00     0.031 C 
ATOM     71  C   UNL     1      -3.071 -11.258  -4.442  1.00  0.00     0.037 A 
BRANCH  58  72
ATOM     72  C   UNL     1       2.418 -10.537  -4.343  1.00  0.00     0.058 A 
ATOM     73  C   UNL     1       2.667 -11.623  -3.475  1.00  0.00     0.135 A 
ATOM     74  C   UNL     1       2.833  -9.276  -3.862  1.00  0.00     0.135 A 
ATOM     75  F   UNL     1       2.307 -12.870  -3.821  1.00  0.00    -0.206 F 
ATOM     76  C   UNL     1       3.224 -11.459  -2.204  1.00  0.00     0.059 A 
ATOM     77  C   UNL     1       3.438  -9.097  -2.622  1.00  0.00     0.059 A 
ATOM     78  F   UNL     1       2.587  -8.138  -4.519  1.00  0.00    -0.206 F 
ATOM     79  C   UNL     1       3.596 -10.187  -1.783  1.00  0.00     0.060 A 
BRANCH  79  80
ATOM     80  S   UNL     1       4.247  -9.951  -0.120  1.00  0.00     0.124 S 
ATOM     81  O   UNL     1       3.065 -10.206   0.696  1.00  0.00    -0.237 OA
ATOM     82  O   UNL     1       5.299 -10.960  -0.060  1.00  0.00    -0.237 OA
ATOM     83  O   UNL     1       4.715  -8.568  -0.137  1.00  0.00    -0.744 OA
ENDBRANCH  79  80
ENDBRANCH  58  72
BRANCH  59  84
ATOM     84  C   UNL     1      -4.363  -5.720  -2.899  1.00  0.00     0.058 A 
ATOM     85  C   UNL     1      -5.059  -5.891  -1.691  1.00  0.00     0.135 A 
ATOM     86  C   UNL     1      -3.819  -4.439  -3.128  1.00  0.00     0.135 A 
ATOM     87  F   UNL     1      -5.593  -7.083  -1.384  1.00  0.00    -0.206 F 
ATOM     88  C   UNL     1      -5.172  -4.866  -0.743  1.00  0.00     0.059 A 
ATOM     89  C   UNL     1      -3.918  -3.402  -2.200  1.00  0.00     0.059 A 
ATOM     90  F   UNL     1      -3.097  -4.190  -4.232  1.00  0.00    -0.206 F 
ATOM     91  C   UNL     1      -4.578  -3.629  -0.997  1.00  0.00     0.060 A 
BRANCH  91  92
ATOM     92  S   UNL     1      -4.586  -2.360   0.294  1.00  0.00     0.124 S 
ATOM     93  O   UNL     1      -6.003  -2.018   0.374  1.00  0.00    -0.237 OA
ATOM     94  O   UNL     1      -4.040  -3.080   1.439  1.00  0.00    -0.237 OA
ATOM     95  O   UNL     1      -3.723  -1.311  -0.245  1.00  0.00    -0.744 OA
ENDBRANCH  91  92
ENDBRANCH  59  84
BRANCH  71  96
ATOM     96  C   UNL     1      -4.331 -11.716  -5.113  1.00  0.00     0.058 A 
ATOM     97  C   UNL     1      -5.075 -10.973  -6.043  1.00  0.00     0.135 A 
ATOM     98  C   UNL     1      -4.747 -13.032  -4.857  1.00  0.00     0.135 A 
ATOM     99  F   UNL     1      -4.700  -9.736  -6.397  1.00  0.00    -0.206 F 
ATOM    100  C   UNL     1      -6.202 -11.511  -6.672  1.00  0.00     0.059 A 
ATOM    101  C   UNL     1      -5.845 -13.598  -5.493  1.00  0.00     0.059 A 
ATOM    102  F   UNL     1      -4.048 -13.805  -4.008  1.00  0.00    -0.206 F 
ATOM    103  C   UNL     1      -6.576 -12.827  -6.391  1.00  0.00     0.060 A 
BRANCH 103 104
ATOM    104  S   UNL     1      -7.990 -13.550  -7.251  1.00  0.00     0.124 S 
ATOM    105  O   UNL     1      -9.112 -12.837  -6.651  1.00  0.00    -0.237 OA
ATOM    106  O   UNL     1      -7.708 -13.232  -8.648  1.00  0.00    -0.237 OA
ATOM    107  O   UNL     1      -7.903 -14.970  -6.915  1.00  0.00    -0.744 OA
ENDBRANCH 103 104
ENDBRANCH  71  96
ENDBRANCH  45  46
ENDBRANCH  37  40
ENDBRANCH  35  36
ENDBRANCH  34  35
ENDBRANCH  33  34
ENDBRANCH  32  33
ENDBRANCH   1  32
TORSDOF 21
