REMARK SMILES [NH3+][C@@H](C(=O)NCCCCCCNC(=O)c1ccc(-c2c3nc(c(-c4c(F)cc(S(=O)(=O)[O-])cc4F)c4ccc([nH]4)c(-c4c(F)cc(S(=O)(=O)[O-])cc4F)c4nc(c(-c5c(F)cc(S(=O)(=O)[O-])cc5F)c5ccc2[nH]5)C=C4)C=C3)cc1)C(C(F)(F)F)C(F)(F)F
REMARK SMILES IDX 9 1 8 2 7 3 6 4 5 5 3 6 4 7 2 9 1 10 81 14 82 15 83 16 84 17
REMARK SMILES IDX 85 18 86 19 87 20 88 21 89 22 10 23 11 24 12 25 13 26 14 28
REMARK SMILES IDX 15 29 16 30 80 31 17 32 79 33 18 34 19 35 20 36 73 37 21 38
REMARK SMILES IDX 78 39 72 40 74 41 22 42 77 43 71 44 70 45 23 47 57 48 36 49
REMARK SMILES IDX 56 50 37 51 40 52 55 53 75 54 38 55 39 56 54 58 76 59 41 60
REMARK SMILES IDX 24 61 25 62 34 63 26 64 27 65 33 66 35 67 28 68 29 69 30 70
REMARK SMILES IDX 31 71 32 72 58 73 59 74 68 75 60 76 61 77 67 78 69 79 62 80
REMARK SMILES IDX 63 81 64 82 65 83 66 84 42 85 43 86 52 87 44 88 45 89 51 90
REMARK SMILES IDX 53 91 46 92 47 93 48 94 49 95 50 96
REMARK H PARENT 5 8 1 11 1 12 1 13 12 27 74 46 40 57
REMARK Flexibility Score: inf
ROOT
ATOM      1  C   UNL     1       6.030   1.665   2.651  1.00  0.00     0.002 C 
ENDROOT
BRANCH   1   2
ATOM      2  C   UNL     1       5.035   2.156   1.594  1.00  0.00     0.002 C 
BRANCH   2   3
ATOM      3  C   UNL     1       4.251   1.047   0.878  1.00  0.00     0.021 C 
BRANCH   3   4
ATOM      4  C   UNL     1       3.394   0.188   1.814  1.00  0.00     0.116 C 
BRANCH   4   5
ATOM      5  N   UNL     1       2.311   0.984   2.367  1.00  0.00    -0.351 N 
ATOM      6  C   UNL     1       1.007   1.044   1.977  1.00  0.00     0.279 C 
ATOM      7  O   UNL     1       0.345   2.040   2.268  1.00  0.00    -0.268 OA
ATOM      8  H   UNL     1       2.553   1.560   3.128  1.00  0.00     0.163 HD
BRANCH   6   9
ATOM      9  C   UNL     1       0.420  -0.094   1.115  1.00  0.00     0.292 C 
BRANCH   9  10
ATOM     10  N   UNL     1       0.783   0.195  -0.290  1.00  0.00    -0.346 N 
ATOM     11  H   UNL     1       1.798   0.257  -0.373  1.00  0.00     0.345 HD
ATOM     12  H   UNL     1       0.363   1.080  -0.574  1.00  0.00     0.345 HD
ATOM     13  H   UNL     1       0.438  -0.554  -0.891  1.00  0.00     0.345 HD
ENDBRANCH   9  10
BRANCH   9  14
ATOM     14  C   UNL     1      -1.104  -0.197   1.287  1.00  0.00     0.267 C 
BRANCH  14  15
ATOM     15  C   UNL     1      -1.677  -1.323   0.472  1.00  0.00     0.406 C 
ATOM     16  F   UNL     1      -1.121  -2.514   0.782  1.00  0.00    -0.170 F 
ATOM     17  F   UNL     1      -3.013  -1.442   0.651  1.00  0.00    -0.170 F 
ATOM     18  F   UNL     1      -1.509  -1.136  -0.856  1.00  0.00    -0.170 F 
ENDBRANCH  14  15
BRANCH  14  19
ATOM     19  C   UNL     1      -1.479  -0.524   2.709  1.00  0.00     0.406 C 
ATOM     20  F   UNL     1      -1.078   0.419   3.587  1.00  0.00    -0.170 F 
ATOM     21  F   UNL     1      -2.818  -0.623   2.868  1.00  0.00    -0.170 F 
ATOM     22  F   UNL     1      -0.931  -1.685   3.124  1.00  0.00    -0.170 F 
ENDBRANCH  14  19
ENDBRANCH   9  14
ENDBRANCH   6   9
ENDBRANCH   4   5
ENDBRANCH   3   4
ENDBRANCH   2   3
ENDBRANCH   1   2
BRANCH   1  23
ATOM     23  C   UNL     1       7.077   0.674   2.139  1.00  0.00     0.021 C 
BRANCH  23  24
ATOM     24  C   UNL     1       7.964   1.209   1.018  1.00  0.00     0.116 C 
BRANCH  24  25
ATOM     25  N   UNL     1       8.781   2.331   1.455  1.00  0.00    -0.352 N 
ATOM     26  C   UNL     1      10.148   2.468   1.453  1.00  0.00     0.251 C 
ATOM     27  H   UNL     1       8.282   3.105   1.803  1.00  0.00     0.163 HD
ATOM     28  O   UNL     1      10.671   3.405   2.053  1.00  0.00    -0.269 OA
BRANCH  26  29
ATOM     29  C   UNL     1      10.988   1.474   0.753  1.00  0.00     0.039 A 
ATOM     30  C   UNL     1      12.106   0.952   1.408  1.00  0.00     0.014 A 
ATOM     31  C   UNL     1      10.668   1.046  -0.539  1.00  0.00     0.014 A 
ATOM     32  C   UNL     1      12.851  -0.062   0.802  1.00  0.00     0.010 A 
ATOM     33  C   UNL     1      11.373  -0.010  -1.114  1.00  0.00     0.010 A 
ATOM     34  C   UNL     1      12.460  -0.587  -0.442  1.00  0.00    -0.014 A 
BRANCH  34  35
ATOM     35  C   UNL     1      13.134  -1.783  -1.015  1.00  0.00     0.031 A 
ATOM     36  C   UNL     1      13.875  -1.695  -2.321  1.00  0.00     0.074 A 
ATOM     37  C   UNL     1      13.006  -2.970  -0.387  1.00  0.00     0.049 A 
ATOM     38  N   UNL     1      14.455  -2.650  -3.002  1.00  0.00    -0.248 NA
ATOM     39  C   UNL     1      13.960  -0.370  -2.957  1.00  0.00     0.031 C 
ATOM     40  C   UNL     1      12.264  -3.192   0.858  1.00  0.00     0.029 A 
ATOM     41  N   UNL     1      13.475  -4.219  -0.714  1.00  0.00    -0.354 N 
ATOM     42  C   UNL     1      14.960  -2.049  -4.149  1.00  0.00     0.074 A 
ATOM     43  C   UNL     1      14.590  -0.651  -4.091  1.00  0.00     0.031 C 
ATOM     44  C   UNL     1      12.337  -4.490   1.192  1.00  0.00     0.029 A 
ATOM     45  C   UNL     1      13.088  -5.204   0.166  1.00  0.00     0.049 A 
ATOM     46  H   UNL     1      14.036  -4.393  -1.505  1.00  0.00     0.167 HD
ATOM     47  C   UNL     1      15.677  -2.612  -5.150  1.00  0.00     0.037 A 
ATOM     48  C   UNL     1      13.292  -6.536   0.138  1.00  0.00     0.037 A 
ATOM     49  C   UNL     1      16.067  -3.999  -5.185  1.00  0.00     0.049 A 
ATOM     50  C   UNL     1      14.084  -7.132  -0.996  1.00  0.00     0.074 A 
ATOM     51  C   UNL     1      16.875  -4.638  -6.110  1.00  0.00     0.029 A 
ATOM     52  N   UNL     1      15.672  -4.961  -4.269  1.00  0.00    -0.354 N 
ATOM     53  N   UNL     1      14.642  -6.527  -2.017  1.00  0.00    -0.248 NA
ATOM     54  C   UNL     1      14.274  -8.590  -0.983  1.00  0.00     0.031 C 
ATOM     55  C   UNL     1      16.914  -5.998  -5.791  1.00  0.00     0.029 A 
ATOM     56  C   UNL     1      16.181  -6.197  -4.633  1.00  0.00     0.049 A 
ATOM     57  H   UNL     1      15.112  -4.792  -3.477  1.00  0.00     0.167 HD
ATOM     58  C   UNL     1      15.263  -7.528  -2.757  1.00  0.00     0.074 A 
ATOM     59  C   UNL     1      15.036  -8.772  -2.052  1.00  0.00     0.031 C 
ATOM     60  C   UNL     1      15.951  -7.428  -3.920  1.00  0.00     0.037 A 
BRANCH  47  61
ATOM     61  C   UNL     1      16.102  -1.745  -6.303  1.00  0.00     0.058 A 
ATOM     62  C   UNL     1      17.126  -0.795  -6.174  1.00  0.00     0.135 A 
ATOM     63  C   UNL     1      15.559  -1.954  -7.583  1.00  0.00     0.135 A 
ATOM     64  F   UNL     1      17.669  -0.545  -4.972  1.00  0.00    -0.206 F 
ATOM     65  C   UNL     1      17.599  -0.083  -7.272  1.00  0.00     0.059 A 
ATOM     66  C   UNL     1      16.034  -1.271  -8.699  1.00  0.00     0.059 A 
ATOM     67  F   UNL     1      14.575  -2.849  -7.761  1.00  0.00    -0.206 F 
ATOM     68  C   UNL     1      17.055  -0.337  -8.532  1.00  0.00     0.060 A 
BRANCH  68  69
ATOM     69  S   UNL     1      17.728   0.549  -9.954  1.00  0.00     0.124 S 
ATOM     70  O   UNL     1      17.245   1.904  -9.709  1.00  0.00    -0.237 OA
ATOM     71  O   UNL     1      19.165   0.349  -9.792  1.00  0.00    -0.237 OA
ATOM     72  O   UNL     1      17.128  -0.133 -11.097  1.00  0.00    -0.744 OA
ENDBRANCH  68  69
ENDBRANCH  47  61
BRANCH  48  73
ATOM     73  C   UNL     1      12.716  -7.410   1.198  1.00  0.00     0.058 A 
ATOM     74  C   UNL     1      13.540  -8.111   2.091  1.00  0.00     0.135 A 
ATOM     75  C   UNL     1      11.328  -7.591   1.314  1.00  0.00     0.135 A 
ATOM     76  F   UNL     1      14.873  -7.977   2.019  1.00  0.00    -0.206 F 
ATOM     77  C   UNL     1      13.014  -8.991   3.032  1.00  0.00     0.059 A 
ATOM     78  C   UNL     1      10.777  -8.439   2.269  1.00  0.00     0.059 A 
ATOM     79  F   UNL     1      10.492  -6.930   0.498  1.00  0.00    -0.206 F 
ATOM     80  C   UNL     1      11.630  -9.151   3.109  1.00  0.00     0.060 A 
BRANCH  80  81
ATOM     81  S   UNL     1      10.955 -10.294   4.333  1.00  0.00     0.124 S 
ATOM     82  O   UNL     1      11.292 -11.585   3.745  1.00  0.00    -0.237 OA
ATOM     83  O   UNL     1      11.694  -9.927   5.537  1.00  0.00    -0.237 OA
ATOM     84  O   UNL     1       9.534  -9.960   4.354  1.00  0.00    -0.744 OA
ENDBRANCH  80  81
ENDBRANCH  48  73
BRANCH  60  85
ATOM     85  C   UNL     1      16.523  -8.693  -4.500  1.00  0.00     0.058 A 
ATOM     86  C   UNL     1      15.701  -9.673  -5.078  1.00  0.00     0.135 A 
ATOM     87  C   UNL     1      17.912  -8.902  -4.528  1.00  0.00     0.135 A 
ATOM     88  F   UNL     1      14.366  -9.526  -5.069  1.00  0.00    -0.206 F 
ATOM     89  C   UNL     1      16.233 -10.826  -5.645  1.00  0.00     0.059 A 
ATOM     90  C   UNL     1      18.468 -10.033  -5.118  1.00  0.00     0.059 A 
ATOM     91  F   UNL     1      18.744  -7.993  -3.997  1.00  0.00    -0.206 F 
ATOM     92  C   UNL     1      17.619 -10.994  -5.665  1.00  0.00     0.060 A 
BRANCH  92  93
ATOM     93  S   UNL     1      18.296 -12.476  -6.443  1.00  0.00     0.124 S 
ATOM     94  O   UNL     1      17.937 -13.507  -5.475  1.00  0.00    -0.237 OA
ATOM     95  O   UNL     1      17.575 -12.518  -7.711  1.00  0.00    -0.237 OA
ATOM     96  O   UNL     1      19.722 -12.183  -6.549  1.00  0.00    -0.744 OA
ENDBRANCH  92  93
ENDBRANCH  60  85
ENDBRANCH  34  35
ENDBRANCH  26  29
ENDBRANCH  24  25
ENDBRANCH  23  24
ENDBRANCH   1  23
TORSDOF 20
