REMARK SMILES COc1ccccc1-c1nnc(S[C@@H](C)C(=O)NCCCCCCNC(=O)c2ccc(-c3c4nc(c(-c5c(F)cc(S(=O)(=O)[O-])cc5F)c5ccc([nH]5)c(-c5c(F)cc(S(=O)(=O)[O-])cc5F)c5nc(c(-c6c(F)cc(S(=O)(=O)[O-])cc6F)c6ccc3[nH]6)C=C5)C=C4)cc2)n1-c1ccccc1
REMARK SMILES IDX 21 1 20 2 19 3 18 4 16 5 17 6 14 8 15 9 13 10 12 11 9 12
REMARK SMILES IDX 10 13 94 14 11 15 8 16 3 17 4 18 5 19 7 20 6 21 2 22 1 23
REMARK SMILES IDX 95 24 96 25 100 26 97 27 99 28 98 29 22 30 23 31 24 32 25 33
REMARK SMILES IDX 26 34 27 36 28 37 29 38 93 39 30 40 92 41 31 42 32 43 33 44
REMARK SMILES IDX 86 45 34 46 91 47 85 48 87 49 35 50 90 51 84 52 83 53 36 55
REMARK SMILES IDX 70 56 49 57 69 58 50 59 53 60 68 61 88 62 51 63 52 64 67 66
REMARK SMILES IDX 89 67 54 68 37 69 38 70 47 71 39 72 40 73 46 74 48 75 41 76
REMARK SMILES IDX 42 77 43 78 44 79 45 80 71 81 72 82 81 83 73 84 74 85 80 86
REMARK SMILES IDX 82 87 75 88 76 89 77 90 78 91 79 92 55 93 56 94 65 95 57 96
REMARK SMILES IDX 58 97 64 98 66 99 59 100 60 101 61 102 62 103 63 104
REMARK H PARENT 18 7 25 35 87 54 53 65
REMARK Flexibility Score: inf
ROOT
ATOM      1  C   UNL     1       6.113  -1.463  -3.781  1.00  0.00     0.002 C 
ENDROOT
BRANCH   1   2
ATOM      2  C   UNL     1       6.456  -1.314  -2.286  1.00  0.00     0.021 C 
BRANCH   2   3
ATOM      3  C   UNL     1       5.432  -1.794  -1.263  1.00  0.00     0.116 C 
BRANCH   3   4
ATOM      4  N   UNL     1       5.489  -3.175  -0.846  1.00  0.00    -0.355 N 
ATOM      5  C   UNL     1       4.890  -3.772   0.231  1.00  0.00     0.233 C 
ATOM      6  O   UNL     1       4.843  -5.011   0.165  1.00  0.00    -0.274 OA
ATOM      7  H   UNL     1       6.033  -3.768  -1.413  1.00  0.00     0.163 HD
BRANCH   5   8
ATOM      8  C   UNL     1       4.498  -3.062   1.543  1.00  0.00     0.141 C 
ATOM      9  C   UNL     1       3.681  -3.940   2.513  1.00  0.00     0.030 C 
BRANCH   8  10
ATOM     10  S   UNL     1       3.783  -1.424   1.658  1.00  0.00    -0.073 SA
BRANCH  10  11
ATOM     11  C   UNL     1       2.903  -0.936   0.265  1.00  0.00     0.196 A 
ATOM     12  C   UNL     1       1.647  -0.719  -1.520  1.00  0.00     0.173 A 
ATOM     13  N   UNL     1       2.252   0.432  -1.292  1.00  0.00    -0.129 NA
ATOM     14  N   UNL     1       2.068  -1.644  -0.578  1.00  0.00    -0.270 N 
ATOM     15  N   UNL     1       3.028   0.296  -0.181  1.00  0.00    -0.122 NA
BRANCH  12  16
ATOM     16  C   UNL     1       0.549  -0.875  -2.468  1.00  0.00     0.062 A 
ATOM     17  C   UNL     1      -0.776  -0.674  -2.067  1.00  0.00     0.129 A 
ATOM     18  C   UNL     1      -1.790  -0.615  -3.028  1.00  0.00     0.047 A 
ATOM     19  C   UNL     1      -1.492  -0.723  -4.388  1.00  0.00     0.004 A 
ATOM     20  C   UNL     1       0.810  -1.094  -3.832  1.00  0.00     0.016 A 
ATOM     21  C   UNL     1      -0.191  -0.981  -4.793  1.00  0.00     0.001 A 
BRANCH  17  22
ATOM     22  O   UNL     1      -1.181  -0.678  -0.755  1.00  0.00    -0.496 OA
ATOM     23  C   UNL     1      -0.753   0.457  -0.001  1.00  0.00     0.278 C 
ENDBRANCH  17  22
ENDBRANCH  12  16
BRANCH  14  24
ATOM     24  C   UNL     1       1.743  -3.005  -0.584  1.00  0.00     0.050 A 
ATOM     25  C   UNL     1       1.094  -3.564   0.511  1.00  0.00     0.027 A 
ATOM     26  C   UNL     1       2.093  -3.779  -1.697  1.00  0.00     0.027 A 
ATOM     27  C   UNL     1       0.850  -4.934   0.519  1.00  0.00     0.002 A 
ATOM     28  C   UNL     1       1.864  -5.149  -1.671  1.00  0.00     0.002 A 
ATOM     29  C   UNL     1       1.253  -5.727  -0.559  1.00  0.00     0.000 A 
ENDBRANCH  14  24
ENDBRANCH  10  11
ENDBRANCH   8  10
ENDBRANCH   5   8
ENDBRANCH   3   4
ENDBRANCH   2   3
ENDBRANCH   1   2
BRANCH   1  30
ATOM     30  C   UNL     1       4.664  -1.212  -4.234  1.00  0.00     0.002 C 
BRANCH  30  31
ATOM     31  C   UNL     1       4.066   0.133  -3.824  1.00  0.00     0.021 C 
BRANCH  31  32
ATOM     32  C   UNL     1       4.182   1.242  -4.839  1.00  0.00     0.116 C 
BRANCH  32  33
ATOM     33  N   UNL     1       3.481   1.111  -6.131  1.00  0.00    -0.352 N 
ATOM     34  C   UNL     1       3.272   2.115  -7.107  1.00  0.00     0.251 C 
ATOM     35  H   UNL     1       3.116   0.220  -6.339  1.00  0.00     0.163 HD
ATOM     36  O   UNL     1       2.518   1.943  -8.037  1.00  0.00    -0.269 OA
BRANCH  34  37
ATOM     37  C   UNL     1       4.014   3.404  -6.947  1.00  0.00     0.039 A 
ATOM     38  C   UNL     1       3.482   4.688  -7.103  1.00  0.00     0.014 A 
ATOM     39  C   UNL     1       5.246   3.280  -6.374  1.00  0.00     0.014 A 
ATOM     40  C   UNL     1       4.149   5.756  -6.473  1.00  0.00     0.010 A 
ATOM     41  C   UNL     1       5.421   4.120  -5.328  1.00  0.00     0.010 A 
ATOM     42  C   UNL     1       5.117   5.441  -5.511  1.00  0.00    -0.014 A 
BRANCH  42  43
ATOM     43  C   UNL     1       5.713   6.335  -4.517  1.00  0.00     0.031 A 
ATOM     44  C   UNL     1       4.703   7.178  -3.843  1.00  0.00     0.074 A 
ATOM     45  C   UNL     1       6.971   6.178  -4.014  1.00  0.00     0.049 A 
ATOM     46  N   UNL     1       4.365   8.388  -4.141  1.00  0.00    -0.248 NA
ATOM     47  C   UNL     1       3.785   6.529  -2.886  1.00  0.00     0.031 C 
ATOM     48  C   UNL     1       7.933   5.088  -4.287  1.00  0.00     0.029 A 
ATOM     49  N   UNL     1       7.638   6.896  -3.061  1.00  0.00    -0.354 N 
ATOM     50  C   UNL     1       3.462   8.748  -3.147  1.00  0.00     0.074 A 
ATOM     51  C   UNL     1       2.913   7.516  -2.653  1.00  0.00     0.031 C 
ATOM     52  C   UNL     1       8.919   5.084  -3.365  1.00  0.00     0.029 A 
ATOM     53  C   UNL     1       8.798   6.287  -2.570  1.00  0.00     0.049 A 
ATOM     54  H   UNL     1       7.326   7.775  -2.744  1.00  0.00     0.167 HD
ATOM     55  C   UNL     1       3.579   9.959  -2.531  1.00  0.00     0.037 A 
ATOM     56  C   UNL     1       9.638   6.754  -1.610  1.00  0.00     0.037 A 
ATOM     57  C   UNL     1       4.560  10.765  -3.219  1.00  0.00     0.049 A 
ATOM     58  C   UNL     1       9.424   8.219  -1.542  1.00  0.00     0.074 A 
ATOM     59  C   UNL     1       4.642  11.444  -4.415  1.00  0.00     0.029 A 
ATOM     60  N   UNL     1       5.842  10.546  -2.783  1.00  0.00    -0.354 N 
ATOM     61  N   UNL     1       9.683   9.028  -2.535  1.00  0.00    -0.248 NA
ATOM     62  C   UNL     1       8.547   8.756  -0.508  1.00  0.00     0.031 C 
ATOM     63  C   UNL     1       6.029  11.512  -4.743  1.00  0.00     0.029 A 
ATOM     64  C   UNL     1       6.768  10.935  -3.713  1.00  0.00     0.049 A 
ATOM     65  H   UNL     1       6.069  10.156  -1.908  1.00  0.00     0.167 HD
ATOM     66  C   UNL     1       8.682   9.977  -2.469  1.00  0.00     0.074 A 
ATOM     67  C   UNL     1       8.124   9.861  -1.127  1.00  0.00     0.031 C 
ATOM     68  C   UNL     1       8.151  10.517  -3.602  1.00  0.00     0.037 A 
BRANCH  55  69
ATOM     69  C   UNL     1       3.244  10.256  -1.081  1.00  0.00     0.058 A 
ATOM     70  C   UNL     1       3.264  11.599  -0.644  1.00  0.00     0.135 A 
ATOM     71  C   UNL     1       3.173   9.292  -0.051  1.00  0.00     0.135 A 
ATOM     72  F   UNL     1       3.346  12.604  -1.532  1.00  0.00    -0.206 F 
ATOM     73  C   UNL     1       3.260  11.952   0.707  1.00  0.00     0.059 A 
ATOM     74  C   UNL     1       3.116   9.623   1.299  1.00  0.00     0.059 A 
ATOM     75  F   UNL     1       3.250   7.978  -0.285  1.00  0.00    -0.206 F 
ATOM     76  C   UNL     1       3.190  10.953   1.672  1.00  0.00     0.060 A 
BRANCH  76  77
ATOM     77  S   UNL     1       3.227  11.396   3.417  1.00  0.00     0.124 S 
ATOM     78  O   UNL     1       4.594  11.880   3.568  1.00  0.00    -0.237 OA
ATOM     79  O   UNL     1       2.177  12.407   3.493  1.00  0.00    -0.237 OA
ATOM     80  O   UNL     1       2.923  10.137   4.090  1.00  0.00    -0.744 OA
ENDBRANCH  76  77
ENDBRANCH  55  69
BRANCH  56  81
ATOM     81  C   UNL     1      10.409   6.010  -0.575  1.00  0.00     0.058 A 
ATOM     82  C   UNL     1      11.425   6.636   0.173  1.00  0.00     0.135 A 
ATOM     83  C   UNL     1       9.953   4.772  -0.081  1.00  0.00     0.135 A 
ATOM     84  F   UNL     1      11.922   7.818  -0.223  1.00  0.00    -0.206 F 
ATOM     85  C   UNL     1      11.905   6.106   1.377  1.00  0.00     0.059 A 
ATOM     86  C   UNL     1      10.418   4.222   1.116  1.00  0.00     0.059 A 
ATOM     87  F   UNL     1       8.971   4.104  -0.706  1.00  0.00    -0.206 F 
ATOM     88  C   UNL     1      11.372   4.910   1.857  1.00  0.00     0.060 A 
BRANCH  88  89
ATOM     89  S   UNL     1      11.842   4.325   3.506  1.00  0.00     0.124 S 
ATOM     90  O   UNL     1      13.231   3.930   3.302  1.00  0.00    -0.237 OA
ATOM     91  O   UNL     1      11.631   5.512   4.327  1.00  0.00    -0.237 OA
ATOM     92  O   UNL     1      10.912   3.226   3.753  1.00  0.00    -0.744 OA
ENDBRANCH  88  89
ENDBRANCH  56  81
BRANCH  68  93
ATOM     93  C   UNL     1       9.009  10.589  -4.829  1.00  0.00     0.058 A 
ATOM     94  C   UNL     1       9.402   9.500  -5.625  1.00  0.00     0.135 A 
ATOM     95  C   UNL     1       9.357  11.873  -5.277  1.00  0.00     0.135 A 
ATOM     96  F   UNL     1       9.057   8.247  -5.297  1.00  0.00    -0.206 F 
ATOM     97  C   UNL     1      10.118   9.686  -6.811  1.00  0.00     0.059 A 
ATOM     98  C   UNL     1      10.043  12.083  -6.465  1.00  0.00     0.059 A 
ATOM     99  F   UNL     1       8.977  12.953  -4.574  1.00  0.00    -0.206 F 
ATOM    100  C   UNL     1      10.428  10.983  -7.226  1.00  0.00     0.060 A 
BRANCH 100 101
ATOM    101  S   UNL     1      11.281  11.238  -8.798  1.00  0.00     0.124 S 
ATOM    102  O   UNL     1      12.616  10.726  -8.509  1.00  0.00    -0.237 OA
ATOM    103  O   UNL     1      10.482  10.441  -9.724  1.00  0.00    -0.237 OA
ATOM    104  O   UNL     1      11.198  12.683  -9.002  1.00  0.00    -0.744 OA
ENDBRANCH 100 101
ENDBRANCH  68  93
ENDBRANCH  42  43
ENDBRANCH  34  37
ENDBRANCH  32  33
ENDBRANCH  31  32
ENDBRANCH  30  31
ENDBRANCH   1  30
TORSDOF 21
