REMARK SMILES NS(=O)(=O)c1ccc(-n2nc(C(=O)NCCCCCCNC(=O)c3ccc(-c4c5nc(c(-c6c(F)cc(S(=O)(=O)[O-])cc6F)c6ccc([nH]6)c(-c6c(F)cc(S(=O)(=O)[O-])cc6F)c6nc(c(-c7c(F)cc(S(=O)(=O)[O-])cc7F)c7ccc4[nH]7)C=C6)C=C5)cc3)c(Cl)c2-c2ccc(Cl)cc2)cc1
REMARK SMILES IDX 17 1 16 2 15 3 14 4 12 5 13 6 11 8 9 9 10 10 92 11 90 12
REMARK SMILES IDX 91 13 8 14 5 15 6 16 101 17 7 18 100 19 2 20 3 21 4 22 1 23
REMARK SMILES IDX 93 26 94 27 99 28 95 29 98 30 96 31 97 32 18 33 19 34 20 35
REMARK SMILES IDX 21 36 22 37 23 39 24 40 25 41 89 42 26 43 88 44 27 45 28 46
REMARK SMILES IDX 29 47 82 48 30 49 87 50 81 51 83 52 31 53 86 54 80 55 79 56
REMARK SMILES IDX 32 58 66 59 45 60 65 61 46 62 49 63 64 64 84 65 47 66 48 67
REMARK SMILES IDX 63 69 85 70 50 71 33 72 34 73 43 74 35 75 36 76 42 77 44 78
REMARK SMILES IDX 37 79 38 80 39 81 40 82 41 83 67 84 68 85 77 86 69 87 70 88
REMARK SMILES IDX 76 89 78 90 71 91 72 92 73 93 74 94 75 95 51 96 52 97 61 98
REMARK SMILES IDX 53 99 54 100 60 101 62 102 55 103 56 104 57 105 58 106
REMARK SMILES IDX 59 107
REMARK H PARENT 14 7 1 24 1 25 21 38 83 57 49 68
REMARK Flexibility Score: inf
ROOT
ATOM      1  C   UNL     1       5.340  -9.770  -9.485  1.00  0.00     0.002 C 
ENDROOT
BRANCH   1   2
ATOM      2  C   UNL     1       5.120  -8.781  -8.337  1.00  0.00     0.021 C 
BRANCH   2   3
ATOM      3  C   UNL     1       4.100  -7.667  -8.614  1.00  0.00     0.116 C 
BRANCH   3   4
ATOM      4  N   UNL     1       2.781  -8.021  -8.117  1.00  0.00    -0.351 N 
ATOM      5  C   UNL     1       2.010  -7.551  -7.072  1.00  0.00     0.273 C 
ATOM      6  O   UNL     1       0.862  -8.002  -7.020  1.00  0.00    -0.267 OA
ATOM      7  H   UNL     1       2.349  -8.742  -8.630  1.00  0.00     0.163 HD
BRANCH   5   8
ATOM      8  C   UNL     1       2.482  -6.513  -6.133  1.00  0.00     0.169 A 
ATOM      9  N   UNL     1       2.316  -4.827  -4.795  1.00  0.00    -0.231 N 
ATOM     10  N   UNL     1       1.586  -5.672  -5.563  1.00  0.00    -0.160 NA
ATOM     11  C   UNL     1       3.673  -5.000  -4.989  1.00  0.00     0.094 A 
ATOM     12  C   UNL     1       3.763  -6.238  -5.599  1.00  0.00     0.100 A 
ATOM     13  Cl  UNL     1       5.166  -7.195  -5.597  1.00  0.00    -0.079 Cl
BRANCH   9  14
ATOM     14  C   UNL     1       1.694  -4.010  -3.816  1.00  0.00     0.065 A 
ATOM     15  C   UNL     1       0.798  -2.594  -1.591  1.00  0.00     0.082 A 
ATOM     16  C   UNL     1       0.334  -3.895  -1.818  1.00  0.00     0.024 A 
ATOM     17  C   UNL     1       1.659  -1.977  -2.503  1.00  0.00     0.024 A 
ATOM     18  C   UNL     1       0.760  -4.597  -2.950  1.00  0.00     0.030 A 
ATOM     19  C   UNL     1       2.122  -2.693  -3.609  1.00  0.00     0.030 A 
BRANCH  15  20
ATOM     20  S   UNL     1       0.322  -1.786  -0.092  1.00  0.00     0.238 S 
ATOM     21  O   UNL     1       0.939  -2.483   1.021  1.00  0.00    -0.207 OA
ATOM     22  O   UNL     1      -1.083  -1.493  -0.148  1.00  0.00    -0.207 OA
BRANCH  20  23
ATOM     23  N   UNL     1       1.095  -0.290  -0.144  1.00  0.00    -0.225 NA
ATOM     24  H   UNL     1       0.866   0.240   0.697  1.00  0.00     0.137 HD
ATOM     25  H   UNL     1       0.782   0.225  -0.967  1.00  0.00     0.137 HD
ENDBRANCH  20  23
ENDBRANCH  15  20
ENDBRANCH   9  14
BRANCH  11  26
ATOM     26  C   UNL     1       4.768  -4.245  -4.393  1.00  0.00     0.002 A 
ATOM     27  C   UNL     1       5.562  -3.444  -5.226  1.00  0.00     0.012 A 
ATOM     28  C   UNL     1       5.143  -4.448  -3.061  1.00  0.00     0.012 A 
ATOM     29  C   UNL     1       6.738  -2.874  -4.738  1.00  0.00     0.021 A 
ATOM     30  C   UNL     1       6.321  -3.877  -2.574  1.00  0.00     0.021 A 
ATOM     31  C   UNL     1       7.118  -3.104  -3.417  1.00  0.00     0.041 A 
ATOM     32  Cl  UNL     1       8.599  -2.450  -2.838  1.00  0.00    -0.084 Cl
ENDBRANCH  11  26
ENDBRANCH   5   8
ENDBRANCH   3   4
ENDBRANCH   2   3
ENDBRANCH   1   2
BRANCH   1  33
ATOM     33  C   UNL     1       5.928  -9.179 -10.774  1.00  0.00     0.002 C 
BRANCH  33  34
ATOM     34  C   UNL     1       7.219  -8.357 -10.636  1.00  0.00     0.021 C 
BRANCH  34  35
ATOM     35  C   UNL     1       8.442  -9.165 -10.218  1.00  0.00     0.116 C 
BRANCH  35  36
ATOM     36  N   UNL     1       8.836 -10.139 -11.236  1.00  0.00    -0.352 N 
ATOM     37  C   UNL     1       9.787 -11.137 -11.159  1.00  0.00     0.251 C 
ATOM     38  H   UNL     1       8.357 -10.074 -12.094  1.00  0.00     0.163 HD
ATOM     39  O   UNL     1      10.241 -11.640 -12.182  1.00  0.00    -0.269 OA
BRANCH  37  40
ATOM     40  C   UNL     1      10.259 -11.577  -9.835  1.00  0.00     0.039 A 
ATOM     41  C   UNL     1      11.616 -11.819  -9.598  1.00  0.00     0.014 A 
ATOM     42  C   UNL     1       9.326 -11.714  -8.813  1.00  0.00     0.014 A 
ATOM     43  C   UNL     1      12.037 -12.111  -8.300  1.00  0.00     0.010 A 
ATOM     44  C   UNL     1       9.758 -11.861  -7.516  1.00  0.00     0.010 A 
ATOM     45  C   UNL     1      11.105 -12.109  -7.253  1.00  0.00    -0.014 A 
BRANCH  45  46
ATOM     46  C   UNL     1      11.537 -12.280  -5.864  1.00  0.00     0.031 A 
ATOM     47  C   UNL     1      12.565 -11.317  -5.366  1.00  0.00     0.074 A 
ATOM     48  C   UNL     1      10.870 -13.066  -4.990  1.00  0.00     0.049 A 
ATOM     49  N   UNL     1      13.747 -11.567  -4.901  1.00  0.00    -0.248 NA
ATOM     50  C   UNL     1      12.264  -9.880  -5.470  1.00  0.00     0.031 C 
ATOM     51  C   UNL     1       9.631 -13.823  -5.217  1.00  0.00     0.029 A 
ATOM     52  N   UNL     1      11.085 -13.240  -3.657  1.00  0.00    -0.354 N 
ATOM     53  C   UNL     1      14.261 -10.345  -4.462  1.00  0.00     0.074 A 
ATOM     54  C   UNL     1      13.380  -9.333  -4.986  1.00  0.00     0.031 C 
ATOM     55  C   UNL     1       9.079 -14.150  -4.030  1.00  0.00     0.029 A 
ATOM     56  C   UNL     1      10.011 -13.798  -2.977  1.00  0.00     0.049 A 
ATOM     57  H   UNL     1      11.929 -12.992  -3.214  1.00  0.00     0.167 HD
ATOM     58  C   UNL     1      15.248 -10.271  -3.523  1.00  0.00     0.037 A 
ATOM     59  C   UNL     1       9.873 -13.939  -1.638  1.00  0.00     0.037 A 
ATOM     60  C   UNL     1      15.905 -11.542  -3.351  1.00  0.00     0.049 A 
ATOM     61  C   UNL     1      11.231 -13.866  -1.046  1.00  0.00     0.074 A 
ATOM     62  C   UNL     1      16.604 -12.402  -4.175  1.00  0.00     0.029 A 
ATOM     63  N   UNL     1      15.597 -12.273  -2.230  1.00  0.00    -0.354 N 
ATOM     64  N   UNL     1      12.166 -14.754  -1.251  1.00  0.00    -0.248 NA
ATOM     65  C   UNL     1      11.694 -12.582  -0.544  1.00  0.00     0.031 C 
ATOM     66  C   UNL     1      16.253 -13.710  -3.728  1.00  0.00     0.029 A 
ATOM     67  C   UNL     1      15.400 -13.569  -2.632  1.00  0.00     0.049 A 
ATOM     68  H   UNL     1      15.530 -11.931  -1.309  1.00  0.00     0.167 HD
ATOM     69  C   UNL     1      13.343 -14.024  -1.312  1.00  0.00     0.074 A 
ATOM     70  C   UNL     1      13.006 -12.720  -0.749  1.00  0.00     0.031 C 
ATOM     71  C   UNL     1      14.402 -14.450  -2.064  1.00  0.00     0.037 A 
BRANCH  58  72
ATOM     72  C   UNL     1      15.398  -9.158  -2.502  1.00  0.00     0.058 A 
ATOM     73  C   UNL     1      16.540  -9.130  -1.671  1.00  0.00     0.135 A 
ATOM     74  C   UNL     1      14.344  -8.306  -2.104  1.00  0.00     0.135 A 
ATOM     75  F   UNL     1      17.610  -9.891  -1.952  1.00  0.00    -0.206 F 
ATOM     76  C   UNL     1      16.589  -8.396  -0.484  1.00  0.00     0.059 A 
ATOM     77  C   UNL     1      14.395  -7.522  -0.955  1.00  0.00     0.059 A 
ATOM     78  F   UNL     1      13.172  -8.268  -2.749  1.00  0.00    -0.206 F 
ATOM     79  C   UNL     1      15.497  -7.615  -0.123  1.00  0.00     0.060 A 
BRANCH  79  80
ATOM     80  S   UNL     1      15.485  -6.790   1.479  1.00  0.00     0.124 S 
ATOM     81  O   UNL     1      15.318  -7.922   2.383  1.00  0.00    -0.237 OA
ATOM     82  O   UNL     1      16.792  -6.141   1.500  1.00  0.00    -0.237 OA
ATOM     83  O   UNL     1      14.344  -5.885   1.380  1.00  0.00    -0.744 OA
ENDBRANCH  79  80
ENDBRANCH  58  72
BRANCH  59  84
ATOM     84  C   UNL     1       8.626 -13.862  -0.839  1.00  0.00     0.058 A 
ATOM     85  C   UNL     1       8.569 -14.353   0.475  1.00  0.00     0.135 A 
ATOM     86  C   UNL     1       7.538 -13.068  -1.258  1.00  0.00     0.135 A 
ATOM     87  F   UNL     1       9.573 -15.098   0.961  1.00  0.00    -0.206 F 
ATOM     88  C   UNL     1       7.514 -14.042   1.339  1.00  0.00     0.059 A 
ATOM     89  C   UNL     1       6.470 -12.755  -0.420  1.00  0.00     0.059 A 
ATOM     90  F   UNL     1       7.525 -12.496  -2.473  1.00  0.00    -0.206 F 
ATOM     91  C   UNL     1       6.478 -13.225   0.887  1.00  0.00     0.060 A 
BRANCH  91  92
ATOM     92  S   UNL     1       5.207 -12.678   2.052  1.00  0.00     0.124 S 
ATOM     93  O   UNL     1       4.473 -13.913   2.300  1.00  0.00    -0.237 OA
ATOM     94  O   UNL     1       6.006 -12.175   3.164  1.00  0.00    -0.237 OA
ATOM     95  O   UNL     1       4.478 -11.657   1.302  1.00  0.00    -0.744 OA
ENDBRANCH  91  92
ENDBRANCH  59  84
BRANCH  71  96
ATOM     96  C   UNL     1      14.403 -15.876  -2.555  1.00  0.00     0.058 A 
ATOM     97  C   UNL     1      13.473 -16.401  -3.469  1.00  0.00     0.135 A 
ATOM     98  C   UNL     1      15.486 -16.697  -2.205  1.00  0.00     0.135 A 
ATOM     99  F   UNL     1      12.468 -15.650  -3.939  1.00  0.00    -0.206 F 
ATOM    100  C   UNL     1      13.590 -17.694  -3.980  1.00  0.00     0.059 A 
ATOM    101  C   UNL     1      15.641 -17.979  -2.726  1.00  0.00     0.059 A 
ATOM    102  F   UNL     1      16.444 -16.233  -1.386  1.00  0.00    -0.206 F 
ATOM    103  C   UNL     1      14.681 -18.477  -3.605  1.00  0.00     0.060 A 
BRANCH 103 104
ATOM    104  S   UNL     1      14.880 -20.115  -4.338  1.00  0.00     0.124 S 
ATOM    105  O   UNL     1      13.841 -20.883  -3.661  1.00  0.00    -0.237 OA
ATOM    106  O   UNL     1      14.654 -19.859  -5.758  1.00  0.00    -0.237 OA
ATOM    107  O   UNL     1      16.252 -20.480  -3.993  1.00  0.00    -0.744 OA
ENDBRANCH 103 104
ENDBRANCH  71  96
ENDBRANCH  45  46
ENDBRANCH  37  40
ENDBRANCH  35  36
ENDBRANCH  34  35
ENDBRANCH  33  34
ENDBRANCH   1  33
TORSDOF 20
