REMARK SMILES CCOc1cc(C[NH+]2CCC3(CC2)[C@H](C(=O)NCCCCCCNC(=O)c2ccc(-c4c5nc(c(-c6c(F)cc(S(=O)(=O)[O-])cc6F)c6ccc([nH]6)c(-c6c(F)cc(S(=O)(=O)[O-])cc6F)c6nc(c(-c7c(F)cc(S(=O)(=O)[O-])cc7F)c7ccc4[nH]7)C=C6)C=C5)cc2)CC(=O)N3C)ccc1OC
REMARK SMILES IDX 20 1 19 2 18 3 17 4 15 5 16 6 14 8 8 9 9 10 13 11 10 13
REMARK SMILES IDX 12 14 11 15 96 16 93 17 94 18 97 19 95 20 7 21 6 22 4 23
REMARK SMILES IDX 5 24 100 25 99 26 98 27 3 28 2 29 1 30 101 31 102 32 21 33
REMARK SMILES IDX 22 34 23 35 24 36 25 37 26 39 27 40 28 41 92 42 29 43 91 44
REMARK SMILES IDX 30 45 31 46 32 47 85 48 33 49 90 50 84 51 86 52 34 53 89 54
REMARK SMILES IDX 83 55 82 56 35 58 69 59 48 60 68 61 49 62 52 63 67 64 87 65
REMARK SMILES IDX 50 66 51 67 66 69 88 70 53 71 36 72 37 73 46 74 38 75 39 76
REMARK SMILES IDX 45 77 47 78 40 79 41 80 42 81 43 82 44 83 70 84 71 85 80 86
REMARK SMILES IDX 72 87 73 88 79 89 81 90 74 91 75 92 76 93 77 94 78 95 54 96
REMARK SMILES IDX 55 97 64 98 56 99 57 100 63 101 65 102 58 103 59 104 60 105
REMARK SMILES IDX 61 106 62 107
REMARK H PARENT 17 7 8 12 24 38 86 57 52 68
REMARK Flexibility Score: inf
ROOT
ATOM      1  C   UNL     1       5.071  -0.117   6.849  1.00  0.00     0.002 C 
ENDROOT
BRANCH   1   2
ATOM      2  C   UNL     1       4.134  -1.314   6.693  1.00  0.00     0.021 C 
BRANCH   2   3
ATOM      3  C   UNL     1       2.732  -0.978   6.186  1.00  0.00     0.116 C 
BRANCH   3   4
ATOM      4  N   UNL     1       2.784  -0.381   4.877  1.00  0.00    -0.356 N 
ATOM      5  C   UNL     1       2.254  -0.700   3.684  1.00  0.00     0.226 C 
ATOM      6  O   UNL     1       2.449   0.151   2.810  1.00  0.00    -0.275 OA
ATOM      7  H   UNL     1       3.325   0.441   4.850  1.00  0.00     0.163 HD
BRANCH   5   8
ATOM      8  C   UNL     1       1.372  -1.912   3.375  1.00  0.00     0.114 C 
ATOM      9  N   UNL     1       3.549  -5.536   2.666  1.00  0.00    -0.331 N 
ATOM     10  C   UNL     1       3.957  -4.824   3.857  1.00  0.00     0.265 C 
ATOM     11  C   UNL     1       2.105  -5.673   2.580  1.00  0.00     0.265 C 
ATOM     12  H   UNL     1       3.862  -6.499   2.786  1.00  0.00     0.348 HD
ATOM     13  C   UNL     1       3.280  -3.473   4.029  1.00  0.00     0.091 C 
ATOM     14  C   UNL     1       1.277  -4.386   2.713  1.00  0.00     0.091 C 
ATOM     15  C   UNL     1       1.764  -3.371   3.783  1.00  0.00     0.065 C 
ATOM     16  N   UNL     1       0.929  -3.544   4.986  1.00  0.00    -0.339 N 
ATOM     17  C   UNL     1      -0.027  -1.672   3.927  1.00  0.00     0.116 C 
ATOM     18  C   UNL     1      -0.120  -2.629   5.077  1.00  0.00     0.223 C 
ATOM     19  C   UNL     1       0.968  -4.680   5.879  1.00  0.00     0.147 C 
ATOM     20  O   UNL     1      -0.996  -2.616   5.917  1.00  0.00    -0.275 OA
BRANCH   9  21
ATOM     21  C   UNL     1       4.324  -5.297   1.443  1.00  0.00     0.299 C 
BRANCH  21  22
ATOM     22  C   UNL     1       4.260  -3.907   0.844  1.00  0.00     0.010 A 
ATOM     23  C   UNL     1       2.916  -2.090  -0.057  1.00  0.00     0.161 A 
ATOM     24  C   UNL     1       3.105  -3.457   0.185  1.00  0.00     0.060 A 
ATOM     25  C   UNL     1       3.961  -1.186   0.168  1.00  0.00     0.160 A 
ATOM     26  C   UNL     1       5.179  -1.671   0.653  1.00  0.00     0.051 A 
ATOM     27  C   UNL     1       5.318  -3.008   1.028  1.00  0.00     0.013 A 
BRANCH  23  28
ATOM     28  O   UNL     1       1.656  -1.591  -0.192  1.00  0.00    -0.490 OA
BRANCH  28  29
ATOM     29  C   UNL     1       0.809  -2.058  -1.225  1.00  0.00     0.226 C 
ATOM     30  C   UNL     1      -0.181  -0.918  -1.438  1.00  0.00     0.049 C 
ENDBRANCH  28  29
ENDBRANCH  23  28
BRANCH  25  31
ATOM     31  O   UNL     1       3.957   0.172  -0.004  1.00  0.00    -0.493 OA
ATOM     32  C   UNL     1       2.716   0.853  -0.129  1.00  0.00     0.278 C 
ENDBRANCH  25  31
ENDBRANCH  21  22
ENDBRANCH   9  21
ENDBRANCH   5   8
ENDBRANCH   3   4
ENDBRANCH   2   3
ENDBRANCH   1   2
BRANCH   1  33
ATOM     33  C   UNL     1       4.513   1.036   7.677  1.00  0.00     0.002 C 
BRANCH  33  34
ATOM     34  C   UNL     1       3.906   0.627   9.018  1.00  0.00     0.021 C 
BRANCH  34  35
ATOM     35  C   UNL     1       4.782  -0.284   9.859  1.00  0.00     0.116 C 
BRANCH  35  36
ATOM     36  N   UNL     1       6.046   0.335  10.198  1.00  0.00    -0.352 N 
ATOM     37  C   UNL     1       6.646   0.381  11.428  1.00  0.00     0.251 C 
ATOM     38  H   UNL     1       6.529   0.773   9.460  1.00  0.00     0.163 HD
ATOM     39  O   UNL     1       7.622   1.097  11.621  1.00  0.00    -0.269 OA
BRANCH  37  40
ATOM     40  C   UNL     1       6.077  -0.434  12.519  1.00  0.00     0.039 A 
ATOM     41  C   UNL     1       5.833   0.171  13.750  1.00  0.00     0.014 A 
ATOM     42  C   UNL     1       5.760  -1.782  12.309  1.00  0.00     0.014 A 
ATOM     43  C   UNL     1       5.272  -0.582  14.779  1.00  0.00     0.010 A 
ATOM     44  C   UNL     1       5.116  -2.503  13.306  1.00  0.00     0.010 A 
ATOM     45  C   UNL     1       4.907  -1.923  14.565  1.00  0.00    -0.014 A 
BRANCH  45  46
ATOM     46  C   UNL     1       4.384  -2.744  15.683  1.00  0.00     0.031 A 
ATOM     47  C   UNL     1       5.187  -3.917  16.184  1.00  0.00     0.074 A 
ATOM     48  C   UNL     1       3.202  -2.432  16.247  1.00  0.00     0.049 A 
ATOM     49  N   UNL     1       4.929  -4.730  17.175  1.00  0.00    -0.248 NA
ATOM     50  C   UNL     1       6.429  -4.235  15.460  1.00  0.00     0.031 C 
ATOM     51  C   UNL     1       2.313  -1.353  15.808  1.00  0.00     0.029 A 
ATOM     52  N   UNL     1       2.549  -2.985  17.318  1.00  0.00    -0.354 N 
ATOM     53  C   UNL     1       5.969  -5.653  17.187  1.00  0.00     0.074 A 
ATOM     54  C   UNL     1       6.821  -5.347  16.061  1.00  0.00     0.031 C 
ATOM     55  C   UNL     1       1.252  -1.298  16.629  1.00  0.00     0.029 A 
ATOM     56  C   UNL     1       1.370  -2.352  17.632  1.00  0.00     0.049 A 
ATOM     57  H   UNL     1       2.892  -3.763  17.816  1.00  0.00     0.167 HD
ATOM     58  C   UNL     1       6.213  -6.644  18.077  1.00  0.00     0.037 A 
ATOM     59  C   UNL     1       0.492  -2.590  18.625  1.00  0.00     0.037 A 
ATOM     60  C   UNL     1       5.372  -6.923  19.211  1.00  0.00     0.049 A 
ATOM     61  C   UNL     1       0.793  -3.685  19.613  1.00  0.00     0.074 A 
ATOM     62  C   UNL     1       5.548  -7.871  20.202  1.00  0.00     0.029 A 
ATOM     63  N   UNL     1       4.194  -6.250  19.505  1.00  0.00    -0.354 N 
ATOM     64  N   UNL     1       1.816  -4.508  19.648  1.00  0.00    -0.248 NA
ATOM     65  C   UNL     1      -0.168  -3.871  20.707  1.00  0.00     0.031 C 
ATOM     66  C   UNL     1       4.453  -7.803  21.070  1.00  0.00     0.029 A 
ATOM     67  C   UNL     1       3.624  -6.772  20.654  1.00  0.00     0.049 A 
ATOM     68  H   UNL     1       3.819  -5.510  18.975  1.00  0.00     0.167 HD
ATOM     69  C   UNL     1       1.637  -5.288  20.786  1.00  0.00     0.074 A 
ATOM     70  C   UNL     1       0.418  -4.824  21.418  1.00  0.00     0.031 C 
ATOM     71  C   UNL     1       2.410  -6.294  21.268  1.00  0.00     0.037 A 
BRANCH  58  72
ATOM     72  C   UNL     1       7.438  -7.492  17.858  1.00  0.00     0.058 A 
ATOM     73  C   UNL     1       8.735  -6.972  18.011  1.00  0.00     0.135 A 
ATOM     74  C   UNL     1       7.316  -8.847  17.511  1.00  0.00     0.135 A 
ATOM     75  F   UNL     1       8.913  -5.678  18.322  1.00  0.00    -0.206 F 
ATOM     76  C   UNL     1       9.864  -7.755  17.796  1.00  0.00     0.059 A 
ATOM     77  C   UNL     1       8.432  -9.657  17.323  1.00  0.00     0.059 A 
ATOM     78  F   UNL     1       6.103  -9.397  17.347  1.00  0.00    -0.206 F 
ATOM     79  C   UNL     1       9.702  -9.098  17.452  1.00  0.00     0.060 A 
BRANCH  79  80
ATOM     80  S   UNL     1      11.178 -10.102  17.184  1.00  0.00     0.124 S 
ATOM     81  O   UNL     1      11.660  -9.576  15.910  1.00  0.00    -0.237 OA
ATOM     82  O   UNL     1      11.992  -9.778  18.351  1.00  0.00    -0.237 OA
ATOM     83  O   UNL     1      10.660 -11.466  17.143  1.00  0.00    -0.744 OA
ENDBRANCH  79  80
ENDBRANCH  58  72
BRANCH  59  84
ATOM     84  C   UNL     1      -0.730  -1.751  18.756  1.00  0.00     0.058 A 
ATOM     85  C   UNL     1      -0.883  -0.853  19.824  1.00  0.00     0.135 A 
ATOM     86  C   UNL     1      -1.767  -1.825  17.813  1.00  0.00     0.135 A 
ATOM     87  F   UNL     1       0.079  -0.746  20.753  1.00  0.00    -0.206 F 
ATOM     88  C   UNL     1      -2.029  -0.077  19.966  1.00  0.00     0.059 A 
ATOM     89  C   UNL     1      -2.909  -1.038  17.918  1.00  0.00     0.059 A 
ATOM     90  F   UNL     1      -1.662  -2.653  16.762  1.00  0.00    -0.206 F 
ATOM     91  C   UNL     1      -3.037  -0.176  19.006  1.00  0.00     0.060 A 
BRANCH  91  92
ATOM     92  S   UNL     1      -4.503   0.863  19.180  1.00  0.00     0.124 S 
ATOM     93  O   UNL     1      -5.182   0.229  20.303  1.00  0.00    -0.237 OA
ATOM     94  O   UNL     1      -3.919   2.175  19.443  1.00  0.00    -0.237 OA
ATOM     95  O   UNL     1      -5.165   0.729  17.885  1.00  0.00    -0.744 OA
ENDBRANCH  91  92
ENDBRANCH  59  84
BRANCH  71  96
ATOM     96  C   UNL     1       1.981  -6.928  22.563  1.00  0.00     0.058 A 
ATOM     97  C   UNL     1       0.835  -7.733  22.654  1.00  0.00     0.135 A 
ATOM     98  C   UNL     1       2.740  -6.736  23.730  1.00  0.00     0.135 A 
ATOM     99  F   UNL     1       0.073  -7.949  21.569  1.00  0.00    -0.206 F 
ATOM    100  C   UNL     1       0.427  -8.282  23.865  1.00  0.00     0.059 A 
ATOM    101  C   UNL     1       2.370  -7.304  24.944  1.00  0.00     0.059 A 
ATOM    102  F   UNL     1       3.856  -5.990  23.696  1.00  0.00    -0.206 F 
ATOM    103  C   UNL     1       1.199  -8.056  25.006  1.00  0.00     0.060 A 
BRANCH 103 104
ATOM    104  S   UNL     1       0.653  -8.763  26.574  1.00  0.00     0.124 S 
ATOM    105  O   UNL     1      -0.466  -7.891  26.915  1.00  0.00    -0.237 OA
ATOM    106  O   UNL     1       0.301 -10.128  26.197  1.00  0.00    -0.237 OA
ATOM    107  O   UNL     1       1.830  -8.640  27.430  1.00  0.00    -0.744 OA
ENDBRANCH 103 104
ENDBRANCH  71  96
ENDBRANCH  45  46
ENDBRANCH  37  40
ENDBRANCH  35  36
ENDBRANCH  34  35
ENDBRANCH  33  34
ENDBRANCH   1  33
TORSDOF 21
