REMARK SMILES C[NH2+][C@]1(C(=O)NCCCCCCNC(=O)c2ccc(-c3c4nc(c(-c5c(F)cc(S(=O)(=O)[O-])cc5F)c5ccc([nH]5)c(-c5c(F)cc(S(=O)(=O)[O-])cc5F)c5nc(c(-c6c(F)cc(S(=O)(=O)[O-])cc6F)c6ccc3[nH]6)C=C5)C=C4)cc2)CCC[C@@H]1CC[N@H+]1CCC[C@H]([NH+](C)C)C1
REMARK SMILES IDX 9 1 8 2 7 3 6 4 4 5 5 6 3 8 82 9 85 10 83 11 84 12 2 13 1 14
REMARK SMILES IDX 86 17 87 18 88 19 89 20 96 21 90 23 92 24 91 25 93 26 94 27
REMARK SMILES IDX 95 28 10 30 11 31 12 32 13 33 14 34 15 36 16 37 17 38 81 39
REMARK SMILES IDX 18 40 80 41 19 42 20 43 21 44 74 45 22 46 79 47 73 48 75 49
REMARK SMILES IDX 23 50 78 51 72 52 71 53 24 55 58 56 37 57 57 58 38 59 41 60
REMARK SMILES IDX 56 61 76 62 39 63 40 64 55 66 77 67 42 68 25 69 26 70 35 71
REMARK SMILES IDX 27 72 28 73 34 74 36 75 29 76 30 77 31 78 32 79 33 80 59 81
REMARK SMILES IDX 60 82 69 83 61 84 62 85 68 86 70 87 63 88 64 89 65 90 66 91
REMARK SMILES IDX 67 92 43 93 44 94 53 95 45 96 46 97 52 98 54 99 47 100
REMARK SMILES IDX 48 101 49 102 50 103 51 104
REMARK H PARENT 6 7 2 15 2 16 88 22 93 29 13 35 75 54 41 65
REMARK Flexibility Score: inf
ROOT
ATOM      1  C   UNL     1       2.562   0.975  -2.671  1.00  0.00     0.002 C 
ENDROOT
BRANCH   1   2
ATOM      2  C   UNL     1       1.054   0.822  -2.433  1.00  0.00     0.021 C 
BRANCH   2   3
ATOM      3  C   UNL     1       0.641  -0.604  -2.064  1.00  0.00     0.116 C 
BRANCH   3   4
ATOM      4  N   UNL     1       0.996  -0.883  -0.681  1.00  0.00    -0.351 N 
ATOM      5  C   UNL     1       0.271  -1.065   0.462  1.00  0.00     0.281 C 
ATOM      6  O   UNL     1       0.962  -1.214   1.478  1.00  0.00    -0.268 OA
ATOM      7  H   UNL     1       1.967  -0.957  -0.539  1.00  0.00     0.163 HD
BRANCH   5   8
ATOM      8  C   UNL     1      -1.298  -1.182   0.478  1.00  0.00     0.178 C 
ATOM      9  C   UNL     1      -1.957   0.041  -0.207  1.00  0.00     0.079 C 
ATOM     10  C   UNL     1      -1.794  -2.378  -0.401  1.00  0.00     0.066 C 
ATOM     11  C   UNL     1      -3.294  -0.452  -0.750  1.00  0.00     0.008 C 
ATOM     12  C   UNL     1      -3.208  -1.975  -0.847  1.00  0.00     0.011 C 
BRANCH   8  13
ATOM     13  N   UNL     1      -1.847  -1.095   1.865  1.00  0.00    -0.336 N 
ATOM     14  C   UNL     1      -1.538  -2.136   2.824  1.00  0.00     0.331 C 
ATOM     15  H   UNL     1      -1.512  -0.217   2.261  1.00  0.00     0.346 HD
ATOM     16  H   UNL     1      -2.854  -1.188   1.728  1.00  0.00     0.346 HD
ENDBRANCH   8  13
BRANCH  10  17
ATOM     17  C   UNL     1      -1.743  -3.772   0.257  1.00  0.00     0.072 C 
BRANCH  17  18
ATOM     18  C   UNL     1      -1.447  -4.970  -0.659  1.00  0.00     0.262 C 
BRANCH  18  19
ATOM     19  N   UNL     1      -0.137  -5.017  -1.323  1.00  0.00    -0.330 N 
ATOM     20  C   UNL     1       0.997  -4.471  -0.577  1.00  0.00     0.262 C 
ATOM     21  C   UNL     1       0.189  -6.407  -1.704  1.00  0.00     0.327 C 
ATOM     22  H   UNL     1      -0.257  -4.404  -2.130  1.00  0.00     0.348 HD
ATOM     23  C   UNL     1       2.225  -4.365  -1.482  1.00  0.00     0.068 C 
ATOM     24  C   UNL     1       1.393  -6.499  -2.682  1.00  0.00     0.239 C 
ATOM     25  C   UNL     1       2.594  -5.698  -2.127  1.00  0.00     0.077 C 
BRANCH  24  26
ATOM     26  N   UNL     1       1.100  -6.235  -4.114  1.00  0.00    -0.333 N 
ATOM     27  C   UNL     1       0.133  -7.197  -4.653  1.00  0.00     0.332 C 
ATOM     28  C   UNL     1       0.648  -4.878  -4.415  1.00  0.00     0.332 C 
ATOM     29  H   UNL     1       2.005  -6.346  -4.571  1.00  0.00     0.348 HD
ENDBRANCH  24  26
ENDBRANCH  18  19
ENDBRANCH  17  18
ENDBRANCH  10  17
ENDBRANCH   5   8
ENDBRANCH   3   4
ENDBRANCH   2   3
ENDBRANCH   1   2
BRANCH   1  30
ATOM     30  C   UNL     1       3.108   0.176  -3.861  1.00  0.00     0.002 C 
BRANCH  30  31
ATOM     31  C   UNL     1       2.411   0.449  -5.197  1.00  0.00     0.021 C 
BRANCH  31  32
ATOM     32  C   UNL     1       2.466   1.905  -5.650  1.00  0.00     0.116 C 
BRANCH  32  33
ATOM     33  N   UNL     1       3.830   2.339  -5.910  1.00  0.00    -0.352 N 
ATOM     34  C   UNL     1       4.361   2.892  -7.049  1.00  0.00     0.251 C 
ATOM     35  H   UNL     1       4.460   2.220  -5.163  1.00  0.00     0.163 HD
ATOM     36  O   UNL     1       5.577   2.994  -7.172  1.00  0.00    -0.269 OA
BRANCH  34  37
ATOM     37  C   UNL     1       3.460   3.348  -8.129  1.00  0.00     0.039 A 
ATOM     38  C   UNL     1       3.772   3.028  -9.453  1.00  0.00     0.014 A 
ATOM     39  C   UNL     1       2.314   4.092  -7.836  1.00  0.00     0.014 A 
ATOM     40  C   UNL     1       2.902   3.407 -10.477  1.00  0.00     0.010 A 
ATOM     41  C   UNL     1       1.411   4.402  -8.849  1.00  0.00     0.010 A 
ATOM     42  C   UNL     1       1.698   4.068 -10.181  1.00  0.00    -0.014 A 
BRANCH  42  43
ATOM     43  C   UNL     1       0.727   4.417 -11.251  1.00  0.00     0.031 A 
ATOM     44  C   UNL     1       0.400   5.858 -11.536  1.00  0.00     0.074 A 
ATOM     45  C   UNL     1       0.097   3.433 -11.924  1.00  0.00     0.049 A 
ATOM     46  N   UNL     1      -0.463   6.357 -12.383  1.00  0.00    -0.248 NA
ATOM     47  C   UNL     1       1.119   6.872 -10.747  1.00  0.00     0.031 C 
ATOM     48  C   UNL     1       0.296   1.998 -11.707  1.00  0.00     0.029 A 
ATOM     49  N   UNL     1      -0.845   3.488 -12.921  1.00  0.00    -0.354 N 
ATOM     50  C   UNL     1      -0.399   7.736 -12.223  1.00  0.00     0.074 A 
ATOM     51  C   UNL     1       0.546   7.993 -11.158  1.00  0.00     0.031 C 
ATOM     52  C   UNL     1      -0.479   1.312 -12.561  1.00  0.00     0.029 A 
ATOM     53  C   UNL     1      -1.262   2.252 -13.357  1.00  0.00     0.049 A 
ATOM     54  H   UNL     1      -1.190   4.334 -13.289  1.00  0.00     0.167 HD
ATOM     55  C   UNL     1      -1.049   8.701 -12.917  1.00  0.00     0.037 A 
ATOM     56  C   UNL     1      -2.177   1.914 -14.286  1.00  0.00     0.037 A 
ATOM     57  C   UNL     1      -1.974   8.436 -13.989  1.00  0.00     0.049 A 
ATOM     58  C   UNL     1      -2.898   3.004 -15.033  1.00  0.00     0.074 A 
ATOM     59  C   UNL     1      -2.645   9.344 -14.789  1.00  0.00     0.029 A 
ATOM     60  N   UNL     1      -2.362   7.171 -14.409  1.00  0.00    -0.354 N 
ATOM     61  N   UNL     1      -2.779   4.305 -14.911  1.00  0.00    -0.248 NA
ATOM     62  C   UNL     1      -3.873   2.582 -16.047  1.00  0.00     0.031 C 
ATOM     63  C   UNL     1      -3.477   8.630 -15.658  1.00  0.00     0.029 A 
ATOM     64  C   UNL     1      -3.281   7.275 -15.440  1.00  0.00     0.049 A 
ATOM     65  H   UNL     1      -2.032   6.324 -14.029  1.00  0.00     0.167 HD
ATOM     66  C   UNL     1      -3.640   4.856 -15.854  1.00  0.00     0.074 A 
ATOM     67  C   UNL     1      -4.264   3.746 -16.546  1.00  0.00     0.031 C 
ATOM     68  C   UNL     1      -3.889   6.161 -16.125  1.00  0.00     0.037 A 
BRANCH  55  69
ATOM     69  C   UNL     1      -0.783  10.134 -12.540  1.00  0.00     0.058 A 
ATOM     70  C   UNL     1       0.456  10.746 -12.792  1.00  0.00     0.135 A 
ATOM     71  C   UNL     1      -1.792  10.919 -11.959  1.00  0.00     0.135 A 
ATOM     72  F   UNL     1       1.462  10.040 -13.333  1.00  0.00    -0.206 F 
ATOM     73  C   UNL     1       0.694  12.074 -12.454  1.00  0.00     0.059 A 
ATOM     74  C   UNL     1      -1.586  12.259 -11.640  1.00  0.00     0.059 A 
ATOM     75  F   UNL     1      -2.996  10.387 -11.695  1.00  0.00    -0.206 F 
ATOM     76  C   UNL     1      -0.334  12.823 -11.879  1.00  0.00     0.060 A 
BRANCH  76  77
ATOM     77  S   UNL     1      -0.009  14.547 -11.455  1.00  0.00     0.124 S 
ATOM     78  O   UNL     1       0.879  14.402 -10.306  1.00  0.00    -0.237 OA
ATOM     79  O   UNL     1       0.611  15.056 -12.674  1.00  0.00    -0.237 OA
ATOM     80  O   UNL     1      -1.334  15.081 -11.159  1.00  0.00    -0.744 OA
ENDBRANCH  76  77
ENDBRANCH  55  69
BRANCH  56  81
ATOM     81  C   UNL     1      -2.450   0.480 -14.575  1.00  0.00     0.058 A 
ATOM     82  C   UNL     1      -2.071  -0.095 -15.797  1.00  0.00     0.135 A 
ATOM     83  C   UNL     1      -3.085  -0.346 -13.634  1.00  0.00     0.135 A 
ATOM     84  F   UNL     1      -1.467   0.654 -16.732  1.00  0.00    -0.206 F 
ATOM     85  C   UNL     1      -2.328  -1.431 -16.086  1.00  0.00     0.059 A 
ATOM     86  C   UNL     1      -3.327  -1.693 -13.888  1.00  0.00     0.059 A 
ATOM     87  F   UNL     1      -3.452   0.149 -12.442  1.00  0.00    -0.206 F 
ATOM     88  C   UNL     1      -2.955  -2.224 -15.123  1.00  0.00     0.060 A 
BRANCH  88  89
ATOM     89  S   UNL     1      -3.246  -3.967 -15.491  1.00  0.00     0.124 S 
ATOM     90  O   UNL     1      -4.319  -3.885 -16.475  1.00  0.00    -0.237 OA
ATOM     91  O   UNL     1      -1.945  -4.393 -15.998  1.00  0.00    -0.237 OA
ATOM     92  O   UNL     1      -3.619  -4.527 -14.195  1.00  0.00    -0.744 OA
ENDBRANCH  88  89
ENDBRANCH  56  81
BRANCH  68  93
ATOM     93  C   UNL     1      -4.850   6.468 -17.241  1.00  0.00     0.058 A 
ATOM     94  C   UNL     1      -6.230   6.245 -17.114  1.00  0.00     0.135 A 
ATOM     95  C   UNL     1      -4.388   7.044 -18.436  1.00  0.00     0.135 A 
ATOM     96  F   UNL     1      -6.725   5.690 -15.996  1.00  0.00    -0.206 F 
ATOM     97  C   UNL     1      -7.115   6.559 -18.140  1.00  0.00     0.059 A 
ATOM     98  C   UNL     1      -5.258   7.396 -19.463  1.00  0.00     0.059 A 
ATOM     99  F   UNL     1      -3.079   7.289 -18.607  1.00  0.00    -0.206 F 
ATOM    100  C   UNL     1      -6.619   7.138 -19.311  1.00  0.00     0.060 A 
BRANCH 100 101
ATOM    101  S   UNL     1      -7.783   7.574 -20.620  1.00  0.00     0.124 S 
ATOM    102  O   UNL     1      -8.140   6.260 -21.145  1.00  0.00    -0.237 OA
ATOM    103  O   UNL     1      -8.834   8.269 -19.884  1.00  0.00    -0.237 OA
ATOM    104  O   UNL     1      -6.991   8.413 -21.514  1.00  0.00    -0.744 OA
ENDBRANCH 100 101
ENDBRANCH  68  93
ENDBRANCH  42  43
ENDBRANCH  34  37
ENDBRANCH  32  33
ENDBRANCH  31  32
ENDBRANCH  30  31
ENDBRANCH   1  30
TORSDOF 21
