REMARK SMILES C[C@@H](C(=O)NCCCCCCNC(=O)c1ccc(-c2c3nc(c(-c4c(F)cc(S(=O)(=O)[O-])cc4F)c4ccc([nH]4)c(-c4c(F)cc(S(=O)(=O)[O-])cc4F)c4nc(c(-c5c(F)cc(S(=O)(=O)[O-])cc5F)c5ccc2[nH]5)C=C4)C=C3)cc1)[C@H](C)[S@@](=O)c1ccc(F)cc1
REMARK SMILES IDX 8 1 7 2 6 3 5 4 3 5 4 6 2 8 1 9 81 10 82 11 83 12 84 13
REMARK SMILES IDX 85 14 86 15 91 16 87 17 90 18 88 19 89 20 9 21 10 22 11 23
REMARK SMILES IDX 12 24 13 25 14 27 15 28 16 29 80 30 17 31 79 32 18 33 19 34
REMARK SMILES IDX 20 35 73 36 21 37 78 38 72 39 74 40 22 41 77 42 71 43 70 44
REMARK SMILES IDX 23 46 57 47 36 48 56 49 37 50 40 51 55 52 75 53 38 54 39 55
REMARK SMILES IDX 54 57 76 58 41 59 24 60 25 61 34 62 26 63 27 64 33 65 35 66
REMARK SMILES IDX 28 67 29 68 30 69 31 70 32 71 58 72 59 73 68 74 60 75 61 76
REMARK SMILES IDX 67 77 69 78 62 79 63 80 64 81 65 82 66 83 42 84 43 85 52 86
REMARK SMILES IDX 44 87 45 88 51 89 53 90 46 91 47 92 48 93 49 94 50 95
REMARK H PARENT 5 7 12 26 74 45 40 56
REMARK Flexibility Score: inf
ROOT
ATOM      1  C   UNL     1      -2.299   6.199   1.126  1.00  0.00     0.002 C 
ENDROOT
BRANCH   1   2
ATOM      2  C   UNL     1      -1.583   4.927   1.593  1.00  0.00     0.021 C 
BRANCH   2   3
ATOM      3  C   UNL     1      -2.387   3.630   1.493  1.00  0.00     0.116 C 
BRANCH   3   4
ATOM      4  N   UNL     1      -2.830   3.328   0.148  1.00  0.00    -0.356 N 
ATOM      5  C   UNL     1      -2.566   2.256  -0.646  1.00  0.00     0.224 C 
ATOM      6  O   UNL     1      -3.478   1.937  -1.409  1.00  0.00    -0.275 OA
ATOM      7  H   UNL     1      -3.417   4.008  -0.256  1.00  0.00     0.163 HD
BRANCH   5   8
ATOM      8  C   UNL     1      -1.271   1.439  -0.537  1.00  0.00     0.091 C 
ATOM      9  C   UNL     1      -0.007   2.248  -0.227  1.00  0.00     0.019 C 
BRANCH   8  10
ATOM     10  C   UNL     1      -1.076   0.409  -1.696  1.00  0.00     0.093 C 
ATOM     11  C   UNL     1       0.276  -0.322  -1.624  1.00  0.00     0.023 C 
BRANCH  10  12
ATOM     12  S   UNL     1      -1.299   0.884  -3.456  1.00  0.00     0.057 S 
ATOM     13  O   UNL     1      -2.740   0.772  -3.845  1.00  0.00    -0.254 OA
BRANCH  12  14
ATOM     14  C   UNL     1      -0.848   2.611  -3.544  1.00  0.00     0.039 A 
ATOM     15  C   UNL     1       0.497   2.959  -3.729  1.00  0.00     0.021 A 
ATOM     16  C   UNL     1      -1.824   3.617  -3.564  1.00  0.00     0.021 A 
ATOM     17  C   UNL     1       0.861   4.297  -3.893  1.00  0.00     0.040 A 
ATOM     18  C   UNL     1      -1.460   4.955  -3.716  1.00  0.00     0.040 A 
ATOM     19  C   UNL     1      -0.120   5.283  -3.880  1.00  0.00     0.123 A 
ATOM     20  F   UNL     1       0.232   6.564  -4.047  1.00  0.00    -0.207 F 
ENDBRANCH  12  14
ENDBRANCH  10  12
ENDBRANCH   8  10
ENDBRANCH   5   8
ENDBRANCH   3   4
ENDBRANCH   2   3
ENDBRANCH   1   2
BRANCH   1  21
ATOM     21  C   UNL     1      -3.655   6.493   1.771  1.00  0.00     0.002 C 
BRANCH  21  22
ATOM     22  C   UNL     1      -3.691   6.473   3.301  1.00  0.00     0.021 C 
BRANCH  22  23
ATOM     23  C   UNL     1      -2.723   7.425   3.996  1.00  0.00     0.116 C 
BRANCH  23  24
ATOM     24  N   UNL     1      -3.032   8.821   3.744  1.00  0.00    -0.352 N 
ATOM     25  C   UNL     1      -3.096   9.867   4.629  1.00  0.00     0.251 C 
ATOM     26  H   UNL     1      -3.223   9.049   2.806  1.00  0.00     0.163 HD
ATOM     27  O   UNL     1      -3.530  10.957   4.247  1.00  0.00    -0.269 OA
BRANCH  25  28
ATOM     28  C   UNL     1      -2.670   9.698   6.037  1.00  0.00     0.039 A 
ATOM     29  C   UNL     1      -3.439  10.282   7.048  1.00  0.00     0.014 A 
ATOM     30  C   UNL     1      -1.498   9.009   6.367  1.00  0.00     0.014 A 
ATOM     31  C   UNL     1      -3.055  10.149   8.385  1.00  0.00     0.010 A 
ATOM     32  C   UNL     1      -1.149   8.823   7.705  1.00  0.00     0.010 A 
ATOM     33  C   UNL     1      -1.913   9.408   8.727  1.00  0.00    -0.014 A 
BRANCH  33  34
ATOM     34  C   UNL     1      -1.480   9.278  10.143  1.00  0.00     0.031 A 
ATOM     35  C   UNL     1      -0.191   9.912  10.596  1.00  0.00     0.074 A 
ATOM     36  C   UNL     1      -2.219   8.559  11.010  1.00  0.00     0.049 A 
ATOM     37  N   UNL     1       0.374   9.885  11.776  1.00  0.00    -0.248 NA
ATOM     38  C   UNL     1       0.577  10.653   9.582  1.00  0.00     0.031 C 
ATOM     39  C   UNL     1      -3.462   7.856  10.683  1.00  0.00     0.029 A 
ATOM     40  N   UNL     1      -2.031   8.298  12.344  1.00  0.00    -0.354 N 
ATOM     41  C   UNL     1       1.571  10.580  11.640  1.00  0.00     0.074 A 
ATOM     42  C   UNL     1       1.671  10.980  10.254  1.00  0.00     0.031 C 
ATOM     43  C   UNL     1      -3.937   7.266  11.793  1.00  0.00     0.029 A 
ATOM     44  C   UNL     1      -3.024   7.527  12.902  1.00  0.00     0.049 A 
ATOM     45  H   UNL     1      -1.258   8.631  12.854  1.00  0.00     0.167 HD
ATOM     46  C   UNL     1       2.492  10.878  12.588  1.00  0.00     0.037 A 
ATOM     47  C   UNL     1      -3.183   7.089  14.165  1.00  0.00     0.037 A 
ATOM     48  C   UNL     1       2.367  10.520  13.976  1.00  0.00     0.049 A 
ATOM     49  C   UNL     1      -2.171   7.472  15.211  1.00  0.00     0.074 A 
ATOM     50  C   UNL     1       3.212  10.832  15.027  1.00  0.00     0.029 A 
ATOM     51  N   UNL     1       1.325   9.776  14.509  1.00  0.00    -0.354 N 
ATOM     52  N   UNL     1      -1.075   8.181  15.076  1.00  0.00    -0.248 NA
ATOM     53  C   UNL     1      -2.424   7.008  16.582  1.00  0.00     0.031 C 
ATOM     54  C   UNL     1       2.694  10.255  16.192  1.00  0.00     0.029 A 
ATOM     55  C   UNL     1       1.508   9.612  15.872  1.00  0.00     0.049 A 
ATOM     56  H   UNL     1       0.566   9.417  13.995  1.00  0.00     0.167 HD
ATOM     57  C   UNL     1      -0.526   8.276  16.350  1.00  0.00     0.074 A 
ATOM     58  C   UNL     1      -1.412   7.555  17.242  1.00  0.00     0.031 C 
ATOM     59  C   UNL     1       0.607   8.906  16.747  1.00  0.00     0.037 A 
BRANCH  46  60
ATOM     60  C   UNL     1       3.716  11.634  12.151  1.00  0.00     0.058 A 
ATOM     61  C   UNL     1       3.656  12.990  11.790  1.00  0.00     0.135 A 
ATOM     62  C   UNL     1       4.968  11.001  12.107  1.00  0.00     0.135 A 
ATOM     63  F   UNL     1       2.481  13.640  11.799  1.00  0.00    -0.206 F 
ATOM     64  C   UNL     1       4.786  13.681  11.365  1.00  0.00     0.059 A 
ATOM     65  C   UNL     1       6.117  11.680  11.710  1.00  0.00     0.059 A 
ATOM     66  F   UNL     1       5.083   9.706  12.443  1.00  0.00    -0.206 F 
ATOM     67  C   UNL     1       6.012  13.015  11.323  1.00  0.00     0.060 A 
BRANCH  67  68
ATOM     68  S   UNL     1       7.470  13.918  10.759  1.00  0.00     0.124 S 
ATOM     69  O   UNL     1       7.259  13.933   9.315  1.00  0.00    -0.237 OA
ATOM     70  O   UNL     1       7.325  15.204  11.433  1.00  0.00    -0.237 OA
ATOM     71  O   UNL     1       8.580  13.093  11.223  1.00  0.00    -0.744 OA
ENDBRANCH  67  68
ENDBRANCH  46  60
BRANCH  47  72
ATOM     72  C   UNL     1      -4.377   6.281  14.525  1.00  0.00     0.058 A 
ATOM     73  C   UNL     1      -5.417   6.837  15.285  1.00  0.00     0.135 A 
ATOM     74  C   UNL     1      -4.510   4.948  14.111  1.00  0.00     0.135 A 
ATOM     75  F   UNL     1      -5.332   8.108  15.708  1.00  0.00    -0.206 F 
ATOM     76  C   UNL     1      -6.541   6.097  15.636  1.00  0.00     0.059 A 
ATOM     77  C   UNL     1      -5.633   4.192  14.432  1.00  0.00     0.059 A 
ATOM     78  F   UNL     1      -3.550   4.376  13.368  1.00  0.00    -0.206 F 
ATOM     79  C   UNL     1      -6.640   4.773  15.204  1.00  0.00     0.060 A 
BRANCH  79  80
ATOM     80  S   UNL     1      -8.124   3.833  15.621  1.00  0.00     0.124 S 
ATOM     81  O   UNL     1      -7.885   3.516  17.024  1.00  0.00    -0.237 OA
ATOM     82  O   UNL     1      -9.186   4.798  15.355  1.00  0.00    -0.237 OA
ATOM     83  O   UNL     1      -8.072   2.702  14.700  1.00  0.00    -0.744 OA
ENDBRANCH  79  80
ENDBRANCH  47  72
BRANCH  59  84
ATOM     84  C   UNL     1       0.930   8.884  18.214  1.00  0.00     0.058 A 
ATOM     85  C   UNL     1       1.423   7.731  18.844  1.00  0.00     0.135 A 
ATOM     86  C   UNL     1       0.777  10.044  18.989  1.00  0.00     0.135 A 
ATOM     87  F   UNL     1       1.582   6.595  18.146  1.00  0.00    -0.206 F 
ATOM     88  C   UNL     1       1.730   7.722  20.201  1.00  0.00     0.059 A 
ATOM     89  C   UNL     1       1.099  10.064  20.342  1.00  0.00     0.059 A 
ATOM     90  F   UNL     1       0.319  11.176  18.431  1.00  0.00    -0.206 F 
ATOM     91  C   UNL     1       1.562   8.893  20.942  1.00  0.00     0.060 A 
BRANCH  91  92
ATOM     92  S   UNL     1       1.984   8.880  22.698  1.00  0.00     0.124 S 
ATOM     93  O   UNL     1       0.822   8.212  23.273  1.00  0.00    -0.237 OA
ATOM     94  O   UNL     1       3.228   8.116  22.718  1.00  0.00    -0.237 OA
ATOM     95  O   UNL     1       2.123  10.296  23.023  1.00  0.00    -0.744 OA
ENDBRANCH  91  92
ENDBRANCH  59  84
ENDBRANCH  33  34
ENDBRANCH  25  28
ENDBRANCH  23  24
ENDBRANCH  22  23
ENDBRANCH  21  22
ENDBRANCH   1  21
TORSDOF 19
