REMARK SMILES Cc1oc2cc3c(cc2c1C)[C@H](C)[C@@H](CC(=O)N[C@H](CC1=c2ccccc2=NC1)C(=O)NCCCCCCNC(=O)c1ccc(-c2c4nc(c(-c5c(F)cc(S(=O)(=O)[O-])cc5F)c5ccc([nH]5)c(-c5c(F)cc(S(=O)(=O)[O-])cc5F)c5nc(c(-c6c(F)cc(S(=O)(=O)[O-])cc6F)c6ccc2[nH]6)C=C5)C=C4)cc1)C(=O)O3
REMARK SMILES IDX 35 1 34 2 33 3 32 4 30 5 31 6 19 8 18 9 16 10 17 11 15 13
REMARK SMILES IDX 14 14 1 15 2 16 3 17 10 18 4 19 9 20 11 21 5 22 8 23 6 24
REMARK SMILES IDX 7 25 110 26 12 27 108 28 13 29 109 30 20 31 21 32 22 33
REMARK SMILES IDX 29 34 23 35 27 36 28 37 24 38 26 39 25 40 36 41 37 42 38 43
REMARK SMILES IDX 39 44 40 45 41 47 42 48 43 49 107 50 44 51 106 52 45 53
REMARK SMILES IDX 46 54 47 55 100 56 48 57 105 58 99 59 101 60 49 61 104 62
REMARK SMILES IDX 98 63 97 64 50 66 84 67 63 68 83 69 64 70 67 71 82 72 102 73
REMARK SMILES IDX 65 74 66 75 81 77 103 78 68 79 51 80 52 81 61 82 53 83 54 84
REMARK SMILES IDX 60 85 62 86 55 87 56 88 57 89 58 90 59 91 85 92 86 93 95 94
REMARK SMILES IDX 87 95 88 96 94 97 96 98 89 99 90 100 91 101 92 102 93 103
REMARK SMILES IDX 69 104 70 105 79 106 71 107 72 108 78 109 80 110 73 111
REMARK SMILES IDX 74 112 75 113 76 114 77 115
REMARK H PARENT 32 7 18 12 39 46 101 65 67 76
REMARK Flexibility Score: inf
ROOT
ATOM      1  C   UNL     1       1.254  12.355  10.487  1.00  0.00     0.002 C 
ENDROOT
BRANCH   1   2
ATOM      2  C   UNL     1       0.517  11.165   9.858  1.00  0.00     0.021 C 
BRANCH   2   3
ATOM      3  C   UNL     1       1.604  10.238   9.002  1.00  0.00     0.116 C 
BRANCH   3   4
ATOM      4  N   UNL     1       1.836   8.220   8.961  1.00  0.00    -0.354 N 
ATOM      5  C   UNL     1       1.476   6.910   8.593  1.00  0.00     0.242 C 
ATOM      6  O   UNL     1       2.145   6.060   9.213  1.00  0.00    -0.273 OA
ATOM      7  H   UNL     1       2.652   8.082   9.494  1.00  0.00     0.163 HD
BRANCH   5   8
ATOM      8  C   UNL     1       0.439   6.365   7.545  1.00  0.00     0.175 C 
BRANCH   8   9
ATOM      9  N   UNL     1       0.483   6.896   6.167  1.00  0.00    -0.344 N 
ATOM     10  C   UNL     1       1.483   7.487   5.474  1.00  0.00     0.221 C 
ATOM     11  O   UNL     1       1.405   7.574   4.252  1.00  0.00    -0.275 OA
ATOM     12  H   UNL     1      -0.360   6.804   5.668  1.00  0.00     0.164 HD
BRANCH  10  13
ATOM     13  C   UNL     1       2.642   8.042   6.233  1.00  0.00     0.116 C 
BRANCH  13  14
ATOM     14  C   UNL     1       2.199   9.128   7.229  1.00  0.00     0.116 C 
ATOM     15  C   UNL     1       2.583  11.692  15.982  1.00  0.00     0.088 C 
ATOM     16  C   UNL     1       2.803  11.022  14.682  1.00  0.00     0.105 A 
ATOM     17  O   UNL     1       1.739  10.325  14.222  1.00  0.00    -0.461 OA
ATOM     18  C   UNL     1       3.841  10.976  13.769  1.00  0.00    -0.002 A 
ATOM     19  C   UNL     1       2.039   9.858  12.979  1.00  0.00     0.138 A 
ATOM     20  C   UNL     1       3.368  10.193  12.646  1.00  0.00     0.024 A 
ATOM     21  C   UNL     1       5.146  11.678  13.869  1.00  0.00     0.049 C 
ATOM     22  C   UNL     1       1.053   9.240  12.200  1.00  0.00     0.095 A 
ATOM     23  C   UNL     1       3.959   9.880  11.371  1.00  0.00     0.020 A 
ATOM     24  C   UNL     1       1.536   9.006  10.933  1.00  0.00     0.138 A 
ATOM     25  C   UNL     1       3.103   9.334  10.427  1.00  0.00    -0.001 A 
ATOM     26  O   UNL     1       0.233   8.886   9.670  1.00  0.00    -0.426 OA
ATOM     27  C   UNL     1       3.610   9.248   8.593  1.00  0.00     0.035 C 
ATOM     28  C   UNL     1       0.320   9.028   7.885  1.00  0.00     0.315 C 
ATOM     29  C   UNL     1       4.620  10.333   8.182  1.00  0.00     0.014 C 
ATOM     30  O   UNL     1      -0.721   9.217   7.256  1.00  0.00    -0.251 OA
ENDBRANCH  13  14
ENDBRANCH  10  13
ENDBRANCH   8   9
BRANCH   8  31
ATOM     31  C   UNL     1      -1.065   6.264   7.947  1.00  0.00     0.068 C 
BRANCH  31  32
ATOM     32  C   UNL     1      -1.595   6.155   9.362  1.00  0.00    -0.037 C 
ATOM     33  C   UNL     1      -0.868   5.639  10.354  1.00  0.00     0.001 A 
ATOM     34  C   UNL     1      -2.981   5.556   9.432  1.00  0.00     0.174 C 
ATOM     35  C   UNL     1      -0.413   6.287  11.555  1.00  0.00     0.010 A 
ATOM     36  C   UNL     1      -1.622   4.402  10.651  1.00  0.00     0.065 A 
ATOM     37  N   UNL     1      -2.798   4.258  10.128  1.00  0.00    -0.280 NA
ATOM     38  C   UNL     1       0.020   5.515  12.565  1.00  0.00     0.001 A 
ATOM     39  C   UNL     1      -0.886   3.485  11.551  1.00  0.00     0.028 A 
ATOM     40  C   UNL     1      -0.045   4.064  12.431  1.00  0.00     0.002 A 
ENDBRANCH  31  32
ENDBRANCH   8  31
ENDBRANCH   5   8
ENDBRANCH   3   4
ENDBRANCH   2   3
ENDBRANCH   1   2
BRANCH   1  41
ATOM     41  C   UNL     1       1.532  13.457   9.477  1.00  0.00     0.002 C 
BRANCH  41  42
ATOM     42  C   UNL     1       0.251  13.995   8.847  1.00  0.00     0.021 C 
BRANCH  42  43
ATOM     43  C   UNL     1      -0.837  14.287   9.886  1.00  0.00     0.116 C 
BRANCH  43  44
ATOM     44  N   UNL     1      -0.409  15.262  10.892  1.00  0.00    -0.352 N 
ATOM     45  C   UNL     1      -0.227  16.619  10.721  1.00  0.00     0.251 C 
ATOM     46  H   UNL     1      -0.232  14.908  11.794  1.00  0.00     0.163 HD
ATOM     47  O   UNL     1       0.294  17.319  11.578  1.00  0.00    -0.269 OA
BRANCH  45  48
ATOM     48  C   UNL     1      -0.657  17.165   9.424  1.00  0.00     0.039 A 
ATOM     49  C   UNL     1      -1.990  16.957   9.065  1.00  0.00     0.014 A 
ATOM     50  C   UNL     1       0.318  17.512   8.484  1.00  0.00     0.014 A 
ATOM     51  C   UNL     1      -2.299  16.848   7.724  1.00  0.00     0.010 A 
ATOM     52  C   UNL     1      -0.020  17.476   7.134  1.00  0.00     0.010 A 
ATOM     53  C   UNL     1      -1.303  17.055   6.762  1.00  0.00    -0.014 A 
BRANCH  53  54
ATOM     54  C   UNL     1      -1.750  16.911   5.377  1.00  0.00     0.031 A 
ATOM     55  C   UNL     1      -2.060  18.235   4.777  1.00  0.00     0.074 A 
ATOM     56  C   UNL     1      -1.405  15.886   4.574  1.00  0.00     0.049 A 
ATOM     57  N   UNL     1      -1.122  19.006   4.316  1.00  0.00    -0.248 NA
ATOM     58  C   UNL     1      -3.340  18.908   4.992  1.00  0.00     0.031 C 
ATOM     59  C   UNL     1      -0.112  15.192   4.598  1.00  0.00     0.029 A 
ATOM     60  N   UNL     1      -2.025  15.413   3.442  1.00  0.00    -0.354 N 
ATOM     61  C   UNL     1      -1.653  20.276   4.230  1.00  0.00     0.074 A 
ATOM     62  C   UNL     1      -3.031  20.170   4.658  1.00  0.00     0.031 C 
ATOM     63  C   UNL     1       0.047  14.544   3.424  1.00  0.00     0.029 A 
ATOM     64  C   UNL     1      -1.184  14.640   2.645  1.00  0.00     0.049 A 
ATOM     65  H   UNL     1      -2.965  15.601   3.218  1.00  0.00     0.167 HD
ATOM     66  C   UNL     1      -0.922  21.344   3.826  1.00  0.00     0.037 A 
ATOM     67  C   UNL     1      -1.264  14.589   1.286  1.00  0.00     0.037 A 
ATOM     68  C   UNL     1       0.425  21.059   3.430  1.00  0.00     0.049 A 
ATOM     69  C   UNL     1      -0.721  15.955   0.930  1.00  0.00     0.074 A 
ATOM     70  C   UNL     1       1.687  21.152   3.972  1.00  0.00     0.029 A 
ATOM     71  N   UNL     1       0.611  20.479   2.197  1.00  0.00    -0.354 N 
ATOM     72  N   UNL     1       0.541  16.296   0.901  1.00  0.00    -0.248 NA
ATOM     73  C   UNL     1      -1.651  17.089   0.970  1.00  0.00     0.031 C 
ATOM     74  C   UNL     1       2.490  20.228   3.230  1.00  0.00     0.029 A 
ATOM     75  C   UNL     1       1.652  19.594   2.313  1.00  0.00     0.049 A 
ATOM     76  H   UNL     1       0.092  20.666   1.381  1.00  0.00     0.167 HD
ATOM     77  C   UNL     1       0.568  17.661   1.202  1.00  0.00     0.074 A 
ATOM     78  C   UNL     1      -0.814  18.091   1.202  1.00  0.00     0.031 C 
ATOM     79  C   UNL     1       1.685  18.325   1.618  1.00  0.00     0.037 A 
BRANCH  66  80
ATOM     80  C   UNL     1      -1.484  22.684   3.593  1.00  0.00     0.058 A 
ATOM     81  C   UNL     1      -1.757  23.048   2.267  1.00  0.00     0.135 A 
ATOM     82  C   UNL     1      -1.566  23.663   4.588  1.00  0.00     0.135 A 
ATOM     83  F   UNL     1      -1.697  22.125   1.292  1.00  0.00    -0.206 F 
ATOM     84  C   UNL     1      -2.033  24.359   1.921  1.00  0.00     0.059 A 
ATOM     85  C   UNL     1      -1.852  24.987   4.265  1.00  0.00     0.059 A 
ATOM     86  F   UNL     1      -1.321  23.351   5.871  1.00  0.00    -0.206 F 
ATOM     87  C   UNL     1      -2.050  25.327   2.924  1.00  0.00     0.060 A 
BRANCH  87  88
ATOM     88  S   UNL     1      -2.281  27.045   2.422  1.00  0.00     0.124 S 
ATOM     89  O   UNL     1      -1.085  27.284   1.622  1.00  0.00    -0.237 OA
ATOM     90  O   UNL     1      -3.538  26.976   1.683  1.00  0.00    -0.237 OA
ATOM     91  O   UNL     1      -2.343  27.764   3.691  1.00  0.00    -0.744 OA
ENDBRANCH  87  88
ENDBRANCH  66  80
BRANCH  67  92
ATOM     92  C   UNL     1      -2.561  14.032   0.772  1.00  0.00     0.058 A 
ATOM     93  C   UNL     1      -3.006  12.796   1.296  1.00  0.00     0.135 A 
ATOM     94  C   UNL     1      -3.413  14.642  -0.161  1.00  0.00     0.135 A 
ATOM     95  F   UNL     1      -2.202  12.070   2.091  1.00  0.00    -0.206 F 
ATOM     96  C   UNL     1      -4.280  12.293   1.053  1.00  0.00     0.059 A 
ATOM     97  C   UNL     1      -4.706  14.172  -0.404  1.00  0.00     0.059 A 
ATOM     98  F   UNL     1      -3.028  15.731  -0.840  1.00  0.00    -0.206 F 
ATOM     99  C   UNL     1      -5.145  13.019   0.241  1.00  0.00     0.060 A 
BRANCH  99 100
ATOM    100  S   UNL     1      -6.860  12.473   0.110  1.00  0.00     0.124 S 
ATOM    101  O   UNL     1      -6.716  11.165  -0.519  1.00  0.00    -0.237 OA
ATOM    102  O   UNL     1      -7.276  12.466   1.509  1.00  0.00    -0.237 OA
ATOM    103  O   UNL     1      -7.480  13.505  -0.716  1.00  0.00    -0.744 OA
ENDBRANCH  99 100
ENDBRANCH  67  92
BRANCH  79 104
ATOM    104  C   UNL     1       2.968  17.568   1.530  1.00  0.00     0.058 A 
ATOM    105  C   UNL     1       3.553  17.326   0.280  1.00  0.00     0.135 A 
ATOM    106  C   UNL     1       3.667  17.155   2.675  1.00  0.00     0.135 A 
ATOM    107  F   UNL     1       2.929  17.710  -0.846  1.00  0.00    -0.206 F 
ATOM    108  C   UNL     1       4.806  16.734   0.169  1.00  0.00     0.059 A 
ATOM    109  C   UNL     1       4.934  16.584   2.588  1.00  0.00     0.059 A 
ATOM    110  F   UNL     1       3.148  17.338   3.901  1.00  0.00    -0.206 F 
ATOM    111  C   UNL     1       5.498  16.385   1.330  1.00  0.00     0.060 A 
BRANCH 111 112
ATOM    112  S   UNL     1       7.179  15.747   1.173  1.00  0.00     0.124 S 
ATOM    113  O   UNL     1       6.951  14.421   0.609  1.00  0.00    -0.237 OA
ATOM    114  O   UNL     1       7.799  16.720   0.277  1.00  0.00    -0.237 OA
ATOM    115  O   UNL     1       7.682  15.765   2.544  1.00  0.00    -0.744 OA
ENDBRANCH 111 112
ENDBRANCH  79 104
ENDBRANCH  53  54
ENDBRANCH  45  48
ENDBRANCH  43  44
ENDBRANCH  42  43
ENDBRANCH  41  42
ENDBRANCH   1  41
TORSDOF 21
