REMARK SMILES Nc1oc(-c2ccccc2)cc1C(=O)NCCCCCCNC(=O)c1ccc(-c2c3nc(c(-c4c(F)cc(S(=O)(=O)[O-])cc4F)c4ccc([nH]4)c(-c4c(F)cc(S(=O)(=O)[O-])cc4F)c4nc(c(-c5c(F)cc(S(=O)(=O)[O-])cc5F)c5ccc2[nH]5)C=C4)C=C3)cc1
REMARK SMILES IDX 19 1 18 2 17 3 16 4 15 5 13 6 14 7 12 9 2 10 3 11 4 12 11 13
REMARK SMILES IDX 1 14 5 17 6 18 10 19 7 20 9 21 8 22 20 23 21 24 22 25 23 26
REMARK SMILES IDX 24 28 25 29 26 30 90 31 27 32 89 33 28 34 29 35 30 36 83 37
REMARK SMILES IDX 31 38 88 39 82 40 84 41 32 42 87 43 81 44 80 45 33 47 67 48
REMARK SMILES IDX 46 49 66 50 47 51 50 52 65 53 85 54 48 55 49 56 64 58 86 59
REMARK SMILES IDX 51 60 34 61 35 62 44 63 36 64 37 65 43 66 45 67 38 68 39 69
REMARK SMILES IDX 40 70 41 71 42 72 68 73 69 74 78 75 70 76 71 77 77 78 79 79
REMARK SMILES IDX 72 80 73 81 74 82 75 83 76 84 52 85 53 86 62 87 54 88 55 89
REMARK SMILES IDX 61 90 63 91 56 92 57 93 58 94 59 95 60 96
REMARK H PARENT 15 8 1 15 1 16 22 27 84 46 50 57
REMARK Flexibility Score: inf
ROOT
ATOM      1  C   UNL     1      -5.414  -0.590   4.670  1.00  0.00     0.002 C 
ENDROOT
BRANCH   1   2
ATOM      2  C   UNL     1      -5.365  -0.471   3.136  1.00  0.00     0.002 C 
BRANCH   2   3
ATOM      3  C   UNL     1      -4.514   0.682   2.588  1.00  0.00     0.021 C 
BRANCH   3   4
ATOM      4  C   UNL     1      -3.080   0.677   3.117  1.00  0.00     0.116 C 
BRANCH   4   5
ATOM      5  N   UNL     1      -2.276  -0.312   2.428  1.00  0.00    -0.352 N 
ATOM      6  C   UNL     1      -1.245  -0.214   1.527  1.00  0.00     0.256 C 
ATOM      7  O   UNL     1      -0.743  -1.280   1.159  1.00  0.00    -0.269 OA
ATOM      8  H   UNL     1      -2.518  -1.240   2.651  1.00  0.00     0.163 HD
BRANCH   6   9
ATOM      9  C   UNL     1      -0.732   1.073   1.083  1.00  0.00     0.103 A 
ATOM     10  C   UNL     1       0.478   1.229   0.419  1.00  0.00     0.203 A 
ATOM     11  O   UNL     1       0.780   2.541   0.226  1.00  0.00    -0.440 OA
ATOM     12  C   UNL     1      -0.267   3.247   0.724  1.00  0.00     0.137 A 
ATOM     13  C   UNL     1      -1.253   2.392   1.156  1.00  0.00     0.067 A 
BRANCH  10  14
ATOM     14  N   UNL     1       1.375   0.348  -0.034  1.00  0.00    -0.369 N 
ATOM     15  H   UNL     1       2.189   0.664  -0.489  1.00  0.00     0.159 HD
ATOM     16  H   UNL     1       1.222  -0.617   0.086  1.00  0.00     0.159 HD
ENDBRANCH  10  14
BRANCH  12  17
ATOM     17  C   UNL     1      -0.181   4.691   0.757  1.00  0.00     0.017 A 
ATOM     18  C   UNL     1      -0.292   5.447  -0.411  1.00  0.00     0.012 A 
ATOM     19  C   UNL     1      -0.149   5.341   2.001  1.00  0.00     0.012 A 
ATOM     20  C   UNL     1      -0.413   6.837  -0.332  1.00  0.00     0.001 A 
ATOM     21  C   UNL     1      -0.262   6.729   2.078  1.00  0.00     0.001 A 
ATOM     22  C   UNL     1      -0.408   7.475   0.910  1.00  0.00     0.000 A 
ENDBRANCH  12  17
ENDBRANCH   6   9
ENDBRANCH   4   5
ENDBRANCH   3   4
ENDBRANCH   2   3
ENDBRANCH   1   2
BRANCH   1  23
ATOM     23  C   UNL     1      -5.757   0.694   5.442  1.00  0.00     0.021 C 
BRANCH  23  24
ATOM     24  C   UNL     1      -7.185   1.166   5.229  1.00  0.00     0.116 C 
BRANCH  24  25
ATOM     25  N   UNL     1      -8.161   0.221   5.775  1.00  0.00    -0.352 N 
ATOM     26  C   UNL     1      -9.541   0.245   5.678  1.00  0.00     0.251 C 
ATOM     27  H   UNL     1      -7.784  -0.536   6.279  1.00  0.00     0.163 HD
ATOM     28  O   UNL     1     -10.234  -0.382   6.459  1.00  0.00    -0.269 OA
BRANCH  26  29
ATOM     29  C   UNL     1     -10.149   1.047   4.601  1.00  0.00     0.039 A 
ATOM     30  C   UNL     1     -11.306   1.804   4.806  1.00  0.00     0.014 A 
ATOM     31  C   UNL     1      -9.504   1.051   3.370  1.00  0.00     0.014 A 
ATOM     32  C   UNL     1     -11.761   2.623   3.774  1.00  0.00     0.010 A 
ATOM     33  C   UNL     1      -9.829   2.000   2.443  1.00  0.00     0.010 A 
ATOM     34  C   UNL     1     -11.005   2.723   2.597  1.00  0.00    -0.014 A 
BRANCH  34  35
ATOM     35  C   UNL     1     -11.386   3.619   1.512  1.00  0.00     0.031 A 
ATOM     36  C   UNL     1     -11.501   5.057   1.885  1.00  0.00     0.074 A 
ATOM     37  C   UNL     1     -11.368   3.210   0.224  1.00  0.00     0.049 A 
ATOM     38  N   UNL     1     -12.548   5.812   1.853  1.00  0.00    -0.248 NA
ATOM     39  C   UNL     1     -10.322   5.706   2.487  1.00  0.00     0.031 C 
ATOM     40  C   UNL     1     -10.941   1.912  -0.323  1.00  0.00     0.029 A 
ATOM     41  N   UNL     1     -11.621   3.926  -0.900  1.00  0.00    -0.354 N 
ATOM     42  C   UNL     1     -12.119   7.085   2.226  1.00  0.00     0.074 A 
ATOM     43  C   UNL     1     -10.799   6.918   2.777  1.00  0.00     0.031 C 
ATOM     44  C   UNL     1     -10.732   2.024  -1.652  1.00  0.00     0.029 A 
ATOM     45  C   UNL     1     -11.191   3.330  -2.079  1.00  0.00     0.049 A 
ATOM     46  H   UNL     1     -12.074   4.800  -0.882  1.00  0.00     0.167 HD
ATOM     47  C   UNL     1     -12.793   8.210   1.855  1.00  0.00     0.037 A 
ATOM     48  C   UNL     1     -11.190   3.888  -3.315  1.00  0.00     0.037 A 
ATOM     49  C   UNL     1     -14.123   7.893   1.398  1.00  0.00     0.049 A 
ATOM     50  C   UNL     1     -12.147   5.025  -3.268  1.00  0.00     0.074 A 
ATOM     51  C   UNL     1     -15.224   7.295   1.981  1.00  0.00     0.029 A 
ATOM     52  N   UNL     1     -14.338   7.821   0.042  1.00  0.00    -0.354 N 
ATOM     53  N   UNL     1     -13.432   4.887  -3.078  1.00  0.00    -0.248 NA
ATOM     54  C   UNL     1     -11.611   6.340  -2.953  1.00  0.00     0.031 C 
ATOM     55  C   UNL     1     -15.772   6.461   0.962  1.00  0.00     0.029 A 
ATOM     56  C   UNL     1     -15.025   6.655  -0.202  1.00  0.00     0.049 A 
ATOM     57  H   UNL     1     -14.053   8.481  -0.630  1.00  0.00     0.167 HD
ATOM     58  C   UNL     1     -13.788   5.936  -2.241  1.00  0.00     0.074 A 
ATOM     59  C   UNL     1     -12.640   6.842  -2.266  1.00  0.00     0.031 C 
ATOM     60  C   UNL     1     -14.852   5.839  -1.387  1.00  0.00     0.037 A 
BRANCH  47  61
ATOM     61  C   UNL     1     -12.146   9.554   1.613  1.00  0.00     0.058 A 
ATOM     62  C   UNL     1     -12.946  10.704   1.455  1.00  0.00     0.135 A 
ATOM     63  C   UNL     1     -10.781   9.718   1.286  1.00  0.00     0.135 A 
ATOM     64  F   UNL     1     -14.263  10.662   1.713  1.00  0.00    -0.206 F 
ATOM     65  C   UNL     1     -12.437  11.911   0.967  1.00  0.00     0.059 A 
ATOM     66  C   UNL     1     -10.241  10.925   0.854  1.00  0.00     0.059 A 
ATOM     67  F   UNL     1      -9.922   8.691   1.276  1.00  0.00    -0.206 F 
ATOM     68  C   UNL     1     -11.083  12.007   0.661  1.00  0.00     0.060 A 
BRANCH  68  69
ATOM     69  S   UNL     1     -10.436  13.531  -0.051  1.00  0.00     0.124 S 
ATOM     70  O   UNL     1     -11.040  13.512  -1.377  1.00  0.00    -0.237 OA
ATOM     71  O   UNL     1     -10.948  14.538   0.872  1.00  0.00    -0.237 OA
ATOM     72  O   UNL     1      -8.990  13.332  -0.012  1.00  0.00    -0.744 OA
ENDBRANCH  68  69
ENDBRANCH  47  61
BRANCH  48  73
ATOM     73  C   UNL     1     -10.171   3.727  -4.385  1.00  0.00     0.058 A 
ATOM     74  C   UNL     1     -10.425   4.153  -5.700  1.00  0.00     0.135 A 
ATOM     75  C   UNL     1      -8.829   3.416  -4.080  1.00  0.00     0.135 A 
ATOM     76  F   UNL     1     -11.671   4.487  -6.070  1.00  0.00    -0.206 F 
ATOM     77  C   UNL     1      -9.403   4.315  -6.642  1.00  0.00     0.059 A 
ATOM     78  C   UNL     1      -7.795   3.561  -5.005  1.00  0.00     0.059 A 
ATOM     79  F   UNL     1      -8.467   3.051  -2.841  1.00  0.00    -0.206 F 
ATOM     80  C   UNL     1      -8.085   4.038  -6.277  1.00  0.00     0.060 A 
BRANCH  80  81
ATOM     81  S   UNL     1      -6.743   4.428  -7.426  1.00  0.00     0.124 S 
ATOM     82  O   UNL     1      -6.932   3.421  -8.463  1.00  0.00    -0.237 OA
ATOM     83  O   UNL     1      -7.053   5.802  -7.806  1.00  0.00    -0.237 OA
ATOM     84  O   UNL     1      -5.542   4.267  -6.610  1.00  0.00    -0.744 OA
ENDBRANCH  80  81
ENDBRANCH  48  73
BRANCH  60  85
ATOM     85  C   UNL     1     -15.796   4.667  -1.548  1.00  0.00     0.058 A 
ATOM     86  C   UNL     1     -15.435   3.319  -1.360  1.00  0.00     0.135 A 
ATOM     87  C   UNL     1     -17.159   4.932  -1.742  1.00  0.00     0.135 A 
ATOM     88  F   UNL     1     -14.175   2.977  -1.064  1.00  0.00    -0.206 F 
ATOM     89  C   UNL     1     -16.374   2.285  -1.405  1.00  0.00     0.059 A 
ATOM     90  C   UNL     1     -18.119   3.921  -1.759  1.00  0.00     0.059 A 
ATOM     91  F   UNL     1     -17.585   6.200  -1.865  1.00  0.00    -0.206 F 
ATOM     92  C   UNL     1     -17.717   2.597  -1.604  1.00  0.00     0.060 A 
BRANCH  92  93
ATOM     93  S   UNL     1     -18.941   1.268  -1.589  1.00  0.00     0.124 S 
ATOM     94  O   UNL     1     -18.668   0.584  -2.849  1.00  0.00    -0.237 OA
ATOM     95  O   UNL     1     -18.595   0.528  -0.378  1.00  0.00    -0.237 OA
ATOM     96  O   UNL     1     -20.216   1.980  -1.529  1.00  0.00    -0.744 OA
ENDBRANCH  92  93
ENDBRANCH  60  85
ENDBRANCH  34  35
ENDBRANCH  26  29
ENDBRANCH  24  25
ENDBRANCH  23  24
ENDBRANCH   1  23
TORSDOF 18
