REMARK SMILES CN(CC(C)(C)O)C(=O)N1CCCC[C@H]1CC(=O)NCCCCCCNC(=O)c1ccc(-c2c3nc(c(-c4c(F)cc(S(=O)(=O)[O-])cc4F)c4ccc([nH]4)c(-c4c(F)cc(S(=O)(=O)[O-])cc4F)c4nc(c(-c5c(F)cc(S(=O)(=O)[O-])cc5F)c5ccc2[nH]5)C=C4)C=C3)cc1
REMARK SMILES IDX 21 1 20 2 19 3 17 4 18 5 16 7 15 8 10 9 11 10 12 11 14 12
REMARK SMILES IDX 13 13 8 14 9 15 2 16 1 17 3 18 4 19 5 20 6 21 7 22 22 24
REMARK SMILES IDX 23 25 24 26 25 27 26 28 27 29 28 31 29 32 30 33 94 34 31 35
REMARK SMILES IDX 93 36 32 37 33 38 34 39 87 40 35 41 92 42 86 43 88 44 36 45
REMARK SMILES IDX 91 46 85 47 84 48 37 50 71 51 50 52 70 53 51 54 54 55 69 56
REMARK SMILES IDX 89 57 52 58 53 59 68 61 90 62 55 63 38 64 39 65 48 66 40 67
REMARK SMILES IDX 41 68 47 69 49 70 42 71 43 72 44 73 45 74 46 75 72 76 73 77
REMARK SMILES IDX 82 78 74 79 75 80 81 81 83 82 76 83 77 84 78 85 79 86 80 87
REMARK SMILES IDX 56 88 57 89 66 90 58 91 59 92 65 93 67 94 60 95 61 96 62 97
REMARK SMILES IDX 63 98 64 99
REMARK H PARENT 19 6 7 23 26 30 88 49 54 60
REMARK Flexibility Score: inf
ROOT
ATOM      1  C   UNL     1      -4.649   4.071  -1.654  1.00  0.00     0.021 C 
ENDROOT
BRANCH   1   2
ATOM      2  C   UNL     1      -3.946   3.921  -3.004  1.00  0.00     0.116 C 
BRANCH   2   3
ATOM      3  N   UNL     1      -3.405   5.184  -3.458  1.00  0.00    -0.356 N 
ATOM      4  C   UNL     1      -2.113   5.603  -3.520  1.00  0.00     0.222 C 
ATOM      5  O   UNL     1      -1.892   6.747  -3.920  1.00  0.00    -0.275 OA
ATOM      6  H   UNL     1      -4.072   5.837  -3.769  1.00  0.00     0.163 HD
BRANCH   4   7
ATOM      7  C   UNL     1      -0.971   4.684  -3.132  1.00  0.00     0.125 C 
BRANCH   7   8
ATOM      8  C   UNL     1      -0.715   4.509  -1.621  1.00  0.00     0.096 C 
ATOM      9  N   UNL     1       0.675   4.054  -1.343  1.00  0.00    -0.321 N 
ATOM     10  C   UNL     1       1.706   5.089  -1.498  1.00  0.00     0.121 C 
ATOM     11  C   UNL     1       1.408   6.332  -0.662  1.00  0.00     0.022 C 
ATOM     12  C   UNL     1      -1.021   5.764  -0.772  1.00  0.00     0.026 C 
ATOM     13  C   UNL     1       0.015   6.867  -0.972  1.00  0.00     0.004 C 
BRANCH   9  14
ATOM     14  C   UNL     1       0.986   3.041  -0.444  1.00  0.00     0.320 C 
ATOM     15  O   UNL     1       1.769   3.263   0.485  1.00  0.00    -0.248 OA
BRANCH  14  16
ATOM     16  N   UNL     1       0.507   1.757  -0.670  1.00  0.00    -0.325 N 
ATOM     17  C   UNL     1       1.043   0.741   0.231  1.00  0.00     0.148 C 
BRANCH  16  18
ATOM     18  C   UNL     1      -0.159   1.250  -1.879  1.00  0.00     0.155 C 
BRANCH  18  19
ATOM     19  C   UNL     1      -1.526   0.533  -1.643  1.00  0.00     0.077 C 
ATOM     20  C   UNL     1      -2.431   1.277  -0.661  1.00  0.00     0.043 C 
ATOM     21  C   UNL     1      -2.233   0.331  -2.991  1.00  0.00     0.043 C 
BRANCH  19  22
ATOM     22  O   UNL     1      -1.306  -0.779  -1.108  1.00  0.00    -0.389 OA
ATOM     23  H   UNL     1      -0.859  -0.708  -0.251  1.00  0.00     0.211 HD
ENDBRANCH  19  22
ENDBRANCH  18  19
ENDBRANCH  16  18
ENDBRANCH  14  16
ENDBRANCH   9  14
ENDBRANCH   7   8
ENDBRANCH   4   7
ENDBRANCH   2   3
ENDBRANCH   1   2
BRANCH   1  24
ATOM     24  C   UNL     1      -6.041   4.702  -1.741  1.00  0.00     0.002 C 
BRANCH  24  25
ATOM     25  C   UNL     1      -7.075   3.862  -2.500  1.00  0.00     0.002 C 
BRANCH  25  26
ATOM     26  C   UNL     1      -7.309   2.450  -1.947  1.00  0.00     0.021 C 
BRANCH  26  27
ATOM     27  C   UNL     1      -7.805   2.402  -0.503  1.00  0.00     0.116 C 
BRANCH  27  28
ATOM     28  N   UNL     1      -9.079   3.084  -0.352  1.00  0.00    -0.352 N 
ATOM     29  C   UNL     1     -10.264   2.614   0.142  1.00  0.00     0.251 C 
ATOM     30  H   UNL     1      -9.091   4.022  -0.649  1.00  0.00     0.163 HD
ATOM     31  O   UNL     1     -11.300   3.264  -0.051  1.00  0.00    -0.269 OA
BRANCH  29  32
ATOM     32  C   UNL     1     -10.322   1.349   0.902  1.00  0.00     0.039 A 
ATOM     33  C   UNL     1     -11.413   0.495   0.719  1.00  0.00     0.014 A 
ATOM     34  C   UNL     1      -9.338   1.033   1.845  1.00  0.00     0.014 A 
ATOM     35  C   UNL     1     -11.510  -0.681   1.466  1.00  0.00     0.010 A 
ATOM     36  C   UNL     1      -9.399  -0.174   2.538  1.00  0.00     0.010 A 
ATOM     37  C   UNL     1     -10.499  -1.030   2.376  1.00  0.00    -0.014 A 
BRANCH  37  38
ATOM     38  C   UNL     1     -10.609  -2.254   3.210  1.00  0.00     0.031 A 
ATOM     39  C   UNL     1     -10.740  -2.130   4.707  1.00  0.00     0.074 A 
ATOM     40  C   UNL     1     -10.551  -3.469   2.630  1.00  0.00     0.049 A 
ATOM     41  N   UNL     1     -10.799  -3.072   5.612  1.00  0.00    -0.248 NA
ATOM     42  C   UNL     1     -10.781  -0.766   5.262  1.00  0.00     0.031 C 
ATOM     43  C   UNL     1     -10.382  -3.717   1.196  1.00  0.00     0.029 A 
ATOM     44  N   UNL     1     -10.622  -4.726   3.176  1.00  0.00    -0.354 N 
ATOM     45  C   UNL     1     -10.859  -2.419   6.838  1.00  0.00     0.074 A 
ATOM     46  C   UNL     1     -10.783  -1.001   6.567  1.00  0.00     0.031 C 
ATOM     47  C   UNL     1     -10.388  -5.042   0.975  1.00  0.00     0.029 A 
ATOM     48  C   UNL     1     -10.529  -5.738   2.250  1.00  0.00     0.049 A 
ATOM     49  H   UNL     1     -10.730  -4.888   4.142  1.00  0.00     0.167 HD
ATOM     50  C   UNL     1     -10.989  -2.951   8.077  1.00  0.00     0.037 A 
ATOM     51  C   UNL     1     -10.556  -7.075   2.414  1.00  0.00     0.037 A 
ATOM     52  C   UNL     1     -11.117  -4.362   8.335  1.00  0.00     0.049 A 
ATOM     53  C   UNL     1     -10.736  -7.638   3.799  1.00  0.00     0.074 A 
ATOM     54  C   UNL     1     -11.323  -5.000   9.546  1.00  0.00     0.029 A 
ATOM     55  N   UNL     1     -11.062  -5.352   7.366  1.00  0.00    -0.354 N 
ATOM     56  N   UNL     1     -10.854  -7.002   4.941  1.00  0.00    -0.248 NA
ATOM     57  C   UNL     1     -10.803  -9.101   3.918  1.00  0.00     0.031 C 
ATOM     58  C   UNL     1     -11.354  -6.378   9.314  1.00  0.00     0.029 A 
ATOM     59  C   UNL     1     -11.219  -6.596   7.952  1.00  0.00     0.049 A 
ATOM     60  H   UNL     1     -10.930  -5.194   6.403  1.00  0.00     0.167 HD
ATOM     61  C   UNL     1     -11.057  -7.984   5.904  1.00  0.00     0.074 A 
ATOM     62  C   UNL     1     -11.049  -9.256   5.211  1.00  0.00     0.031 C 
ATOM     63  C   UNL     1     -11.239  -7.848   7.241  1.00  0.00     0.037 A 
BRANCH  50  64
ATOM     64  C   UNL     1     -11.013  -2.012   9.251  1.00  0.00     0.058 A 
ATOM     65  C   UNL     1     -12.110  -1.173   9.506  1.00  0.00     0.135 A 
ATOM     66  C   UNL     1      -9.950  -1.995  10.170  1.00  0.00     0.135 A 
ATOM     67  F   UNL     1     -13.145  -1.135   8.652  1.00  0.00    -0.206 F 
ATOM     68  C   UNL     1     -12.146  -0.340  10.620  1.00  0.00     0.059 A 
ATOM     69  C   UNL     1      -9.977  -1.190  11.305  1.00  0.00     0.059 A 
ATOM     70  F   UNL     1      -8.875  -2.774   9.973  1.00  0.00    -0.206 F 
ATOM     71  C   UNL     1     -11.076  -0.359  11.517  1.00  0.00     0.060 A 
BRANCH  71  72
ATOM     72  S   UNL     1     -11.155   0.702  12.975  1.00  0.00     0.124 S 
ATOM     73  O   UNL     1     -10.932   2.020  12.388  1.00  0.00    -0.237 OA
ATOM     74  O   UNL     1     -12.504   0.450  13.472  1.00  0.00    -0.237 OA
ATOM     75  O   UNL     1     -10.076   0.200  13.819  1.00  0.00    -0.744 OA
ENDBRANCH  71  72
ENDBRANCH  50  64
BRANCH  51  76
ATOM     76  C   UNL     1     -10.444  -7.981   1.239  1.00  0.00     0.058 A 
ATOM     77  C   UNL     1     -11.537  -8.755   0.819  1.00  0.00     0.135 A 
ATOM     78  C   UNL     1      -9.240  -8.116   0.532  1.00  0.00     0.135 A 
ATOM     79  F   UNL     1     -12.711  -8.662   1.463  1.00  0.00    -0.206 F 
ATOM     80  C   UNL     1     -11.431  -9.659  -0.233  1.00  0.00     0.059 A 
ATOM     81  C   UNL     1      -9.116  -8.993  -0.541  1.00  0.00     0.059 A 
ATOM     82  F   UNL     1      -8.170  -7.383   0.878  1.00  0.00    -0.206 F 
ATOM     83  C   UNL     1     -10.212  -9.775  -0.903  1.00  0.00     0.060 A 
BRANCH  83  84
ATOM     84  S   UNL     1     -10.083 -10.947  -2.271  1.00  0.00     0.124 S 
ATOM     85  O   UNL     1     -10.026 -12.220  -1.562  1.00  0.00    -0.237 OA
ATOM     86  O   UNL     1     -11.309 -10.685  -3.018  1.00  0.00    -0.237 OA
ATOM     87  O   UNL     1      -8.851 -10.541  -2.942  1.00  0.00    -0.744 OA
ENDBRANCH  83  84
ENDBRANCH  51  76
BRANCH  63  88
ATOM     88  C   UNL     1     -11.520  -9.097   8.030  1.00  0.00     0.058 A 
ATOM     89  C   UNL     1     -10.528 -10.056   8.284  1.00  0.00     0.135 A 
ATOM     90  C   UNL     1     -12.800  -9.316   8.567  1.00  0.00     0.135 A 
ATOM     91  F   UNL     1      -9.290  -9.896   7.792  1.00  0.00    -0.206 F 
ATOM     92  C   UNL     1     -10.806 -11.211   9.009  1.00  0.00     0.059 A 
ATOM     93  C   UNL     1     -13.091 -10.447   9.320  1.00  0.00     0.059 A 
ATOM     94  F   UNL     1     -13.780  -8.421   8.366  1.00  0.00    -0.206 F 
ATOM     95  C   UNL     1     -12.092 -11.399   9.520  1.00  0.00     0.060 A 
BRANCH  95  96
ATOM     96  S   UNL     1     -12.440 -12.896  10.467  1.00  0.00     0.124 S 
ATOM     97  O   UNL     1     -12.536 -13.895   9.409  1.00  0.00    -0.237 OA
ATOM     98  O   UNL     1     -11.269 -12.999  11.333  1.00  0.00    -0.237 OA
ATOM     99  O   UNL     1     -13.691 -12.581  11.150  1.00  0.00    -0.744 OA
ENDBRANCH  95  96
ENDBRANCH  63  88
ENDBRANCH  37  38
ENDBRANCH  29  32
ENDBRANCH  27  28
ENDBRANCH  26  27
ENDBRANCH  25  26
ENDBRANCH  24  25
ENDBRANCH   1  24
TORSDOF 22
