REMARK SMILES O=C(NCCCCCCNC(=O)[C@@H]1CC(=O)N(c2ccc(Cl)cc2C(=O)c2ccccc2)C1)c1ccc(-c2c3nc(c(-c4c(F)cc(S(=O)(=O)[O-])cc4F)c4ccc([nH]4)c(-c4c(F)cc(S(=O)(=O)[O-])cc4F)c4nc(c(-c5c(F)cc(S(=O)(=O)[O-])cc5F)c5ccc2[nH]5)C=C4)C=C3)cc1
REMARK SMILES IDX 6 1 5 2 4 3 3 4 1 5 2 6 34 8 35 9 99 10 36 11 98 12 37 13
REMARK SMILES IDX 38 14 39 15 92 16 40 17 97 18 91 19 93 20 41 21 96 22 90 23
REMARK SMILES IDX 89 24 42 26 76 27 55 28 75 29 56 30 59 31 74 32 94 33 57 34
REMARK SMILES IDX 58 35 73 37 95 38 60 39 43 40 44 41 53 42 45 43 46 44 52 45
REMARK SMILES IDX 54 46 47 47 48 48 49 49 50 50 51 51 77 52 78 53 87 54 79 55
REMARK SMILES IDX 80 56 86 57 88 58 81 59 82 60 83 61 84 62 85 63 61 64 62 65
REMARK SMILES IDX 71 66 63 67 64 68 70 69 72 70 65 71 66 72 67 73 68 74 69 75
REMARK SMILES IDX 7 76 8 77 9 78 10 79 11 80 12 82 13 83 14 84 33 85 15 86
REMARK SMILES IDX 17 87 16 88 18 89 19 90 24 91 20 92 23 93 21 94 22 95 25 96
REMARK SMILES IDX 26 97 27 98 28 99 32 100 29 101 31 102 30 103
REMARK H PARENT 3 7 93 25 59 36 10 81
REMARK Flexibility Score: inf
ROOT
ATOM      1  C   UNL     1       4.450  -3.605  -1.286  1.00  0.00     0.002 C 
ENDROOT
BRANCH   1   2
ATOM      2  C   UNL     1       4.732  -2.554  -0.217  1.00  0.00     0.021 C 
BRANCH   2   3
ATOM      3  C   UNL     1       4.423  -1.116  -0.608  1.00  0.00     0.116 C 
BRANCH   3   4
ATOM      4  N   UNL     1       3.001  -0.838  -0.727  1.00  0.00    -0.352 N 
ATOM      5  O   UNL     1       1.043   0.190  -0.262  1.00  0.00    -0.269 OA
ATOM      6  C   UNL     1       2.263   0.165  -0.135  1.00  0.00     0.251 C 
ATOM      7  H   UNL     1       2.496  -1.449  -1.311  1.00  0.00     0.163 HD
BRANCH   6   8
ATOM      8  C   UNL     1       2.949   1.185   0.693  1.00  0.00     0.039 A 
ATOM      9  C   UNL     1       4.126   1.788   0.247  1.00  0.00     0.014 A 
ATOM     10  C   UNL     1       2.435   1.505   1.953  1.00  0.00     0.014 A 
ATOM     11  C   UNL     1       4.885   2.550   1.128  1.00  0.00     0.010 A 
ATOM     12  C   UNL     1       3.150   2.359   2.799  1.00  0.00     0.010 A 
ATOM     13  C   UNL     1       4.409   2.848   2.416  1.00  0.00    -0.014 A 
BRANCH  13  14
ATOM     14  C   UNL     1       5.240   3.686   3.324  1.00  0.00     0.031 A 
ATOM     15  C   UNL     1       5.758   3.145   4.633  1.00  0.00     0.074 A 
ATOM     16  C   UNL     1       5.566   4.936   2.938  1.00  0.00     0.049 A 
ATOM     17  N   UNL     1       6.528   3.728   5.518  1.00  0.00    -0.248 NA
ATOM     18  C   UNL     1       5.355   1.780   5.004  1.00  0.00     0.031 C 
ATOM     19  C   UNL     1       5.118   5.578   1.699  1.00  0.00     0.029 A 
ATOM     20  N   UNL     1       6.364   5.883   3.529  1.00  0.00    -0.354 N 
ATOM     21  C   UNL     1       6.680   2.816   6.558  1.00  0.00     0.074 A 
ATOM     22  C   UNL     1       5.900   1.649   6.206  1.00  0.00     0.031 C 
ATOM     23  C   UNL     1       5.691   6.785   1.595  1.00  0.00     0.029 A 
ATOM     24  C   UNL     1       6.492   7.034   2.788  1.00  0.00     0.049 A 
ATOM     25  H   UNL     1       6.803   5.750   4.400  1.00  0.00     0.167 HD
ATOM     26  C   UNL     1       7.407   2.939   7.697  1.00  0.00     0.037 A 
ATOM     27  C   UNL     1       7.166   8.171   3.041  1.00  0.00     0.037 A 
ATOM     28  C   UNL     1       8.198   4.098   8.030  1.00  0.00     0.049 A 
ATOM     29  C   UNL     1       7.954   8.284   4.314  1.00  0.00     0.074 A 
ATOM     30  C   UNL     1       9.002   4.301   9.139  1.00  0.00     0.029 A 
ATOM     31  N   UNL     1       8.280   5.253   7.265  1.00  0.00    -0.354 N 
ATOM     32  N   UNL     1       8.114   7.396   5.267  1.00  0.00    -0.248 NA
ATOM     33  C   UNL     1       8.655   9.553   4.547  1.00  0.00     0.031 C 
ATOM     34  C   UNL     1       9.528   5.596   9.071  1.00  0.00     0.029 A 
ATOM     35  C   UNL     1       9.103   6.179   7.888  1.00  0.00     0.049 A 
ATOM     36  H   UNL     1       7.821   5.394   6.406  1.00  0.00     0.167 HD
ATOM     37  C   UNL     1       8.961   7.987   6.197  1.00  0.00     0.074 A 
ATOM     38  C   UNL     1       9.287   9.303   5.686  1.00  0.00     0.031 C 
ATOM     39  C   UNL     1       9.429   7.483   7.366  1.00  0.00     0.037 A 
BRANCH  26  40
ATOM     40  C   UNL     1       7.367   1.801   8.685  1.00  0.00     0.058 A 
ATOM     41  C   UNL     1       7.981   0.565   8.425  1.00  0.00     0.135 A 
ATOM     42  C   UNL     1       6.741   1.967   9.932  1.00  0.00     0.135 A 
ATOM     43  F   UNL     1       8.584   0.344   7.246  1.00  0.00    -0.206 F 
ATOM     44  C   UNL     1       7.949  -0.474   9.351  1.00  0.00     0.059 A 
ATOM     45  C   UNL     1       6.722   0.952  10.885  1.00  0.00     0.059 A 
ATOM     46  F   UNL     1       6.141   3.128  10.238  1.00  0.00    -0.206 F 
ATOM     47  C   UNL     1       7.315  -0.271  10.579  1.00  0.00     0.060 A 
BRANCH  47  48
ATOM     48  S   UNL     1       7.279  -1.631  11.766  1.00  0.00     0.124 S 
ATOM     49  O   UNL     1       6.323  -2.538  11.139  1.00  0.00    -0.237 OA
ATOM     50  O   UNL     1       8.667  -2.079  11.770  1.00  0.00    -0.237 OA
ATOM     51  O   UNL     1       6.824  -0.996  12.999  1.00  0.00    -0.744 OA
ENDBRANCH  47  48
ENDBRANCH  26  40
BRANCH  27  52
ATOM     52  C   UNL     1       7.131   9.286   2.058  1.00  0.00     0.058 A 
ATOM     53  C   UNL     1       8.274   9.644   1.329  1.00  0.00     0.135 A 
ATOM     54  C   UNL     1       5.948  10.002   1.813  1.00  0.00     0.135 A 
ATOM     55  F   UNL     1       9.429   8.991   1.530  1.00  0.00    -0.206 F 
ATOM     56  C   UNL     1       8.253  10.683   0.405  1.00  0.00     0.059 A 
ATOM     57  C   UNL     1       5.894  11.024   0.871  1.00  0.00     0.059 A 
ATOM     58  F   UNL     1       4.821   9.686   2.470  1.00  0.00    -0.206 F 
ATOM     59  C   UNL     1       7.056  11.366   0.181  1.00  0.00     0.060 A 
BRANCH  59  60
ATOM     60  S   UNL     1       7.028  12.682  -1.054  1.00  0.00     0.124 S 
ATOM     61  O   UNL     1       7.767  13.738  -0.373  1.00  0.00    -0.237 OA
ATOM     62  O   UNL     1       7.705  12.054  -2.185  1.00  0.00    -0.237 OA
ATOM     63  O   UNL     1       5.602  12.931  -1.246  1.00  0.00    -0.744 OA
ENDBRANCH  59  60
ENDBRANCH  27  52
BRANCH  39  64
ATOM     64  C   UNL     1      10.392   8.336   8.146  1.00  0.00     0.058 A 
ATOM     65  C   UNL     1       9.985   9.504   8.810  1.00  0.00     0.135 A 
ATOM     66  C   UNL     1      11.742   7.963   8.246  1.00  0.00     0.135 A 
ATOM     67  F   UNL     1       8.707   9.910   8.742  1.00  0.00    -0.206 F 
ATOM     68  C   UNL     1      10.890  10.292   9.515  1.00  0.00     0.059 A 
ATOM     69  C   UNL     1      12.658   8.718   8.971  1.00  0.00     0.059 A 
ATOM     70  F   UNL     1      12.184   6.849   7.639  1.00  0.00    -0.206 F 
ATOM     71  C   UNL     1      12.226   9.891   9.588  1.00  0.00     0.060 A 
BRANCH  71  72
ATOM     72  S   UNL     1      13.390  10.915  10.512  1.00  0.00     0.124 S 
ATOM     73  O   UNL     1      13.568  12.046   9.608  1.00  0.00    -0.237 OA
ATOM     74  O   UNL     1      12.653  11.195  11.740  1.00  0.00    -0.237 OA
ATOM     75  O   UNL     1      14.553  10.048  10.671  1.00  0.00    -0.744 OA
ENDBRANCH  71  72
ENDBRANCH  39  64
ENDBRANCH  13  14
ENDBRANCH   6   8
ENDBRANCH   3   4
ENDBRANCH   2   3
ENDBRANCH   1   2
BRANCH   1  76
ATOM     76  C   UNL     1       5.104  -3.374  -2.652  1.00  0.00     0.002 C 
BRANCH  76  77
ATOM     77  C   UNL     1       6.610  -3.075  -2.668  1.00  0.00     0.021 C 
BRANCH  77  78
ATOM     78  C   UNL     1       7.515  -4.068  -1.939  1.00  0.00     0.116 C 
BRANCH  78  79
ATOM     79  N   UNL     1       7.311  -5.440  -2.351  1.00  0.00    -0.356 N 
ATOM     80  C   UNL     1       8.249  -6.410  -2.506  1.00  0.00     0.225 C 
ATOM     81  H   UNL     1       6.381  -5.702  -2.542  1.00  0.00     0.163 HD
ATOM     82  O   UNL     1       7.988  -7.520  -2.036  1.00  0.00    -0.275 OA
BRANCH  80  83
ATOM     83  C   UNL     1       9.603  -6.142  -3.137  1.00  0.00     0.107 C 
ATOM     84  C   UNL     1       9.680  -5.054  -4.203  1.00  0.00     0.116 C 
ATOM     85  C   UNL     1      10.079  -7.405  -3.869  1.00  0.00     0.139 C 
ATOM     86  C   UNL     1       9.676  -5.785  -5.516  1.00  0.00     0.227 C 
ATOM     87  N   UNL     1       9.812  -7.147  -5.266  1.00  0.00    -0.311 N 
ATOM     88  O   UNL     1       9.594  -5.236  -6.603  1.00  0.00    -0.274 OA
BRANCH  87  89
ATOM     89  C   UNL     1      10.137  -8.078  -6.278  1.00  0.00     0.055 A 
ATOM     90  C   UNL     1      11.233  -7.759  -7.106  1.00  0.00     0.028 A 
ATOM     91  C   UNL     1       9.474  -9.304  -6.473  1.00  0.00     0.048 A 
ATOM     92  C   UNL     1      11.695  -8.645  -8.081  1.00  0.00     0.023 A 
ATOM     93  C   UNL     1       9.944 -10.181  -7.477  1.00  0.00     0.035 A 
ATOM     94  C   UNL     1      11.046  -9.856  -8.262  1.00  0.00     0.041 A 
ATOM     95  Cl  UNL     1      11.610 -10.960  -9.455  1.00  0.00    -0.084 Cl
BRANCH  91  96
ATOM     96  C   UNL     1       8.303  -9.819  -5.712  1.00  0.00     0.195 C 
ATOM     97  O   UNL     1       8.214 -11.042  -5.578  1.00  0.00    -0.289 OA
BRANCH  96  98
ATOM     98  C   UNL     1       7.215  -8.995  -5.133  1.00  0.00     0.023 A 
ATOM     99  C   UNL     1       6.588  -9.496  -3.981  1.00  0.00     0.012 A 
ATOM    100  C   UNL     1       6.750  -7.809  -5.707  1.00  0.00     0.012 A 
ATOM    101  C   UNL     1       5.533  -8.804  -3.386  1.00  0.00     0.001 A 
ATOM    102  C   UNL     1       5.692  -7.115  -5.105  1.00  0.00     0.001 A 
ATOM    103  C   UNL     1       5.087  -7.611  -3.947  1.00  0.00     0.000 A 
ENDBRANCH  96  98
ENDBRANCH  91  96
ENDBRANCH  87  89
ENDBRANCH  80  83
ENDBRANCH  78  79
ENDBRANCH  77  78
ENDBRANCH  76  77
ENDBRANCH   1  76
TORSDOF 19
