REMARK SMILES Cc1ccccc1/C=C1\SC(=O)N(CC(=O)Nc2ccccc2C(=O)NCCCCCCNC(=O)c2ccc(-c3c4nc(c(-c5c(F)cc(S(=O)(=O)[O-])cc5F)c5ccc([nH]5)c(-c5c(F)cc(S(=O)(=O)[O-])cc5F)c5nc(c(-c6c(F)cc(S(=O)(=O)[O-])cc6F)c6ccc3[nH]6)C=C5)C=C4)cc2)C1=O
REMARK SMILES IDX 29 1 28 2 27 3 26 4 24 5 25 6 23 8 18 9 19 10 20 11 22 12
REMARK SMILES IDX 21 13 17 14 15 15 16 16 14 18 13 19 8 20 9 21 10 22 102 23
REMARK SMILES IDX 11 24 103 25 12 26 7 27 1 28 2 29 3 30 4 31 6 32 5 33 30 34
REMARK SMILES IDX 31 35 32 36 33 37 34 38 35 40 36 41 37 42 101 43 38 44
REMARK SMILES IDX 100 45 39 46 40 47 41 48 94 49 42 50 99 51 93 52 95 53 43 54
REMARK SMILES IDX 98 55 92 56 91 57 44 59 78 60 57 61 77 62 58 63 61 64 76 65
REMARK SMILES IDX 96 66 59 67 60 68 75 70 97 71 62 72 45 73 46 74 55 75 47 76
REMARK SMILES IDX 48 77 54 78 56 79 49 80 50 81 51 82 52 83 53 84 79 85 80 86
REMARK SMILES IDX 89 87 81 88 82 89 88 90 90 91 83 92 84 93 85 94 86 95 87 96
REMARK SMILES IDX 63 97 64 98 73 99 65 100 66 101 72 102 74 103 67 104 68 105
REMARK SMILES IDX 69 106 70 107 71 108
REMARK H PARENT 26 7 17 17 33 39 95 58 61 69
REMARK Flexibility Score: inf
ROOT
ATOM      1  C   UNL     1       3.054  -0.401  -2.378  1.00  0.00     0.002 C 
ENDROOT
BRANCH   1   2
ATOM      2  C   UNL     1       3.153   0.428  -3.667  1.00  0.00     0.021 C 
BRANCH   2   3
ATOM      3  C   UNL     1       2.029   1.352  -4.089  1.00  0.00     0.116 C 
BRANCH   3   4
ATOM      4  N   UNL     1       1.734   2.458  -3.178  1.00  0.00    -0.352 N 
ATOM      5  C   UNL     1       1.552   3.807  -3.383  1.00  0.00     0.253 C 
ATOM      6  O   UNL     1       1.098   4.489  -2.467  1.00  0.00    -0.269 OA
ATOM      7  H   UNL     1       1.650   2.184  -2.236  1.00  0.00     0.163 HD
BRANCH   5   8
ATOM      8  C   UNL     1       1.882   4.458  -4.668  1.00  0.00     0.063 A 
ATOM      9  C   UNL     1       2.456   5.741  -4.779  1.00  0.00     0.054 A 
ATOM     10  C   UNL     1       2.611   6.287  -6.072  1.00  0.00     0.027 A 
ATOM     11  C   UNL     1       2.233   5.592  -7.223  1.00  0.00     0.002 A 
ATOM     12  C   UNL     1       1.377   3.842  -5.833  1.00  0.00     0.016 A 
ATOM     13  C   UNL     1       1.594   4.372  -7.102  1.00  0.00     0.001 A 
BRANCH   9  14
ATOM     14  N   UNL     1       2.732   6.669  -3.753  1.00  0.00    -0.324 N 
ATOM     15  C   UNL     1       3.265   6.652  -2.501  1.00  0.00     0.244 C 
ATOM     16  O   UNL     1       3.116   7.685  -1.832  1.00  0.00    -0.273 OA
ATOM     17  H   UNL     1       2.464   7.580  -4.015  1.00  0.00     0.170 HD
BRANCH  15  18
ATOM     18  C   UNL     1       4.213   5.566  -2.013  1.00  0.00     0.230 C 
BRANCH  18  19
ATOM     19  N   UNL     1       3.709   4.460  -1.236  1.00  0.00    -0.259 N 
ATOM     20  C   UNL     1       1.217   2.958   0.735  1.00  0.00     0.029 C 
ATOM     21  C   UNL     1       2.462   3.215   0.299  1.00  0.00     0.083 C 
ATOM     22  S   UNL     1       3.717   2.149  -0.144  1.00  0.00    -0.022 SA
ATOM     23  C   UNL     1       2.844   4.588  -0.167  1.00  0.00     0.268 C 
ATOM     24  C   UNL     1       4.343   3.260  -1.329  1.00  0.00     0.294 C 
ATOM     25  O   UNL     1       2.452   5.617   0.357  1.00  0.00    -0.268 OA
ATOM     26  O   UNL     1       5.284   2.978  -2.083  1.00  0.00    -0.261 OA
BRANCH  20  27
ATOM     27  C   UNL     1       0.451   1.691   0.875  1.00  0.00    -0.021 A 
ATOM     28  C   UNL     1       2.170   0.247   2.156  1.00  0.00     0.045 C 
ATOM     29  C   UNL     1       0.819   0.503   1.540  1.00  0.00    -0.044 A 
ATOM     30  C   UNL     1      -0.077  -0.592   1.527  1.00  0.00     0.004 A 
ATOM     31  C   UNL     1      -1.303  -0.540   0.860  1.00  0.00     0.000 A 
ATOM     32  C   UNL     1      -0.815   1.726   0.236  1.00  0.00     0.008 A 
ATOM     33  C   UNL     1      -1.670   0.621   0.204  1.00  0.00     0.001 A 
ENDBRANCH  20  27
ENDBRANCH  18  19
ENDBRANCH  15  18
ENDBRANCH   9  14
ENDBRANCH   5   8
ENDBRANCH   3   4
ENDBRANCH   2   3
ENDBRANCH   1   2
BRANCH   1  34
ATOM     34  C   UNL     1       1.728  -0.539  -1.539  1.00  0.00     0.002 C 
BRANCH  34  35
ATOM     35  C   UNL     1       0.805  -1.918  -1.353  1.00  0.00     0.021 C 
BRANCH  35  36
ATOM     36  C   UNL     1       1.465  -3.125  -0.424  1.00  0.00     0.116 C 
BRANCH  36  37
ATOM     37  N   UNL     1       1.352  -4.845  -0.274  1.00  0.00    -0.352 N 
ATOM     38  C   UNL     1       1.872  -6.311  -0.508  1.00  0.00     0.251 C 
ATOM     39  H   UNL     1       0.513  -4.976   0.225  1.00  0.00     0.163 HD
ATOM     40  O   UNL     1       1.544  -7.018   0.477  1.00  0.00    -0.269 OA
BRANCH  38  41
ATOM     41  C   UNL     1       2.929  -7.230  -1.562  1.00  0.00     0.039 A 
ATOM     42  C   UNL     1       4.064  -7.962  -1.099  1.00  0.00     0.014 A 
ATOM     43  C   UNL     1       3.011  -7.199  -2.936  1.00  0.00     0.014 A 
ATOM     44  C   UNL     1       5.365  -7.727  -1.707  1.00  0.00     0.010 A 
ATOM     45  C   UNL     1       4.254  -6.822  -3.495  1.00  0.00     0.010 A 
ATOM     46  C   UNL     1       5.444  -6.850  -2.784  1.00  0.00    -0.014 A 
BRANCH  46  47
ATOM     47  C   UNL     1       6.606  -6.029  -3.284  1.00  0.00     0.031 A 
ATOM     48  C   UNL     1       7.278  -6.543  -4.464  1.00  0.00     0.074 A 
ATOM     49  C   UNL     1       7.038  -4.786  -2.917  1.00  0.00     0.049 A 
ATOM     50  N   UNL     1       8.492  -6.966  -4.521  1.00  0.00    -0.248 NA
ATOM     51  C   UNL     1       6.531  -6.677  -5.706  1.00  0.00     0.031 C 
ATOM     52  C   UNL     1       8.173  -3.936  -3.332  1.00  0.00     0.029 A 
ATOM     53  N   UNL     1       6.539  -3.997  -1.909  1.00  0.00    -0.354 N 
ATOM     54  C   UNL     1       8.752  -7.062  -5.873  1.00  0.00     0.074 A 
ATOM     55  C   UNL     1       7.460  -7.208  -6.494  1.00  0.00     0.031 C 
ATOM     56  C   UNL     1       8.503  -3.106  -2.309  1.00  0.00     0.029 A 
ATOM     57  C   UNL     1       7.596  -3.391  -1.220  1.00  0.00     0.049 A 
ATOM     58  H   UNL     1       5.584  -3.875  -1.704  1.00  0.00     0.167 HD
ATOM     59  C   UNL     1       9.930  -6.601  -6.392  1.00  0.00     0.037 A 
ATOM     60  C   UNL     1       7.850  -3.869   0.040  1.00  0.00     0.037 A 
ATOM     61  C   UNL     1      10.700  -5.875  -5.358  1.00  0.00     0.049 A 
ATOM     62  C   UNL     1       9.089  -4.767   0.018  1.00  0.00     0.074 A 
ATOM     63  C   UNL     1      11.052  -4.547  -5.160  1.00  0.00     0.029 A 
ATOM     64  N   UNL     1      10.942  -6.490  -4.141  1.00  0.00    -0.354 N 
ATOM     65  N   UNL     1       9.810  -4.935  -1.059  1.00  0.00    -0.248 NA
ATOM     66  C   UNL     1       9.624  -5.552   1.132  1.00  0.00     0.031 C 
ATOM     67  C   UNL     1      11.488  -4.388  -3.805  1.00  0.00     0.029 A 
ATOM     68  C   UNL     1      11.421  -5.620  -3.182  1.00  0.00     0.049 A 
ATOM     69  H   UNL     1      10.788  -7.448  -3.976  1.00  0.00     0.167 HD
ATOM     70  C   UNL     1      10.829  -5.817  -0.850  1.00  0.00     0.074 A 
ATOM     71  C   UNL     1      10.662  -6.188   0.548  1.00  0.00     0.031 C 
ATOM     72  C   UNL     1      11.706  -6.154  -1.851  1.00  0.00     0.037 A 
BRANCH  59  73
ATOM     73  C   UNL     1      10.231  -6.532  -7.886  1.00  0.00     0.058 A 
ATOM     74  C   UNL     1      11.339  -5.804  -8.366  1.00  0.00     0.135 A 
ATOM     75  C   UNL     1       9.514  -7.212  -8.901  1.00  0.00     0.135 A 
ATOM     76  F   UNL     1      12.201  -5.212  -7.528  1.00  0.00    -0.206 F 
ATOM     77  C   UNL     1      11.650  -5.689  -9.725  1.00  0.00     0.059 A 
ATOM     78  C   UNL     1       9.761  -7.056 -10.267  1.00  0.00     0.059 A 
ATOM     79  F   UNL     1       8.602  -8.150  -8.624  1.00  0.00    -0.206 F 
ATOM     80  C   UNL     1      10.841  -6.298 -10.674  1.00  0.00     0.060 A 
BRANCH  80  81
ATOM     81  S   UNL     1      11.273  -6.174 -12.417  1.00  0.00     0.124 S 
ATOM     82  O   UNL     1      11.252  -4.731 -12.636  1.00  0.00    -0.237 OA
ATOM     83  O   UNL     1      12.589  -6.804 -12.450  1.00  0.00    -0.237 OA
ATOM     84  O   UNL     1      10.211  -6.919 -13.089  1.00  0.00    -0.744 OA
ENDBRANCH  80  81
ENDBRANCH  59  73
BRANCH  60  85
ATOM     85  C   UNL     1       6.520  -4.067   0.793  1.00  0.00     0.058 A 
ATOM     86  C   UNL     1       5.649  -2.955   0.725  1.00  0.00     0.135 A 
ATOM     87  C   UNL     1       5.847  -5.240   0.555  1.00  0.00     0.135 A 
ATOM     88  F   UNL     1       5.967  -1.835   1.385  1.00  0.00    -0.206 F 
ATOM     89  C   UNL     1       4.574  -2.899  -0.204  1.00  0.00     0.059 A 
ATOM     90  C   UNL     1       4.644  -5.204  -0.185  1.00  0.00     0.059 A 
ATOM     91  F   UNL     1       6.401  -6.428   0.851  1.00  0.00    -0.206 F 
ATOM     92  C   UNL     1       4.149  -4.069  -0.834  1.00  0.00     0.060 A 
BRANCH  92  93
ATOM     93  S   UNL     1       3.130  -4.043  -2.696  1.00  0.00     0.124 S 
ATOM     94  O   UNL     1       2.424  -2.805  -2.862  1.00  0.00    -0.237 OA
ATOM     95  O   UNL     1       4.223  -4.110  -3.647  1.00  0.00    -0.237 OA
ATOM     96  O   UNL     1       2.101  -5.059  -2.716  1.00  0.00    -0.744 OA
ENDBRANCH  92  93
ENDBRANCH  60  85
BRANCH  72  97
ATOM     97  C   UNL     1      12.906  -7.064  -1.692  1.00  0.00     0.058 A 
ATOM     98  C   UNL     1      13.650  -7.150  -0.507  1.00  0.00     0.135 A 
ATOM     99  C   UNL     1      13.426  -7.816  -2.779  1.00  0.00     0.135 A 
ATOM    100  F   UNL     1      13.390  -6.348   0.536  1.00  0.00    -0.206 F 
ATOM    101  C   UNL     1      14.727  -8.029  -0.364  1.00  0.00     0.059 A 
ATOM    102  C   UNL     1      14.521  -8.661  -2.675  1.00  0.00     0.059 A 
ATOM    103  F   UNL     1      12.903  -7.774  -4.009  1.00  0.00    -0.206 F 
ATOM    104  C   UNL     1      15.139  -8.797  -1.450  1.00  0.00     0.060 A 
BRANCH 104 105
ATOM    105  S   UNL     1      16.510  -9.942  -1.264  1.00  0.00     0.124 S 
ATOM    106  O   UNL     1      17.500  -9.127  -0.566  1.00  0.00    -0.237 OA
ATOM    107  O   UNL     1      15.895 -11.005  -0.475  1.00  0.00    -0.237 OA
ATOM    108  O   UNL     1      16.853 -10.297  -2.637  1.00  0.00    -0.744 OA
ENDBRANCH 104 105
ENDBRANCH  72  97
ENDBRANCH  46  47
ENDBRANCH  38  41
ENDBRANCH  36  37
ENDBRANCH  35  36
ENDBRANCH  34  35
ENDBRANCH   1  34
TORSDOF 20
