REMARK SMILES Cc1cc([N+](=O)[O-])ccc1NC(=O)[C@@H]1[C@@H](C(=O)NCCCCCCNC(=O)c2ccc(-c3c4nc(c(-c5c(F)cc(S(=O)(=O)[O-])cc5F)c5ccc([nH]5)c(-c5c(F)cc(S(=O)(=O)[O-])cc5F)c5nc(c(-c6c(F)cc(S(=O)(=O)[O-])cc6F)c6ccc3[nH]6)C=C5)C=C4)cc2)[C@H]2C=C[C@@H]1C2
REMARK SMILES IDX 21 1 20 2 19 3 18 4 16 5 17 6 15 8 14 9 97 10 94 11 96 12
REMARK SMILES IDX 98 13 95 14 12 15 11 16 13 18 10 19 1 20 2 21 3 22 4 23 9 24
REMARK SMILES IDX 8 25 5 26 6 27 7 28 22 29 23 30 24 31 25 32 26 33 27 35
REMARK SMILES IDX 28 36 29 37 93 38 30 39 92 40 31 41 32 42 33 43 86 44 34 45
REMARK SMILES IDX 91 46 85 47 87 48 35 49 90 50 84 51 83 52 36 54 70 55 49 56
REMARK SMILES IDX 69 57 50 58 53 59 68 60 88 61 51 62 52 63 67 65 89 66 54 67
REMARK SMILES IDX 37 68 38 69 47 70 39 71 40 72 46 73 48 74 41 75 42 76 43 77
REMARK SMILES IDX 44 78 45 79 71 80 72 81 81 82 73 83 74 84 80 85 82 86 75 87
REMARK SMILES IDX 76 88 77 89 78 90 79 91 55 92 56 93 65 94 57 95 58 96 64 97
REMARK SMILES IDX 66 98 59 99 60 100 61 101 62 102 63 103
REMARK H PARENT 18 7 11 17 25 34 87 53 53 64
REMARK Flexibility Score: inf
ROOT
ATOM      1  C   UNL     1      -5.006   9.389  -1.065  1.00  0.00     0.002 C 
ENDROOT
BRANCH   1   2
ATOM      2  C   UNL     1      -3.821   9.173  -0.114  1.00  0.00     0.021 C 
BRANCH   2   3
ATOM      3  C   UNL     1      -3.521   7.737   0.310  1.00  0.00     0.116 C 
BRANCH   3   4
ATOM      4  N   UNL     1      -3.310   6.832  -0.797  1.00  0.00    -0.356 N 
ATOM      5  C   UNL     1      -2.659   5.637  -0.829  1.00  0.00     0.224 C 
ATOM      6  O   UNL     1      -2.682   5.010  -1.891  1.00  0.00    -0.275 OA
ATOM      7  H   UNL     1      -3.694   7.122  -1.655  1.00  0.00     0.163 HD
BRANCH   5   8
ATOM      8  C   UNL     1      -1.855   5.149   0.377  1.00  0.00     0.098 C 
ATOM      9  C   UNL     1      -1.381   3.652   0.173  1.00  0.00     0.099 C 
ATOM     10  C   UNL     1      -1.813   2.979   1.502  1.00  0.00     0.025 C 
ATOM     11  C   UNL     1      -2.621   5.049   1.721  1.00  0.00     0.025 C 
ATOM     12  C   UNL     1      -3.320   2.870   1.467  1.00  0.00    -0.027 C 
ATOM     13  C   UNL     1      -1.685   4.125   2.506  1.00  0.00     0.017 C 
ATOM     14  C   UNL     1      -3.804   4.115   1.585  1.00  0.00    -0.027 C 
BRANCH   9  15
ATOM     15  C   UNL     1       0.102   3.473  -0.093  1.00  0.00     0.228 C 
ATOM     16  N   UNL     1       0.661   2.236  -0.301  1.00  0.00    -0.326 N 
ATOM     17  H   UNL     1       1.635   2.273  -0.441  1.00  0.00     0.169 HD
ATOM     18  O   UNL     1       0.879   4.433  -0.081  1.00  0.00    -0.274 OA
BRANCH  16  19
ATOM     19  C   UNL     1       0.145   0.923  -0.356  1.00  0.00     0.044 A 
ATOM     20  C   UNL     1       2.484  -0.044   0.171  1.00  0.00     0.047 C 
ATOM     21  C   UNL     1       0.999  -0.166  -0.061  1.00  0.00    -0.021 A 
ATOM     22  C   UNL     1       0.462  -1.472   0.011  1.00  0.00     0.091 A 
ATOM     23  C   UNL     1      -0.898  -1.697  -0.218  1.00  0.00     0.269 A 
ATOM     24  C   UNL     1      -1.189   0.645  -0.684  1.00  0.00     0.033 A 
ATOM     25  C   UNL     1      -1.722  -0.644  -0.595  1.00  0.00     0.088 A 
BRANCH  23  26
ATOM     26  N   UNL     1      -1.460  -3.043  -0.066  1.00  0.00     0.062 N 
ATOM     27  O   UNL     1      -0.669  -3.984   0.092  1.00  0.00    -0.258 OA
ATOM     28  O   UNL     1      -2.694  -3.159  -0.092  1.00  0.00    -0.258 OA
ENDBRANCH  23  26
ENDBRANCH  16  19
ENDBRANCH   9  15
ENDBRANCH   5   8
ENDBRANCH   3   4
ENDBRANCH   2   3
ENDBRANCH   1   2
BRANCH   1  29
ATOM     29  C   UNL     1      -6.365   8.798  -0.663  1.00  0.00     0.002 C 
BRANCH  29  30
ATOM     30  C   UNL     1      -6.841   9.059   0.766  1.00  0.00     0.021 C 
BRANCH  30  31
ATOM     31  C   UNL     1      -6.886  10.526   1.171  1.00  0.00     0.116 C 
BRANCH  31  32
ATOM     32  N   UNL     1      -8.213  11.115   1.195  1.00  0.00    -0.352 N 
ATOM     33  C   UNL     1      -8.546  12.398   1.598  1.00  0.00     0.251 C 
ATOM     34  H   UNL     1      -8.955  10.542   0.893  1.00  0.00     0.163 HD
ATOM     35  O   UNL     1      -9.704  12.752   1.753  1.00  0.00    -0.269 OA
BRANCH  33  36
ATOM     36  C   UNL     1      -7.436  13.367   1.752  1.00  0.00     0.039 A 
ATOM     37  C   UNL     1      -7.366  14.427   0.842  1.00  0.00     0.014 A 
ATOM     38  C   UNL     1      -6.371  13.090   2.607  1.00  0.00     0.014 A 
ATOM     39  C   UNL     1      -6.159  15.108   0.673  1.00  0.00     0.010 A 
ATOM     40  C   UNL     1      -5.152  13.705   2.376  1.00  0.00     0.010 A 
ATOM     41  C   UNL     1      -5.031  14.686   1.383  1.00  0.00    -0.014 A 
BRANCH  41  42
ATOM     42  C   UNL     1      -3.676  15.147   1.080  1.00  0.00     0.031 A 
ATOM     43  C   UNL     1      -2.984  16.115   1.968  1.00  0.00     0.074 A 
ATOM     44  C   UNL     1      -3.017  14.705  -0.017  1.00  0.00     0.049 A 
ATOM     45  N   UNL     1      -2.135  16.997   1.548  1.00  0.00    -0.248 NA
ATOM     46  C   UNL     1      -3.215  16.180   3.407  1.00  0.00     0.031 C 
ATOM     47  C   UNL     1      -1.598  14.899  -0.308  1.00  0.00     0.029 A 
ATOM     48  N   UNL     1      -3.532  14.175  -1.202  1.00  0.00    -0.354 N 
ATOM     49  C   UNL     1      -1.518  17.542   2.652  1.00  0.00     0.074 A 
ATOM     50  C   UNL     1      -2.273  17.052   3.784  1.00  0.00     0.031 C 
ATOM     51  C   UNL     1      -1.416  14.809  -1.633  1.00  0.00     0.029 A 
ATOM     52  C   UNL     1      -2.727  14.666  -2.243  1.00  0.00     0.049 A 
ATOM     53  H   UNL     1      -4.308  13.576  -1.290  1.00  0.00     0.167 HD
ATOM     54  C   UNL     1      -0.349  18.233   2.521  1.00  0.00     0.037 A 
ATOM     55  C   UNL     1      -3.168  15.357  -3.332  1.00  0.00     0.037 A 
ATOM     56  C   UNL     1       0.119  18.249   1.141  1.00  0.00     0.049 A 
ATOM     57  C   UNL     1      -2.459  16.674  -3.538  1.00  0.00     0.074 A 
ATOM     58  C   UNL     1       1.033  17.453   0.469  1.00  0.00     0.029 A 
ATOM     59  N   UNL     1      -0.546  18.992   0.176  1.00  0.00    -0.354 N 
ATOM     60  N   UNL     1      -1.757  17.268  -2.615  1.00  0.00    -0.248 NA
ATOM     61  C   UNL     1      -2.521  17.453  -4.771  1.00  0.00     0.031 C 
ATOM     62  C   UNL     1       0.920  17.720  -0.912  1.00  0.00     0.029 A 
ATOM     63  C   UNL     1      -0.070  18.672  -1.081  1.00  0.00     0.049 A 
ATOM     64  H   UNL     1      -1.254  19.651   0.360  1.00  0.00     0.167 HD
ATOM     65  C   UNL     1      -1.309  18.481  -3.079  1.00  0.00     0.074 A 
ATOM     66  C   UNL     1      -1.795  18.538  -4.444  1.00  0.00     0.031 C 
ATOM     67  C   UNL     1      -0.586  19.320  -2.277  1.00  0.00     0.037 A 
BRANCH  54  68
ATOM     68  C   UNL     1       0.525  18.620   3.696  1.00  0.00     0.058 A 
ATOM     69  C   UNL     1       1.935  18.582   3.604  1.00  0.00     0.135 A 
ATOM     70  C   UNL     1       0.024  19.009   4.953  1.00  0.00     0.135 A 
ATOM     71  F   UNL     1       2.562  18.325   2.449  1.00  0.00    -0.206 F 
ATOM     72  C   UNL     1       2.773  18.786   4.699  1.00  0.00     0.059 A 
ATOM     73  C   UNL     1       0.842  19.173   6.078  1.00  0.00     0.059 A 
ATOM     74  F   UNL     1      -1.283  19.259   5.126  1.00  0.00    -0.206 F 
ATOM     75  C   UNL     1       2.218  19.041   5.943  1.00  0.00     0.060 A 
BRANCH  75  76
ATOM     76  S   UNL     1       3.318  19.161   7.367  1.00  0.00     0.124 S 
ATOM     77  O   UNL     1       4.107  17.937   7.250  1.00  0.00    -0.237 OA
ATOM     78  O   UNL     1       4.032  20.404   7.097  1.00  0.00    -0.237 OA
ATOM     79  O   UNL     1       2.401  19.195   8.502  1.00  0.00    -0.744 OA
ENDBRANCH  75  76
ENDBRANCH  54  68
BRANCH  55  80
ATOM     80  C   UNL     1      -4.580  15.095  -3.702  1.00  0.00     0.058 A 
ATOM     81  C   UNL     1      -4.898  13.841  -4.254  1.00  0.00     0.135 A 
ATOM     82  C   UNL     1      -5.619  15.849  -3.139  1.00  0.00     0.135 A 
ATOM     83  F   UNL     1      -3.939  13.095  -4.826  1.00  0.00    -0.206 F 
ATOM     84  C   UNL     1      -6.161  13.284  -4.103  1.00  0.00     0.059 A 
ATOM     85  C   UNL     1      -6.894  15.310  -2.980  1.00  0.00     0.059 A 
ATOM     86  F   UNL     1      -5.363  17.043  -2.586  1.00  0.00    -0.206 F 
ATOM     87  C   UNL     1      -7.131  14.001  -3.404  1.00  0.00     0.060 A 
BRANCH  87  88
ATOM     88  S   UNL     1      -8.625  13.121  -2.890  1.00  0.00     0.124 S 
ATOM     89  O   UNL     1      -9.195  12.718  -4.170  1.00  0.00    -0.237 OA
ATOM     90  O   UNL     1      -8.062  12.045  -2.077  1.00  0.00    -0.237 OA
ATOM     91  O   UNL     1      -9.369  14.138  -2.156  1.00  0.00    -0.744 OA
ENDBRANCH  87  88
ENDBRANCH  55  80
BRANCH  67  92
ATOM     92  C   UNL     1      -0.186  20.758  -2.553  1.00  0.00     0.058 A 
ATOM     93  C   UNL     1      -0.849  21.615  -3.448  1.00  0.00     0.135 A 
ATOM     94  C   UNL     1       0.846  21.371  -1.794  1.00  0.00     0.135 A 
ATOM     95  F   UNL     1      -1.916  21.208  -4.147  1.00  0.00    -0.206 F 
ATOM     96  C   UNL     1      -0.477  22.952  -3.627  1.00  0.00     0.059 A 
ATOM     97  C   UNL     1       1.197  22.714  -1.917  1.00  0.00     0.059 A 
ATOM     98  F   UNL     1       1.550  20.686  -0.880  1.00  0.00    -0.206 F 
ATOM     99  C   UNL     1       0.547  23.494  -2.857  1.00  0.00     0.060 A 
BRANCH  99 100
ATOM    100  S   UNL     1       0.984  25.235  -3.029  1.00  0.00     0.124 S 
ATOM    101  O   UNL     1       2.023  25.175  -4.051  1.00  0.00    -0.237 OA
ATOM    102  O   UNL     1      -0.275  25.846  -3.446  1.00  0.00    -0.237 OA
ATOM    103  O   UNL     1       1.432  25.599  -1.689  1.00  0.00    -0.744 OA
ENDBRANCH  99 100
ENDBRANCH  67  92
ENDBRANCH  41  42
ENDBRANCH  33  36
ENDBRANCH  31  32
ENDBRANCH  30  31
ENDBRANCH  29  30
ENDBRANCH   1  29
TORSDOF 19
