REMARK SMILES Cc1c(NC(=O)[C@@H]2CC=CC[C@@H]2C(=O)NCCCCCCNC(=O)c2ccc(-c3c4nc(c(-c5c(F)cc(S(=O)(=O)[O-])cc5F)c5ccc([nH]5)c(-c5c(F)cc(S(=O)(=O)[O-])cc5F)c5nc(c(-c6c(F)cc(S(=O)(=O)[O-])cc6F)c6ccc3[nH]6)C=C5)C=C4)cc2)cccc1C(=O)N1CCOCC1
REMARK SMILES IDX 18 1 17 2 16 3 15 4 13 5 14 6 12 8 7 9 8 10 9 11 11 12 10 13
REMARK SMILES IDX 5 14 4 15 6 17 3 18 1 19 2 20 94 21 91 22 93 23 92 24 95 25
REMARK SMILES IDX 96 26 97 27 98 28 102 29 99 30 101 31 100 32 19 33 20 34
REMARK SMILES IDX 21 35 22 36 23 37 24 39 25 40 26 41 90 42 27 43 89 44 28 45
REMARK SMILES IDX 29 46 30 47 83 48 31 49 88 50 82 51 84 52 32 53 87 54 81 55
REMARK SMILES IDX 80 56 33 58 67 59 46 60 66 61 47 62 50 63 65 64 85 65 48 66
REMARK SMILES IDX 49 67 64 69 86 70 51 71 34 72 35 73 44 74 36 75 37 76 43 77
REMARK SMILES IDX 45 78 38 79 39 80 40 81 41 82 42 83 68 84 69 85 78 86 70 87
REMARK SMILES IDX 71 88 77 89 79 90 72 91 73 92 74 93 75 94 76 95 52 96 53 97
REMARK SMILES IDX 62 98 54 99 55 100 61 101 63 102 56 103 57 104 58 105 59 106
REMARK SMILES IDX 60 107
REMARK H PARENT 15 7 4 16 22 38 84 57 50 68
REMARK Flexibility Score: inf
ROOT
ATOM      1  C   UNL     1      -6.149  -5.053   1.775  1.00  0.00     0.002 C 
ENDROOT
BRANCH   1   2
ATOM      2  C   UNL     1      -4.661  -4.688   1.741  1.00  0.00     0.021 C 
BRANCH   2   3
ATOM      3  C   UNL     1      -4.029  -4.630   0.349  1.00  0.00     0.116 C 
BRANCH   3   4
ATOM      4  N   UNL     1      -4.268  -3.364  -0.313  1.00  0.00    -0.356 N 
ATOM      5  C   UNL     1      -3.522  -2.427  -0.938  1.00  0.00     0.224 C 
ATOM      6  O   UNL     1      -4.206  -1.547  -1.490  1.00  0.00    -0.275 OA
ATOM      7  H   UNL     1      -5.223  -3.123  -0.306  1.00  0.00     0.163 HD
BRANCH   5   8
ATOM      8  C   UNL     1      -1.985  -2.370  -1.113  1.00  0.00     0.095 C 
ATOM      9  C   UNL     1      -1.000  -3.224  -0.278  1.00  0.00     0.095 C 
ATOM     10  C   UNL     1      -1.172  -2.908   1.216  1.00  0.00     0.041 C 
ATOM     11  C   UNL     1      -1.146  -1.424   1.468  1.00  0.00    -0.030 C 
ATOM     12  C   UNL     1      -1.546  -0.886  -0.944  1.00  0.00     0.041 C 
ATOM     13  C   UNL     1      -1.285  -0.514   0.492  1.00  0.00    -0.030 C 
BRANCH   9  14
ATOM     14  C   UNL     1      -1.012  -4.674  -0.742  1.00  0.00     0.228 C 
ATOM     15  N   UNL     1      -0.328  -5.682  -0.149  1.00  0.00    -0.326 N 
ATOM     16  H   UNL     1      -0.667  -6.564  -0.427  1.00  0.00     0.169 HD
ATOM     17  O   UNL     1      -1.698  -5.018  -1.714  1.00  0.00    -0.274 OA
BRANCH  15  18
ATOM     18  C   UNL     1       0.738  -5.799   0.760  1.00  0.00     0.044 A 
ATOM     19  C   UNL     1      -0.195  -8.079   1.320  1.00  0.00     0.047 C 
ATOM     20  C   UNL     1       0.914  -7.058   1.402  1.00  0.00    -0.015 A 
ATOM     21  C   UNL     1       2.080  -7.289   2.168  1.00  0.00     0.045 A 
ATOM     22  C   UNL     1       1.657  -4.773   0.982  1.00  0.00     0.026 A 
ATOM     23  C   UNL     1       2.973  -6.228   2.390  1.00  0.00     0.014 A 
ATOM     24  C   UNL     1       2.753  -4.977   1.819  1.00  0.00     0.003 A 
BRANCH  21  25
ATOM     25  C   UNL     1       2.361  -8.541   2.936  1.00  0.00     0.254 C 
ATOM     26  O   UNL     1       2.791  -8.410   4.082  1.00  0.00    -0.269 OA
ATOM     27  N   UNL     1       2.107  -9.799   2.400  1.00  0.00    -0.334 N 
ATOM     28  C   UNL     1       2.236 -10.191   0.994  1.00  0.00     0.148 C 
ATOM     29  C   UNL     1       2.012 -10.927   3.329  1.00  0.00     0.148 C 
ATOM     30  C   UNL     1       1.202 -11.265   0.610  1.00  0.00     0.181 C 
ATOM     31  C   UNL     1       0.926 -11.901   2.868  1.00  0.00     0.181 C 
ATOM     32  O   UNL     1       1.200 -12.364   1.534  1.00  0.00    -0.378 OA
ENDBRANCH  21  25
ENDBRANCH  15  18
ENDBRANCH   9  14
ENDBRANCH   5   8
ENDBRANCH   3   4
ENDBRANCH   2   3
ENDBRANCH   1   2
BRANCH   1  33
ATOM     33  C   UNL     1      -6.548  -6.382   1.112  1.00  0.00     0.002 C 
BRANCH  33  34
ATOM     34  C   UNL     1      -5.650  -7.586   1.405  1.00  0.00     0.021 C 
BRANCH  34  35
ATOM     35  C   UNL     1      -5.608  -7.997   2.870  1.00  0.00     0.116 C 
BRANCH  35  36
ATOM     36  N   UNL     1      -6.514  -9.080   3.204  1.00  0.00    -0.352 N 
ATOM     37  C   UNL     1      -6.703  -9.705   4.425  1.00  0.00     0.251 C 
ATOM     38  H   UNL     1      -7.068  -9.416   2.463  1.00  0.00     0.163 HD
ATOM     39  O   UNL     1      -7.271 -10.784   4.483  1.00  0.00    -0.269 OA
BRANCH  37  40
ATOM     40  C   UNL     1      -6.288  -8.998   5.661  1.00  0.00     0.039 A 
ATOM     41  C   UNL     1      -7.251  -8.807   6.661  1.00  0.00     0.014 A 
ATOM     42  C   UNL     1      -5.044  -8.383   5.762  1.00  0.00     0.014 A 
ATOM     43  C   UNL     1      -7.035  -7.863   7.669  1.00  0.00     0.010 A 
ATOM     44  C   UNL     1      -4.863  -7.394   6.708  1.00  0.00     0.010 A 
ATOM     45  C   UNL     1      -5.870  -7.103   7.643  1.00  0.00    -0.014 A 
BRANCH  45  46
ATOM     46  C   UNL     1      -5.580  -5.951   8.494  1.00  0.00     0.031 A 
ATOM     47  C   UNL     1      -4.472  -6.018   9.482  1.00  0.00     0.074 A 
ATOM     48  C   UNL     1      -6.157  -4.758   8.236  1.00  0.00     0.049 A 
ATOM     49  N   UNL     1      -4.139  -5.065  10.286  1.00  0.00    -0.248 NA
ATOM     50  C   UNL     1      -3.686  -7.229   9.685  1.00  0.00     0.031 C 
ATOM     51  C   UNL     1      -5.612  -3.440   8.551  1.00  0.00     0.029 A 
ATOM     52  N   UNL     1      -7.446  -4.490   7.799  1.00  0.00    -0.354 N 
ATOM     53  C   UNL     1      -2.970  -5.419  10.924  1.00  0.00     0.074 A 
ATOM     54  C   UNL     1      -2.789  -6.809  10.583  1.00  0.00     0.031 C 
ATOM     55  C   UNL     1      -6.595  -2.531   8.498  1.00  0.00     0.029 A 
ATOM     56  C   UNL     1      -7.843  -3.253   8.337  1.00  0.00     0.049 A 
ATOM     57  H   UNL     1      -7.989  -5.067   7.214  1.00  0.00     0.167 HD
ATOM     58  C   UNL     1      -2.262  -4.454  11.584  1.00  0.00     0.037 A 
ATOM     59  C   UNL     1      -8.898  -3.163   9.207  1.00  0.00     0.037 A 
ATOM     60  C   UNL     1      -3.056  -3.228  11.717  1.00  0.00     0.049 A 
ATOM     61  C   UNL     1      -8.547  -2.692  10.605  1.00  0.00     0.074 A 
ATOM     62  C   UNL     1      -3.095  -2.004  11.071  1.00  0.00     0.029 A 
ATOM     63  N   UNL     1      -4.169  -3.263  12.536  1.00  0.00    -0.354 N 
ATOM     64  N   UNL     1      -7.344  -2.384  11.003  1.00  0.00    -0.248 NA
ATOM     65  C   UNL     1      -9.524  -2.616  11.696  1.00  0.00     0.031 C 
ATOM     66  C   UNL     1      -4.281  -1.326  11.484  1.00  0.00     0.029 A 
ATOM     67  C   UNL     1      -4.949  -2.135  12.385  1.00  0.00     0.049 A 
ATOM     68  H   UNL     1      -4.379  -4.003  13.151  1.00  0.00     0.167 HD
ATOM     69  C   UNL     1      -7.350  -2.207  12.360  1.00  0.00     0.074 A 
ATOM     70  C   UNL     1      -8.743  -2.308  12.746  1.00  0.00     0.031 C 
ATOM     71  C   UNL     1      -6.213  -2.068  13.094  1.00  0.00     0.037 A 
BRANCH  58  72
ATOM     72  C   UNL     1      -0.800  -4.519  12.010  1.00  0.00     0.058 A 
ATOM     73  C   UNL     1      -0.139  -3.346  12.451  1.00  0.00     0.135 A 
ATOM     74  C   UNL     1       0.042  -5.648  11.930  1.00  0.00     0.135 A 
ATOM     75  F   UNL     1      -0.800  -2.193  12.630  1.00  0.00    -0.206 F 
ATOM     76  C   UNL     1       1.236  -3.285  12.710  1.00  0.00     0.059 A 
ATOM     77  C   UNL     1       1.415  -5.613  12.182  1.00  0.00     0.059 A 
ATOM     78  F   UNL     1      -0.404  -6.860  11.603  1.00  0.00    -0.206 F 
ATOM     79  C   UNL     1       2.012  -4.422  12.547  1.00  0.00     0.060 A 
BRANCH  79  80
ATOM     80  S   UNL     1       3.792  -4.328  12.797  1.00  0.00     0.124 S 
ATOM     81  O   UNL     1       4.197  -3.417  11.731  1.00  0.00    -0.237 OA
ATOM     82  O   UNL     1       3.888  -3.803  14.155  1.00  0.00    -0.237 OA
ATOM     83  O   UNL     1       4.233  -5.711  12.633  1.00  0.00    -0.744 OA
ENDBRANCH  79  80
ENDBRANCH  58  72
BRANCH  59  84
ATOM     84  C   UNL     1      -9.974  -4.141   8.892  1.00  0.00     0.058 A 
ATOM     85  C   UNL     1     -10.675  -3.959   7.685  1.00  0.00     0.135 A 
ATOM     86  C   UNL     1      -9.951  -5.424   9.457  1.00  0.00     0.135 A 
ATOM     87  F   UNL     1     -10.742  -2.741   7.122  1.00  0.00    -0.206 F 
ATOM     88  C   UNL     1     -11.150  -5.043   6.961  1.00  0.00     0.059 A 
ATOM     89  C   UNL     1     -10.434  -6.523   8.752  1.00  0.00     0.059 A 
ATOM     90  F   UNL     1      -9.310  -5.643  10.614  1.00  0.00    -0.206 F 
ATOM     91  C   UNL     1     -10.949  -6.325   7.470  1.00  0.00     0.060 A 
BRANCH  91  92
ATOM     92  S   UNL     1     -11.142  -7.716   6.332  1.00  0.00     0.124 S 
ATOM     93  O   UNL     1     -12.533  -7.579   5.917  1.00  0.00    -0.237 OA
ATOM     94  O   UNL     1     -10.141  -7.394   5.318  1.00  0.00    -0.237 OA
ATOM     95  O   UNL     1     -10.840  -8.875   7.165  1.00  0.00    -0.744 OA
ENDBRANCH  91  92
ENDBRANCH  59  84
BRANCH  71  96
ATOM     96  C   UNL     1      -6.231  -1.895  14.578  1.00  0.00     0.058 A 
ATOM     97  C   UNL     1      -6.890  -0.813  15.180  1.00  0.00     0.135 A 
ATOM     98  C   UNL     1      -5.472  -2.729  15.421  1.00  0.00     0.135 A 
ATOM     99  F   UNL     1      -7.631   0.029  14.440  1.00  0.00    -0.206 F 
ATOM    100  C   UNL     1      -6.793  -0.564  16.548  1.00  0.00     0.059 A 
ATOM    101  C   UNL     1      -5.331  -2.479  16.782  1.00  0.00     0.059 A 
ATOM    102  F   UNL     1      -4.858  -3.821  14.937  1.00  0.00    -0.206 F 
ATOM    103  C   UNL     1      -6.003  -1.397  17.340  1.00  0.00     0.060 A 
BRANCH 103 104
ATOM    104  S   UNL     1      -5.819  -1.040  19.099  1.00  0.00     0.124 S 
ATOM    105  O   UNL     1      -5.895   0.417  19.144  1.00  0.00    -0.237 OA
ATOM    106  O   UNL     1      -6.965  -1.748  19.660  1.00  0.00    -0.237 OA
ATOM    107  O   UNL     1      -4.510  -1.603  19.419  1.00  0.00    -0.744 OA
ENDBRANCH 103 104
ENDBRANCH  71  96
ENDBRANCH  45  46
ENDBRANCH  37  40
ENDBRANCH  35  36
ENDBRANCH  34  35
ENDBRANCH  33  34
ENDBRANCH   1  33
TORSDOF 19
