REMARK SMILES COc1ccc(F)cc1-c1ccc(C[C@]2(C(=O)NCCCCCCNC(=O)c3ccc(-c4c5nc(c(-c6c(F)cc(S(=O)(=O)[O-])cc6F)c6ccc([nH]6)c(-c6c(F)cc(S(=O)(=O)[O-])cc6F)c6nc(c(-c7c(F)cc(S(=O)(=O)[O-])cc7F)c7ccc4[nH]7)C=C6)C=C5)cc3)CCCO2)cc1
REMARK SMILES IDX 21 1 20 2 19 3 18 4 16 5 17 6 15 8 94 9 97 10 95 11 96 12
REMARK SMILES IDX 14 13 13 14 10 15 11 16 99 17 12 18 98 19 9 20 3 21 4 22
REMARK SMILES IDX 5 23 8 24 6 25 7 26 2 27 1 28 22 29 23 30 24 31 25 32 26 33
REMARK SMILES IDX 27 35 28 36 29 37 93 38 30 39 92 40 31 41 32 42 33 43 86 44
REMARK SMILES IDX 34 45 91 46 85 47 87 48 35 49 90 50 84 51 83 52 36 54 70 55
REMARK SMILES IDX 49 56 69 57 50 58 53 59 68 60 88 61 51 62 52 63 67 65 89 66
REMARK SMILES IDX 54 67 37 68 38 69 47 70 39 71 40 72 46 73 48 74 41 75 42 76
REMARK SMILES IDX 43 77 44 78 45 79 71 80 72 81 81 82 73 83 74 84 80 85 82 86
REMARK SMILES IDX 75 87 76 88 77 89 78 90 79 91 55 92 56 93 65 94 57 95 58 96
REMARK SMILES IDX 64 97 66 98 59 99 60 100 61 101 62 102 63 103
REMARK H PARENT 18 7 25 34 87 53 53 64
REMARK Flexibility Score: inf
ROOT
ATOM      1  C   UNL     1     -10.979   0.380   6.714  1.00  0.00     0.002 C 
ENDROOT
BRANCH   1   2
ATOM      2  C   UNL     1      -9.508  -0.043   6.650  1.00  0.00     0.021 C 
BRANCH   2   3
ATOM      3  C   UNL     1      -9.127  -0.777   5.364  1.00  0.00     0.116 C 
BRANCH   3   4
ATOM      4  N   UNL     1      -8.974   0.146   4.258  1.00  0.00    -0.354 N 
ATOM      5  C   UNL     1      -7.852   0.600   3.625  1.00  0.00     0.252 C 
ATOM      6  O   UNL     1      -8.035   1.447   2.742  1.00  0.00    -0.272 OA
ATOM      7  H   UNL     1      -9.819   0.507   3.905  1.00  0.00     0.163 HD
BRANCH   5   8
ATOM      8  C   UNL     1      -6.419   0.112   4.016  1.00  0.00     0.150 C 
ATOM      9  C   UNL     1      -6.056   0.552   5.438  1.00  0.00     0.048 C 
ATOM     10  O   UNL     1      -6.368  -1.327   3.992  1.00  0.00    -0.365 OA
ATOM     11  C   UNL     1      -5.650  -0.708   6.167  1.00  0.00     0.032 C 
ATOM     12  C   UNL     1      -5.591  -1.781   5.104  1.00  0.00     0.162 C 
BRANCH   8  13
ATOM     13  C   UNL     1      -5.436   0.681   2.946  1.00  0.00     0.081 C 
BRANCH  13  14
ATOM     14  C   UNL     1      -3.997   0.208   3.000  1.00  0.00    -0.045 A 
ATOM     15  C   UNL     1      -1.337  -0.743   3.119  1.00  0.00    -0.015 A 
ATOM     16  C   UNL     1      -1.761   0.304   3.946  1.00  0.00     0.009 A 
ATOM     17  C   UNL     1      -2.255  -1.298   2.217  1.00  0.00     0.009 A 
ATOM     18  C   UNL     1      -3.070   0.786   3.875  1.00  0.00     0.004 A 
ATOM     19  C   UNL     1      -3.571  -0.832   2.163  1.00  0.00     0.004 A 
BRANCH  15  20
ATOM     20  C   UNL     1       0.036  -1.253   3.208  1.00  0.00     0.027 A 
ATOM     21  C   UNL     1       1.046  -0.847   2.311  1.00  0.00     0.126 A 
ATOM     22  C   UNL     1       2.352  -1.336   2.441  1.00  0.00     0.050 A 
ATOM     23  C   UNL     1       2.656  -2.254   3.445  1.00  0.00     0.043 A 
ATOM     24  C   UNL     1       0.363  -2.179   4.212  1.00  0.00     0.051 A 
ATOM     25  C   UNL     1       1.660  -2.668   4.319  1.00  0.00     0.124 A 
ATOM     26  F   UNL     1       1.957  -3.543   5.288  1.00  0.00    -0.207 F 
BRANCH  21  27
ATOM     27  O   UNL     1       0.730   0.107   1.376  1.00  0.00    -0.496 OA
ATOM     28  C   UNL     1       1.131  -0.239   0.054  1.00  0.00     0.278 C 
ENDBRANCH  21  27
ENDBRANCH  15  20
ENDBRANCH  13  14
ENDBRANCH   8  13
ENDBRANCH   5   8
ENDBRANCH   3   4
ENDBRANCH   2   3
ENDBRANCH   1   2
BRANCH   1  29
ATOM     29  C   UNL     1     -11.985  -0.775   6.705  1.00  0.00     0.002 C 
BRANCH  29  30
ATOM     30  C   UNL     1     -11.761  -1.849   7.776  1.00  0.00     0.021 C 
BRANCH  30  31
ATOM     31  C   UNL     1     -11.738  -1.336   9.215  1.00  0.00     0.116 C 
BRANCH  31  32
ATOM     32  N   UNL     1     -12.982  -0.681   9.577  1.00  0.00    -0.352 N 
ATOM     33  C   UNL     1     -13.822  -0.909  10.635  1.00  0.00     0.251 C 
ATOM     34  H   UNL     1     -13.266   0.038   8.967  1.00  0.00     0.163 HD
ATOM     35  O   UNL     1     -14.934  -0.390  10.642  1.00  0.00    -0.269 OA
BRANCH  33  36
ATOM     36  C   UNL     1     -13.405  -1.775  11.761  1.00  0.00     0.039 A 
ATOM     37  C   UNL     1     -14.350  -2.643  12.317  1.00  0.00     0.014 A 
ATOM     38  C   UNL     1     -12.123  -1.693  12.314  1.00  0.00     0.014 A 
ATOM     39  C   UNL     1     -14.001  -3.446  13.404  1.00  0.00     0.010 A 
ATOM     40  C   UNL     1     -11.757  -2.538  13.362  1.00  0.00     0.010 A 
ATOM     41  C   UNL     1     -12.697  -3.412  13.927  1.00  0.00    -0.014 A 
BRANCH  41  42
ATOM     42  C   UNL     1     -12.326  -4.286  15.069  1.00  0.00     0.031 A 
ATOM     43  C   UNL     1     -12.016  -3.697  16.417  1.00  0.00     0.074 A 
ATOM     44  C   UNL     1     -12.262  -5.618  14.884  1.00  0.00     0.049 A 
ATOM     45  N   UNL     1     -11.731  -4.311  17.537  1.00  0.00    -0.248 NA
ATOM     46  C   UNL     1     -12.003  -2.230  16.517  1.00  0.00     0.031 C 
ATOM     47  C   UNL     1     -12.486  -6.303  13.609  1.00  0.00     0.029 A 
ATOM     48  N   UNL     1     -12.003  -6.635  15.767  1.00  0.00    -0.354 N 
ATOM     49  C   UNL     1     -11.501  -3.308  18.472  1.00  0.00     0.074 A 
ATOM     50  C   UNL     1     -11.627  -2.047  17.775  1.00  0.00     0.031 C 
ATOM     51  C   UNL     1     -12.399  -7.628  13.802  1.00  0.00     0.029 A 
ATOM     52  C   UNL     1     -12.094  -7.886  15.207  1.00  0.00     0.049 A 
ATOM     53  H   UNL     1     -11.774  -6.482  16.712  1.00  0.00     0.167 HD
ATOM     54  C   UNL     1     -11.232  -3.428  19.794  1.00  0.00     0.037 A 
ATOM     55  C   UNL     1     -11.968  -9.106  15.764  1.00  0.00     0.037 A 
ATOM     56  C   UNL     1     -11.132  -4.686  20.488  1.00  0.00     0.049 A 
ATOM     57  C   UNL     1     -11.707  -9.218  17.238  1.00  0.00     0.074 A 
ATOM     58  C   UNL     1     -10.924  -4.912  21.838  1.00  0.00     0.029 A 
ATOM     59  N   UNL     1     -11.231  -5.933  19.886  1.00  0.00    -0.354 N 
ATOM     60  N   UNL     1     -11.553  -8.260  18.120  1.00  0.00    -0.248 NA
ATOM     61  C   UNL     1     -11.613 -10.574  17.795  1.00  0.00     0.031 C 
ATOM     62  C   UNL     1     -10.865  -6.295  22.047  1.00  0.00     0.029 A 
ATOM     63  C   UNL     1     -11.073  -6.931  20.834  1.00  0.00     0.049 A 
ATOM     64  H   UNL     1     -11.391  -6.085  18.927  1.00  0.00     0.167 HD
ATOM     65  C   UNL     1     -11.351  -8.895  19.340  1.00  0.00     0.074 A 
ATOM     66  C   UNL     1     -11.423 -10.320  19.084  1.00  0.00     0.031 C 
ATOM     67  C   UNL     1     -11.127  -8.347  20.560  1.00  0.00     0.037 A 
BRANCH  54  68
ATOM     68  C   UNL     1     -11.037  -2.160  20.579  1.00  0.00     0.058 A 
ATOM     69  C   UNL     1      -9.767  -1.801  21.056  1.00  0.00     0.135 A 
ATOM     70  C   UNL     1     -12.113  -1.308  20.878  1.00  0.00     0.135 A 
ATOM     71  F   UNL     1      -8.702  -2.576  20.796  1.00  0.00    -0.206 F 
ATOM     72  C   UNL     1      -9.569  -0.641  21.799  1.00  0.00     0.059 A 
ATOM     73  C   UNL     1     -11.935  -0.131  21.599  1.00  0.00     0.059 A 
ATOM     74  F   UNL     1     -13.345  -1.594  20.427  1.00  0.00    -0.206 F 
ATOM     75  C   UNL     1     -10.659   0.190  22.063  1.00  0.00     0.060 A 
BRANCH  75  76
ATOM     76  S   UNL     1     -10.378   1.728  22.966  1.00  0.00     0.124 S 
ATOM     77  O   UNL     1     -10.205   1.247  24.332  1.00  0.00    -0.237 OA
ATOM     78  O   UNL     1      -9.180   2.253  22.318  1.00  0.00    -0.237 OA
ATOM     79  O   UNL     1     -11.597   2.492  22.715  1.00  0.00    -0.744 OA
ENDBRANCH  75  76
ENDBRANCH  54  68
BRANCH  55  80
ATOM     80  C   UNL     1     -12.162 -10.310  14.917  1.00  0.00     0.058 A 
ATOM     81  C   UNL     1     -11.203 -10.694  13.967  1.00  0.00     0.135 A 
ATOM     82  C   UNL     1     -13.354 -11.046  14.982  1.00  0.00     0.135 A 
ATOM     83  F   UNL     1     -10.052 -10.013  13.860  1.00  0.00    -0.206 F 
ATOM     84  C   UNL     1     -11.436 -11.743  13.085  1.00  0.00     0.059 A 
ATOM     85  C   UNL     1     -13.602 -12.112  14.123  1.00  0.00     0.059 A 
ATOM     86  F   UNL     1     -14.294 -10.720  15.883  1.00  0.00    -0.206 F 
ATOM     87  C   UNL     1     -12.645 -12.436  13.161  1.00  0.00     0.060 A 
BRANCH  87  88
ATOM     88  S   UNL     1     -12.957 -13.750  11.963  1.00  0.00     0.124 S 
ATOM     89  O   UNL     1     -13.141 -12.984  10.734  1.00  0.00    -0.237 OA
ATOM     90  O   UNL     1     -11.731 -14.537  12.044  1.00  0.00    -0.237 OA
ATOM     91  O   UNL     1     -14.155 -14.403  12.482  1.00  0.00    -0.744 OA
ENDBRANCH  87  88
ENDBRANCH  55  80
BRANCH  67  92
ATOM     92  C   UNL     1     -10.935  -9.291  21.713  1.00  0.00     0.058 A 
ATOM     93  C   UNL     1     -11.932  -9.442  22.688  1.00  0.00     0.135 A 
ATOM     94  C   UNL     1      -9.743 -10.015  21.872  1.00  0.00     0.135 A 
ATOM     95  F   UNL     1     -13.089  -8.769  22.585  1.00  0.00    -0.206 F 
ATOM     96  C   UNL     1     -11.753 -10.277  23.786  1.00  0.00     0.059 A 
ATOM     97  C   UNL     1      -9.551 -10.873  22.951  1.00  0.00     0.059 A 
ATOM     98  F   UNL     1      -8.764  -9.913  20.960  1.00  0.00    -0.206 F 
ATOM     99  C   UNL     1     -10.558 -10.988  23.910  1.00  0.00     0.060 A 
BRANCH  99 100
ATOM    100  S   UNL     1     -10.355 -12.102  25.317  1.00  0.00     0.124 S 
ATOM    101  O   UNL     1     -10.088 -11.165  26.402  1.00  0.00    -0.237 OA
ATOM    102  O   UNL     1     -11.647 -12.780  25.367  1.00  0.00    -0.237 OA
ATOM    103  O   UNL     1      -9.230 -12.944  24.919  1.00  0.00    -0.744 OA
ENDBRANCH  99 100
ENDBRANCH  67  92
ENDBRANCH  41  42
ENDBRANCH  33  36
ENDBRANCH  31  32
ENDBRANCH  30  31
ENDBRANCH  29  30
ENDBRANCH   1  29
TORSDOF 20
