REMARK SMILES O=C(NCCCCCCNC(=O)c1ccc(N2C(=O)/C(=C/C3=c4ccccc4=NC3)SC2=S)cc1O)c1ccc(-c2c3nc(c(-c4c(F)cc(S(=O)(=O)[O-])cc4F)c4ccc([nH]4)c(-c4c(F)cc(S(=O)(=O)[O-])cc4F)c4nc(c(-c5c(F)cc(S(=O)(=O)[O-])cc5F)c5ccc2[nH]5)C=C4)C=C3)cc1
REMARK SMILES IDX 6 1 5 2 4 3 3 4 1 5 2 6 37 8 38 9 102 10 39 11 101 12 40 13
REMARK SMILES IDX 41 14 42 15 95 16 43 17 100 18 94 19 96 20 44 21 99 22 93 23
REMARK SMILES IDX 92 24 45 26 79 27 58 28 78 29 59 30 62 31 77 32 97 33 60 34
REMARK SMILES IDX 61 35 76 37 98 38 63 39 46 40 47 41 56 42 48 43 49 44 55 45
REMARK SMILES IDX 57 46 50 47 51 48 52 49 53 50 54 51 80 52 81 53 90 54 82 55
REMARK SMILES IDX 83 56 89 57 91 58 84 59 85 60 86 61 87 62 88 63 64 64 65 65
REMARK SMILES IDX 74 66 66 67 67 68 73 69 75 70 68 71 69 72 70 73 71 74 72 75
REMARK SMILES IDX 7 76 8 77 9 78 10 79 11 80 12 82 13 83 14 84 35 85 15 86
REMARK SMILES IDX 34 87 16 88 36 89 17 91 18 92 32 93 19 94 20 95 31 96 33 97
REMARK SMILES IDX 21 98 22 99 23 100 30 101 24 102 28 103 29 104 25 105 27 106
REMARK SMILES IDX 26 107
REMARK H PARENT 3 7 96 25 62 36 10 81 36 90
REMARK Flexibility Score: inf
ROOT
ATOM      1  C   UNL     1       4.220  -3.443  -1.930  1.00  0.00     0.002 C 
ENDROOT
BRANCH   1   2
ATOM      2  C   UNL     1       4.728  -2.644  -0.730  1.00  0.00     0.021 C 
BRANCH   2   3
ATOM      3  C   UNL     1       4.492  -1.143  -0.817  1.00  0.00     0.116 C 
BRANCH   3   4
ATOM      4  N   UNL     1       3.081  -0.812  -0.889  1.00  0.00    -0.352 N 
ATOM      5  O   UNL     1       1.097  -0.039  -0.180  1.00  0.00    -0.269 OA
ATOM      6  C   UNL     1       2.320  -0.030  -0.059  1.00  0.00     0.251 C 
ATOM      7  H   UNL     1       2.597  -1.210  -1.648  1.00  0.00     0.163 HD
BRANCH   6   8
ATOM      8  C   UNL     1       2.957   0.814   0.977  1.00  0.00     0.039 A 
ATOM      9  C   UNL     1       2.303   0.979   2.201  1.00  0.00     0.014 A 
ATOM     10  C   UNL     1       4.154   1.493   0.733  1.00  0.00     0.014 A 
ATOM     11  C   UNL     1       2.848   1.823   3.170  1.00  0.00     0.010 A 
ATOM     12  C   UNL     1       4.752   2.245   1.740  1.00  0.00     0.010 A 
ATOM     13  C   UNL     1       4.076   2.467   2.947  1.00  0.00    -0.014 A 
BRANCH  13  14
ATOM     14  C   UNL     1       4.593   3.472   3.911  1.00  0.00     0.031 A 
ATOM     15  C   UNL     1       4.721   4.913   3.483  1.00  0.00     0.074 A 
ATOM     16  C   UNL     1       4.930   3.104   5.162  1.00  0.00     0.049 A 
ATOM     17  N   UNL     1       5.121   5.948   4.176  1.00  0.00    -0.248 NA
ATOM     18  C   UNL     1       4.382   5.230   2.085  1.00  0.00     0.031 C 
ATOM     19  C   UNL     1       4.883   1.737   5.683  1.00  0.00     0.029 A 
ATOM     20  N   UNL     1       5.363   3.852   6.229  1.00  0.00    -0.354 N 
ATOM     21  C   UNL     1       5.086   7.026   3.298  1.00  0.00     0.074 A 
ATOM     22  C   UNL     1       4.712   6.508   2.004  1.00  0.00     0.031 C 
ATOM     23  C   UNL     1       5.220   1.751   6.982  1.00  0.00     0.029 A 
ATOM     24  C   UNL     1       5.541   3.120   7.380  1.00  0.00     0.049 A 
ATOM     25  H   UNL     1       5.530   4.820   6.175  1.00  0.00     0.167 HD
ATOM     26  C   UNL     1       5.296   8.338   3.555  1.00  0.00     0.037 A 
ATOM     27  C   UNL     1       5.910   3.511   8.616  1.00  0.00     0.037 A 
ATOM     28  C   UNL     1       5.624   8.853   4.855  1.00  0.00     0.049 A 
ATOM     29  C   UNL     1       6.173   4.970   8.876  1.00  0.00     0.074 A 
ATOM     30  C   UNL     1       5.799  10.170   5.237  1.00  0.00     0.029 A 
ATOM     31  N   UNL     1       5.828   8.074   5.984  1.00  0.00    -0.354 N 
ATOM     32  N   UNL     1       6.061   5.986   8.052  1.00  0.00    -0.248 NA
ATOM     33  C   UNL     1       6.614   5.340  10.228  1.00  0.00     0.031 C 
ATOM     34  C   UNL     1       6.162  10.184   6.586  1.00  0.00     0.029 A 
ATOM     35  C   UNL     1       6.166   8.880   7.057  1.00  0.00     0.049 A 
ATOM     36  H   UNL     1       5.745   7.093   6.017  1.00  0.00     0.167 HD
ATOM     37  C   UNL     1       6.409   7.114   8.787  1.00  0.00     0.074 A 
ATOM     38  C   UNL     1       6.718   6.660  10.127  1.00  0.00     0.031 C 
ATOM     39  C   UNL     1       6.473   8.407   8.385  1.00  0.00     0.037 A 
BRANCH  26  40
ATOM     40  C   UNL     1       5.160   9.302   2.408  1.00  0.00     0.058 A 
ATOM     41  C   UNL     1       3.914   9.570   1.815  1.00  0.00     0.135 A 
ATOM     42  C   UNL     1       6.282   9.977   1.903  1.00  0.00     0.135 A 
ATOM     43  F   UNL     1       2.810   8.940   2.248  1.00  0.00    -0.206 F 
ATOM     44  C   UNL     1       3.793  10.438   0.737  1.00  0.00     0.059 A 
ATOM     45  C   UNL     1       6.179  10.877   0.845  1.00  0.00     0.059 A 
ATOM     46  F   UNL     1       7.497   9.761   2.431  1.00  0.00    -0.206 F 
ATOM     47  C   UNL     1       4.933  11.086   0.257  1.00  0.00     0.060 A 
BRANCH  47  48
ATOM     48  S   UNL     1       4.757  12.196  -1.155  1.00  0.00     0.124 S 
ATOM     49  O   UNL     1       4.473  11.253  -2.233  1.00  0.00    -0.237 OA
ATOM     50  O   UNL     1       3.642  13.044  -0.746  1.00  0.00    -0.237 OA
ATOM     51  O   UNL     1       6.054  12.861  -1.230  1.00  0.00    -0.744 OA
ENDBRANCH  47  48
ENDBRANCH  26  40
BRANCH  27  52
ATOM     52  C   UNL     1       6.008   2.502   9.705  1.00  0.00     0.058 A 
ATOM     53  C   UNL     1       5.063   2.466  10.740  1.00  0.00     0.135 A 
ATOM     54  C   UNL     1       7.010   1.518   9.701  1.00  0.00     0.135 A 
ATOM     55  F   UNL     1       4.092   3.391  10.794  1.00  0.00    -0.206 F 
ATOM     56  C   UNL     1       5.102   1.488  11.729  1.00  0.00     0.059 A 
ATOM     57  C   UNL     1       7.057   0.517  10.666  1.00  0.00     0.059 A 
ATOM     58  F   UNL     1       7.932   1.502   8.726  1.00  0.00    -0.206 F 
ATOM     59  C   UNL     1       6.096   0.510  11.676  1.00  0.00     0.060 A 
BRANCH  59  60
ATOM     60  S   UNL     1       6.083  -0.802  12.918  1.00  0.00     0.124 S 
ATOM     61  O   UNL     1       6.428  -0.067  14.129  1.00  0.00    -0.237 OA
ATOM     62  O   UNL     1       4.708  -1.284  12.833  1.00  0.00    -0.237 OA
ATOM     63  O   UNL     1       7.098  -1.734  12.435  1.00  0.00    -0.744 OA
ENDBRANCH  59  60
ENDBRANCH  27  52
BRANCH  39  64
ATOM     64  C   UNL     1       6.910   9.439   9.386  1.00  0.00     0.058 A 
ATOM     65  C   UNL     1       8.258   9.565   9.752  1.00  0.00     0.135 A 
ATOM     66  C   UNL     1       6.003  10.398   9.868  1.00  0.00     0.135 A 
ATOM     67  F   UNL     1       9.161   8.670   9.324  1.00  0.00    -0.206 F 
ATOM     68  C   UNL     1       8.696  10.615  10.552  1.00  0.00     0.059 A 
ATOM     69  C   UNL     1       6.424  11.471  10.648  1.00  0.00     0.059 A 
ATOM     70  F   UNL     1       4.704  10.327   9.538  1.00  0.00    -0.206 F 
ATOM     71  C   UNL     1       7.774  11.573  10.980  1.00  0.00     0.060 A 
BRANCH  71  72
ATOM     72  S   UNL     1       8.381  12.982  11.932  1.00  0.00     0.124 S 
ATOM     73  O   UNL     1       8.774  12.345  13.185  1.00  0.00    -0.237 OA
ATOM     74  O   UNL     1       9.476  13.468  11.097  1.00  0.00    -0.237 OA
ATOM     75  O   UNL     1       7.222  13.864  12.014  1.00  0.00    -0.744 OA
ENDBRANCH  71  72
ENDBRANCH  39  64
ENDBRANCH  13  14
ENDBRANCH   6   8
ENDBRANCH   3   4
ENDBRANCH   2   3
ENDBRANCH   1   2
BRANCH   1  76
ATOM     76  C   UNL     1       4.728  -2.966  -3.294  1.00  0.00     0.002 C 
BRANCH  76  77
ATOM     77  C   UNL     1       6.249  -2.842  -3.420  1.00  0.00     0.021 C 
BRANCH  77  78
ATOM     78  C   UNL     1       7.020  -4.113  -3.082  1.00  0.00     0.116 C 
BRANCH  78  79
ATOM     79  N   UNL     1       6.704  -5.196  -3.995  1.00  0.00    -0.352 N 
ATOM     80  C   UNL     1       7.573  -6.026  -4.654  1.00  0.00     0.255 C 
ATOM     81  H   UNL     1       5.746  -5.353  -4.163  1.00  0.00     0.163 HD
ATOM     82  O   UNL     1       7.165  -6.837  -5.480  1.00  0.00    -0.269 OA
BRANCH  80  83
ATOM     83  C   UNL     1       9.023  -5.893  -4.419  1.00  0.00     0.081 A 
ATOM     84  C   UNL     1       9.827  -5.562  -5.512  1.00  0.00     0.020 A 
ATOM     85  C   UNL     1       9.598  -6.080  -3.159  1.00  0.00     0.130 A 
ATOM     86  C   UNL     1      11.203  -5.392  -5.339  1.00  0.00     0.028 A 
ATOM     87  C   UNL     1      10.973  -5.919  -2.990  1.00  0.00     0.073 A 
ATOM     88  C   UNL     1      11.793  -5.591  -4.082  1.00  0.00     0.054 A 
BRANCH  85  89
ATOM     89  O   UNL     1       8.820  -6.403  -2.082  1.00  0.00    -0.507 OA
ATOM     90  H   UNL     1       7.896  -6.513  -2.188  1.00  0.00     0.293 HD
ENDBRANCH  85  89
BRANCH  88  91
ATOM     91  N   UNL     1      13.203  -5.445  -3.908  1.00  0.00    -0.261 N 
ATOM     92  C   UNL     1      13.859  -4.341  -4.452  1.00  0.00     0.270 C 
ATOM     93  C   UNL     1      13.996  -6.355  -3.220  1.00  0.00     0.152 C 
ATOM     94  O   UNL     1      13.378  -3.433  -5.114  1.00  0.00    -0.268 OA
ATOM     95  C   UNL     1      15.303  -4.375  -4.084  1.00  0.00     0.081 C 
ATOM     96  S   UNL     1      15.644  -5.751  -3.121  1.00  0.00    -0.054 SA
ATOM     97  S   UNL     1      13.624  -7.876  -2.626  1.00  0.00    -0.051 S 
ATOM     98  C   UNL     1      16.160  -3.413  -4.451  1.00  0.00     0.027 C 
BRANCH  98  99
ATOM     99  C   UNL     1      17.570  -3.379  -4.146  1.00  0.00    -0.016 C 
ATOM    100  C   UNL     1      18.198  -2.495  -3.376  1.00  0.00     0.005 A 
ATOM    101  C   UNL     1      18.540  -4.389  -4.690  1.00  0.00     0.179 C 
ATOM    102  C   UNL     1      17.816  -1.345  -2.620  1.00  0.00     0.011 A 
ATOM    103  C   UNL     1      19.593  -2.971  -3.409  1.00  0.00     0.065 A 
ATOM    104  N   UNL     1      19.864  -4.016  -4.131  1.00  0.00    -0.280 NA
ATOM    105  C   UNL     1      18.758  -0.694  -1.917  1.00  0.00     0.001 A 
ATOM    106  C   UNL     1      20.568  -2.208  -2.602  1.00  0.00     0.028 A 
ATOM    107  C   UNL     1      20.142  -1.140  -1.907  1.00  0.00     0.002 A 
ENDBRANCH  98  99
ENDBRANCH  88  91
ENDBRANCH  80  83
ENDBRANCH  78  79
ENDBRANCH  77  78
ENDBRANCH  76  77
ENDBRANCH   1  76
TORSDOF 19
