REMARK SMILES CS(=O)(=O)c1ccc(/C=C(/C(=O)NCCCCCCNC(=O)c2ccc(-c3c4nc(c(-c5c(F)cc(S(=O)(=O)[O-])cc5F)c5ccc([nH]5)c(-c5c(F)cc(S(=O)(=O)[O-])cc5F)c5nc(c(-c6c(F)cc(S(=O)(=O)[O-])cc6F)c6ccc3[nH]6)C=C5)C=C4)cc2)c2ccc(-c3ccc(S(C)(=O)=O)cc3)cc2)cc1
REMARK SMILES IDX 16 1 15 2 14 3 13 4 11 5 12 6 10 8 9 9 8 10 5 11 6 12 106 13
REMARK SMILES IDX 7 14 105 15 2 16 1 17 3 18 4 19 89 20 90 21 104 22 91 23
REMARK SMILES IDX 103 24 92 25 93 26 94 27 102 28 95 29 101 30 96 31 97 32
REMARK SMILES IDX 98 33 99 34 100 35 17 36 18 37 19 38 20 39 21 40 22 42 23 43
REMARK SMILES IDX 24 44 88 45 25 46 87 47 26 48 27 49 28 50 81 51 29 52 86 53
REMARK SMILES IDX 80 54 82 55 30 56 85 57 79 58 78 59 31 61 65 62 44 63 64 64
REMARK SMILES IDX 45 65 48 66 63 67 83 68 46 69 47 70 62 72 84 73 49 74 32 75
REMARK SMILES IDX 33 76 42 77 34 78 35 79 41 80 43 81 36 82 37 83 38 84 39 85
REMARK SMILES IDX 40 86 66 87 67 88 76 89 68 90 69 91 75 92 77 93 70 94 71 95
REMARK SMILES IDX 72 96 73 97 74 98 50 99 51 100 60 101 52 102 53 103 59 104
REMARK SMILES IDX 61 105 54 106 55 107 56 108 57 109 58 110
REMARK H PARENT 13 7 20 41 82 60 48 71
REMARK Flexibility Score: inf
ROOT
ATOM      1  C   UNL     1       1.784  10.847  -2.585  1.00  0.00     0.002 C 
ENDROOT
BRANCH   1   2
ATOM      2  C   UNL     1       1.517   9.349  -2.368  1.00  0.00     0.021 C 
BRANCH   2   3
ATOM      3  C   UNL     1       1.564   8.533  -3.663  1.00  0.00     0.116 C 
BRANCH   3   4
ATOM      4  N   UNL     1       2.937   8.431  -4.113  1.00  0.00    -0.352 N 
ATOM      5  C   UNL     1       3.886   7.464  -4.048  1.00  0.00     0.251 C 
ATOM      6  O   UNL     1       5.012   7.792  -4.433  1.00  0.00    -0.269 OA
ATOM      7  H   UNL     1       3.252   9.245  -4.568  1.00  0.00     0.163 HD
BRANCH   5   8
ATOM      8  C   UNL     1       3.605   6.035  -3.636  1.00  0.00     0.047 C 
ATOM      9  C   UNL     1       2.675   5.703  -2.709  1.00  0.00     0.022 C 
BRANCH   9  10
ATOM     10  C   UNL     1       2.167   4.368  -2.312  1.00  0.00    -0.025 A 
ATOM     11  C   UNL     1       1.019   1.864  -1.759  1.00  0.00     0.067 A 
ATOM     12  C   UNL     1       2.405   1.987  -1.864  1.00  0.00     0.021 A 
ATOM     13  C   UNL     1       0.198   2.981  -1.892  1.00  0.00     0.021 A 
ATOM     14  C   UNL     1       2.973   3.243  -2.099  1.00  0.00     0.009 A 
ATOM     15  C   UNL     1       0.774   4.225  -2.169  1.00  0.00     0.009 A 
BRANCH  11  16
ATOM     16  S   UNL     1       0.319   0.256  -1.484  1.00  0.00     0.175 S 
ATOM     17  C   UNL     1       0.850  -0.150   0.159  1.00  0.00     0.163 C 
ATOM     18  O   UNL     1       0.961  -0.652  -2.409  1.00  0.00    -0.224 OA
ATOM     19  O   UNL     1      -1.128   0.398  -1.456  1.00  0.00    -0.224 OA
ENDBRANCH  11  16
ENDBRANCH   9  10
BRANCH   8  20
ATOM     20  C   UNL     1       4.549   5.013  -4.151  1.00  0.00    -0.013 A 
ATOM     21  C   UNL     1       5.868   5.053  -3.677  1.00  0.00     0.009 A 
ATOM     22  C   UNL     1       4.165   3.963  -4.989  1.00  0.00     0.009 A 
ATOM     23  C   UNL     1       6.765   4.031  -3.973  1.00  0.00     0.009 A 
ATOM     24  C   UNL     1       5.064   2.920  -5.262  1.00  0.00     0.009 A 
ATOM     25  C   UNL     1       6.367   2.920  -4.730  1.00  0.00    -0.018 A 
BRANCH  25  26
ATOM     26  C   UNL     1       7.282   1.776  -4.898  1.00  0.00    -0.018 A 
ATOM     27  C   UNL     1       8.001   1.276  -3.792  1.00  0.00     0.010 A 
ATOM     28  C   UNL     1       7.461   1.144  -6.139  1.00  0.00     0.010 A 
ATOM     29  C   UNL     1       8.878   0.199  -3.919  1.00  0.00     0.021 A 
ATOM     30  C   UNL     1       8.338   0.063  -6.279  1.00  0.00     0.021 A 
ATOM     31  C   UNL     1       9.050  -0.393  -5.169  1.00  0.00     0.067 A 
BRANCH  31  32
ATOM     32  S   UNL     1      10.179  -1.754  -5.324  1.00  0.00     0.175 S 
ATOM     33  C   UNL     1      11.766  -1.012  -5.041  1.00  0.00     0.163 C 
ATOM     34  O   UNL     1       9.903  -2.666  -4.231  1.00  0.00    -0.224 OA
ATOM     35  O   UNL     1      10.148  -2.206  -6.702  1.00  0.00    -0.224 OA
ENDBRANCH  31  32
ENDBRANCH  25  26
ENDBRANCH   8  20
ENDBRANCH   5   8
ENDBRANCH   3   4
ENDBRANCH   2   3
ENDBRANCH   1   2
BRANCH   1  36
ATOM     36  C   UNL     1       0.790  11.548  -3.519  1.00  0.00     0.002 C 
BRANCH  36  37
ATOM     37  C   UNL     1      -0.681  11.370  -3.136  1.00  0.00     0.021 C 
BRANCH  37  38
ATOM     38  C   UNL     1      -1.035  11.909  -1.755  1.00  0.00     0.116 C 
BRANCH  38  39
ATOM     39  N   UNL     1      -0.883  13.353  -1.688  1.00  0.00    -0.352 N 
ATOM     40  C   UNL     1      -1.800  14.300  -1.306  1.00  0.00     0.251 C 
ATOM     41  H   UNL     1      -0.001  13.699  -1.954  1.00  0.00     0.163 HD
ATOM     42  O   UNL     1      -1.584  15.488  -1.529  1.00  0.00    -0.269 OA
BRANCH  40  43
ATOM     43  C   UNL     1      -3.049  13.881  -0.636  1.00  0.00     0.039 A 
ATOM     44  C   UNL     1      -4.257  14.463  -1.027  1.00  0.00     0.014 A 
ATOM     45  C   UNL     1      -3.024  12.927   0.386  1.00  0.00     0.014 A 
ATOM     46  C   UNL     1      -5.447  14.055  -0.422  1.00  0.00     0.010 A 
ATOM     47  C   UNL     1      -4.217  12.469   0.935  1.00  0.00     0.010 A 
ATOM     48  C   UNL     1      -5.440  13.038   0.547  1.00  0.00    -0.014 A 
BRANCH  48  49
ATOM     49  C   UNL     1      -6.699  12.567   1.177  1.00  0.00     0.031 A 
ATOM     50  C   UNL     1      -6.923  12.759   2.652  1.00  0.00     0.074 A 
ATOM     51  C   UNL     1      -7.609  11.908   0.434  1.00  0.00     0.049 A 
ATOM     52  N   UNL     1      -7.928  12.370   3.393  1.00  0.00    -0.248 NA
ATOM     53  C   UNL     1      -5.861  13.453   3.398  1.00  0.00     0.031 C 
ATOM     54  C   UNL     1      -7.478  11.609  -0.993  1.00  0.00     0.029 A 
ATOM     55  N   UNL     1      -8.818  11.359   0.779  1.00  0.00    -0.354 N 
ATOM     56  C   UNL     1      -7.612  12.754   4.691  1.00  0.00     0.074 A 
ATOM     57  C   UNL     1      -6.297  13.356   4.644  1.00  0.00     0.031 C 
ATOM     58  C   UNL     1      -8.570  10.947  -1.405  1.00  0.00     0.029 A 
ATOM     59  C   UNL     1      -9.463  10.745  -0.267  1.00  0.00     0.049 A 
ATOM     60  H   UNL     1      -9.188  11.400   1.691  1.00  0.00     0.167 HD
ATOM     61  C   UNL     1      -8.359  12.635   5.816  1.00  0.00     0.037 A 
ATOM     62  C   UNL     1     -10.639  10.089  -0.306  1.00  0.00     0.037 A 
ATOM     63  C   UNL     1      -9.676  12.055   5.848  1.00  0.00     0.049 A 
ATOM     64  C   UNL     1     -11.464   9.988   0.946  1.00  0.00     0.074 A 
ATOM     65  C   UNL     1     -10.545  11.950   6.919  1.00  0.00     0.029 A 
ATOM     66  N   UNL     1     -10.312  11.474   4.759  1.00  0.00    -0.354 N 
ATOM     67  N   UNL     1     -11.185  10.424   2.152  1.00  0.00    -0.248 NA
ATOM     68  C   UNL     1     -12.765   9.318   0.833  1.00  0.00     0.031 C 
ATOM     69  C   UNL     1     -11.688  11.265   6.489  1.00  0.00     0.029 A 
ATOM     70  C   UNL     1     -11.553  10.989   5.138  1.00  0.00     0.049 A 
ATOM     71  H   UNL     1      -9.936  11.416   3.851  1.00  0.00     0.167 HD
ATOM     72  C   UNL     1     -12.286  10.101   2.938  1.00  0.00     0.074 A 
ATOM     73  C   UNL     1     -13.239   9.443   2.066  1.00  0.00     0.031 C 
ATOM     74  C   UNL     1     -12.490  10.331   4.259  1.00  0.00     0.037 A 
BRANCH  61  75
ATOM     75  C   UNL     1      -7.756  13.137   7.101  1.00  0.00     0.058 A 
ATOM     76  C   UNL     1      -7.535  14.506   7.331  1.00  0.00     0.135 A 
ATOM     77  C   UNL     1      -7.387  12.238   8.115  1.00  0.00     0.135 A 
ATOM     78  F   UNL     1      -7.857  15.410   6.392  1.00  0.00    -0.206 F 
ATOM     79  C   UNL     1      -6.924  14.960   8.495  1.00  0.00     0.059 A 
ATOM     80  C   UNL     1      -6.803  12.673   9.301  1.00  0.00     0.059 A 
ATOM     81  F   UNL     1      -7.578  10.920   7.952  1.00  0.00    -0.206 F 
ATOM     82  C   UNL     1      -6.553  14.034   9.471  1.00  0.00     0.060 A 
BRANCH  82  83
ATOM     83  S   UNL     1      -5.726  14.633  10.960  1.00  0.00     0.124 S 
ATOM     84  O   UNL     1      -4.391  14.931  10.450  1.00  0.00    -0.237 OA
ATOM     85  O   UNL     1      -6.537  15.790  11.326  1.00  0.00    -0.237 OA
ATOM     86  O   UNL     1      -5.809  13.498  11.874  1.00  0.00    -0.744 OA
ENDBRANCH  82  83
ENDBRANCH  61  75
BRANCH  62  87
ATOM     87  C   UNL     1     -11.111   9.514  -1.593  1.00  0.00     0.058 A 
ATOM     88  C   UNL     1     -12.159  10.110  -2.309  1.00  0.00     0.135 A 
ATOM     89  C   UNL     1     -10.482   8.395  -2.162  1.00  0.00     0.135 A 
ATOM     90  F   UNL     1     -12.794  11.177  -1.802  1.00  0.00    -0.206 F 
ATOM     91  C   UNL     1     -12.566   9.621  -3.545  1.00  0.00     0.059 A 
ATOM     92  C   UNL     1     -10.857   7.901  -3.408  1.00  0.00     0.059 A 
ATOM     93  F   UNL     1      -9.461   7.801  -1.524  1.00  0.00    -0.206 F 
ATOM     94  C   UNL     1     -11.902   8.521  -4.091  1.00  0.00     0.060 A 
BRANCH  94  95
ATOM     95  S   UNL     1     -12.378   7.952  -5.738  1.00  0.00     0.124 S 
ATOM     96  O   UNL     1     -13.663   7.316  -5.470  1.00  0.00    -0.237 OA
ATOM     97  O   UNL     1     -12.428   9.202  -6.490  1.00  0.00    -0.237 OA
ATOM     98  O   UNL     1     -11.291   7.051  -6.109  1.00  0.00    -0.744 OA
ENDBRANCH  94  95
ENDBRANCH  62  87
BRANCH  74  99
ATOM     99  C   UNL     1     -13.805   9.892   4.842  1.00  0.00     0.058 A 
ATOM    100  C   UNL     1     -14.099   8.538   5.063  1.00  0.00     0.135 A 
ATOM    101  C   UNL     1     -14.761  10.844   5.233  1.00  0.00     0.135 A 
ATOM    102  F   UNL     1     -13.222   7.588   4.703  1.00  0.00    -0.206 F 
ATOM    103  C   UNL     1     -15.306   8.140   5.630  1.00  0.00     0.059 A 
ATOM    104  C   UNL     1     -15.963  10.470   5.827  1.00  0.00     0.059 A 
ATOM    105  F   UNL     1     -14.525  12.153   5.053  1.00  0.00    -0.206 F 
ATOM    106  C   UNL     1     -16.231   9.115   6.010  1.00  0.00     0.060 A 
BRANCH 106 107
ATOM    107  S   UNL     1     -17.780   8.588   6.775  1.00  0.00     0.124 S 
ATOM    108  O   UNL     1     -18.511   8.064   5.626  1.00  0.00    -0.237 OA
ATOM    109  O   UNL     1     -17.328   7.596   7.745  1.00  0.00    -0.237 OA
ATOM    110  O   UNL     1     -18.311   9.821   7.349  1.00  0.00    -0.744 OA
ENDBRANCH 106 107
ENDBRANCH  74  99
ENDBRANCH  48  49
ENDBRANCH  40  43
ENDBRANCH  38  39
ENDBRANCH  37  38
ENDBRANCH  36  37
ENDBRANCH   1  36
TORSDOF 21
