REMARK SMILES O=C(NCCCCCCNC(=O)[C@H]1C=C[C@H](NS(=O)(=O)c2ccc(F)c(F)c2F)C1)c1ccc(-c2c3nc(c(-c4c(F)cc(S(=O)(=O)[O-])cc4F)c4ccc([nH]4)c(-c4c(F)cc(S(=O)(=O)[O-])cc4F)c4nc(c(-c5c(F)cc(S(=O)(=O)[O-])cc5F)c5ccc2[nH]5)C=C4)C=C3)cc1
REMARK SMILES IDX 6 1 5 2 4 3 3 4 1 5 2 6 31 8 32 9 96 10 33 11 95 12 34 13
REMARK SMILES IDX 35 14 36 15 89 16 37 17 94 18 88 19 90 20 38 21 93 22 87 23
REMARK SMILES IDX 86 24 39 26 73 27 52 28 72 29 53 30 56 31 71 32 91 33 54 34
REMARK SMILES IDX 55 35 70 37 92 38 57 39 40 40 41 41 50 42 42 43 43 44 49 45
REMARK SMILES IDX 51 46 44 47 45 48 46 49 47 50 48 51 74 52 75 53 84 54 76 55
REMARK SMILES IDX 77 56 83 57 85 58 78 59 79 60 80 61 81 62 82 63 58 64 59 65
REMARK SMILES IDX 68 66 60 67 61 68 67 69 69 70 62 71 63 72 64 73 65 74 66 75
REMARK SMILES IDX 7 76 8 77 9 78 10 79 11 80 12 82 13 83 14 84 30 85 15 86
REMARK SMILES IDX 16 87 17 88 18 90 19 91 20 92 21 93 22 94 28 95 23 96 26 97
REMARK SMILES IDX 29 98 24 99 27 100 25 101
REMARK H PARENT 3 7 90 25 56 36 10 81 17 89
REMARK Flexibility Score: inf
ROOT
ATOM      1  C   UNL     1       4.087  -2.820  -2.511  1.00  0.00     0.002 C 
ENDROOT
BRANCH   1   2
ATOM      2  C   UNL     1       4.531  -2.334  -1.131  1.00  0.00     0.021 C 
BRANCH   2   3
ATOM      3  C   UNL     1       4.372  -0.836  -0.909  1.00  0.00     0.116 C 
BRANCH   3   4
ATOM      4  N   UNL     1       2.978  -0.418  -0.920  1.00  0.00    -0.352 N 
ATOM      5  O   UNL     1       1.061   0.399  -0.053  1.00  0.00    -0.269 OA
ATOM      6  C   UNL     1       2.279   0.280   0.035  1.00  0.00     0.251 C 
ATOM      7  H   UNL     1       2.466  -0.670  -1.722  1.00  0.00     0.163 HD
BRANCH   6   8
ATOM      8  C   UNL     1       3.007   0.864   1.183  1.00  0.00     0.039 A 
ATOM      9  C   UNL     1       4.203   1.555   0.981  1.00  0.00     0.014 A 
ATOM     10  C   UNL     1       2.502   0.696   2.475  1.00  0.00     0.014 A 
ATOM     11  C   UNL     1       4.971   1.936   2.074  1.00  0.00     0.010 A 
ATOM     12  C   UNL     1       3.231   1.168   3.571  1.00  0.00     0.010 A 
ATOM     13  C   UNL     1       4.491   1.758   3.382  1.00  0.00    -0.014 A 
BRANCH  13  14
ATOM     14  C   UNL     1       5.310   2.244   4.523  1.00  0.00     0.031 A 
ATOM     15  C   UNL     1       5.862   1.292   5.550  1.00  0.00     0.074 A 
ATOM     16  C   UNL     1       5.588   3.560   4.600  1.00  0.00     0.049 A 
ATOM     17  N   UNL     1       6.634   1.549   6.577  1.00  0.00    -0.248 NA
ATOM     18  C   UNL     1       5.497  -0.126   5.418  1.00  0.00     0.031 C 
ATOM     19  C   UNL     1       5.095   4.579   3.668  1.00  0.00     0.029 A 
ATOM     20  N   UNL     1       6.369   4.267   5.478  1.00  0.00    -0.354 N 
ATOM     21  C   UNL     1       6.826   0.335   7.227  1.00  0.00     0.074 A 
ATOM     22  C   UNL     1       6.071  -0.657   6.490  1.00  0.00     0.031 C 
ATOM     23  C   UNL     1       5.634   5.765   3.986  1.00  0.00     0.029 A 
ATOM     24  C   UNL     1       6.455   5.606   5.179  1.00  0.00     0.049 A 
ATOM     25  H   UNL     1       6.823   3.854   6.247  1.00  0.00     0.167 HD
ATOM     26  C   UNL     1       7.567   0.073   8.332  1.00  0.00     0.037 A 
ATOM     27  C   UNL     1       7.115   6.601   5.801  1.00  0.00     0.037 A 
ATOM     28  C   UNL     1       8.334   1.065   9.043  1.00  0.00     0.049 A 
ATOM     29  C   UNL     1       7.923   6.283   7.025  1.00  0.00     0.074 A 
ATOM     30  C   UNL     1       9.156   0.892  10.144  1.00  0.00     0.029 A 
ATOM     31  N   UNL     1       8.370   2.417   8.730  1.00  0.00    -0.354 N 
ATOM     32  N   UNL     1       8.122   5.122   7.603  1.00  0.00    -0.248 NA
ATOM     33  C   UNL     1       8.593   7.410   7.685  1.00  0.00     0.031 C 
ATOM     34  C   UNL     1       9.650   2.144  10.525  1.00  0.00     0.029 A 
ATOM     35  C   UNL     1       9.180   3.092   9.631  1.00  0.00     0.049 A 
ATOM     36  H   UNL     1       7.891   2.835   7.979  1.00  0.00     0.167 HD
ATOM     37  C   UNL     1       8.959   5.375   8.682  1.00  0.00     0.074 A 
ATOM     38  C   UNL     1       9.240   6.797   8.667  1.00  0.00     0.031 C 
ATOM     39  C   UNL     1       9.451   4.509   9.602  1.00  0.00     0.037 A 
BRANCH  26  40
ATOM     40  C   UNL     1       7.566  -1.338   8.860  1.00  0.00     0.058 A 
ATOM     41  C   UNL     1       8.219  -2.385   8.190  1.00  0.00     0.135 A 
ATOM     42  C   UNL     1       6.932  -1.638  10.077  1.00  0.00     0.135 A 
ATOM     43  F   UNL     1       8.831  -2.159   7.017  1.00  0.00    -0.206 F 
ATOM     44  C   UNL     1       8.216  -3.684   8.691  1.00  0.00     0.059 A 
ATOM     45  C   UNL     1       6.939  -2.925  10.610  1.00  0.00     0.059 A 
ATOM     46  F   UNL     1       6.295  -0.676  10.763  1.00  0.00    -0.206 F 
ATOM     47  C   UNL     1       7.570  -3.945   9.901  1.00  0.00     0.060 A 
BRANCH  47  48
ATOM     48  S   UNL     1       7.567  -5.636  10.534  1.00  0.00     0.124 S 
ATOM     49  O   UNL     1       6.617  -6.281   9.633  1.00  0.00    -0.237 OA
ATOM     50  O   UNL     1       8.962  -6.034  10.373  1.00  0.00    -0.237 OA
ATOM     51  O   UNL     1       7.118  -5.482  11.914  1.00  0.00    -0.744 OA
ENDBRANCH  47  48
ENDBRANCH  26  40
BRANCH  27  52
ATOM     52  C   UNL     1       7.043   7.984   5.261  1.00  0.00     0.058 A 
ATOM     53  C   UNL     1       8.163   8.586   4.669  1.00  0.00     0.135 A 
ATOM     54  C   UNL     1       5.847   8.718   5.298  1.00  0.00     0.135 A 
ATOM     55  F   UNL     1       9.329   7.924   4.612  1.00  0.00    -0.206 F 
ATOM     56  C   UNL     1       8.104   9.872   4.144  1.00  0.00     0.059 A 
ATOM     57  C   UNL     1       5.756   9.994   4.754  1.00  0.00     0.059 A 
ATOM     58  F   UNL     1       4.743   8.178   5.837  1.00  0.00    -0.206 F 
ATOM     59  C   UNL     1       6.894  10.567   4.187  1.00  0.00     0.060 A 
BRANCH  59  60
ATOM     60  S   UNL     1       6.814  12.214   3.454  1.00  0.00     0.124 S 
ATOM     61  O   UNL     1       7.533  13.010   4.441  1.00  0.00    -0.237 OA
ATOM     62  O   UNL     1       7.492  12.015   2.176  1.00  0.00    -0.237 OA
ATOM     63  O   UNL     1       5.380  12.469   3.359  1.00  0.00    -0.744 OA
ENDBRANCH  59  60
ENDBRANCH  27  52
BRANCH  39  64
ATOM     64  C   UNL     1      10.374   5.072  10.646  1.00  0.00     0.058 A 
ATOM     65  C   UNL     1       9.904   5.889  11.686  1.00  0.00     0.135 A 
ATOM     66  C   UNL     1      11.746   4.774  10.614  1.00  0.00     0.135 A 
ATOM     67  F   UNL     1       8.603   6.213  11.757  1.00  0.00    -0.206 F 
ATOM     68  C   UNL     1      10.768   6.418  12.640  1.00  0.00     0.059 A 
ATOM     69  C   UNL     1      12.623   5.268  11.575  1.00  0.00     0.059 A 
ATOM     70  F   UNL     1      12.245   3.989   9.646  1.00  0.00    -0.206 F 
ATOM     71  C   UNL     1      12.126   6.103  12.574  1.00  0.00     0.060 A 
BRANCH  71  72
ATOM     72  S   UNL     1      13.236   6.784  13.825  1.00  0.00     0.124 S 
ATOM     73  O   UNL     1      13.357   8.170  13.386  1.00  0.00    -0.237 OA
ATOM     74  O   UNL     1      12.486   6.572  15.059  1.00  0.00    -0.237 OA
ATOM     75  O   UNL     1      14.442   5.973  13.685  1.00  0.00    -0.744 OA
ENDBRANCH  71  72
ENDBRANCH  39  64
ENDBRANCH  13  14
ENDBRANCH   6   8
ENDBRANCH   3   4
ENDBRANCH   2   3
ENDBRANCH   1   2
BRANCH   1  76
ATOM     76  C   UNL     1       4.779  -2.134  -3.694  1.00  0.00     0.002 C 
BRANCH  76  77
ATOM     77  C   UNL     1       6.313  -2.143  -3.646  1.00  0.00     0.021 C 
BRANCH  77  78
ATOM     78  C   UNL     1       6.918  -3.545  -3.625  1.00  0.00     0.116 C 
BRANCH  78  79
ATOM     79  N   UNL     1       6.738  -4.188  -4.912  1.00  0.00    -0.356 N 
ATOM     80  C   UNL     1       7.629  -4.470  -5.898  1.00  0.00     0.226 C 
ATOM     81  H   UNL     1       5.814  -4.467  -5.104  1.00  0.00     0.163 HD
ATOM     82  O   UNL     1       7.173  -4.842  -6.984  1.00  0.00    -0.274 OA
BRANCH  80  83
ATOM     83  C   UNL     1       9.144  -4.450  -5.671  1.00  0.00     0.103 C 
ATOM     84  C   UNL     1       9.787  -3.182  -5.214  1.00  0.00    -0.016 C 
ATOM     85  C   UNL     1       9.563  -5.484  -4.623  1.00  0.00     0.042 C 
ATOM     86  C   UNL     1      10.524  -3.368  -4.112  1.00  0.00    -0.011 C 
ATOM     87  C   UNL     1      10.421  -4.760  -3.577  1.00  0.00     0.093 C 
BRANCH  87  88
ATOM     88  N   UNL     1      11.739  -5.360  -3.514  1.00  0.00    -0.204 NA
ATOM     89  H   UNL     1      12.405  -4.592  -3.428  1.00  0.00     0.142 HD
BRANCH  88  90
ATOM     90  S   UNL     1      12.120  -6.460  -2.312  1.00  0.00     0.244 S 
ATOM     91  O   UNL     1      13.526  -6.738  -2.486  1.00  0.00    -0.207 OA
ATOM     92  O   UNL     1      11.600  -5.983  -1.049  1.00  0.00    -0.207 OA
BRANCH  90  93
ATOM     93  C   UNL     1      11.240  -7.920  -2.775  1.00  0.00     0.121 A 
ATOM     94  C   UNL     1      11.919  -8.999  -3.360  1.00  0.00     0.028 A 
ATOM     95  C   UNL     1       9.872  -8.000  -2.541  1.00  0.00     0.181 A 
ATOM     96  C   UNL     1      11.203 -10.133  -3.753  1.00  0.00     0.044 A 
ATOM     97  C   UNL     1       9.160  -9.118  -2.960  1.00  0.00     0.195 A 
ATOM     98  F   UNL     1       9.201  -6.988  -1.975  1.00  0.00    -0.202 F 
ATOM     99  C   UNL     1       9.824 -10.177  -3.564  1.00  0.00     0.161 A 
ATOM    100  F   UNL     1       7.829  -9.159  -2.807  1.00  0.00    -0.200 F 
ATOM    101  F   UNL     1       9.139 -11.251  -3.981  1.00  0.00    -0.204 F 
ENDBRANCH  90  93
ENDBRANCH  88  90
ENDBRANCH  87  88
ENDBRANCH  80  83
ENDBRANCH  78  79
ENDBRANCH  77  78
ENDBRANCH  76  77
ENDBRANCH   1  76
TORSDOF 19
