REMARK SMILES Cc1ccc(-c2cc(OCC(=O)NCCCCCCNC(=O)c3ccc(-c4c5nc(c(-c6c(F)cc(S(=O)(=O)[O-])cc6F)c6ccc([nH]6)c(-c6c(F)cc(S(=O)(=O)[O-])cc6F)c6nc(c(-c7c(F)cc(S(=O)(=O)[O-])cc7F)c7ccc4[nH]7)C=C6)C=C5)cc3)nc(NCc3ccc4c(c3)OCO4)n2)cc1
REMARK SMILES IDX 15 1 14 2 13 3 11 4 12 5 10 7 9 8 8 9 6 10 7 11 102 12 90 13
REMARK SMILES IDX 89 14 5 15 1 16 2 17 3 18 104 19 4 20 103 21 91 22 92 24
REMARK SMILES IDX 93 25 94 26 98 27 95 28 97 29 96 30 99 31 101 32 100 33
REMARK SMILES IDX 16 34 17 35 18 36 19 37 20 38 21 39 22 41 23 42 24 43 88 44
REMARK SMILES IDX 25 45 87 46 26 47 27 48 28 49 81 50 29 51 86 52 80 53 82 54
REMARK SMILES IDX 30 55 85 56 79 57 78 58 31 60 65 61 44 62 64 63 45 64 48 65
REMARK SMILES IDX 63 66 83 67 46 68 47 69 62 71 84 72 49 73 32 74 33 75 42 76
REMARK SMILES IDX 34 77 35 78 41 79 43 80 36 81 37 82 38 83 39 84 40 85 66 86
REMARK SMILES IDX 67 87 76 88 68 89 69 90 75 91 77 92 70 93 71 94 72 95 73 96
REMARK SMILES IDX 74 97 50 98 51 99 60 100 52 101 53 102 59 103 61 104 54 105
REMARK SMILES IDX 55 106 56 107 57 108 58 109
REMARK H PARENT 13 6 91 23 20 40 82 59 48 70
REMARK Flexibility Score: inf
ROOT
ATOM      1  C   UNL     1      -6.728   4.372  -0.333  1.00  0.00     0.021 C 
ENDROOT
BRANCH   1   2
ATOM      2  C   UNL     1      -6.512   4.173  -1.832  1.00  0.00     0.116 C 
BRANCH   2   3
ATOM      3  N   UNL     1      -5.115   4.014  -2.186  1.00  0.00    -0.353 N 
ATOM      4  C   UNL     1      -4.513   2.961  -2.807  1.00  0.00     0.258 C 
ATOM      5  O   UNL     1      -3.321   3.045  -3.116  1.00  0.00    -0.271 OA
ATOM      6  H   UNL     1      -4.524   4.765  -1.948  1.00  0.00     0.163 HD
BRANCH   4   7
ATOM      7  C   UNL     1      -5.325   1.700  -3.130  1.00  0.00     0.331 C 
BRANCH   7   8
ATOM      8  O   UNL     1      -5.946   1.047  -2.038  1.00  0.00    -0.467 OA
BRANCH   8   9
ATOM      9  C   UNL     1      -5.147   0.563  -1.043  1.00  0.00     0.219 A 
ATOM     10  C   UNL     1      -3.161  -0.050   0.018  1.00  0.00     0.080 A 
ATOM     11  C   UNL     1      -3.786   0.426  -1.115  1.00  0.00     0.097 A 
ATOM     12  N   UNL     1      -3.840  -0.439   1.113  1.00  0.00    -0.213 NA
ATOM     13  C   UNL     1      -5.167  -0.269   1.094  1.00  0.00     0.226 A 
ATOM     14  N   UNL     1      -5.841   0.230   0.052  1.00  0.00    -0.177 NA
BRANCH  10  15
ATOM     15  C   UNL     1      -1.697  -0.083   0.094  1.00  0.00     0.000 A 
ATOM     16  C   UNL     1       2.631  -0.117   0.062  1.00  0.00     0.044 C 
ATOM     17  C   UNL     1       1.132  -0.099   0.094  1.00  0.00    -0.051 A 
ATOM     18  C   UNL     1       0.410  -1.296   0.186  1.00  0.00     0.004 A 
ATOM     19  C   UNL     1       0.433   1.109   0.018  1.00  0.00     0.004 A 
ATOM     20  C   UNL     1      -0.990  -1.287   0.195  1.00  0.00     0.010 A 
ATOM     21  C   UNL     1      -0.963   1.115   0.017  1.00  0.00     0.010 A 
ENDBRANCH  10  15
BRANCH  13  22
ATOM     22  N   UNL     1      -5.935  -0.589   2.177  1.00  0.00    -0.350 N 
ATOM     23  H   UNL     1      -6.804  -0.140   2.289  1.00  0.00     0.164 HD
BRANCH  22  24
ATOM     24  C   UNL     1      -5.527  -1.556   3.161  1.00  0.00     0.152 C 
BRANCH  24  25
ATOM     25  C   UNL     1      -5.811  -2.989   2.740  1.00  0.00    -0.025 A 
ATOM     26  C   UNL     1      -5.216  -4.042   3.479  1.00  0.00     0.009 A 
ATOM     27  C   UNL     1      -6.671  -3.312   1.674  1.00  0.00     0.056 A 
ATOM     28  C   UNL     1      -5.439  -5.383   3.147  1.00  0.00     0.051 A 
ATOM     29  C   UNL     1      -6.860  -4.642   1.359  1.00  0.00     0.166 A 
ATOM     30  C   UNL     1      -6.257  -5.649   2.072  1.00  0.00     0.165 A 
ATOM     31  O   UNL     1      -7.623  -5.112   0.336  1.00  0.00    -0.454 OA
ATOM     32  O   UNL     1      -6.562  -6.883   1.586  1.00  0.00    -0.454 OA
ATOM     33  C   UNL     1      -7.396  -6.529   0.463  1.00  0.00     0.468 C 
ENDBRANCH  24  25
ENDBRANCH  22  24
ENDBRANCH  13  22
ENDBRANCH   8   9
ENDBRANCH   7   8
ENDBRANCH   4   7
ENDBRANCH   2   3
ENDBRANCH   1   2
BRANCH   1  34
ATOM     34  C   UNL     1      -6.030   5.584   0.297  1.00  0.00     0.002 C 
BRANCH  34  35
ATOM     35  C   UNL     1      -6.234   6.952  -0.373  1.00  0.00     0.002 C 
BRANCH  35  36
ATOM     36  C   UNL     1      -7.668   7.353  -0.725  1.00  0.00     0.021 C 
BRANCH  36  37
ATOM     37  C   UNL     1      -8.630   7.377   0.455  1.00  0.00     0.116 C 
BRANCH  37  38
ATOM     38  N   UNL     1      -9.060   8.709   0.842  1.00  0.00    -0.352 N 
ATOM     39  C   UNL     1     -10.222   8.966   1.560  1.00  0.00     0.251 C 
ATOM     40  H   UNL     1      -8.497   9.473   0.580  1.00  0.00     0.163 HD
ATOM     41  O   UNL     1     -10.951   9.919   1.354  1.00  0.00    -0.269 OA
BRANCH  39  42
ATOM     42  C   UNL     1     -10.457   8.064   2.710  1.00  0.00     0.039 A 
ATOM     43  C   UNL     1     -10.113   8.521   3.987  1.00  0.00     0.014 A 
ATOM     44  C   UNL     1     -10.757   6.724   2.481  1.00  0.00     0.014 A 
ATOM     45  C   UNL     1      -9.918   7.598   5.013  1.00  0.00     0.010 A 
ATOM     46  C   UNL     1     -10.485   5.806   3.477  1.00  0.00     0.010 A 
ATOM     47  C   UNL     1     -10.023   6.237   4.730  1.00  0.00    -0.014 A 
BRANCH  47  48
ATOM     48  C   UNL     1      -9.605   5.177   5.644  1.00  0.00     0.031 A 
ATOM     49  C   UNL     1     -10.617   4.323   6.311  1.00  0.00     0.074 A 
ATOM     50  C   UNL     1      -8.293   4.900   5.800  1.00  0.00     0.049 A 
ATOM     51  N   UNL     1     -10.370   3.514   7.288  1.00  0.00    -0.248 NA
ATOM     52  C   UNL     1     -12.036   4.393   5.977  1.00  0.00     0.031 C 
ATOM     53  C   UNL     1      -7.711   3.667   6.322  1.00  0.00     0.029 A 
ATOM     54  N   UNL     1      -7.216   5.782   5.712  1.00  0.00    -0.354 N 
ATOM     55  C   UNL     1     -11.500   2.758   7.508  1.00  0.00     0.074 A 
ATOM     56  C   UNL     1     -12.532   3.442   6.771  1.00  0.00     0.031 C 
ATOM     57  C   UNL     1      -6.458   3.914   6.730  1.00  0.00     0.029 A 
ATOM     58  C   UNL     1      -6.248   5.347   6.639  1.00  0.00     0.049 A 
ATOM     59  H   UNL     1      -7.146   6.562   5.115  1.00  0.00     0.167 HD
ATOM     60  C   UNL     1     -11.380   1.570   8.172  1.00  0.00     0.037 A 
ATOM     61  C   UNL     1      -5.863   6.137   7.686  1.00  0.00     0.037 A 
ATOM     62  C   UNL     1     -10.081   1.492   8.852  1.00  0.00     0.049 A 
ATOM     63  C   UNL     1      -6.152   5.552   9.050  1.00  0.00     0.074 A 
ATOM     64  C   UNL     1      -8.905   0.808   8.589  1.00  0.00     0.029 A 
ATOM     65  N   UNL     1      -9.780   2.411   9.857  1.00  0.00    -0.354 N 
ATOM     66  N   UNL     1      -6.928   4.524   9.258  1.00  0.00    -0.248 NA
ATOM     67  C   UNL     1      -5.609   6.095  10.294  1.00  0.00     0.031 C 
ATOM     68  C   UNL     1      -7.874   1.390   9.376  1.00  0.00     0.029 A 
ATOM     69  C   UNL     1      -8.428   2.402  10.141  1.00  0.00     0.049 A 
ATOM     70  H   UNL     1     -10.441   2.988  10.303  1.00  0.00     0.167 HD
ATOM     71  C   UNL     1      -7.043   4.298  10.604  1.00  0.00     0.074 A 
ATOM     72  C   UNL     1      -6.167   5.283  11.210  1.00  0.00     0.031 C 
ATOM     73  C   UNL     1      -7.866   3.333  11.113  1.00  0.00     0.037 A 
BRANCH  60  74
ATOM     74  C   UNL     1     -12.314   0.367   8.004  1.00  0.00     0.058 A 
ATOM     75  C   UNL     1     -11.929  -0.910   8.482  1.00  0.00     0.135 A 
ATOM     76  C   UNL     1     -13.527   0.352   7.279  1.00  0.00     0.135 A 
ATOM     77  F   UNL     1     -10.830  -1.072   9.232  1.00  0.00    -0.206 F 
ATOM     78  C   UNL     1     -12.635  -2.090   8.198  1.00  0.00     0.059 A 
ATOM     79  C   UNL     1     -14.252  -0.808   6.989  1.00  0.00     0.059 A 
ATOM     80  F   UNL     1     -14.093   1.454   6.789  1.00  0.00    -0.206 F 
ATOM     81  C   UNL     1     -13.788  -2.031   7.429  1.00  0.00     0.060 A 
BRANCH  81  82
ATOM     82  S   UNL     1     -14.667  -3.545   7.001  1.00  0.00     0.124 S 
ATOM     83  O   UNL     1     -13.688  -4.239   6.171  1.00  0.00    -0.237 OA
ATOM     84  O   UNL     1     -14.927  -4.133   8.310  1.00  0.00    -0.237 OA
ATOM     85  O   UNL     1     -15.850  -3.063   6.291  1.00  0.00    -0.744 OA
ENDBRANCH  81  82
ENDBRANCH  60  74
BRANCH  61  86
ATOM     86  C   UNL     1      -5.854   7.586   7.344  1.00  0.00     0.058 A 
ATOM     87  C   UNL     1      -4.891   8.021   6.414  1.00  0.00     0.135 A 
ATOM     88  C   UNL     1      -7.000   8.376   7.512  1.00  0.00     0.135 A 
ATOM     89  F   UNL     1      -3.760   7.317   6.242  1.00  0.00    -0.206 F 
ATOM     90  C   UNL     1      -5.141   9.076   5.545  1.00  0.00     0.059 A 
ATOM     91  C   UNL     1      -7.265   9.449   6.658  1.00  0.00     0.059 A 
ATOM     92  F   UNL     1      -7.945   8.019   8.394  1.00  0.00    -0.206 F 
ATOM     93  C   UNL     1      -6.370   9.728   5.622  1.00  0.00     0.060 A 
BRANCH  93  94
ATOM     94  S   UNL     1      -6.844  10.815   4.255  1.00  0.00     0.124 S 
ATOM     95  O   UNL     1      -5.691  11.703   4.154  1.00  0.00    -0.237 OA
ATOM     96  O   UNL     1      -7.007   9.866   3.153  1.00  0.00    -0.237 OA
ATOM     97  O   UNL     1      -8.076  11.433   4.731  1.00  0.00    -0.744 OA
ENDBRANCH  93  94
ENDBRANCH  61  86
BRANCH  73  98
ATOM     98  C   UNL     1      -8.158   3.135  12.580  1.00  0.00     0.058 A 
ATOM     99  C   UNL     1      -8.264   4.187  13.507  1.00  0.00     0.135 A 
ATOM    100  C   UNL     1      -8.470   1.848  13.076  1.00  0.00     0.135 A 
ATOM    101  F   UNL     1      -8.097   5.463  13.129  1.00  0.00    -0.206 F 
ATOM    102  C   UNL     1      -8.586   3.973  14.849  1.00  0.00     0.059 A 
ATOM    103  C   UNL     1      -8.841   1.617  14.399  1.00  0.00     0.059 A 
ATOM    104  F   UNL     1      -8.425   0.768  12.281  1.00  0.00    -0.206 F 
ATOM    105  C   UNL     1      -8.870   2.683  15.288  1.00  0.00     0.060 A 
BRANCH 105 106
ATOM    106  S   UNL     1      -9.336   2.394  17.006  1.00  0.00     0.124 S 
ATOM    107  O   UNL     1      -8.054   2.028  17.599  1.00  0.00    -0.237 OA
ATOM    108  O   UNL     1      -9.874   3.686  17.424  1.00  0.00    -0.237 OA
ATOM    109  O   UNL     1     -10.318   1.320  16.904  1.00  0.00    -0.744 OA
ENDBRANCH 105 106
ENDBRANCH  73  98
ENDBRANCH  47  48
ENDBRANCH  39  42
ENDBRANCH  37  38
ENDBRANCH  36  37
ENDBRANCH  35  36
ENDBRANCH  34  35
ENDBRANCH   1  34
TORSDOF 22
