REMARK SMILES O=C(NCCCCCCNC(=O)[C@@H]1[C@H](C(=O)Nc2ccccc2OC(F)F)[C@@H]2C=C[C@H]1C2)c1ccc(-c2c3nc(c(-c4c(F)cc(S(=O)(=O)[O-])cc4F)c4ccc([nH]4)c(-c4c(F)cc(S(=O)(=O)[O-])cc4F)c4nc(c(-c5c(F)cc(S(=O)(=O)[O-])cc5F)c5ccc2[nH]5)C=C4)C=C3)cc1
REMARK SMILES IDX 7 1 6 2 5 3 4 4 3 5 1 6 2 7 33 9 34 10 98 11 35 12 97 13
REMARK SMILES IDX 36 14 37 15 38 16 91 17 39 18 96 19 90 20 92 21 40 22 95 23
REMARK SMILES IDX 89 24 88 25 41 27 75 28 54 29 74 30 55 31 58 32 73 33 93 34
REMARK SMILES IDX 56 35 57 36 72 38 94 39 59 40 42 41 43 42 52 43 44 44 45 45
REMARK SMILES IDX 51 46 53 47 46 48 47 49 48 50 49 51 50 52 76 53 77 54 86 55
REMARK SMILES IDX 78 56 79 57 85 58 87 59 80 60 81 61 82 62 83 63 84 64 60 65
REMARK SMILES IDX 61 66 70 67 62 68 63 69 69 70 71 71 64 72 65 73 66 74 67 75
REMARK SMILES IDX 68 76 8 77 9 78 10 79 11 80 12 82 13 83 14 84 31 85 28 86
REMARK SMILES IDX 30 87 32 88 29 89 15 90 16 91 17 92 18 94 19 95 23 96 20 97
REMARK SMILES IDX 22 98 21 99 24 100 25 101 26 102 27 103
REMARK H PARENT 3 8 92 26 58 37 10 81 17 93
REMARK Flexibility Score: inf
ROOT
ATOM      1  C   UNL     1       3.541   2.010   4.198  1.00  0.00     0.002 C 
ENDROOT
BRANCH   1   2
ATOM      2  C   UNL     1       3.386   2.695   2.842  1.00  0.00     0.002 C 
BRANCH   2   3
ATOM      3  C   UNL     1       4.258   2.191   1.681  1.00  0.00     0.021 C 
BRANCH   3   4
ATOM      4  C   UNL     1       4.178   0.701   1.338  1.00  0.00     0.116 C 
BRANCH   4   5
ATOM      5  N   UNL     1       2.809   0.243   1.131  1.00  0.00    -0.352 N 
ATOM      6  O   UNL     1       0.936  -0.243  -0.029  1.00  0.00    -0.269 OA
ATOM      7  C   UNL     1       2.171  -0.126  -0.022  1.00  0.00     0.251 C 
ATOM      8  H   UNL     1       2.258   0.193   1.946  1.00  0.00     0.163 HD
BRANCH   7   9
ATOM      9  C   UNL     1       2.937  -0.400  -1.253  1.00  0.00     0.039 A 
ATOM     10  C   UNL     1       4.081  -1.200  -1.200  1.00  0.00     0.014 A 
ATOM     11  C   UNL     1       2.478   0.088  -2.481  1.00  0.00     0.014 A 
ATOM     12  C   UNL     1       4.823  -1.427  -2.355  1.00  0.00     0.010 A 
ATOM     13  C   UNL     1       3.184  -0.202  -3.652  1.00  0.00     0.010 A 
ATOM     14  C   UNL     1       4.367  -0.957  -3.597  1.00  0.00    -0.014 A 
BRANCH  14  15
ATOM     15  C   UNL     1       5.077  -1.363  -4.836  1.00  0.00     0.031 A 
ATOM     16  C   UNL     1       5.761  -0.352  -5.711  1.00  0.00     0.074 A 
ATOM     17  C   UNL     1       5.086  -2.671  -5.164  1.00  0.00     0.049 A 
ATOM     18  N   UNL     1       6.393  -0.539  -6.841  1.00  0.00    -0.248 NA
ATOM     19  C   UNL     1       5.727   1.050  -5.267  1.00  0.00     0.031 C 
ATOM     20  C   UNL     1       4.439  -3.735  -4.390  1.00  0.00     0.029 A 
ATOM     21  N   UNL     1       5.653  -3.333  -6.223  1.00  0.00    -0.354 N 
ATOM     22  C   UNL     1       6.816   0.719  -7.256  1.00  0.00     0.074 A 
ATOM     23  C   UNL     1       6.351   1.665  -6.264  1.00  0.00     0.031 C 
ATOM     24  C   UNL     1       4.668  -4.915  -4.982  1.00  0.00     0.029 A 
ATOM     25  C   UNL     1       5.412  -4.688  -6.214  1.00  0.00     0.049 A 
ATOM     26  H   UNL     1       6.181  -2.883  -6.921  1.00  0.00     0.167 HD
ATOM     27  C   UNL     1       7.527   1.044  -8.362  1.00  0.00     0.037 A 
ATOM     28  C   UNL     1       5.722  -5.638  -7.115  1.00  0.00     0.037 A 
ATOM     29  C   UNL     1       7.988   0.082  -9.333  1.00  0.00     0.049 A 
ATOM     30  C   UNL     1       6.477  -5.242  -8.351  1.00  0.00     0.074 A 
ATOM     31  C   UNL     1       8.758   0.302 -10.462  1.00  0.00     0.029 A 
ATOM     32  N   UNL     1       7.709  -1.278  -9.301  1.00  0.00    -0.354 N 
ATOM     33  N   UNL     1       6.915  -4.056  -8.701  1.00  0.00    -0.248 NA
ATOM     34  C   UNL     1       6.776  -6.306  -9.318  1.00  0.00     0.031 C 
ATOM     35  C   UNL     1       8.891  -0.911 -11.145  1.00  0.00     0.029 A 
ATOM     36  C   UNL     1       8.260  -1.902 -10.409  1.00  0.00     0.049 A 
ATOM     37  H   UNL     1       7.195  -1.732  -8.595  1.00  0.00     0.167 HD
ATOM     38  C   UNL     1       7.558  -4.233  -9.919  1.00  0.00     0.074 A 
ATOM     39  C   UNL     1       7.469  -5.645 -10.235  1.00  0.00     0.031 C 
ATOM     40  C   UNL     1       8.164  -3.311 -10.706  1.00  0.00     0.037 A 
BRANCH  27  41
ATOM     41  C   UNL     1       7.834   2.499  -8.607  1.00  0.00     0.058 A 
ATOM     42  C   UNL     1       8.753   3.210  -7.820  1.00  0.00     0.135 A 
ATOM     43  C   UNL     1       7.245   3.174  -9.690  1.00  0.00     0.135 A 
ATOM     44  F   UNL     1       9.338   2.621  -6.765  1.00  0.00    -0.206 F 
ATOM     45  C   UNL     1       9.061   4.542  -8.084  1.00  0.00     0.059 A 
ATOM     46  C   UNL     1       7.559   4.497  -9.990  1.00  0.00     0.059 A 
ATOM     47  F   UNL     1       6.359   2.544 -10.478  1.00  0.00    -0.206 F 
ATOM     48  C   UNL     1       8.461   5.176  -9.173  1.00  0.00     0.060 A 
BRANCH  48  49
ATOM     49  S   UNL     1       8.884   6.900  -9.509  1.00  0.00     0.124 S 
ATOM     50  O   UNL     1       8.233   7.582  -8.394  1.00  0.00    -0.237 OA
ATOM     51  O   UNL     1      10.342   6.875  -9.471  1.00  0.00    -0.237 OA
ATOM     52  O   UNL     1       8.297   7.146 -10.822  1.00  0.00    -0.744 OA
ENDBRANCH  48  49
ENDBRANCH  27  41
BRANCH  28  53
ATOM     53  C   UNL     1       5.289  -7.043  -6.888  1.00  0.00     0.058 A 
ATOM     54  C   UNL     1       6.220  -8.060  -6.640  1.00  0.00     0.135 A 
ATOM     55  C   UNL     1       3.927  -7.392  -6.896  1.00  0.00     0.135 A 
ATOM     56  F   UNL     1       7.532  -7.780  -6.625  1.00  0.00    -0.206 F 
ATOM     57  C   UNL     1       5.822  -9.376  -6.427  1.00  0.00     0.059 A 
ATOM     58  C   UNL     1       3.502  -8.693  -6.652  1.00  0.00     0.059 A 
ATOM     59  F   UNL     1       2.993  -6.452  -7.110  1.00  0.00    -0.206 F 
ATOM     60  C   UNL     1       4.459  -9.682  -6.432  1.00  0.00     0.060 A 
BRANCH  60  61
ATOM     61  S   UNL     1       3.952 -11.386  -6.119  1.00  0.00     0.124 S 
ATOM     62  O   UNL     1       4.357 -12.043  -7.356  1.00  0.00    -0.237 OA
ATOM     63  O   UNL     1       4.731 -11.723  -4.931  1.00  0.00    -0.237 OA
ATOM     64  O   UNL     1       2.512 -11.274  -5.905  1.00  0.00    -0.744 OA
ENDBRANCH  60  61
ENDBRANCH  28  53
BRANCH  40  65
ATOM     65  C   UNL     1       8.806  -3.802 -11.974  1.00  0.00     0.058 A 
ATOM     66  C   UNL     1       8.042  -4.217 -13.076  1.00  0.00     0.135 A 
ATOM     67  C   UNL     1      10.204  -3.801 -12.108  1.00  0.00     0.135 A 
ATOM     68  F   UNL     1       6.702  -4.249 -12.996  1.00  0.00    -0.206 F 
ATOM     69  C   UNL     1       8.641  -4.629 -14.261  1.00  0.00     0.059 A 
ATOM     70  C   UNL     1      10.824  -4.179 -13.294  1.00  0.00     0.059 A 
ATOM     71  F   UNL     1      10.981  -3.409 -11.086  1.00  0.00    -0.206 F 
ATOM     72  C   UNL     1      10.034  -4.599 -14.363  1.00  0.00     0.060 A 
BRANCH  72  73
ATOM     73  S   UNL     1      10.795  -5.087 -15.925  1.00  0.00     0.124 S 
ATOM     74  O   UNL     1      10.576  -6.529 -15.922  1.00  0.00    -0.237 OA
ATOM     75  O   UNL     1      10.017  -4.329 -16.899  1.00  0.00    -0.237 OA
ATOM     76  O   UNL     1      12.184  -4.663 -15.774  1.00  0.00    -0.744 OA
ENDBRANCH  72  73
ENDBRANCH  40  65
ENDBRANCH  14  15
ENDBRANCH   7   9
ENDBRANCH   4   5
ENDBRANCH   3   4
ENDBRANCH   2   3
ENDBRANCH   1   2
BRANCH   1  77
ATOM     77  C   UNL     1       4.879   2.194   4.935  1.00  0.00     0.021 C 
BRANCH  77  78
ATOM     78  C   UNL     1       5.343   3.613   5.471  1.00  0.00     0.116 C 
BRANCH  78  79
ATOM     79  N   UNL     1       6.507   3.879   6.581  1.00  0.00    -0.356 N 
ATOM     80  C   UNL     1       7.783   3.706   7.120  1.00  0.00     0.224 C 
ATOM     81  H   UNL     1       6.077   4.496   7.215  1.00  0.00     0.163 HD
ATOM     82  O   UNL     1       7.861   4.404   8.164  1.00  0.00    -0.275 OA
BRANCH  80  83
ATOM     83  C   UNL     1       9.272   2.868   6.797  1.00  0.00     0.098 C 
ATOM     84  C   UNL     1      10.136   1.864   5.762  1.00  0.00     0.099 C 
ATOM     85  C   UNL     1       9.957   2.385   8.155  1.00  0.00     0.025 C 
ATOM     86  C   UNL     1      11.144   1.140   6.697  1.00  0.00     0.025 C 
ATOM     87  C   UNL     1       9.686   0.917   8.438  1.00  0.00    -0.027 C 
ATOM     88  C   UNL     1      11.433   2.221   7.729  1.00  0.00     0.017 C 
ATOM     89  C   UNL     1      10.401   0.181   7.576  1.00  0.00    -0.027 C 
BRANCH  84  90
ATOM     90  C   UNL     1       9.858   0.838   4.585  1.00  0.00     0.229 C 
ATOM     91  O   UNL     1      10.577   0.887   3.579  1.00  0.00    -0.274 OA
ATOM     92  N   UNL     1       8.930  -0.161   4.634  1.00  0.00    -0.323 N 
ATOM     93  H   UNL     1       9.007  -0.899   3.986  1.00  0.00     0.170 HD
BRANCH  92  94
ATOM     94  C   UNL     1       7.890  -0.198   5.538  1.00  0.00     0.084 A 
ATOM     95  C   UNL     1       7.487  -1.398   6.144  1.00  0.00     0.030 A 
ATOM     96  C   UNL     1       7.351   0.990   5.929  1.00  0.00     0.149 A 
ATOM     97  C   UNL     1       6.729  -1.380   7.325  1.00  0.00     0.002 A 
ATOM     98  C   UNL     1       6.638   0.983   7.160  1.00  0.00     0.049 A 
ATOM     99  C   UNL     1       6.357  -0.173   7.876  1.00  0.00     0.004 A 
BRANCH  96 100
ATOM    100  O   UNL     1       7.452   2.156   5.228  1.00  0.00    -0.433 OA
BRANCH 100 101
ATOM    101  C   UNL     1       8.023   2.794   4.064  1.00  0.00     0.542 C 
ATOM    102  F   UNL     1       7.780   2.092   2.946  1.00  0.00    -0.167 F 
ATOM    103  F   UNL     1       7.426   4.010   3.904  1.00  0.00    -0.167 F 
ENDBRANCH 100 101
ENDBRANCH  96 100
ENDBRANCH  92  94
ENDBRANCH  84  90
ENDBRANCH  80  83
ENDBRANCH  78  79
ENDBRANCH  77  78
ENDBRANCH   1  77
TORSDOF 20
