REMARK SMILES C#CC[N@@H+](CC(=O)NCCCCCCNC(=O)c1ccc(-c2c3nc(c(-c4c(F)cc(S(=O)(=O)[O-])cc4F)c4ccc([nH]4)c(-c4c(F)cc(S(=O)(=O)[O-])cc4F)c4nc(c(-c5c(F)cc(S(=O)(=O)[O-])cc5F)c5ccc2[nH]5)C=C4)C=C3)cc1)Cc1ccc(C(C)C)cc1
REMARK SMILES IDX 11 1 10 2 9 3 8 4 6 5 7 6 5 8 4 9 3 11 2 12 1 13 84 14 85 15
REMARK SMILES IDX 86 16 93 17 87 18 92 19 88 20 89 21 90 22 91 23 12 24 13 25
REMARK SMILES IDX 14 26 15 27 16 28 17 30 18 31 19 32 83 33 20 34 82 35 21 36
REMARK SMILES IDX 22 37 23 38 76 39 24 40 81 41 75 42 77 43 25 44 80 45 74 46
REMARK SMILES IDX 73 47 26 49 60 50 39 51 59 52 40 53 43 54 58 55 78 56 41 57
REMARK SMILES IDX 42 58 57 60 79 61 44 62 27 63 28 64 37 65 29 66 30 67 36 68
REMARK SMILES IDX 38 69 31 70 32 71 33 72 34 73 35 74 61 75 62 76 71 77 63 78
REMARK SMILES IDX 64 79 70 80 72 81 65 82 66 83 67 84 68 85 69 86 45 87 46 88
REMARK SMILES IDX 55 89 47 90 48 91 54 92 56 93 49 94 50 95 51 96 52 97 53 98
REMARK H PARENT 8 7 4 10 15 29 77 48 43 59
REMARK Flexibility Score: inf
ROOT
ATOM      1  C   UNL     1      -3.601  -1.596  -4.173  1.00  0.00     0.002 C 
ENDROOT
BRANCH   1   2
ATOM      2  C   UNL     1      -3.194  -0.836  -2.915  1.00  0.00     0.021 C 
BRANCH   2   3
ATOM      3  C   UNL     1      -4.170   0.186  -2.293  1.00  0.00     0.116 C 
BRANCH   3   4
ATOM      4  N   UNL     1      -5.060  -0.362  -1.270  1.00  0.00    -0.351 N 
ATOM      5  C   UNL     1      -5.088  -0.416   0.097  1.00  0.00     0.275 C 
ATOM      6  O   UNL     1      -6.109  -0.948   0.564  1.00  0.00    -0.269 OA
ATOM      7  H   UNL     1      -5.842  -0.807  -1.669  1.00  0.00     0.163 HD
BRANCH   5   8
ATOM      8  C   UNL     1      -4.026   0.114   1.086  1.00  0.00     0.364 C 
BRANCH   8   9
ATOM      9  N   UNL     1      -2.649  -0.433   1.097  1.00  0.00    -0.313 N 
ATOM     10  H   UNL     1      -2.224   0.012   1.911  1.00  0.00     0.349 HD
BRANCH   9  11
ATOM     11  C   UNL     1      -1.910  -0.001  -0.051  1.00  0.00     0.354 C 
BRANCH  11  12
ATOM     12  C   UNL     1      -0.390  -0.001  -0.051  1.00  0.00    -0.047 C 
ATOM     13  C   UNL     1       0.914  -0.001  -0.051  1.00  0.00     0.010 C 
ENDBRANCH  11  12
ENDBRANCH   9  11
BRANCH   9  14
ATOM     14  C   UNL     1      -2.377  -1.775   1.645  1.00  0.00     0.300 C 
BRANCH  14  15
ATOM     15  C   UNL     1      -2.547  -3.031   0.797  1.00  0.00     0.006 A 
ATOM     16  C   UNL     1      -3.521  -3.128  -0.180  1.00  0.00     0.010 A 
ATOM     17  C   UNL     1      -1.799  -4.199   1.019  1.00  0.00     0.010 A 
ATOM     18  C   UNL     1      -3.713  -4.241  -0.982  1.00  0.00     0.004 A 
ATOM     19  C   UNL     1      -2.000  -5.361   0.235  1.00  0.00     0.004 A 
ATOM     20  C   UNL     1      -2.953  -5.383  -0.793  1.00  0.00    -0.045 A 
BRANCH  20  21
ATOM     21  C   UNL     1      -3.183  -6.567  -1.709  1.00  0.00     0.013 C 
ATOM     22  C   UNL     1      -4.654  -7.013  -1.687  1.00  0.00     0.012 C 
ATOM     23  C   UNL     1      -2.770  -6.211  -3.145  1.00  0.00     0.012 C 
ENDBRANCH  20  21
ENDBRANCH  14  15
ENDBRANCH   9  14
ENDBRANCH   8   9
ENDBRANCH   5   8
ENDBRANCH   3   4
ENDBRANCH   2   3
ENDBRANCH   1   2
BRANCH   1  24
ATOM     24  C   UNL     1      -3.798  -0.760  -5.432  1.00  0.00     0.002 C 
BRANCH  24  25
ATOM     25  C   UNL     1      -2.695   0.257  -5.741  1.00  0.00     0.021 C 
BRANCH  25  26
ATOM     26  C   UNL     1      -1.276  -0.305  -5.825  1.00  0.00     0.116 C 
BRANCH  26  27
ATOM     27  N   UNL     1      -1.131  -1.275  -6.897  1.00  0.00    -0.352 N 
ATOM     28  C   UNL     1      -0.527  -1.138  -8.123  1.00  0.00     0.251 C 
ATOM     29  H   UNL     1      -1.523  -2.160  -6.718  1.00  0.00     0.163 HD
ATOM     30  O   UNL     1      -0.711  -1.981  -8.994  1.00  0.00    -0.269 OA
BRANCH  28  31
ATOM     31  C   UNL     1       0.338   0.031  -8.394  1.00  0.00     0.039 A 
ATOM     32  C   UNL     1       0.169   0.739  -9.587  1.00  0.00     0.014 A 
ATOM     33  C   UNL     1       1.334   0.407  -7.489  1.00  0.00     0.014 A 
ATOM     34  C   UNL     1       0.966   1.858  -9.847  1.00  0.00     0.010 A 
ATOM     35  C   UNL     1       2.082   1.559  -7.719  1.00  0.00     0.010 A 
ATOM     36  C   UNL     1       1.912   2.292  -8.904  1.00  0.00    -0.014 A 
BRANCH  36  37
ATOM     37  C   UNL     1       2.744   3.499  -9.146  1.00  0.00     0.031 A 
ATOM     38  C   UNL     1       4.237   3.368  -9.291  1.00  0.00     0.074 A 
ATOM     39  C   UNL     1       2.166   4.716  -9.173  1.00  0.00     0.049 A 
ATOM     40  N   UNL     1       5.139   4.305  -9.431  1.00  0.00    -0.248 NA
ATOM     41  C   UNL     1       4.791   2.005  -9.247  1.00  0.00     0.031 C 
ATOM     42  C   UNL     1       0.735   4.977  -8.999  1.00  0.00     0.029 A 
ATOM     43  N   UNL     1       2.711   5.964  -9.342  1.00  0.00    -0.354 N 
ATOM     44  C   UNL     1       6.364   3.649  -9.474  1.00  0.00     0.074 A 
ATOM     45  C   UNL     1       6.094   2.239  -9.296  1.00  0.00     0.031 C 
ATOM     46  C   UNL     1       0.515   6.298  -9.087  1.00  0.00     0.029 A 
ATOM     47  C   UNL     1       1.788   6.983  -9.288  1.00  0.00     0.049 A 
ATOM     48  H   UNL     1       3.672   6.117  -9.489  1.00  0.00     0.167 HD
ATOM     49  C   UNL     1       7.599   4.172  -9.666  1.00  0.00     0.037 A 
ATOM     50  C   UNL     1       1.951   8.317  -9.380  1.00  0.00     0.037 A 
ATOM     51  C   UNL     1       7.858   5.573  -9.871  1.00  0.00     0.049 A 
ATOM     52  C   UNL     1       3.332   8.874  -9.601  1.00  0.00     0.074 A 
ATOM     53  C   UNL     1       9.065   6.196 -10.133  1.00  0.00     0.029 A 
ATOM     54  N   UNL     1       6.893   6.570  -9.838  1.00  0.00    -0.354 N 
ATOM     55  N   UNL     1       4.472   8.233  -9.700  1.00  0.00    -0.248 NA
ATOM     56  C   UNL     1       3.448  10.333  -9.732  1.00  0.00     0.031 C 
ATOM     57  C   UNL     1       8.837   7.574 -10.219  1.00  0.00     0.029 A 
ATOM     58  C   UNL     1       7.480   7.805 -10.058  1.00  0.00     0.049 A 
ATOM     59  H   UNL     1       5.933   6.421  -9.681  1.00  0.00     0.167 HD
ATOM     60  C   UNL     1       5.437   9.207  -9.932  1.00  0.00     0.074 A 
ATOM     61  C   UNL     1       4.745  10.479  -9.969  1.00  0.00     0.031 C 
ATOM     62  C   UNL     1       6.774   9.062 -10.101  1.00  0.00     0.037 A 
BRANCH  49  63
ATOM     63  C   UNL     1       8.766   3.222  -9.668  1.00  0.00     0.058 A 
ATOM     64  C   UNL     1       8.973   2.310 -10.716  1.00  0.00     0.135 A 
ATOM     65  C   UNL     1       9.708   3.244  -8.626  1.00  0.00     0.135 A 
ATOM     66  F   UNL     1       8.096   2.236 -11.730  1.00  0.00    -0.206 F 
ATOM     67  C   UNL     1      10.052   1.433 -10.716  1.00  0.00     0.059 A 
ATOM     68  C   UNL     1      10.812   2.395  -8.620  1.00  0.00     0.059 A 
ATOM     69  F   UNL     1       9.561   4.095  -7.599  1.00  0.00    -0.206 F 
ATOM     70  C   UNL     1      10.966   1.482  -9.662  1.00  0.00     0.060 A 
BRANCH  70  71
ATOM     71  S   UNL     1      12.362   0.337  -9.678  1.00  0.00     0.124 S 
ATOM     72  O   UNL     1      11.709  -0.923  -9.338  1.00  0.00    -0.237 OA
ATOM     73  O   UNL     1      12.845   0.451 -11.050  1.00  0.00    -0.237 OA
ATOM     74  O   UNL     1      13.255   0.876  -8.656  1.00  0.00    -0.744 OA
ENDBRANCH  70  71
ENDBRANCH  49  63
BRANCH  50  75
ATOM     75  C   UNL     1       0.770   9.217  -9.287  1.00  0.00     0.058 A 
ATOM     76  C   UNL     1       0.293   9.899 -10.415  1.00  0.00     0.135 A 
ATOM     77  C   UNL     1       0.087   9.400  -8.075  1.00  0.00     0.135 A 
ATOM     78  F   UNL     1       0.916   9.762 -11.595  1.00  0.00    -0.206 F 
ATOM     79  C   UNL     1      -0.811  10.743 -10.344  1.00  0.00     0.059 A 
ATOM     80  C   UNL     1      -1.034  10.219  -7.984  1.00  0.00     0.059 A 
ATOM     81  F   UNL     1       0.493   8.756  -6.969  1.00  0.00    -0.206 F 
ATOM     82  C   UNL     1      -1.470  10.895  -9.123  1.00  0.00     0.060 A 
BRANCH  82  83
ATOM     83  S   UNL     1      -2.933  11.951  -9.052  1.00  0.00     0.124 S 
ATOM     84  O   UNL     1      -2.339  13.281  -9.125  1.00  0.00    -0.237 OA
ATOM     85  O   UNL     1      -3.680  11.520 -10.229  1.00  0.00    -0.237 OA
ATOM     86  O   UNL     1      -3.539  11.598  -7.772  1.00  0.00    -0.744 OA
ENDBRANCH  82  83
ENDBRANCH  50  75
BRANCH  62  87
ATOM     87  C   UNL     1       7.577  10.302 -10.379  1.00  0.00     0.058 A 
ATOM     88  C   UNL     1       7.850  11.245  -9.376  1.00  0.00     0.135 A 
ATOM     89  C   UNL     1       8.128  10.520 -11.653  1.00  0.00     0.135 A 
ATOM     90  F   UNL     1       7.342  11.087  -8.144  1.00  0.00    -0.206 F 
ATOM     91  C   UNL     1       8.625  12.372  -9.631  1.00  0.00     0.059 A 
ATOM     92  C   UNL     1       8.927  11.626 -11.923  1.00  0.00     0.059 A 
ATOM     93  F   UNL     1       7.905   9.643 -12.644  1.00  0.00    -0.206 F 
ATOM     94  C   UNL     1       9.161  12.552 -10.908  1.00  0.00     0.060 A 
BRANCH  94  95
ATOM     95  S   UNL     1      10.196  13.999 -11.217  1.00  0.00     0.124 S 
ATOM     96  O   UNL     1       9.201  15.064 -11.278  1.00  0.00    -0.237 OA
ATOM     97  O   UNL     1      11.070  14.014 -10.047  1.00  0.00    -0.237 OA
ATOM     98  O   UNL     1      10.856  13.681 -12.479  1.00  0.00    -0.744 OA
ENDBRANCH  94  95
ENDBRANCH  62  87
ENDBRANCH  36  37
ENDBRANCH  28  31
ENDBRANCH  26  27
ENDBRANCH  25  26
ENDBRANCH  24  25
ENDBRANCH   1  24
TORSDOF 22
