REMARK SMILES CC[C@](C)(Nc1ncnc(OC)c1[N+](=O)[O-])C(=O)NCCCCCCNC(=O)c1ccc(-c2c3nc(c(-c4c(F)cc(S(=O)(=O)[O-])cc4F)c4ccc([nH]4)c(-c4c(F)cc(S(=O)(=O)[O-])cc4F)c4nc(c(-c5c(F)cc(S(=O)(=O)[O-])cc5F)c5ccc2[nH]5)C=C4)C=C3)cc1
REMARK SMILES IDX 22 1 21 2 20 3 19 4 17 5 18 6 3 8 4 9 2 10 1 11 5 12 6 14
REMARK SMILES IDX 7 15 13 16 8 17 10 18 9 19 14 20 15 21 16 22 11 23 12 24
REMARK SMILES IDX 23 25 24 26 25 27 26 28 27 29 28 31 29 32 30 33 94 34 31 35
REMARK SMILES IDX 93 36 32 37 33 38 34 39 87 40 35 41 92 42 86 43 88 44 36 45
REMARK SMILES IDX 91 46 85 47 84 48 37 50 71 51 50 52 70 53 51 54 54 55 69 56
REMARK SMILES IDX 89 57 52 58 53 59 68 61 90 62 55 63 38 64 39 65 48 66 40 67
REMARK SMILES IDX 41 68 47 69 49 70 42 71 43 72 44 73 45 74 46 75 72 76 73 77
REMARK SMILES IDX 82 78 74 79 75 80 81 81 83 82 76 83 77 84 78 85 79 86 80 87
REMARK SMILES IDX 56 88 57 89 66 90 58 91 59 92 65 93 67 94 60 95 61 96 62 97
REMARK SMILES IDX 63 98 64 99
REMARK H PARENT 19 7 5 13 26 30 88 49 54 60
REMARK Flexibility Score: inf
ROOT
ATOM      1  C   UNL     1       3.436   2.803   5.806  1.00  0.00     0.002 C 
ENDROOT
BRANCH   1   2
ATOM      2  C   UNL     1       1.995   3.063   5.361  1.00  0.00     0.021 C 
BRANCH   2   3
ATOM      3  C   UNL     1       1.817   3.513   3.913  1.00  0.00     0.116 C 
BRANCH   3   4
ATOM      4  N   UNL     1       2.461   2.706   2.885  1.00  0.00    -0.354 N 
ATOM      5  C   UNL     1       2.084   1.636   2.126  1.00  0.00     0.245 C 
ATOM      6  O   UNL     1       2.743   1.458   1.094  1.00  0.00    -0.272 OA
ATOM      7  H   UNL     1       3.380   3.000   2.694  1.00  0.00     0.163 HD
BRANCH   5   8
ATOM      8  C   UNL     1       0.938   0.651   2.502  1.00  0.00     0.115 C 
ATOM      9  C   UNL     1       0.925  -0.575   1.561  1.00  0.00     0.045 C 
BRANCH   8  10
ATOM     10  C   UNL     1      -0.445   1.359   2.375  1.00  0.00     0.035 C 
ATOM     11  C   UNL     1      -0.907   1.640   0.948  1.00  0.00     0.007 C 
ENDBRANCH   8  10
BRANCH   8  12
ATOM     12  N   UNL     1       1.066   0.144   3.877  1.00  0.00    -0.350 N 
ATOM     13  H   UNL     1       0.229   0.265   4.382  1.00  0.00     0.163 HD
BRANCH  12  14
ATOM     14  C   UNL     1       2.020  -0.444   4.642  1.00  0.00     0.213 A 
ATOM     15  N   UNL     1       1.461  -0.812   5.820  1.00  0.00    -0.212 NA
ATOM     16  C   UNL     1       3.368  -0.661   4.460  1.00  0.00     0.372 A 
ATOM     17  C   UNL     1       2.239  -1.340   6.781  1.00  0.00     0.228 A 
ATOM     18  C   UNL     1       4.101  -1.153   5.527  1.00  0.00     0.299 A 
ATOM     19  N   UNL     1       3.557  -1.510   6.702  1.00  0.00    -0.196 NA
BRANCH  16  20
ATOM     20  N   UNL     1       4.088  -0.419   3.257  1.00  0.00     0.072 N 
ATOM     21  O   UNL     1       4.084  -1.319   2.408  1.00  0.00    -0.258 OA
ATOM     22  O   UNL     1       4.755   0.625   3.197  1.00  0.00    -0.258 OA
ENDBRANCH  16  20
BRANCH  18  23
ATOM     23  O   UNL     1       5.451  -1.383   5.433  1.00  0.00    -0.476 OA
ATOM     24  C   UNL     1       6.196  -0.217   5.795  1.00  0.00     0.280 C 
ENDBRANCH  18  23
ENDBRANCH  12  14
ENDBRANCH   8  12
ENDBRANCH   5   8
ENDBRANCH   3   4
ENDBRANCH   2   3
ENDBRANCH   1   2
BRANCH   1  25
ATOM     25  C   UNL     1       4.413   3.973   5.678  1.00  0.00     0.002 C 
BRANCH  25  26
ATOM     26  C   UNL     1       4.119   5.169   6.583  1.00  0.00     0.021 C 
BRANCH  26  27
ATOM     27  C   UNL     1       4.286   4.899   8.076  1.00  0.00     0.116 C 
BRANCH  27  28
ATOM     28  N   UNL     1       5.672   4.676   8.465  1.00  0.00    -0.352 N 
ATOM     29  C   UNL     1       6.325   5.134   9.589  1.00  0.00     0.251 C 
ATOM     30  H   UNL     1       6.210   4.130   7.848  1.00  0.00     0.163 HD
ATOM     31  O   UNL     1       7.528   4.960   9.728  1.00  0.00    -0.269 OA
BRANCH  29  32
ATOM     32  C   UNL     1       5.551   5.879  10.606  1.00  0.00     0.039 A 
ATOM     33  C   UNL     1       5.986   7.148  10.994  1.00  0.00     0.014 A 
ATOM     34  C   UNL     1       4.361   5.349  11.114  1.00  0.00     0.014 A 
ATOM     35  C   UNL     1       5.181   7.921  11.833  1.00  0.00     0.010 A 
ATOM     36  C   UNL     1       3.531   6.148  11.895  1.00  0.00     0.010 A 
ATOM     37  C   UNL     1       3.928   7.444  12.256  1.00  0.00    -0.014 A 
BRANCH  37  38
ATOM     38  C   UNL     1       3.016   8.304  13.052  1.00  0.00     0.031 A 
ATOM     39  C   UNL     1       2.653   7.931  14.463  1.00  0.00     0.074 A 
ATOM     40  C   UNL     1       2.466   9.394  12.479  1.00  0.00     0.049 A 
ATOM     41  N   UNL     1       1.881   8.562  15.310  1.00  0.00    -0.248 NA
ATOM     42  C   UNL     1       3.203   6.668  14.978  1.00  0.00     0.031 C 
ATOM     43  C   UNL     1       2.677   9.820  11.093  1.00  0.00     0.029 A 
ATOM     44  N   UNL     1       1.619  10.345  12.991  1.00  0.00    -0.354 N 
ATOM     45  C   UNL     1       1.839   7.766  16.449  1.00  0.00     0.074 A 
ATOM     46  C   UNL     1       2.620   6.582  16.164  1.00  0.00     0.031 C 
ATOM     47  C   UNL     1       2.014  10.967  10.879  1.00  0.00     0.029 A 
ATOM     48  C   UNL     1       1.313  11.348  12.101  1.00  0.00     0.049 A 
ATOM     49  H   UNL     1       1.263  10.311  13.908  1.00  0.00     0.167 HD
ATOM     50  C   UNL     1       1.228   8.012  17.633  1.00  0.00     0.037 A 
ATOM     51  C   UNL     1       0.568  12.458  12.259  1.00  0.00     0.037 A 
ATOM     52  C   UNL     1       0.483   9.209  17.923  1.00  0.00     0.049 A 
ATOM     53  C   UNL     1      -0.062  12.733  13.597  1.00  0.00     0.074 A 
ATOM     54  C   UNL     1      -0.097   9.596  19.119  1.00  0.00     0.029 A 
ATOM     55  N   UNL     1       0.214  10.214  17.005  1.00  0.00    -0.354 N 
ATOM     56  N   UNL     1      -0.015  12.015  14.693  1.00  0.00    -0.248 NA
ATOM     57  C   UNL     1      -0.836  13.976  13.721  1.00  0.00     0.031 C 
ATOM     58  C   UNL     1      -0.746  10.820  18.914  1.00  0.00     0.029 A 
ATOM     59  C   UNL     1      -0.540  11.212  17.601  1.00  0.00     0.049 A 
ATOM     60  H   UNL     1       0.516  10.217  16.068  1.00  0.00     0.167 HD
ATOM     61  C   UNL     1      -0.736  12.727  15.645  1.00  0.00     0.074 A 
ATOM     62  C   UNL     1      -1.194  13.941  14.997  1.00  0.00     0.031 C 
ATOM     63  C   UNL     1      -0.995  12.408  16.937  1.00  0.00     0.037 A 
BRANCH  50  64
ATOM     64  C   UNL     1       1.348   6.959  18.701  1.00  0.00     0.058 A 
ATOM     65  C   UNL     1       2.565   6.711  19.357  1.00  0.00     0.135 A 
ATOM     66  C   UNL     1       0.236   6.187  19.072  1.00  0.00     0.135 A 
ATOM     67  F   UNL     1       3.664   7.411  19.031  1.00  0.00    -0.206 F 
ATOM     68  C   UNL     1       2.686   5.706  20.310  1.00  0.00     0.059 A 
ATOM     69  C   UNL     1       0.328   5.194  20.043  1.00  0.00     0.059 A 
ATOM     70  F   UNL     1      -0.952   6.383  18.478  1.00  0.00    -0.206 F 
ATOM     71  C   UNL     1       1.563   4.946  20.640  1.00  0.00     0.060 A 
BRANCH  71  72
ATOM     72  S   UNL     1       1.738   3.627  21.860  1.00  0.00     0.124 S 
ATOM     73  O   UNL     1       2.397   2.590  21.072  1.00  0.00    -0.237 OA
ATOM     74  O   UNL     1       2.559   4.256  22.890  1.00  0.00    -0.237 OA
ATOM     75  O   UNL     1       0.361   3.341  22.249  1.00  0.00    -0.744 OA
ENDBRANCH  71  72
ENDBRANCH  50  64
BRANCH  51  76
ATOM     76  C   UNL     1       0.431  13.425  11.139  1.00  0.00     0.058 A 
ATOM     77  C   UNL     1       1.109  14.654  11.171  1.00  0.00     0.135 A 
ATOM     78  C   UNL     1      -0.351  13.138  10.012  1.00  0.00     0.135 A 
ATOM     79  F   UNL     1       1.865  14.974  12.232  1.00  0.00    -0.206 F 
ATOM     80  C   UNL     1       1.009  15.568  10.128  1.00  0.00     0.059 A 
ATOM     81  C   UNL     1      -0.452  14.028   8.947  1.00  0.00     0.059 A 
ATOM     82  F   UNL     1      -1.006  11.969   9.928  1.00  0.00    -0.206 F 
ATOM     83  C   UNL     1       0.227  15.245   9.018  1.00  0.00     0.060 A 
BRANCH  83  84
ATOM     84  S   UNL     1       0.155  16.411   7.640  1.00  0.00     0.124 S 
ATOM     85  O   UNL     1      -0.731  17.439   8.171  1.00  0.00    -0.237 OA
ATOM     86  O   UNL     1       1.556  16.791   7.485  1.00  0.00    -0.237 OA
ATOM     87  O   UNL     1      -0.391  15.605   6.551  1.00  0.00    -0.744 OA
ENDBRANCH  83  84
ENDBRANCH  51  76
BRANCH  63  88
ATOM     88  C   UNL     1      -1.800  13.396  17.734  1.00  0.00     0.058 A 
ATOM     89  C   UNL     1      -3.178  13.557  17.526  1.00  0.00     0.135 A 
ATOM     90  C   UNL     1      -1.188  14.181  18.724  1.00  0.00     0.135 A 
ATOM     91  F   UNL     1      -3.809  12.834  16.587  1.00  0.00    -0.206 F 
ATOM     92  C   UNL     1      -3.917  14.488  18.247  1.00  0.00     0.059 A 
ATOM     93  C   UNL     1      -1.912  15.101  19.475  1.00  0.00     0.059 A 
ATOM     94  F   UNL     1       0.126  14.057  18.970  1.00  0.00    -0.206 F 
ATOM     95  C   UNL     1      -3.273  15.261  19.216  1.00  0.00     0.060 A 
BRANCH  95  96
ATOM     96  S   UNL     1      -4.239  16.467  20.150  1.00  0.00     0.124 S 
ATOM     97  O   UNL     1      -4.348  17.560  19.190  1.00  0.00    -0.237 OA
ATOM     98  O   UNL     1      -5.474  15.739  20.424  1.00  0.00    -0.237 OA
ATOM     99  O   UNL     1      -3.405  16.735  21.318  1.00  0.00    -0.744 OA
ENDBRANCH  95  96
ENDBRANCH  63  88
ENDBRANCH  37  38
ENDBRANCH  29  32
ENDBRANCH  27  28
ENDBRANCH  26  27
ENDBRANCH  25  26
ENDBRANCH   1  25
TORSDOF 21
