REMARK SMILES Cc1ccc(NC(=O)NC2(C(=O)NCCCCCCNC(=O)c3ccc(-c4c5nc(c(-c6c(F)cc(S(=O)(=O)[O-])cc6F)c6ccc([nH]6)c(-c6c(F)cc(S(=O)(=O)[O-])cc6F)c6nc(c(-c7c(F)cc(S(=O)(=O)[O-])cc7F)c7ccc4[nH]7)C=C6)C=C5)cc3)CC2)c(C)n1
REMARK SMILES IDX 17 1 16 2 15 3 14 4 13 5 11 6 12 7 10 9 89 10 90 11 9 12
REMARK SMILES IDX 6 13 7 14 8 16 5 18 1 19 2 20 3 21 93 22 4 23 91 24 92 25
REMARK SMILES IDX 18 26 19 27 20 28 21 29 22 31 23 32 24 33 88 34 25 35 87 36
REMARK SMILES IDX 26 37 27 38 28 39 81 40 29 41 86 42 80 43 82 44 30 45 85 46
REMARK SMILES IDX 79 47 78 48 31 50 65 51 44 52 64 53 45 54 48 55 63 56 83 57
REMARK SMILES IDX 46 58 47 59 62 61 84 62 49 63 32 64 33 65 42 66 34 67 35 68
REMARK SMILES IDX 41 69 43 70 36 71 37 72 38 73 39 74 40 75 66 76 67 77 76 78
REMARK SMILES IDX 68 79 69 80 75 81 77 82 70 83 71 84 72 85 73 86 74 87 50 88
REMARK SMILES IDX 51 89 60 90 52 91 53 92 59 93 61 94 54 95 55 96 56 97 57 98
REMARK SMILES IDX 58 99
REMARK H PARENT 13 8 6 15 9 17 20 30 82 49 48 60
REMARK Flexibility Score: inf
ROOT
ATOM      1  C   UNL     1      -1.385   2.546   4.548  1.00  0.00     0.002 C 
ENDROOT
BRANCH   1   2
ATOM      2  C   UNL     1      -0.971   1.117   4.184  1.00  0.00     0.002 C 
BRANCH   2   3
ATOM      3  C   UNL     1      -0.171   0.930   2.885  1.00  0.00     0.021 C 
BRANCH   3   4
ATOM      4  C   UNL     1       1.232   1.582   2.834  1.00  0.00     0.116 C 
BRANCH   4   5
ATOM      5  N   UNL     1       2.139   0.902   1.894  1.00  0.00    -0.354 N 
ATOM      6  C   UNL     1       3.138   1.543   1.171  1.00  0.00     0.245 C 
ATOM      7  O   UNL     1       3.671   2.589   1.562  1.00  0.00    -0.272 OA
ATOM      8  H   UNL     1       2.031  -0.068   1.769  1.00  0.00     0.163 HD
BRANCH   6   9
ATOM      9  C   UNL     1       3.570   0.910  -0.188  1.00  0.00     0.120 C 
ATOM     10  C   UNL     1       4.263   1.928  -1.113  1.00  0.00     0.041 C 
ATOM     11  C   UNL     1       3.151   1.151  -1.667  1.00  0.00     0.041 C 
BRANCH   9  12
ATOM     12  N   UNL     1       3.887  -0.454  -0.075  1.00  0.00    -0.323 N 
ATOM     13  N   UNL     1       1.665  -1.331  -0.182  1.00  0.00    -0.306 N 
ATOM     14  C   UNL     1       3.001  -1.445  -0.096  1.00  0.00     0.320 C 
ATOM     15  H   UNL     1       1.342  -2.257  -0.100  1.00  0.00     0.171 HD
ATOM     16  O   UNL     1       3.443  -2.598  -0.002  1.00  0.00    -0.248 OA
ATOM     17  H   UNL     1       4.836  -0.694   0.026  1.00  0.00     0.166 HD
BRANCH  13  18
ATOM     18  C   UNL     1       0.457  -0.554  -0.332  1.00  0.00     0.064 A 
ATOM     19  C   UNL     1      -3.633   0.784  -0.694  1.00  0.00     0.067 C 
ATOM     20  C   UNL     1      -2.265   0.213  -0.586  1.00  0.00     0.038 A 
ATOM     21  C   UNL     1      -1.982  -1.107  -0.405  1.00  0.00     0.025 A 
ATOM     22  N   UNL     1      -1.284   1.109  -0.632  1.00  0.00    -0.256 NA
ATOM     23  C   UNL     1      -0.640  -1.469  -0.297  1.00  0.00     0.030 A 
ATOM     24  C   UNL     1       0.041   0.794  -0.475  1.00  0.00     0.061 A 
ATOM     25  C   UNL     1       0.640   2.162  -0.466  1.00  0.00     0.069 C 
ENDBRANCH  13  18
ENDBRANCH   9  12
ENDBRANCH   6   9
ENDBRANCH   4   5
ENDBRANCH   3   4
ENDBRANCH   2   3
ENDBRANCH   1   2
BRANCH   1  26
ATOM     26  C   UNL     1      -2.475   3.203   3.688  1.00  0.00     0.021 C 
BRANCH  26  27
ATOM     27  C   UNL     1      -3.842   2.509   3.636  1.00  0.00     0.116 C 
BRANCH  27  28
ATOM     28  N   UNL     1      -4.428   2.280   4.951  1.00  0.00    -0.352 N 
ATOM     29  C   UNL     1      -5.599   2.732   5.512  1.00  0.00     0.251 C 
ATOM     30  H   UNL     1      -3.893   1.700   5.540  1.00  0.00     0.163 HD
ATOM     31  O   UNL     1      -5.812   2.525   6.706  1.00  0.00    -0.269 OA
BRANCH  29  32
ATOM     32  C   UNL     1      -6.602   3.476   4.714  1.00  0.00     0.039 A 
ATOM     33  C   UNL     1      -7.202   4.611   5.271  1.00  0.00     0.014 A 
ATOM     34  C   UNL     1      -6.991   3.042   3.444  1.00  0.00     0.014 A 
ATOM     35  C   UNL     1      -8.119   5.358   4.524  1.00  0.00     0.010 A 
ATOM     36  C   UNL     1      -7.862   3.820   2.678  1.00  0.00     0.010 A 
ATOM     37  C   UNL     1      -8.422   4.995   3.202  1.00  0.00    -0.014 A 
BRANCH  37  38
ATOM     38  C   UNL     1      -9.270   5.862   2.338  1.00  0.00     0.031 A 
ATOM     39  C   UNL     1     -10.589   5.368   1.808  1.00  0.00     0.074 A 
ATOM     40  C   UNL     1      -8.806   7.072   1.965  1.00  0.00     0.049 A 
ATOM     41  N   UNL     1     -11.414   5.950   0.975  1.00  0.00    -0.248 NA
ATOM     42  C   UNL     1     -11.030   4.039   2.259  1.00  0.00     0.031 C 
ATOM     43  C   UNL     1      -7.524   7.648   2.378  1.00  0.00     0.029 A 
ATOM     44  N   UNL     1      -9.347   8.031   1.143  1.00  0.00    -0.354 N 
ATOM     45  C   UNL     1     -12.465   5.059   0.793  1.00  0.00     0.074 A 
ATOM     46  C   UNL     1     -12.150   3.877   1.568  1.00  0.00     0.031 C 
ATOM     47  C   UNL     1      -7.385   8.862   1.823  1.00  0.00     0.029 A 
ATOM     48  C   UNL     1      -8.542   9.134   0.975  1.00  0.00     0.049 A 
ATOM     49  H   UNL     1     -10.229   7.938   0.714  1.00  0.00     0.167 HD
ATOM     50  C   UNL     1     -13.595   5.219   0.062  1.00  0.00     0.037 A 
ATOM     51  C   UNL     1      -8.702  10.232   0.211  1.00  0.00     0.037 A 
ATOM     52  C   UNL     1     -13.905   6.404  -0.698  1.00  0.00     0.049 A 
ATOM     53  C   UNL     1      -9.948  10.370  -0.621  1.00  0.00     0.074 A 
ATOM     54  C   UNL     1     -15.050   6.686  -1.421  1.00  0.00     0.029 A 
ATOM     55  N   UNL     1     -13.063   7.498  -0.844  1.00  0.00    -0.354 N 
ATOM     56  N   UNL     1     -10.965   9.548  -0.723  1.00  0.00    -0.248 NA
ATOM     57  C   UNL     1     -10.069  11.582  -1.444  1.00  0.00     0.031 C 
ATOM     58  C   UNL     1     -14.878   7.923  -2.051  1.00  0.00     0.029 A 
ATOM     59  C   UNL     1     -13.648   8.440  -1.676  1.00  0.00     0.049 A 
ATOM     60  H   UNL     1     -12.179   7.591  -0.420  1.00  0.00     0.167 HD
ATOM     61  C   UNL     1     -11.854  10.151  -1.607  1.00  0.00     0.074 A 
ATOM     62  C   UNL     1     -11.264  11.415  -1.995  1.00  0.00     0.031 C 
ATOM     63  C   UNL     1     -13.049   9.695  -2.058  1.00  0.00     0.037 A 
BRANCH  50  64
ATOM     64  C   UNL     1     -14.587   4.085   0.043  1.00  0.00     0.058 A 
ATOM     65  C   UNL     1     -15.344   3.748   1.177  1.00  0.00     0.135 A 
ATOM     66  C   UNL     1     -14.821   3.359  -1.137  1.00  0.00     0.135 A 
ATOM     67  F   UNL     1     -15.156   4.401   2.334  1.00  0.00    -0.206 F 
ATOM     68  C   UNL     1     -16.274   2.714   1.150  1.00  0.00     0.059 A 
ATOM     69  C   UNL     1     -15.768   2.340  -1.194  1.00  0.00     0.059 A 
ATOM     70  F   UNL     1     -14.128   3.639  -2.252  1.00  0.00    -0.206 F 
ATOM     71  C   UNL     1     -16.479   2.015  -0.041  1.00  0.00     0.060 A 
BRANCH  71  72
ATOM     72  S   UNL     1     -17.693   0.678  -0.056  1.00  0.00     0.124 S 
ATOM     73  O   UNL     1     -17.014  -0.340   0.740  1.00  0.00    -0.237 OA
ATOM     74  O   UNL     1     -18.853   1.303   0.572  1.00  0.00    -0.237 OA
ATOM     75  O   UNL     1     -17.841   0.368  -1.474  1.00  0.00    -0.744 OA
ENDBRANCH  71  72
ENDBRANCH  50  64
BRANCH  51  76
ATOM     76  C   UNL     1      -7.654  11.289   0.198  1.00  0.00     0.058 A 
ATOM     77  C   UNL     1      -7.892  12.550   0.764  1.00  0.00     0.135 A 
ATOM     78  C   UNL     1      -6.389  11.056  -0.367  1.00  0.00     0.135 A 
ATOM     79  F   UNL     1      -9.088  12.825   1.307  1.00  0.00    -0.206 F 
ATOM     80  C   UNL     1      -6.921  13.546   0.760  1.00  0.00     0.059 A 
ATOM     81  C   UNL     1      -5.392  12.027  -0.357  1.00  0.00     0.059 A 
ATOM     82  F   UNL     1      -6.104   9.862  -0.909  1.00  0.00    -0.206 F 
ATOM     83  C   UNL     1      -5.672  13.273   0.201  1.00  0.00     0.060 A 
BRANCH  83  84
ATOM     84  S   UNL     1      -4.404  14.558   0.247  1.00  0.00     0.124 S 
ATOM     85  O   UNL     1      -4.913  15.508  -0.737  1.00  0.00    -0.237 OA
ATOM     86  O   UNL     1      -4.458  14.991   1.640  1.00  0.00    -0.237 OA
ATOM     87  O   UNL     1      -3.189  13.845  -0.134  1.00  0.00    -0.744 OA
ENDBRANCH  83  84
ENDBRANCH  51  76
BRANCH  63  88
ATOM     88  C   UNL     1     -13.810  10.571  -3.016  1.00  0.00     0.058 A 
ATOM     89  C   UNL     1     -13.396  10.736  -4.347  1.00  0.00     0.135 A 
ATOM     90  C   UNL     1     -15.004  11.196  -2.619  1.00  0.00     0.135 A 
ATOM     91  F   UNL     1     -12.257  10.169  -4.776  1.00  0.00    -0.206 F 
ATOM     92  C   UNL     1     -14.131  11.501  -5.247  1.00  0.00     0.059 A 
ATOM     93  C   UNL     1     -15.770  11.941  -3.510  1.00  0.00     0.059 A 
ATOM     94  F   UNL     1     -15.449  11.065  -1.359  1.00  0.00    -0.206 F 
ATOM     95  C   UNL     1     -15.321  12.094  -4.821  1.00  0.00     0.060 A 
BRANCH  95  96
ATOM     96  S   UNL     1     -16.292  13.036  -6.016  1.00  0.00     0.124 S 
ATOM     97  O   UNL     1     -15.468  14.227  -6.193  1.00  0.00    -0.237 OA
ATOM     98  O   UNL     1     -16.346  12.127  -7.157  1.00  0.00    -0.237 OA
ATOM     99  O   UNL     1     -17.563  13.249  -5.331  1.00  0.00    -0.744 OA
ENDBRANCH  95  96
ENDBRANCH  63  88
ENDBRANCH  37  38
ENDBRANCH  29  32
ENDBRANCH  27  28
ENDBRANCH  26  27
ENDBRANCH   1  26
TORSDOF 18
