REMARK SMILES COc1ccc(-n2c(SCC(=O)NCCCCCCNC(=O)c3ccc(-c4c5nc(c(-c6c(F)cc(S(=O)(=O)[O-])cc6F)c6ccc([nH]6)c(-c6c(F)cc(S(=O)(=O)[O-])cc6F)c6nc(c(-c7c(F)cc(S(=O)(=O)[O-])cc7F)c7ccc4[nH]7)C=C6)C=C5)cc3)nc3sc4c(c3c2=O)CC[N@H+](C)C4)cc1
REMARK SMILES IDX 16 1 15 2 14 3 13 4 11 5 12 6 10 8 9 9 8 10 7 11 95 12 89 13
REMARK SMILES IDX 94 14 96 15 90 16 93 17 91 18 92 19 97 20 101 21 98 22 99 23
REMARK SMILES IDX 100 24 6 26 3 27 4 28 103 29 5 30 102 31 2 32 1 33 17 34
REMARK SMILES IDX 18 35 19 36 20 37 21 38 22 40 23 41 24 42 88 43 25 44 87 45
REMARK SMILES IDX 26 46 27 47 28 48 81 49 29 50 86 51 80 52 82 53 30 54 85 55
REMARK SMILES IDX 79 56 78 57 31 59 65 60 44 61 64 62 45 63 48 64 63 65 83 66
REMARK SMILES IDX 46 67 47 68 62 70 84 71 49 72 32 73 33 74 42 75 34 76 35 77
REMARK SMILES IDX 41 78 43 79 36 80 37 81 38 82 39 83 40 84 66 85 67 86 76 87
REMARK SMILES IDX 68 88 69 89 75 90 77 91 70 92 71 93 72 94 73 95 74 96 50 97
REMARK SMILES IDX 51 98 60 99 52 100 53 101 59 102 61 103 54 104 55 105 56 106
REMARK SMILES IDX 57 107 58 108
REMARK H PARENT 13 7 99 25 20 39 82 58 48 69
REMARK Flexibility Score: inf
ROOT
ATOM      1  C   UNL     1       7.651   1.566   4.987  1.00  0.00     0.002 C 
ENDROOT
BRANCH   1   2
ATOM      2  C   UNL     1       7.223   2.992   4.606  1.00  0.00     0.021 C 
BRANCH   2   3
ATOM      3  C   UNL     1       6.796   3.192   3.152  1.00  0.00     0.116 C 
BRANCH   3   4
ATOM      4  N   UNL     1       5.719   2.304   2.768  1.00  0.00    -0.355 N 
ATOM      5  C   UNL     1       4.522   2.561   2.190  1.00  0.00     0.230 C 
ATOM      6  O   UNL     1       4.019   1.605   1.585  1.00  0.00    -0.274 OA
ATOM      7  H   UNL     1       5.885   1.353   2.959  1.00  0.00     0.163 HD
BRANCH   5   8
ATOM      8  C   UNL     1       3.863   3.925   2.131  1.00  0.00     0.178 C 
BRANCH   8   9
ATOM      9  S   UNL     1       3.924   5.004   3.541  1.00  0.00    -0.077 SA
BRANCH   9  10
ATOM     10  C   UNL     1       2.997   4.534   4.952  1.00  0.00     0.177 A 
ATOM     11  N   UNL     1       1.844   3.733   4.971  1.00  0.00    -0.255 N 
ATOM     12  C   UNL     1       1.130   3.504   6.165  1.00  0.00     0.267 A 
ATOM     13  N   UNL     1       3.457   5.141   6.010  1.00  0.00    -0.212 NA
ATOM     14  C   UNL     1       1.644   4.201   7.320  1.00  0.00     0.081 A 
ATOM     15  O   UNL     1       0.130   2.789   6.258  1.00  0.00    -0.268 OA
ATOM     16  C   UNL     1       2.756   4.986   7.153  1.00  0.00     0.132 A 
ATOM     17  C   UNL     1       1.159   4.221   8.661  1.00  0.00    -0.008 A 
ATOM     18  S   UNL     1       3.149   5.841   8.580  1.00  0.00    -0.114 S 
ATOM     19  C   UNL     1       1.845   5.146   9.425  1.00  0.00     0.065 A 
ATOM     20  C   UNL     1       0.012   3.448   9.237  1.00  0.00     0.099 C 
ATOM     21  C   UNL     1       1.513   5.494  10.851  1.00  0.00     0.310 C 
ATOM     22  C   UNL     1      -0.069   3.640  10.770  1.00  0.00     0.267 C 
ATOM     23  N   UNL     1       0.155   5.026  11.240  1.00  0.00    -0.333 N 
ATOM     24  C   UNL     1      -0.885   5.935  10.756  1.00  0.00     0.333 C 
ATOM     25  H   UNL     1       0.098   5.028  12.258  1.00  0.00     0.348 HD
BRANCH  11  26
ATOM     26  C   UNL     1       1.319   3.065   3.849  1.00  0.00     0.052 A 
ATOM     27  C   UNL     1       0.228   1.643   1.707  1.00  0.00     0.119 A 
ATOM     28  C   UNL     1      -0.335   2.859   2.100  1.00  0.00     0.048 A 
ATOM     29  C   UNL     1       1.265   1.094   2.459  1.00  0.00     0.048 A 
ATOM     30  C   UNL     1       0.206   3.574   3.172  1.00  0.00     0.030 A 
ATOM     31  C   UNL     1       1.799   1.795   3.539  1.00  0.00     0.030 A 
BRANCH  27  32
ATOM     32  O   UNL     1      -0.312   1.071   0.587  1.00  0.00    -0.497 OA
ATOM     33  C   UNL     1       0.543   0.151  -0.089  1.00  0.00     0.278 C 
ENDBRANCH  27  32
ENDBRANCH  11  26
ENDBRANCH   9  10
ENDBRANCH   8   9
ENDBRANCH   5   8
ENDBRANCH   3   4
ENDBRANCH   2   3
ENDBRANCH   1   2
BRANCH   1  34
ATOM     34  C   UNL     1       8.723   0.914   4.107  1.00  0.00     0.002 C 
BRANCH  34  35
ATOM     35  C   UNL     1      10.037   1.698   3.937  1.00  0.00     0.021 C 
BRANCH  35  36
ATOM     36  C   UNL     1      10.898   1.859   5.204  1.00  0.00     0.116 C 
BRANCH  36  37
ATOM     37  N   UNL     1      11.422   0.571   5.625  1.00  0.00    -0.352 N 
ATOM     38  C   UNL     1      12.688   0.155   5.945  1.00  0.00     0.251 C 
ATOM     39  H   UNL     1      10.740  -0.136   5.692  1.00  0.00     0.163 HD
ATOM     40  O   UNL     1      12.921  -1.052   5.853  1.00  0.00    -0.269 OA
BRANCH  38  41
ATOM     41  C   UNL     1      13.768   1.057   6.425  1.00  0.00     0.039 A 
ATOM     42  C   UNL     1      15.095   0.668   6.172  1.00  0.00     0.014 A 
ATOM     43  C   UNL     1      13.537   2.150   7.262  1.00  0.00     0.014 A 
ATOM     44  C   UNL     1      16.175   1.369   6.724  1.00  0.00     0.010 A 
ATOM     45  C   UNL     1      14.624   2.849   7.819  1.00  0.00     0.010 A 
ATOM     46  C   UNL     1      15.955   2.478   7.547  1.00  0.00    -0.014 A 
BRANCH  46  47
ATOM     47  C   UNL     1      17.122   3.325   7.924  1.00  0.00     0.031 A 
ATOM     48  C   UNL     1      16.892   4.790   7.733  1.00  0.00     0.074 A 
ATOM     49  C   UNL     1      18.114   2.954   8.770  1.00  0.00     0.049 A 
ATOM     50  N   UNL     1      16.245   5.503   8.607  1.00  0.00    -0.248 NA
ATOM     51  C   UNL     1      17.102   5.474   6.458  1.00  0.00     0.031 C 
ATOM     52  C   UNL     1      17.918   2.037   9.898  1.00  0.00     0.029 A 
ATOM     53  N   UNL     1      19.383   3.468   8.975  1.00  0.00    -0.354 N 
ATOM     54  C   UNL     1      15.906   6.699   8.004  1.00  0.00     0.074 A 
ATOM     55  C   UNL     1      16.475   6.643   6.673  1.00  0.00     0.031 C 
ATOM     56  C   UNL     1      18.945   2.186  10.762  1.00  0.00     0.029 A 
ATOM     57  C   UNL     1      19.954   3.087  10.194  1.00  0.00     0.049 A 
ATOM     58  H   UNL     1      19.841   4.047   8.323  1.00  0.00     0.167 HD
ATOM     59  C   UNL     1      15.165   7.646   8.637  1.00  0.00     0.037 A 
ATOM     60  C   UNL     1      20.777   3.864  10.961  1.00  0.00     0.037 A 
ATOM     61  C   UNL     1      14.778   7.323   9.982  1.00  0.00     0.049 A 
ATOM     62  C   UNL     1      19.838   4.963  11.379  1.00  0.00     0.074 A 
ATOM     63  C   UNL     1      13.675   6.814  10.633  1.00  0.00     0.029 A 
ATOM     64  N   UNL     1      15.713   7.489  10.976  1.00  0.00    -0.354 N 
ATOM     65  N   UNL     1      18.936   4.885  12.318  1.00  0.00    -0.248 NA
ATOM     66  C   UNL     1      19.671   6.090  10.460  1.00  0.00     0.031 C 
ATOM     67  C   UNL     1      14.176   6.264  11.858  1.00  0.00     0.029 A 
ATOM     68  C   UNL     1      15.558   6.444  11.853  1.00  0.00     0.049 A 
ATOM     69  H   UNL     1      16.370   8.218  11.046  1.00  0.00     0.167 HD
ATOM     70  C   UNL     1      17.939   5.789  11.952  1.00  0.00     0.074 A 
ATOM     71  C   UNL     1      18.465   6.513  10.811  1.00  0.00     0.031 C 
ATOM     72  C   UNL     1      16.679   5.774  12.476  1.00  0.00     0.037 A 
BRANCH  59  73
ATOM     73  C   UNL     1      14.871   8.998   8.118  1.00  0.00     0.058 A 
ATOM     74  C   UNL     1      15.575  10.075   8.681  1.00  0.00     0.135 A 
ATOM     75  C   UNL     1      13.778   9.282   7.292  1.00  0.00     0.135 A 
ATOM     76  F   UNL     1      16.631   9.841   9.479  1.00  0.00    -0.206 F 
ATOM     77  C   UNL     1      15.174  11.388   8.490  1.00  0.00     0.059 A 
ATOM     78  C   UNL     1      13.362  10.597   7.076  1.00  0.00     0.059 A 
ATOM     79  F   UNL     1      13.071   8.285   6.736  1.00  0.00    -0.206 F 
ATOM     80  C   UNL     1      14.050  11.638   7.705  1.00  0.00     0.060 A 
BRANCH  80  81
ATOM     81  S   UNL     1      13.484  13.348   7.568  1.00  0.00     0.124 S 
ATOM     82  O   UNL     1      13.107  13.650   8.945  1.00  0.00    -0.237 OA
ATOM     83  O   UNL     1      14.681  14.022   7.074  1.00  0.00    -0.237 OA
ATOM     84  O   UNL     1      12.379  13.265   6.619  1.00  0.00    -0.744 OA
ENDBRANCH  80  81
ENDBRANCH  59  73
BRANCH  60  85
ATOM     85  C   UNL     1      22.165   4.145  10.459  1.00  0.00     0.058 A 
ATOM     86  C   UNL     1      22.949   3.072   9.992  1.00  0.00     0.135 A 
ATOM     87  C   UNL     1      22.785   5.408  10.431  1.00  0.00     0.135 A 
ATOM     88  F   UNL     1      22.513   1.808  10.124  1.00  0.00    -0.206 F 
ATOM     89  C   UNL     1      24.186   3.260   9.376  1.00  0.00     0.059 A 
ATOM     90  C   UNL     1      24.006   5.630   9.790  1.00  0.00     0.059 A 
ATOM     91  F   UNL     1      22.214   6.474  11.009  1.00  0.00    -0.206 F 
ATOM     92  C   UNL     1      24.680   4.552   9.229  1.00  0.00     0.060 A 
BRANCH  92  93
ATOM     93  S   UNL     1      26.154   4.803   8.217  1.00  0.00     0.124 S 
ATOM     94  O   UNL     1      27.191   4.174   9.026  1.00  0.00    -0.237 OA
ATOM     95  O   UNL     1      25.794   4.104   6.987  1.00  0.00    -0.237 OA
ATOM     96  O   UNL     1      26.240   6.256   8.099  1.00  0.00    -0.744 OA
ENDBRANCH  92  93
ENDBRANCH  60  85
BRANCH  72  97
ATOM     97  C   UNL     1      16.460   4.801  13.593  1.00  0.00     0.058 A 
ATOM     98  C   UNL     1      17.076   4.993  14.838  1.00  0.00     0.135 A 
ATOM     99  C   UNL     1      15.627   3.678  13.445  1.00  0.00     0.135 A 
ATOM    100  F   UNL     1      17.875   6.053  15.044  1.00  0.00    -0.206 F 
ATOM    101  C   UNL     1      16.862   4.118  15.900  1.00  0.00     0.059 A 
ATOM    102  C   UNL     1      15.376   2.807  14.503  1.00  0.00     0.059 A 
ATOM    103  F   UNL     1      15.027   3.418  12.272  1.00  0.00    -0.206 F 
ATOM    104  C   UNL     1      15.999   3.035  15.728  1.00  0.00     0.060 A 
BRANCH 104 105
ATOM    105  S   UNL     1      15.650   1.972  17.145  1.00  0.00     0.124 S 
ATOM    106  O   UNL     1      16.905   1.243  17.298  1.00  0.00    -0.237 OA
ATOM    107  O   UNL     1      15.349   2.941  18.195  1.00  0.00    -0.237 OA
ATOM    108  O   UNL     1      14.511   1.172  16.701  1.00  0.00    -0.744 OA
ENDBRANCH 104 105
ENDBRANCH  72  97
ENDBRANCH  46  47
ENDBRANCH  38  41
ENDBRANCH  36  37
ENDBRANCH  35  36
ENDBRANCH  34  35
ENDBRANCH   1  34
TORSDOF 20
