REMARK SMILES O=C(NCCCCCCNC(=O)c1nnn(-c2cccc(C(F)(F)F)c2)c1[C@@H]1COc2ccccc2O1)c1ccc(-c2c3nc(c(-c4c(F)cc(S(=O)(=O)[O-])cc4F)c4ccc([nH]4)c(-c4c(F)cc(S(=O)(=O)[O-])cc4F)c4nc(c(-c5c(F)cc(S(=O)(=O)[O-])cc5F)c5ccc2[nH]5)C=C4)C=C3)cc1
REMARK SMILES IDX 6 1 5 2 4 3 3 4 1 5 2 6 38 8 39 9 103 10 40 11 102 12 41 13
REMARK SMILES IDX 42 14 43 15 96 16 44 17 101 18 95 19 97 20 45 21 100 22
REMARK SMILES IDX 94 23 93 24 46 26 80 27 59 28 79 29 60 30 63 31 78 32 98 33
REMARK SMILES IDX 61 34 62 35 77 37 99 38 64 39 47 40 48 41 57 42 49 43 50 44
REMARK SMILES IDX 56 45 58 46 51 47 52 48 53 49 54 50 55 51 81 52 82 53 91 54
REMARK SMILES IDX 83 55 84 56 90 57 92 58 85 59 86 60 87 61 88 62 89 63 65 64
REMARK SMILES IDX 66 65 75 66 67 67 68 68 74 69 76 70 69 71 70 72 71 73 72 74
REMARK SMILES IDX 73 75 7 76 8 77 9 78 10 79 11 80 12 82 13 83 14 84 27 85
REMARK SMILES IDX 15 86 16 87 28 88 29 89 37 90 30 91 36 92 31 93 35 94 32 95
REMARK SMILES IDX 34 96 33 97 17 98 18 99 26 100 19 101 21 102 20 103 22 104
REMARK SMILES IDX 23 105 24 106 25 107
REMARK H PARENT 3 7 97 25 63 36 10 81
REMARK Flexibility Score: inf
ROOT
ATOM      1  C   UNL     1       4.021   3.546  -0.252  1.00  0.00     0.002 C 
ENDROOT
BRANCH   1   2
ATOM      2  C   UNL     1       4.697   2.256  -0.749  1.00  0.00     0.021 C 
BRANCH   2   3
ATOM      3  C   UNL     1       4.517   1.025   0.138  1.00  0.00     0.116 C 
BRANCH   3   4
ATOM      4  N   UNL     1       3.137   0.727   0.460  1.00  0.00    -0.352 N 
ATOM      5  O   UNL     1       1.092  -0.058   0.580  1.00  0.00    -0.269 OA
ATOM      6  C   UNL     1       2.124  -0.000  -0.098  1.00  0.00     0.251 C 
ATOM      7  H   UNL     1       2.857   1.160   1.299  1.00  0.00     0.163 HD
BRANCH   6   8
ATOM      8  C   UNL     1       2.136  -0.667  -1.432  1.00  0.00     0.039 A 
ATOM      9  C   UNL     1       3.244  -0.862  -2.255  1.00  0.00     0.014 A 
ATOM     10  C   UNL     1       0.882  -1.132  -1.884  1.00  0.00     0.014 A 
ATOM     11  C   UNL     1       3.087  -1.444  -3.520  1.00  0.00     0.010 A 
ATOM     12  C   UNL     1       0.723  -1.714  -3.139  1.00  0.00     0.010 A 
ATOM     13  C   UNL     1       1.822  -1.841  -3.978  1.00  0.00    -0.014 A 
BRANCH  13  14
ATOM     14  C   UNL     1       1.713  -2.538  -5.267  1.00  0.00     0.031 A 
ATOM     15  C   UNL     1       2.459  -3.833  -5.326  1.00  0.00     0.074 A 
ATOM     16  C   UNL     1       0.898  -2.170  -6.282  1.00  0.00     0.049 A 
ATOM     17  N   UNL     1       3.467  -4.144  -6.075  1.00  0.00    -0.248 NA
ATOM     18  C   UNL     1       2.112  -4.871  -4.340  1.00  0.00     0.031 C 
ATOM     19  C   UNL     1      -0.123  -1.119  -6.295  1.00  0.00     0.029 A 
ATOM     20  N   UNL     1       0.761  -2.729  -7.521  1.00  0.00    -0.354 N 
ATOM     21  C   UNL     1       3.757  -5.481  -5.802  1.00  0.00     0.074 A 
ATOM     22  C   UNL     1       2.995  -5.827  -4.630  1.00  0.00     0.031 C 
ATOM     23  C   UNL     1      -0.909  -1.262  -7.390  1.00  0.00     0.029 A 
ATOM     24  C   UNL     1      -0.365  -2.316  -8.231  1.00  0.00     0.049 A 
ATOM     25  H   UNL     1       1.409  -3.376  -7.885  1.00  0.00     0.167 HD
ATOM     26  C   UNL     1       4.456  -6.262  -6.675  1.00  0.00     0.037 A 
ATOM     27  C   UNL     1      -0.831  -2.822  -9.406  1.00  0.00     0.037 A 
ATOM     28  C   UNL     1       5.174  -5.463  -7.632  1.00  0.00     0.049 A 
ATOM     29  C   UNL     1       0.302  -3.527 -10.057  1.00  0.00     0.074 A 
ATOM     30  C   UNL     1       6.165  -4.505  -7.544  1.00  0.00     0.029 A 
ATOM     31  N   UNL     1       4.637  -5.324  -8.888  1.00  0.00    -0.354 N 
ATOM     32  N   UNL     1       1.370  -2.929 -10.509  1.00  0.00    -0.248 NA
ATOM     33  C   UNL     1       0.445  -4.949  -9.790  1.00  0.00     0.031 C 
ATOM     34  C   UNL     1       5.817  -3.529  -8.523  1.00  0.00     0.029 A 
ATOM     35  C   UNL     1       4.686  -3.989  -9.198  1.00  0.00     0.049 A 
ATOM     36  H   UNL     1       4.284  -6.046  -9.458  1.00  0.00     0.167 HD
ATOM     37  C   UNL     1       2.415  -3.777 -10.176  1.00  0.00     0.074 A 
ATOM     38  C   UNL     1       1.777  -5.036  -9.796  1.00  0.00     0.031 C 
ATOM     39  C   UNL     1       3.679  -3.304  -9.977  1.00  0.00     0.037 A 
BRANCH  26  40
ATOM     40  C   UNL     1       4.234  -7.744  -6.867  1.00  0.00     0.058 A 
ATOM     41  C   UNL     1       5.128  -8.491  -7.663  1.00  0.00     0.135 A 
ATOM     42  C   UNL     1       3.030  -8.400  -6.529  1.00  0.00     0.135 A 
ATOM     43  F   UNL     1       6.298  -7.963  -8.058  1.00  0.00    -0.206 F 
ATOM     44  C   UNL     1       4.821  -9.768  -8.138  1.00  0.00     0.059 A 
ATOM     45  C   UNL     1       2.726  -9.691  -6.949  1.00  0.00     0.059 A 
ATOM     46  F   UNL     1       2.050  -7.785  -5.856  1.00  0.00    -0.206 F 
ATOM     47  C   UNL     1       3.609 -10.354  -7.784  1.00  0.00     0.060 A 
BRANCH  47  48
ATOM     48  S   UNL     1       3.172 -11.962  -8.470  1.00  0.00     0.124 S 
ATOM     49  O   UNL     1       2.979 -11.641  -9.874  1.00  0.00    -0.237 OA
ATOM     50  O   UNL     1       4.351 -12.759  -8.146  1.00  0.00    -0.237 OA
ATOM     51  O   UNL     1       1.960 -12.322  -7.729  1.00  0.00    -0.744 OA
ENDBRANCH  47  48
ENDBRANCH  26  40
BRANCH  27  52
ATOM     52  C   UNL     1      -2.243  -3.057  -9.832  1.00  0.00     0.058 A 
ATOM     53  C   UNL     1      -2.572  -3.371 -11.166  1.00  0.00     0.135 A 
ATOM     54  C   UNL     1      -3.256  -3.285  -8.880  1.00  0.00     0.135 A 
ATOM     55  F   UNL     1      -1.662  -3.212 -12.140  1.00  0.00    -0.206 F 
ATOM     56  C   UNL     1      -3.811  -3.922 -11.526  1.00  0.00     0.059 A 
ATOM     57  C   UNL     1      -4.498  -3.829  -9.216  1.00  0.00     0.059 A 
ATOM     58  F   UNL     1      -3.032  -3.075  -7.575  1.00  0.00    -0.206 F 
ATOM     59  C   UNL     1      -4.762  -4.168 -10.537  1.00  0.00     0.060 A 
BRANCH  59  60
ATOM     60  S   UNL     1      -6.293  -5.039 -10.963  1.00  0.00     0.124 S 
ATOM     61  O   UNL     1      -7.000  -4.038 -11.754  1.00  0.00    -0.237 OA
ATOM     62  O   UNL     1      -5.797  -6.198 -11.698  1.00  0.00    -0.237 OA
ATOM     63  O   UNL     1      -6.885  -5.338  -9.661  1.00  0.00    -0.744 OA
ENDBRANCH  59  60
ENDBRANCH  27  52
BRANCH  39  64
ATOM     64  C   UNL     1       4.000  -1.892 -10.397  1.00  0.00     0.058 A 
ATOM     65  C   UNL     1       3.430  -0.737  -9.830  1.00  0.00     0.135 A 
ATOM     66  C   UNL     1       5.066  -1.706 -11.290  1.00  0.00     0.135 A 
ATOM     67  F   UNL     1       2.470  -0.826  -8.898  1.00  0.00    -0.206 F 
ATOM     68  C   UNL     1       3.889   0.543 -10.154  1.00  0.00     0.059 A 
ATOM     69  C   UNL     1       5.559  -0.444 -11.603  1.00  0.00     0.059 A 
ATOM     70  F   UNL     1       5.688  -2.771 -11.824  1.00  0.00    -0.206 F 
ATOM     71  C   UNL     1       4.962   0.678 -11.035  1.00  0.00     0.060 A 
BRANCH  71  72
ATOM     72  S   UNL     1       5.628   2.324 -11.371  1.00  0.00     0.124 S 
ATOM     73  O   UNL     1       4.575   2.922 -12.184  1.00  0.00    -0.237 OA
ATOM     74  O   UNL     1       5.788   2.880 -10.030  1.00  0.00    -0.237 OA
ATOM     75  O   UNL     1       6.879   2.049 -12.074  1.00  0.00    -0.744 OA
ENDBRANCH  71  72
ENDBRANCH  39  64
ENDBRANCH  13  14
ENDBRANCH   6   8
ENDBRANCH   3   4
ENDBRANCH   2   3
ENDBRANCH   1   2
BRANCH   1  76
ATOM     76  C   UNL     1       4.425   4.079   1.132  1.00  0.00     0.002 C 
BRANCH  76  77
ATOM     77  C   UNL     1       5.910   4.350   1.355  1.00  0.00     0.021 C 
BRANCH  77  78
ATOM     78  C   UNL     1       6.566   5.342   0.397  1.00  0.00     0.116 C 
BRANCH  78  79
ATOM     79  N   UNL     1       6.699   6.704   0.872  1.00  0.00    -0.351 N 
ATOM     80  C   UNL     1       7.678   7.682   0.880  1.00  0.00     0.273 C 
ATOM     81  H   UNL     1       5.872   7.017   1.304  1.00  0.00     0.163 HD
ATOM     82  O   UNL     1       7.289   8.735   1.400  1.00  0.00    -0.267 OA
BRANCH  80  83
ATOM     83  C   UNL     1       9.073   7.602   0.376  1.00  0.00     0.178 A 
ATOM     84  N   UNL     1       9.946   8.605   0.788  1.00  0.00    -0.124 NA
ATOM     85  C   UNL     1       9.827   6.711  -0.394  1.00  0.00     0.122 A 
ATOM     86  N   UNL     1      11.165   8.350   0.342  1.00  0.00    -0.061 NA
ATOM     87  N   UNL     1      11.084   7.293  -0.481  1.00  0.00    -0.213 N 
BRANCH  85  88
ATOM     88  C   UNL     1       9.545   5.306  -0.799  1.00  0.00     0.262 C 
ATOM     89  C   UNL     1       9.806   4.389   0.421  1.00  0.00     0.281 C 
ATOM     90  O   UNL     1      10.185   4.893  -2.004  1.00  0.00    -0.477 OA
ATOM     91  O   UNL     1      11.184   4.029   0.524  1.00  0.00    -0.485 OA
ATOM     92  C   UNL     1      10.937   3.757  -1.861  1.00  0.00     0.162 A 
ATOM     93  C   UNL     1      11.514   3.391  -0.642  1.00  0.00     0.161 A 
ATOM     94  C   UNL     1      11.195   3.011  -3.002  1.00  0.00     0.050 A 
ATOM     95  C   UNL     1      12.450   2.370  -0.577  1.00  0.00     0.050 A 
ATOM     96  C   UNL     1      12.084   1.939  -2.930  1.00  0.00     0.004 A 
ATOM     97  C   UNL     1      12.738   1.643  -1.729  1.00  0.00     0.004 A 
ENDBRANCH  85  88
BRANCH  87  98
ATOM     98  C   UNL     1      12.195   6.880  -1.240  1.00  0.00     0.067 A 
ATOM     99  C   UNL     1      13.277   6.265  -0.605  1.00  0.00     0.028 A 
ATOM    100  C   UNL     1      12.104   6.919  -2.636  1.00  0.00     0.041 A 
ATOM    101  C   UNL     1      14.215   5.582  -1.382  1.00  0.00     0.003 A 
ATOM    102  C   UNL     1      13.064   6.263  -3.419  1.00  0.00     0.058 A 
ATOM    103  C   UNL     1      14.099   5.565  -2.776  1.00  0.00     0.013 A 
BRANCH 102 104
ATOM    104  C   UNL     1      12.938   6.233  -4.922  1.00  0.00     0.416 C 
ATOM    105  F   UNL     1      14.126   6.468  -5.547  1.00  0.00    -0.166 F 
ATOM    106  F   UNL     1      12.499   5.033  -5.388  1.00  0.00    -0.166 F 
ATOM    107  F   UNL     1      12.074   7.168  -5.407  1.00  0.00    -0.166 F 
ENDBRANCH 102 104
ENDBRANCH  87  98
ENDBRANCH  80  83
ENDBRANCH  78  79
ENDBRANCH  77  78
ENDBRANCH  76  77
ENDBRANCH   1  76
TORSDOF 19
