REMARK SMILES CC1=C(C)C[C@H](C(=O)NNC(=O)c2cccc(C)c2)[C@@H](C(=O)NCCCCCCNC(=O)c2ccc(-c3c4nc(c(-c5c(F)cc(S(=O)(=O)[O-])cc5F)c5ccc([nH]5)c(-c5c(F)cc(S(=O)(=O)[O-])cc5F)c5nc(c(-c6c(F)cc(S(=O)(=O)[O-])cc6F)c6ccc3[nH]6)C=C5)C=C4)cc2)C1
REMARK SMILES IDX 26 1 25 2 24 3 23 4 21 5 22 6 20 8 1 9 2 10 3 11 99 12 4 13
REMARK SMILES IDX 5 14 6 15 7 16 8 17 9 18 10 20 11 21 12 23 13 24 14 25 19 26
REMARK SMILES IDX 15 27 17 28 16 29 18 30 27 31 28 32 29 33 30 34 31 35 32 37
REMARK SMILES IDX 33 38 34 39 98 40 35 41 97 42 36 43 37 44 38 45 91 46 39 47
REMARK SMILES IDX 96 48 90 49 92 50 40 51 95 52 89 53 88 54 41 56 75 57 54 58
REMARK SMILES IDX 74 59 55 60 58 61 73 62 93 63 56 64 57 65 72 67 94 68 59 69
REMARK SMILES IDX 42 70 43 71 52 72 44 73 45 74 51 75 53 76 46 77 47 78 48 79
REMARK SMILES IDX 49 80 50 81 76 82 77 83 86 84 78 85 79 86 85 87 87 88 80 89
REMARK SMILES IDX 81 90 82 91 83 92 84 93 60 94 61 95 70 96 62 97 63 98 69 99
REMARK SMILES IDX 71 100 64 101 65 102 66 103 67 104 68 105
REMARK H PARENT 23 7 9 19 10 22 30 36 92 55 58 66
REMARK Flexibility Score: inf
ROOT
ATOM      1  C   UNL     1       2.959   8.408   1.950  1.00  0.00     0.002 C 
ENDROOT
BRANCH   1   2
ATOM      2  C   UNL     1       1.695   7.542   1.875  1.00  0.00     0.021 C 
BRANCH   2   3
ATOM      3  C   UNL     1       1.844   6.244   1.079  1.00  0.00     0.116 C 
BRANCH   3   4
ATOM      4  N   UNL     1       2.382   5.167   1.900  1.00  0.00    -0.356 N 
ATOM      5  C   UNL     1       1.880   3.934   2.200  1.00  0.00     0.224 C 
ATOM      6  O   UNL     1       2.531   3.213   2.958  1.00  0.00    -0.275 OA
ATOM      7  H   UNL     1       3.257   5.362   2.307  1.00  0.00     0.163 HD
BRANCH   5   8
ATOM      8  C   UNL     1       0.558   3.472   1.605  1.00  0.00     0.095 C 
ATOM      9  C   UNL     1       0.736  -0.065  -0.101  1.00  0.00     0.039 C 
ATOM     10  C   UNL     1       0.451   0.932   0.994  1.00  0.00    -0.074 C 
ATOM     11  C   UNL     1      -0.053   0.632   2.210  1.00  0.00    -0.074 C 
ATOM     12  C   UNL     1       0.783   2.351   0.582  1.00  0.00     0.045 C 
ATOM     13  C   UNL     1      -0.437  -0.745   2.686  1.00  0.00     0.039 C 
ATOM     14  C   UNL     1      -0.296   1.702   3.251  1.00  0.00     0.045 C 
ATOM     15  C   UNL     1      -0.438   3.132   2.720  1.00  0.00     0.097 C 
BRANCH  15  16
ATOM     16  C   UNL     1      -1.852   3.396   2.210  1.00  0.00     0.242 C 
ATOM     17  O   UNL     1      -2.654   2.501   1.945  1.00  0.00    -0.273 OA
ATOM     18  N   UNL     1      -2.229   4.700   2.016  1.00  0.00    -0.267 N 
ATOM     19  H   UNL     1      -3.005   4.866   1.434  1.00  0.00     0.191 HD
BRANCH  18  20
ATOM     20  N   UNL     1      -1.594   5.812   2.581  1.00  0.00    -0.263 N 
ATOM     21  C   UNL     1      -1.964   7.043   2.060  1.00  0.00     0.269 C 
ATOM     22  H   UNL     1      -0.929   5.727   3.302  1.00  0.00     0.191 HD
ATOM     23  O   UNL     1      -2.077   7.253   0.857  1.00  0.00    -0.267 OA
BRANCH  21  24
ATOM     24  C   UNL     1      -2.354   8.074   3.062  1.00  0.00     0.041 A 
ATOM     25  C   UNL     1      -2.439   9.412   2.672  1.00  0.00     0.014 A 
ATOM     26  C   UNL     1      -2.809   7.692   4.335  1.00  0.00     0.017 A 
ATOM     27  C   UNL     1      -2.974  10.355   3.552  1.00  0.00     0.001 A 
ATOM     28  C   UNL     1      -3.329   8.637   5.225  1.00  0.00    -0.050 A 
ATOM     29  C   UNL     1      -3.415   9.970   4.819  1.00  0.00     0.003 A 
ATOM     30  C   UNL     1      -3.871   8.212   6.557  1.00  0.00     0.044 C 
ENDBRANCH  21  24
ENDBRANCH  18  20
ENDBRANCH  15  16
ENDBRANCH   5   8
ENDBRANCH   3   4
ENDBRANCH   2   3
ENDBRANCH   1   2
BRANCH   1  31
ATOM     31  C   UNL     1       3.589   8.820   0.609  1.00  0.00     0.002 C 
BRANCH  31  32
ATOM     32  C   UNL     1       2.619   9.301  -0.472  1.00  0.00     0.021 C 
BRANCH  32  33
ATOM     33  C   UNL     1       1.950  10.637  -0.162  1.00  0.00     0.116 C 
BRANCH  33  34
ATOM     34  N   UNL     1       2.507  11.723  -0.955  1.00  0.00    -0.352 N 
ATOM     35  C   UNL     1       1.941  12.954  -1.227  1.00  0.00     0.251 C 
ATOM     36  H   UNL     1       3.396  11.560  -1.346  1.00  0.00     0.163 HD
ATOM     37  O   UNL     1       2.314  13.668  -2.141  1.00  0.00    -0.269 OA
BRANCH  35  38
ATOM     38  C   UNL     1       0.953  13.447  -0.249  1.00  0.00     0.039 A 
ATOM     39  C   UNL     1       1.386  14.441   0.636  1.00  0.00     0.014 A 
ATOM     40  C   UNL     1      -0.242  12.766  -0.043  1.00  0.00     0.014 A 
ATOM     41  C   UNL     1       0.708  14.632   1.835  1.00  0.00     0.010 A 
ATOM     42  C   UNL     1      -0.882  12.919   1.173  1.00  0.00     0.010 A 
ATOM     43  C   UNL     1      -0.371  13.804   2.136  1.00  0.00    -0.014 A 
BRANCH  43  44
ATOM     44  C   UNL     1      -0.958  13.712   3.468  1.00  0.00     0.031 A 
ATOM     45  C   UNL     1      -2.288  14.301   3.744  1.00  0.00     0.074 A 
ATOM     46  C   UNL     1      -0.321  13.014   4.436  1.00  0.00     0.049 A 
ATOM     47  N   UNL     1      -2.774  14.450   4.930  1.00  0.00    -0.248 NA
ATOM     48  C   UNL     1      -3.159  14.842   2.703  1.00  0.00     0.031 C 
ATOM     49  C   UNL     1      -0.892  12.501   5.678  1.00  0.00     0.029 A 
ATOM     50  N   UNL     1       1.052  12.808   4.581  1.00  0.00    -0.354 N 
ATOM     51  C   UNL     1      -4.090  14.814   4.803  1.00  0.00     0.074 A 
ATOM     52  C   UNL     1      -4.239  15.178   3.417  1.00  0.00     0.031 C 
ATOM     53  C   UNL     1       0.095  12.248   6.549  1.00  0.00     0.029 A 
ATOM     54  C   UNL     1       1.321  12.755   5.963  1.00  0.00     0.049 A 
ATOM     55  H   UNL     1       1.710  12.716   3.854  1.00  0.00     0.167 HD
ATOM     56  C   UNL     1      -4.926  14.624   5.862  1.00  0.00     0.037 A 
ATOM     57  C   UNL     1       2.128  13.679   6.565  1.00  0.00     0.037 A 
ATOM     58  C   UNL     1      -4.166  14.408   7.095  1.00  0.00     0.049 A 
ATOM     59  C   UNL     1       1.444  14.512   7.627  1.00  0.00     0.074 A 
ATOM     60  C   UNL     1      -3.937  13.309   7.903  1.00  0.00     0.029 A 
ATOM     61  N   UNL     1      -3.302  15.409   7.536  1.00  0.00    -0.354 N 
ATOM     62  N   UNL     1       0.150  14.587   7.781  1.00  0.00    -0.248 NA
ATOM     63  C   UNL     1       2.163  15.335   8.596  1.00  0.00     0.031 C 
ATOM     64  C   UNL     1      -2.848  13.624   8.763  1.00  0.00     0.029 A 
ATOM     65  C   UNL     1      -2.455  14.930   8.515  1.00  0.00     0.049 A 
ATOM     66  H   UNL     1      -3.297  16.333   7.196  1.00  0.00     0.167 HD
ATOM     67  C   UNL     1      -0.148  15.469   8.789  1.00  0.00     0.074 A 
ATOM     68  C   UNL     1       1.149  15.878   9.293  1.00  0.00     0.031 C 
ATOM     69  C   UNL     1      -1.439  15.796   9.107  1.00  0.00     0.037 A 
BRANCH  56  70
ATOM     70  C   UNL     1      -6.431  14.438   5.763  1.00  0.00     0.058 A 
ATOM     71  C   UNL     1      -7.212  14.290   6.933  1.00  0.00     0.135 A 
ATOM     72  C   UNL     1      -7.146  14.241   4.559  1.00  0.00     0.135 A 
ATOM     73  F   UNL     1      -6.665  14.430   8.150  1.00  0.00    -0.206 F 
ATOM     74  C   UNL     1      -8.571  13.950   6.909  1.00  0.00     0.059 A 
ATOM     75  C   UNL     1      -8.511  13.954   4.510  1.00  0.00     0.059 A 
ATOM     76  F   UNL     1      -6.549  14.236   3.363  1.00  0.00    -0.206 F 
ATOM     77  C   UNL     1      -9.212  13.777   5.689  1.00  0.00     0.060 A 
BRANCH  77  78
ATOM     78  S   UNL     1     -10.944  13.277   5.644  1.00  0.00     0.124 S 
ATOM     79  O   UNL     1     -10.861  11.880   6.057  1.00  0.00    -0.237 OA
ATOM     80  O   UNL     1     -11.562  14.190   6.598  1.00  0.00    -0.237 OA
ATOM     81  O   UNL     1     -11.321  13.492   4.248  1.00  0.00    -0.744 OA
ENDBRANCH  77  78
ENDBRANCH  56  70
BRANCH  57  82
ATOM     82  C   UNL     1       3.253  14.119   5.696  1.00  0.00     0.058 A 
ATOM     83  C   UNL     1       4.251  13.169   5.405  1.00  0.00     0.135 A 
ATOM     84  C   UNL     1       3.116  15.207   4.823  1.00  0.00     0.135 A 
ATOM     85  F   UNL     1       4.434  12.118   6.221  1.00  0.00    -0.206 F 
ATOM     86  C   UNL     1       4.958  13.197   4.209  1.00  0.00     0.059 A 
ATOM     87  C   UNL     1       3.824  15.260   3.620  1.00  0.00     0.059 A 
ATOM     88  F   UNL     1       2.184  16.144   5.052  1.00  0.00    -0.206 F 
ATOM     89  C   UNL     1       4.683  14.209   3.292  1.00  0.00     0.060 A 
BRANCH  89  90
ATOM     90  S   UNL     1       5.326  14.019   1.611  1.00  0.00     0.124 S 
ATOM     91  O   UNL     1       6.765  13.955   1.842  1.00  0.00    -0.237 OA
ATOM     92  O   UNL     1       4.698  12.767   1.191  1.00  0.00    -0.237 OA
ATOM     93  O   UNL     1       4.848  15.218   0.933  1.00  0.00    -0.744 OA
ENDBRANCH  89  90
ENDBRANCH  57  82
BRANCH  69  94
ATOM     94  C   UNL     1      -1.876  16.902  10.050  1.00  0.00     0.058 A 
ATOM     95  C   UNL     1      -1.127  18.060  10.326  1.00  0.00     0.135 A 
ATOM     96  C   UNL     1      -3.174  16.880  10.622  1.00  0.00     0.135 A 
ATOM     97  F   UNL     1       0.064  18.276   9.749  1.00  0.00    -0.206 F 
ATOM     98  C   UNL     1      -1.589  19.077  11.167  1.00  0.00     0.059 A 
ATOM     99  C   UNL     1      -3.678  17.909  11.416  1.00  0.00     0.059 A 
ATOM    100  F   UNL     1      -4.011  15.852  10.416  1.00  0.00    -0.206 F 
ATOM    101  C   UNL     1      -2.867  18.993  11.710  1.00  0.00     0.060 A 
BRANCH 101 102
ATOM    102  S   UNL     1      -3.500  20.328  12.745  1.00  0.00     0.124 S 
ATOM    103  O   UNL     1      -3.135  19.861  14.078  1.00  0.00    -0.237 OA
ATOM    104  O   UNL     1      -2.763  21.492  12.263  1.00  0.00    -0.237 OA
ATOM    105  O   UNL     1      -4.927  20.332  12.442  1.00  0.00    -0.744 OA
ENDBRANCH 101 102
ENDBRANCH  69  94
ENDBRANCH  43  44
ENDBRANCH  35  38
ENDBRANCH  33  34
ENDBRANCH  32  33
ENDBRANCH  31  32
ENDBRANCH   1  31
TORSDOF 19
