REMARK SMILES C[C@H]([C@@H]1CCCO1)n1c(SCC(=O)NCCCCCCNC(=O)c2ccc(-c3c4nc(c(-c5c(F)cc(S(=O)(=O)[O-])cc5F)c5ccc([nH]5)c(-c5c(F)cc(S(=O)(=O)[O-])cc5F)c5nc(c(-c6c(F)cc(S(=O)(=O)[O-])cc6F)c6ccc3[nH]6)C=C5)C=C4)cc2)nc2cnccc21
REMARK SMILES IDX 17 1 16 2 15 3 14 4 12 5 13 6 11 8 10 9 9 10 8 11 96 12
REMARK SMILES IDX 90 13 91 14 95 15 92 16 94 17 93 18 2 19 1 20 3 21 4 22 7 23
REMARK SMILES IDX 5 24 6 25 18 26 19 27 20 28 21 29 22 30 23 32 24 33 25 34
REMARK SMILES IDX 89 35 26 36 88 37 27 38 28 39 29 40 82 41 30 42 87 43 81 44
REMARK SMILES IDX 83 45 31 46 86 47 80 48 79 49 32 51 66 52 45 53 65 54 46 55
REMARK SMILES IDX 49 56 64 57 84 58 47 59 48 60 63 62 85 63 50 64 33 65 34 66
REMARK SMILES IDX 43 67 35 68 36 69 42 70 44 71 37 72 38 73 39 74 40 75 41 76
REMARK SMILES IDX 67 77 68 78 77 79 69 80 70 81 76 82 78 83 71 84 72 85 73 86
REMARK SMILES IDX 74 87 75 88 51 89 52 90 61 91 53 92 54 93 60 94 62 95 55 96
REMARK SMILES IDX 56 97 57 98 58 99 59 100
REMARK H PARENT 14 7 21 31 83 50 49 61
REMARK Flexibility Score: inf
ROOT
ATOM      1  C   UNL     1      -0.807  -2.246   6.318  1.00  0.00     0.002 C 
ENDROOT
BRANCH   1   2
ATOM      2  C   UNL     1      -1.277  -1.010   5.553  1.00  0.00     0.021 C 
BRANCH   2   3
ATOM      3  C   UNL     1      -0.251   0.113   5.479  1.00  0.00     0.116 C 
BRANCH   3   4
ATOM      4  N   UNL     1       0.908  -0.317   4.756  1.00  0.00    -0.355 N 
ATOM      5  C   UNL     1       1.108  -0.191   3.429  1.00  0.00     0.230 C 
ATOM      6  O   UNL     1       2.172  -0.605   2.958  1.00  0.00    -0.274 OA
ATOM      7  H   UNL     1       1.625  -0.745   5.277  1.00  0.00     0.163 HD
BRANCH   5   8
ATOM      8  C   UNL     1       0.132   0.566   2.570  1.00  0.00     0.178 C 
BRANCH   8   9
ATOM      9  S   UNL     1      -1.518   0.003   2.347  1.00  0.00    -0.078 SA
BRANCH   9  10
ATOM     10  C   UNL     1      -1.743  -0.552   0.714  1.00  0.00     0.169 A 
ATOM     11  N   UNL     1      -0.868  -1.148  -0.184  1.00  0.00    -0.313 N 
ATOM     12  C   UNL     1      -1.654  -2.121  -0.835  1.00  0.00     0.072 A 
ATOM     13  N   UNL     1      -2.997  -0.758   0.359  1.00  0.00    -0.221 NA
ATOM     14  C   UNL     1      -2.966  -1.820  -0.492  1.00  0.00     0.108 A 
ATOM     15  C   UNL     1      -1.355  -3.245  -1.614  1.00  0.00     0.049 A 
ATOM     16  C   UNL     1      -4.007  -2.633  -0.956  1.00  0.00     0.141 A 
ATOM     17  C   UNL     1      -2.448  -4.016  -1.994  1.00  0.00     0.113 A 
ATOM     18  N   UNL     1      -3.737  -3.737  -1.702  1.00  0.00    -0.262 NA
BRANCH  11  19
ATOM     19  C   UNL     1       0.595  -1.175  -0.313  1.00  0.00     0.116 C 
ATOM     20  C   UNL     1       1.190  -2.179   0.688  1.00  0.00     0.034 C 
BRANCH  19  21
ATOM     21  C   UNL     1       1.491   0.092  -0.653  1.00  0.00     0.141 C 
ATOM     22  C   UNL     1       1.434   1.457   0.028  1.00  0.00     0.036 C 
ATOM     23  O   UNL     1       1.349   0.437  -2.057  1.00  0.00    -0.376 OA
ATOM     24  C   UNL     1       2.200   2.346  -0.909  1.00  0.00     0.031 C 
ATOM     25  C   UNL     1       1.797   1.793  -2.252  1.00  0.00     0.160 C 
ENDBRANCH  19  21
ENDBRANCH  11  19
ENDBRANCH   9  10
ENDBRANCH   8   9
ENDBRANCH   5   8
ENDBRANCH   3   4
ENDBRANCH   2   3
ENDBRANCH   1   2
BRANCH   1  26
ATOM     26  C   UNL     1      -0.236  -1.948   7.698  1.00  0.00     0.002 C 
BRANCH  26  27
ATOM     27  C   UNL     1      -1.090  -0.997   8.539  1.00  0.00     0.021 C 
BRANCH  27  28
ATOM     28  C   UNL     1      -2.572  -1.371   8.601  1.00  0.00     0.116 C 
BRANCH  28  29
ATOM     29  N   UNL     1      -2.807  -2.687   9.133  1.00  0.00    -0.352 N 
ATOM     30  C   UNL     1      -2.747  -3.200  10.395  1.00  0.00     0.251 C 
ATOM     31  H   UNL     1      -3.061  -3.349   8.450  1.00  0.00     0.163 HD
ATOM     32  O   UNL     1      -3.027  -4.394  10.516  1.00  0.00    -0.269 OA
BRANCH  30  33
ATOM     33  C   UNL     1      -2.302  -2.426  11.583  1.00  0.00     0.039 A 
ATOM     34  C   UNL     1      -2.127  -1.042  11.638  1.00  0.00     0.014 A 
ATOM     35  C   UNL     1      -2.005  -3.187  12.725  1.00  0.00     0.014 A 
ATOM     36  C   UNL     1      -1.539  -0.448  12.741  1.00  0.00     0.010 A 
ATOM     37  C   UNL     1      -1.478  -2.590  13.860  1.00  0.00     0.010 A 
ATOM     38  C   UNL     1      -1.197  -1.228  13.843  1.00  0.00    -0.014 A 
BRANCH  38  39
ATOM     39  C   UNL     1      -0.692  -0.529  15.017  1.00  0.00     0.031 A 
ATOM     40  C   UNL     1      -1.642   0.484  15.555  1.00  0.00     0.074 A 
ATOM     41  C   UNL     1       0.469  -0.846  15.624  1.00  0.00     0.049 A 
ATOM     42  N   UNL     1      -1.492   1.766  15.620  1.00  0.00    -0.248 NA
ATOM     43  C   UNL     1      -2.994   0.027  15.925  1.00  0.00     0.031 C 
ATOM     44  C   UNL     1       1.318  -2.009  15.349  1.00  0.00     0.029 A 
ATOM     45  N   UNL     1       1.085  -0.263  16.692  1.00  0.00    -0.354 N 
ATOM     46  C   UNL     1      -2.625   2.243  16.278  1.00  0.00     0.074 A 
ATOM     47  C   UNL     1      -3.585   1.173  16.266  1.00  0.00     0.031 C 
ATOM     48  C   UNL     1       2.179  -2.184  16.375  1.00  0.00     0.029 A 
ATOM     49  C   UNL     1       2.056  -1.061  17.288  1.00  0.00     0.049 A 
ATOM     50  H   UNL     1       0.862   0.641  17.013  1.00  0.00     0.167 HD
ATOM     51  C   UNL     1      -2.568   3.370  17.038  1.00  0.00     0.037 A 
ATOM     52  C   UNL     1       2.680  -0.833  18.469  1.00  0.00     0.037 A 
ATOM     53  C   UNL     1      -1.384   4.135  16.753  1.00  0.00     0.049 A 
ATOM     54  C   UNL     1       2.587   0.619  18.751  1.00  0.00     0.074 A 
ATOM     55  C   UNL     1      -0.972   5.048  15.810  1.00  0.00     0.029 A 
ATOM     56  N   UNL     1      -0.266   3.672  17.390  1.00  0.00    -0.354 N 
ATOM     57  N   UNL     1       3.165   1.534  18.023  1.00  0.00    -0.248 NA
ATOM     58  C   UNL     1       1.580   1.107  19.690  1.00  0.00     0.031 C 
ATOM     59  C   UNL     1       0.455   5.020  15.816  1.00  0.00     0.029 A 
ATOM     60  C   UNL     1       0.879   4.115  16.784  1.00  0.00     0.049 A 
ATOM     61  H   UNL     1      -0.282   3.093  18.186  1.00  0.00     0.167 HD
ATOM     62  C   UNL     1       2.320   2.619  18.111  1.00  0.00     0.074 A 
ATOM     63  C   UNL     1       1.477   2.370  19.272  1.00  0.00     0.031 C 
ATOM     64  C   UNL     1       2.137   3.455  17.051  1.00  0.00     0.037 A 
BRANCH  51  65
ATOM     65  C   UNL     1      -3.300   3.538  18.354  1.00  0.00     0.058 A 
ATOM     66  C   UNL     1      -3.329   4.801  18.983  1.00  0.00     0.135 A 
ATOM     67  C   UNL     1      -3.713   2.452  19.159  1.00  0.00     0.135 A 
ATOM     68  F   UNL     1      -2.928   5.900  18.325  1.00  0.00    -0.206 F 
ATOM     69  C   UNL     1      -3.711   4.964  20.318  1.00  0.00     0.059 A 
ATOM     70  C   UNL     1      -4.146   2.599  20.472  1.00  0.00     0.059 A 
ATOM     71  F   UNL     1      -3.621   1.183  18.742  1.00  0.00    -0.206 F 
ATOM     72  C   UNL     1      -4.114   3.854  21.056  1.00  0.00     0.060 A 
BRANCH  72  73
ATOM     73  S   UNL     1      -4.555   4.050  22.792  1.00  0.00     0.124 S 
ATOM     74  O   UNL     1      -3.269   4.393  23.387  1.00  0.00    -0.237 OA
ATOM     75  O   UNL     1      -5.540   5.125  22.733  1.00  0.00    -0.237 OA
ATOM     76  O   UNL     1      -5.090   2.740  23.153  1.00  0.00    -0.744 OA
ENDBRANCH  72  73
ENDBRANCH  51  65
BRANCH  52  77
ATOM     77  C   UNL     1       3.078  -1.804  19.523  1.00  0.00     0.058 A 
ATOM     78  C   UNL     1       3.882  -1.386  20.600  1.00  0.00     0.135 A 
ATOM     79  C   UNL     1       2.411  -3.033  19.681  1.00  0.00     0.135 A 
ATOM     80  F   UNL     1       4.562  -0.231  20.528  1.00  0.00    -0.206 F 
ATOM     81  C   UNL     1       3.932  -2.086  21.807  1.00  0.00     0.059 A 
ATOM     82  C   UNL     1       2.455  -3.757  20.873  1.00  0.00     0.059 A 
ATOM     83  F   UNL     1       1.610  -3.515  18.720  1.00  0.00    -0.206 F 
ATOM     84  C   UNL     1       3.181  -3.252  21.946  1.00  0.00     0.060 A 
BRANCH  84  85
ATOM     85  S   UNL     1       3.045  -4.015  23.580  1.00  0.00     0.124 S 
ATOM     86  O   UNL     1       4.402  -4.503  23.799  1.00  0.00    -0.237 OA
ATOM     87  O   UNL     1       2.631  -2.887  24.407  1.00  0.00    -0.237 OA
ATOM     88  O   UNL     1       2.032  -5.050  23.386  1.00  0.00    -0.744 OA
ENDBRANCH  84  85
ENDBRANCH  52  77
BRANCH  64  89
ATOM     89  C   UNL     1       3.246   3.573  16.053  1.00  0.00     0.058 A 
ATOM     90  C   UNL     1       3.644   2.562  15.163  1.00  0.00     0.135 A 
ATOM     91  C   UNL     1       3.898   4.811  15.960  1.00  0.00     0.135 A 
ATOM     92  F   UNL     1       3.022   1.375  15.145  1.00  0.00    -0.206 F 
ATOM     93  C   UNL     1       4.670   2.770  14.238  1.00  0.00     0.059 A 
ATOM     94  C   UNL     1       4.901   5.049  15.028  1.00  0.00     0.059 A 
ATOM     95  F   UNL     1       3.533   5.825  16.762  1.00  0.00    -0.206 F 
ATOM     96  C   UNL     1       5.290   4.019  14.175  1.00  0.00     0.060 A 
BRANCH  96  97
ATOM     97  S   UNL     1       6.566   4.316  12.934  1.00  0.00     0.124 S 
ATOM     98  O   UNL     1       7.653   3.454  13.398  1.00  0.00    -0.237 OA
ATOM     99  O   UNL     1       5.906   3.887  11.700  1.00  0.00    -0.237 OA
ATOM    100  O   UNL     1       6.818   5.744  13.031  1.00  0.00    -0.744 OA
ENDBRANCH  96  97
ENDBRANCH  64  89
ENDBRANCH  38  39
ENDBRANCH  30  33
ENDBRANCH  28  29
ENDBRANCH  27  28
ENDBRANCH  26  27
ENDBRANCH   1  26
TORSDOF 20
