REMARK SMILES CCSc1nc(CC(=O)N[C@@H](C(=O)NCCCCCCNC(=O)c2ccc(-c3c4nc(c(-c5c(F)cc(S(=O)(=O)[O-])cc5F)c5ccc([nH]5)c(-c5c(F)cc(S(=O)(=O)[O-])cc5F)c5nc(c(-c6c(F)cc(S(=O)(=O)[O-])cc6F)c6ccc3[nH]6)C=C5)C=C4)cc2)C2=C(C)N=N[C@@H]2C)cs1
REMARK SMILES IDX 16 1 15 2 14 3 12 4 13 5 11 7 10 8 8 9 9 10 7 12 6 13 4 14
REMARK SMILES IDX 5 15 98 16 97 17 3 18 2 19 1 20 90 21 91 22 95 23 92 24
REMARK SMILES IDX 93 25 94 26 96 27 17 28 18 29 19 30 20 31 21 32 22 33 23 35
REMARK SMILES IDX 24 36 25 37 89 38 26 39 88 40 27 41 28 42 29 43 82 44 30 45
REMARK SMILES IDX 87 46 81 47 83 48 31 49 86 50 80 51 79 52 32 54 66 55 45 56
REMARK SMILES IDX 65 57 46 58 49 59 64 60 84 61 47 62 48 63 63 65 85 66 50 67
REMARK SMILES IDX 33 68 34 69 43 70 35 71 36 72 42 73 44 74 37 75 38 76 39 77
REMARK SMILES IDX 40 78 41 79 67 80 68 81 77 82 69 83 70 84 76 85 78 86 71 87
REMARK SMILES IDX 72 88 73 89 74 90 75 91 51 92 52 93 61 94 53 95 54 96 60 97
REMARK SMILES IDX 62 98 55 99 56 100 57 101 58 102 59 103
REMARK H PARENT 14 6 10 11 21 34 83 53 49 64
REMARK Flexibility Score: inf
ROOT
ATOM      1  C   UNL     1       6.091   4.652  -1.986  1.00  0.00     0.021 C 
ENDROOT
BRANCH   1   2
ATOM      2  C   UNL     1       5.102   3.568  -1.588  1.00  0.00     0.116 C 
BRANCH   2   3
ATOM      3  N   UNL     1       4.425   2.943  -2.699  1.00  0.00    -0.354 N 
ATOM      4  C   UNL     1       3.969   1.658  -2.801  1.00  0.00     0.247 C 
ATOM      5  O   UNL     1       2.944   1.522  -3.482  1.00  0.00    -0.272 OA
ATOM      6  H   UNL     1       4.272   3.515  -3.484  1.00  0.00     0.163 HD
BRANCH   4   7
ATOM      7  C   UNL     1       4.644   0.423  -2.071  1.00  0.00     0.202 C 
BRANCH   7   8
ATOM      8  N   UNL     1       6.045   0.620  -1.704  1.00  0.00    -0.340 N 
ATOM      9  C   UNL     1       6.631   0.777  -0.479  1.00  0.00     0.226 C 
ATOM     10  O   UNL     1       7.821   1.109  -0.469  1.00  0.00    -0.275 OA
ATOM     11  H   UNL     1       6.670   0.643  -2.465  1.00  0.00     0.164 HD
BRANCH   9  12
ATOM     12  C   UNL     1       5.886   0.547   0.828  1.00  0.00     0.157 C 
BRANCH  12  13
ATOM     13  C   UNL     1       4.922   1.623   1.202  1.00  0.00     0.062 A 
ATOM     14  C   UNL     1       2.877   2.489   1.234  1.00  0.00     0.150 A 
ATOM     15  N   UNL     1       3.599   1.481   0.806  1.00  0.00    -0.234 NA
ATOM     16  S   UNL     1       3.717   3.653   2.164  1.00  0.00    -0.116 S 
ATOM     17  C   UNL     1       5.170   2.761   1.948  1.00  0.00     0.092 A 
BRANCH  14  18
ATOM     18  S   UNL     1       1.194   2.653   0.796  1.00  0.00    -0.096 SA
BRANCH  18  19
ATOM     19  C   UNL     1       0.590   0.959   1.054  1.00  0.00     0.074 C 
ATOM     20  C   UNL     1       0.892   0.029  -0.110  1.00  0.00     0.016 C 
ENDBRANCH  18  19
ENDBRANCH  14  18
ENDBRANCH  12  13
ENDBRANCH   9  12
ENDBRANCH   7   8
BRANCH   7  21
ATOM     21  C   UNL     1       4.590  -0.833  -2.912  1.00  0.00     0.011 C 
ATOM     22  C   UNL     1       4.800  -2.113  -2.569  1.00  0.00     0.064 C 
ATOM     23  C   UNL     1       4.165  -0.903  -4.348  1.00  0.00     0.156 C 
ATOM     24  C   UNL     1       5.204  -2.694  -1.262  1.00  0.00     0.069 C 
ATOM     25  N   UNL     1       4.583  -2.987  -3.605  1.00  0.00    -0.160 NA
ATOM     26  N   UNL     1       4.216  -2.365  -4.635  1.00  0.00    -0.181 NA
ATOM     27  C   UNL     1       5.088  -0.205  -5.337  1.00  0.00     0.040 C 
ENDBRANCH   7  21
ENDBRANCH   4   7
ENDBRANCH   2   3
ENDBRANCH   1   2
BRANCH   1  28
ATOM     28  C   UNL     1       5.451   6.001  -2.317  1.00  0.00     0.002 C 
BRANCH  28  29
ATOM     29  C   UNL     1       4.560   6.596  -1.219  1.00  0.00     0.002 C 
BRANCH  29  30
ATOM     30  C   UNL     1       5.203   6.713   0.166  1.00  0.00     0.021 C 
BRANCH  30  31
ATOM     31  C   UNL     1       6.481   7.542   0.222  1.00  0.00     0.116 C 
BRANCH  31  32
ATOM     32  N   UNL     1       6.273   8.904  -0.237  1.00  0.00    -0.352 N 
ATOM     33  C   UNL     1       6.558  10.093   0.386  1.00  0.00     0.251 C 
ATOM     34  H   UNL     1       5.868   8.987  -1.131  1.00  0.00     0.163 HD
ATOM     35  O   UNL     1       6.132  11.143  -0.085  1.00  0.00    -0.269 OA
BRANCH  33  36
ATOM     36  C   UNL     1       7.358  10.108   1.631  1.00  0.00     0.039 A 
ATOM     37  C   UNL     1       6.963  10.949   2.675  1.00  0.00     0.014 A 
ATOM     38  C   UNL     1       8.501   9.315   1.765  1.00  0.00     0.014 A 
ATOM     39  C   UNL     1       7.684  10.954   3.871  1.00  0.00     0.010 A 
ATOM     40  C   UNL     1       9.172   9.264   2.984  1.00  0.00     0.010 A 
ATOM     41  C   UNL     1       8.776  10.088   4.048  1.00  0.00    -0.014 A 
BRANCH  41  42
ATOM     42  C   UNL     1       9.514  10.036   5.337  1.00  0.00     0.031 A 
ATOM     43  C   UNL     1      10.968  10.423   5.393  1.00  0.00     0.074 A 
ATOM     44  C   UNL     1       8.890   9.584   6.443  1.00  0.00     0.049 A 
ATOM     45  N   UNL     1      11.794  10.384   6.407  1.00  0.00    -0.248 NA
ATOM     46  C   UNL     1      11.582  10.891   4.139  1.00  0.00     0.031 C 
ATOM     47  C   UNL     1       7.497   9.134   6.504  1.00  0.00     0.029 A 
ATOM     48  N   UNL     1       9.347   9.418   7.727  1.00  0.00    -0.354 N 
ATOM     49  C   UNL     1      13.023  10.806   5.913  1.00  0.00     0.074 A 
ATOM     50  C   UNL     1      12.848  11.046   4.497  1.00  0.00     0.031 C 
ATOM     51  C   UNL     1       7.208   8.764   7.762  1.00  0.00     0.029 A 
ATOM     52  C   UNL     1       8.403   8.909   8.588  1.00  0.00     0.049 A 
ATOM     53  H   UNL     1      10.264   9.643   8.005  1.00  0.00     0.167 HD
ATOM     54  C   UNL     1      14.184  10.998   6.582  1.00  0.00     0.037 A 
ATOM     55  C   UNL     1       8.491   8.586   9.893  1.00  0.00     0.037 A 
ATOM     56  C   UNL     1      14.342  10.781   7.997  1.00  0.00     0.049 A 
ATOM     57  C   UNL     1       9.793   8.807  10.615  1.00  0.00     0.074 A 
ATOM     58  C   UNL     1      15.460  11.007   8.782  1.00  0.00     0.029 A 
ATOM     59  N   UNL     1      13.357  10.286   8.840  1.00  0.00    -0.354 N 
ATOM     60  N   UNL     1      10.927   9.274  10.146  1.00  0.00    -0.248 NA
ATOM     61  C   UNL     1       9.829   8.467  12.044  1.00  0.00     0.031 C 
ATOM     62  C   UNL     1      15.168  10.600  10.087  1.00  0.00     0.029 A 
ATOM     63  C   UNL     1      13.849  10.176  10.130  1.00  0.00     0.049 A 
ATOM     64  H   UNL     1      12.443  10.049   8.562  1.00  0.00     0.167 HD
ATOM     65  C   UNL     1      11.800   9.310  11.228  1.00  0.00     0.074 A 
ATOM     66  C   UNL     1      11.060   8.831  12.377  1.00  0.00     0.031 C 
ATOM     67  C   UNL     1      13.097   9.704  11.267  1.00  0.00     0.037 A 
BRANCH  54  68
ATOM     68  C   UNL     1      15.379  11.469   5.797  1.00  0.00     0.058 A 
ATOM     69  C   UNL     1      15.450  12.767   5.266  1.00  0.00     0.135 A 
ATOM     70  C   UNL     1      16.490  10.628   5.616  1.00  0.00     0.135 A 
ATOM     71  F   UNL     1      14.412  13.608   5.396  1.00  0.00    -0.206 F 
ATOM     72  C   UNL     1      16.567  13.206   4.563  1.00  0.00     0.059 A 
ATOM     73  C   UNL     1      17.630  11.056   4.943  1.00  0.00     0.059 A 
ATOM     74  F   UNL     1      16.477   9.377   6.102  1.00  0.00    -0.206 F 
ATOM     75  C   UNL     1      17.654  12.344   4.409  1.00  0.00     0.060 A 
BRANCH  75  76
ATOM     76  S   UNL     1      19.102  12.937   3.509  1.00  0.00     0.124 S 
ATOM     77  O   UNL     1      18.601  12.966   2.138  1.00  0.00    -0.237 OA
ATOM     78  O   UNL     1      19.339  14.239   4.124  1.00  0.00    -0.237 OA
ATOM     79  O   UNL     1      20.114  11.923   3.785  1.00  0.00    -0.744 OA
ENDBRANCH  75  76
ENDBRANCH  54  68
BRANCH  55  80
ATOM     80  C   UNL     1       7.308   8.029  10.605  1.00  0.00     0.058 A 
ATOM     81  C   UNL     1       6.641   8.770  11.591  1.00  0.00     0.135 A 
ATOM     82  C   UNL     1       6.818   6.748  10.308  1.00  0.00     0.135 A 
ATOM     83  F   UNL     1       7.074   9.998  11.915  1.00  0.00    -0.206 F 
ATOM     84  C   UNL     1       5.545   8.255  12.275  1.00  0.00     0.059 A 
ATOM     85  C   UNL     1       5.706   6.221  10.957  1.00  0.00     0.059 A 
ATOM     86  F   UNL     1       7.408   6.004   9.360  1.00  0.00    -0.206 F 
ATOM     87  C   UNL     1       5.083   6.978  11.949  1.00  0.00     0.060 A 
BRANCH  87  88
ATOM     88  S   UNL     1       3.635   6.333  12.814  1.00  0.00     0.124 S 
ATOM     89  O   UNL     1       4.184   6.049  14.134  1.00  0.00    -0.237 OA
ATOM     90  O   UNL     1       2.706   7.455  12.734  1.00  0.00    -0.237 OA
ATOM     91  O   UNL     1       3.264   5.165  12.020  1.00  0.00    -0.744 OA
ENDBRANCH  87  88
ENDBRANCH  55  80
BRANCH  67  92
ATOM     92  C   UNL     1      13.793   9.673  12.600  1.00  0.00     0.058 A 
ATOM     93  C   UNL     1      14.159   8.466  13.216  1.00  0.00     0.135 A 
ATOM     94  C   UNL     1      14.147  10.871  13.243  1.00  0.00     0.135 A 
ATOM     95  F   UNL     1      13.840   7.293  12.647  1.00  0.00    -0.206 F 
ATOM     96  C   UNL     1      14.829   8.447  14.435  1.00  0.00     0.059 A 
ATOM     97  C   UNL     1      14.844  10.876  14.447  1.00  0.00     0.059 A 
ATOM     98  F   UNL     1      13.830  12.053  12.692  1.00  0.00    -0.206 F 
ATOM     99  C   UNL     1      15.171   9.658  15.041  1.00  0.00     0.060 A 
BRANCH  99 100
ATOM    100  S   UNL     1      16.071   9.619  16.605  1.00  0.00     0.124 S 
ATOM    101  O   UNL     1      15.030   9.189  17.533  1.00  0.00    -0.237 OA
ATOM    102  O   UNL     1      17.123   8.643  16.335  1.00  0.00    -0.237 OA
ATOM    103  O   UNL     1      16.529  10.995  16.769  1.00  0.00    -0.744 OA
ENDBRANCH  99 100
ENDBRANCH  67  92
ENDBRANCH  41  42
ENDBRANCH  33  36
ENDBRANCH  31  32
ENDBRANCH  30  31
ENDBRANCH  29  30
ENDBRANCH  28  29
ENDBRANCH   1  28
TORSDOF 22
