REMARK SMILES C[C@H](Cc1cccs1)NC(=O)N[C@](C)(C(=O)NCCCCCCNC(=O)c1ccc(-c2c3nc(c(-c4c(F)cc(S(=O)(=O)[O-])cc4F)c4ccc([nH]4)c(-c4c(F)cc(S(=O)(=O)[O-])cc4F)c4nc(c(-c5c(F)cc(S(=O)(=O)[O-])cc5F)c5ccc2[nH]5)C=C4)C=C3)cc1)C(F)(F)F
REMARK SMILES IDX 20 1 19 2 18 3 17 4 15 5 16 6 13 8 14 9 12 10 9 11 10 12
REMARK SMILES IDX 11 14 2 16 1 17 3 18 4 19 5 20 8 21 6 22 7 23 93 24 94 25
REMARK SMILES IDX 95 26 96 27 21 28 22 29 23 30 24 31 25 32 26 34 27 35 28 36
REMARK SMILES IDX 92 37 29 38 91 39 30 40 31 41 32 42 85 43 33 44 90 45 84 46
REMARK SMILES IDX 86 47 34 48 89 49 83 50 82 51 35 53 69 54 48 55 68 56 49 57
REMARK SMILES IDX 52 58 67 59 87 60 50 61 51 62 66 64 88 65 53 66 36 67 37 68
REMARK SMILES IDX 46 69 38 70 39 71 45 72 47 73 40 74 41 75 42 76 43 77 44 78
REMARK SMILES IDX 70 79 71 80 80 81 72 82 73 83 79 84 81 85 74 86 75 87 76 88
REMARK SMILES IDX 77 89 78 90 54 91 55 92 64 93 56 94 57 95 63 96 65 97 58 98
REMARK SMILES IDX 59 99 60 100 61 101 62 102
REMARK H PARENT 17 7 9 13 12 15 24 33 86 52 52 63
REMARK Flexibility Score: inf
ROOT
ATOM      1  C   UNL     1      -0.978  -1.281   7.488  1.00  0.00     0.002 C 
ENDROOT
BRANCH   1   2
ATOM      2  C   UNL     1      -1.301  -0.081   6.586  1.00  0.00     0.021 C 
BRANCH   2   3
ATOM      3  C   UNL     1      -0.053   0.655   6.082  1.00  0.00     0.116 C 
BRANCH   3   4
ATOM      4  N   UNL     1       0.596  -0.140   5.054  1.00  0.00    -0.354 N 
ATOM      5  C   UNL     1       0.468  -0.134   3.691  1.00  0.00     0.255 C 
ATOM      6  O   UNL     1       0.818  -1.174   3.126  1.00  0.00    -0.272 OA
ATOM      7  H   UNL     1       1.240  -0.800   5.398  1.00  0.00     0.163 HD
BRANCH   5   8
ATOM      8  C   UNL     1      -0.098   1.075   2.916  1.00  0.00     0.213 C 
ATOM      9  C   UNL     1      -1.586   1.327   3.280  1.00  0.00     0.056 C 
BRANCH   8  10
ATOM     10  N   UNL     1       0.639   2.314   3.368  1.00  0.00    -0.316 N 
ATOM     11  N   UNL     1       2.947   2.319   2.808  1.00  0.00    -0.335 N 
ATOM     12  C   UNL     1       1.861   2.836   3.370  1.00  0.00     0.316 C 
ATOM     13  H   UNL     1       3.775   2.756   3.112  1.00  0.00     0.165 HD
ATOM     14  O   UNL     1       2.000   3.895   3.987  1.00  0.00    -0.249 OA
ATOM     15  H   UNL     1       0.011   2.936   3.802  1.00  0.00     0.166 HD
BRANCH  11  16
ATOM     16  C   UNL     1       3.195   1.254   1.847  1.00  0.00     0.086 C 
ATOM     17  C   UNL     1       4.355   0.373   2.305  1.00  0.00     0.031 C 
BRANCH  16  18
ATOM     18  C   UNL     1       3.221   1.835   0.408  1.00  0.00     0.071 C 
BRANCH  18  19
ATOM     19  C   UNL     1       4.460   1.589  -0.404  1.00  0.00     0.007 A 
ATOM     20  C   UNL     1       5.766   1.949  -0.134  1.00  0.00     0.015 A 
ATOM     21  S   UNL     1       4.334   0.794  -1.921  1.00  0.00    -0.149 S 
ATOM     22  C   UNL     1       6.671   1.495  -1.137  1.00  0.00     0.012 A 
ATOM     23  C   UNL     1       6.021   0.862  -2.172  1.00  0.00     0.065 A 
ENDBRANCH  18  19
ENDBRANCH  16  18
ENDBRANCH  11  16
ENDBRANCH   8  10
BRANCH   8  24
ATOM     24  C   UNL     1      -0.150   0.780   1.384  1.00  0.00     0.420 C 
ATOM     25  F   UNL     1      -1.304   0.149   1.036  1.00  0.00    -0.168 F 
ATOM     26  F   UNL     1      -0.144   1.949   0.687  1.00  0.00    -0.168 F 
ATOM     27  F   UNL     1       0.833   0.024   0.866  1.00  0.00    -0.168 F 
ENDBRANCH   8  24
ENDBRANCH   5   8
ENDBRANCH   3   4
ENDBRANCH   2   3
ENDBRANCH   1   2
BRANCH   1  28
ATOM     28  C   UNL     1      -0.257  -0.926   8.793  1.00  0.00     0.002 C 
BRANCH  28  29
ATOM     29  C   UNL     1      -0.968   0.117   9.659  1.00  0.00     0.021 C 
BRANCH  29  30
ATOM     30  C   UNL     1      -2.378  -0.275  10.092  1.00  0.00     0.116 C 
BRANCH  30  31
ATOM     31  N   UNL     1      -2.376  -1.464  10.930  1.00  0.00    -0.352 N 
ATOM     32  C   UNL     1      -2.892  -1.643  12.186  1.00  0.00     0.251 C 
ATOM     33  H   UNL     1      -1.941  -2.255  10.537  1.00  0.00     0.163 HD
ATOM     34  O   UNL     1      -2.598  -2.656  12.826  1.00  0.00    -0.269 OA
BRANCH  32  35
ATOM     35  C   UNL     1      -3.780  -0.623  12.781  1.00  0.00     0.039 A 
ATOM     36  C   UNL     1      -3.598  -0.268  14.119  1.00  0.00     0.014 A 
ATOM     37  C   UNL     1      -4.798  -0.027  12.030  1.00  0.00     0.014 A 
ATOM     38  C   UNL     1      -4.398   0.726  14.686  1.00  0.00     0.010 A 
ATOM     39  C   UNL     1      -5.546   1.016  12.575  1.00  0.00     0.010 A 
ATOM     40  C   UNL     1      -5.354   1.403  13.909  1.00  0.00    -0.014 A 
BRANCH  40  41
ATOM     41  C   UNL     1      -6.131   2.534  14.480  1.00  0.00     0.031 A 
ATOM     42  C   UNL     1      -7.626   2.446  14.625  1.00  0.00     0.074 A 
ATOM     43  C   UNL     1      -5.484   3.663  14.832  1.00  0.00     0.049 A 
ATOM     44  N   UNL     1      -8.461   3.334  15.101  1.00  0.00    -0.248 NA
ATOM     45  C   UNL     1      -8.271   1.211  14.153  1.00  0.00     0.031 C 
ATOM     46  C   UNL     1      -4.044   3.892  14.682  1.00  0.00     0.029 A 
ATOM     47  N   UNL     1      -5.947   4.829  15.386  1.00  0.00    -0.354 N 
ATOM     48  C   UNL     1      -9.726   2.770  14.985  1.00  0.00     0.074 A 
ATOM     49  C   UNL     1      -9.555   1.486  14.340  1.00  0.00     0.031 C 
ATOM     50  C   UNL     1      -3.738   5.106  15.165  1.00  0.00     0.029 A 
ATOM     51  C   UNL     1      -4.961   5.758  15.622  1.00  0.00     0.049 A 
ATOM     52  H   UNL     1      -6.896   4.986  15.596  1.00  0.00     0.167 HD
ATOM     53  C   UNL     1     -10.918   3.265  15.400  1.00  0.00     0.037 A 
ATOM     54  C   UNL     1      -5.031   6.998  16.145  1.00  0.00     0.037 A 
ATOM     55  C   UNL     1     -11.078   4.540  16.053  1.00  0.00     0.049 A 
ATOM     56  C   UNL     1      -6.365   7.524  16.598  1.00  0.00     0.074 A 
ATOM     57  C   UNL     1     -12.233   5.106  16.564  1.00  0.00     0.029 A 
ATOM     58  N   UNL     1     -10.056   5.452  16.279  1.00  0.00    -0.354 N 
ATOM     59  N   UNL     1      -7.541   6.944  16.550  1.00  0.00    -0.248 NA
ATOM     60  C   UNL     1      -6.381   8.871  17.184  1.00  0.00     0.031 C 
ATOM     61  C   UNL     1     -11.920   6.380  17.050  1.00  0.00     0.029 A 
ATOM     62  C   UNL     1     -10.559   6.587  16.895  1.00  0.00     0.049 A 
ATOM     63  H   UNL     1      -9.112   5.312  16.037  1.00  0.00     0.167 HD
ATOM     64  C   UNL     1      -8.434   7.847  17.117  1.00  0.00     0.074 A 
ATOM     65  C   UNL     1      -7.656   9.000  17.524  1.00  0.00     0.031 C 
ATOM     66  C   UNL     1      -9.775   7.734  17.284  1.00  0.00     0.037 A 
BRANCH  53  67
ATOM     67  C   UNL     1     -12.145   2.425  15.163  1.00  0.00     0.058 A 
ATOM     68  C   UNL     1     -12.366   1.226  15.861  1.00  0.00     0.135 A 
ATOM     69  C   UNL     1     -13.135   2.844  14.259  1.00  0.00     0.135 A 
ATOM     70  F   UNL     1     -11.448   0.769  16.728  1.00  0.00    -0.206 F 
ATOM     71  C   UNL     1     -13.507   0.459  15.650  1.00  0.00     0.059 A 
ATOM     72  C   UNL     1     -14.299   2.107  14.054  1.00  0.00     0.059 A 
ATOM     73  F   UNL     1     -12.978   3.981  13.564  1.00  0.00    -0.206 F 
ATOM     74  C   UNL     1     -14.469   0.908  14.744  1.00  0.00     0.060 A 
BRANCH  74  75
ATOM     75  S   UNL     1     -15.947  -0.097  14.488  1.00  0.00     0.124 S 
ATOM     76  O   UNL     1     -15.403  -1.230  13.746  1.00  0.00    -0.237 OA
ATOM     77  O   UNL     1     -16.371  -0.380  15.855  1.00  0.00    -0.237 OA
ATOM     78  O   UNL     1     -16.830   0.783  13.730  1.00  0.00    -0.744 OA
ENDBRANCH  74  75
ENDBRANCH  53  67
BRANCH  54  79
ATOM     79  C   UNL     1      -3.796   7.815  16.289  1.00  0.00     0.058 A 
ATOM     80  C   UNL     1      -3.261   8.102  17.554  1.00  0.00     0.135 A 
ATOM     81  C   UNL     1      -3.119   8.314  15.165  1.00  0.00     0.135 A 
ATOM     82  F   UNL     1      -3.875   7.653  18.659  1.00  0.00    -0.206 F 
ATOM     83  C   UNL     1      -2.111   8.870  17.702  1.00  0.00     0.059 A 
ATOM     84  C   UNL     1      -1.951   9.059  15.286  1.00  0.00     0.059 A 
ATOM     85  F   UNL     1      -3.579   8.052  13.932  1.00  0.00    -0.206 F 
ATOM     86  C   UNL     1      -1.461   9.341  16.560  1.00  0.00     0.060 A 
BRANCH  86  87
ATOM     87  S   UNL     1       0.060  10.295  16.761  1.00  0.00     0.124 S 
ATOM     88  O   UNL     1      -0.453  11.560  17.273  1.00  0.00    -0.237 OA
ATOM     89  O   UNL     1       0.810   9.478  17.709  1.00  0.00    -0.237 OA
ATOM     90  O   UNL     1       0.610  10.337  15.409  1.00  0.00    -0.744 OA
ENDBRANCH  86  87
ENDBRANCH  54  79
BRANCH  66  91
ATOM     91  C   UNL     1     -10.482   8.884  17.951  1.00  0.00     0.058 A 
ATOM     92  C   UNL     1     -10.638  10.125  17.312  1.00  0.00     0.135 A 
ATOM     93  C   UNL     1     -11.020   8.741  19.240  1.00  0.00     0.135 A 
ATOM     94  F   UNL     1     -10.139  10.319  16.080  1.00  0.00    -0.206 F 
ATOM     95  C   UNL     1     -11.264  11.195  17.944  1.00  0.00     0.059 A 
ATOM     96  C   UNL     1     -11.679   9.787  19.878  1.00  0.00     0.059 A 
ATOM     97  F   UNL     1     -10.912   7.572  19.893  1.00  0.00    -0.206 F 
ATOM     98  C   UNL     1     -11.777  11.017  19.229  1.00  0.00     0.060 A 
BRANCH  98  99
ATOM     99  S   UNL     1     -12.585  12.414  20.039  1.00  0.00     0.124 S 
ATOM    100  O   UNL     1     -11.443  13.255  20.381  1.00  0.00    -0.237 OA
ATOM    101  O   UNL     1     -13.456  12.925  18.985  1.00  0.00    -0.237 OA
ATOM    102  O   UNL     1     -13.274  11.799  21.170  1.00  0.00    -0.744 OA
ENDBRANCH  98  99
ENDBRANCH  66  91
ENDBRANCH  40  41
ENDBRANCH  32  35
ENDBRANCH  30  31
ENDBRANCH  29  30
ENDBRANCH  28  29
ENDBRANCH   1  28
TORSDOF 21
