REMARK SMILES COc1ccc(OC)c(Nc2c(-c3ccc(C(=O)NCCCCCCNC(=O)c4ccc(-c5c6nc(c(-c7c(F)cc(S(=O)(=O)[O-])cc7F)c7ccc([nH]7)c(-c7c(F)cc(S(=O)(=O)[O-])cc7F)c7nc(c(-c8c(F)cc(S(=O)(=O)[O-])cc8F)c8ccc5[nH]8)C=C7)C=C6)cc4)cc3)nc3cnccn23)c1
REMARK SMILES IDX 22 1 21 2 20 3 19 4 17 5 18 6 16 8 13 9 14 10 96 11 15 12
REMARK SMILES IDX 95 13 12 14 11 15 103 16 97 17 98 18 102 19 99 20 101 21
REMARK SMILES IDX 100 22 10 23 9 25 3 26 4 27 104 28 5 29 6 30 2 31 1 32 7 33
REMARK SMILES IDX 8 34 23 35 24 36 25 37 26 38 27 39 28 41 29 42 30 43 94 44
REMARK SMILES IDX 31 45 93 46 32 47 33 48 34 49 87 50 35 51 92 52 86 53 88 54
REMARK SMILES IDX 36 55 91 56 85 57 84 58 37 60 71 61 50 62 70 63 51 64 54 65
REMARK SMILES IDX 69 66 89 67 52 68 53 69 68 71 90 72 55 73 38 74 39 75 48 76
REMARK SMILES IDX 40 77 41 78 47 79 49 80 42 81 43 82 44 83 45 84 46 85 72 86
REMARK SMILES IDX 73 87 82 88 74 89 75 90 81 91 83 92 76 93 77 94 78 95 79 96
REMARK SMILES IDX 80 97 56 98 57 99 66 100 58 101 59 102 65 103 67 104 60 105
REMARK SMILES IDX 61 106 62 107 63 108 64 109
REMARK H PARENT 19 7 10 24 26 40 88 59 54 70
REMARK Flexibility Score: inf
ROOT
ATOM      1  C   UNL     1      11.896   5.280  -1.775  1.00  0.00     0.002 C 
ENDROOT
BRANCH   1   2
ATOM      2  C   UNL     1      10.949   5.194  -0.572  1.00  0.00     0.021 C 
BRANCH   2   3
ATOM      3  C   UNL     1       9.959   6.360  -0.498  1.00  0.00     0.116 C 
BRANCH   3   4
ATOM      4  N   UNL     1       8.854   6.132  -1.411  1.00  0.00    -0.352 N 
ATOM      5  C   UNL     1       7.574   5.691  -1.200  1.00  0.00     0.251 C 
ATOM      6  O   UNL     1       6.826   5.592  -2.174  1.00  0.00    -0.269 OA
ATOM      7  H   UNL     1       9.062   6.330  -2.352  1.00  0.00     0.163 HD
BRANCH   5   8
ATOM      8  C   UNL     1       7.040   5.388   0.155  1.00  0.00     0.039 A 
ATOM      9  C   UNL     1       5.891   4.956   2.681  1.00  0.00     0.004 A 
ATOM     10  C   UNL     1       5.103   5.421   1.626  1.00  0.00     0.011 A 
ATOM     11  C   UNL     1       7.240   4.668   2.463  1.00  0.00     0.011 A 
ATOM     12  C   UNL     1       5.677   5.641   0.372  1.00  0.00     0.014 A 
ATOM     13  C   UNL     1       7.800   4.847   1.196  1.00  0.00     0.014 A 
BRANCH   9  14
ATOM     14  C   UNL     1       5.326   4.717   3.988  1.00  0.00     0.114 A 
ATOM     15  C   UNL     1       4.303   3.817   4.250  1.00  0.00     0.143 A 
ATOM     16  N   UNL     1       4.251   3.769   5.629  1.00  0.00    -0.283 N 
ATOM     17  N   UNL     1       5.794   5.318   5.135  1.00  0.00    -0.225 NA
ATOM     18  C   UNL     1       5.098   4.748   6.091  1.00  0.00     0.157 A 
ATOM     19  C   UNL     1       3.555   2.983   6.533  1.00  0.00     0.115 A 
ATOM     20  C   UNL     1       5.142   5.007   7.503  1.00  0.00     0.158 A 
ATOM     21  C   UNL     1       3.678   3.260   7.844  1.00  0.00     0.129 A 
ATOM     22  N   UNL     1       4.447   4.295   8.353  1.00  0.00    -0.259 NA
BRANCH  15  23
ATOM     23  N   UNL     1       3.634   2.965   3.438  1.00  0.00    -0.336 N 
ATOM     24  H   UNL     1       4.122   2.145   3.197  1.00  0.00     0.168 HD
BRANCH  23  25
ATOM     25  C   UNL     1       2.328   3.079   2.879  1.00  0.00     0.086 A 
ATOM     26  C   UNL     1       0.722   1.925   1.395  1.00  0.00     0.121 A 
ATOM     27  C   UNL     1      -0.207   2.932   1.623  1.00  0.00     0.050 A 
ATOM     28  C   UNL     1       1.950   1.983   2.056  1.00  0.00     0.076 A 
ATOM     29  C   UNL     1       0.119   4.015   2.443  1.00  0.00     0.052 A 
ATOM     30  C   UNL     1       1.387   4.115   3.046  1.00  0.00     0.142 A 
BRANCH  26  31
ATOM     31  O   UNL     1       0.334   0.972   0.494  1.00  0.00    -0.497 OA
ATOM     32  C   UNL     1       1.244  -0.091   0.232  1.00  0.00     0.278 C 
ENDBRANCH  26  31
BRANCH  30  33
ATOM     33  O   UNL     1       1.694   5.387   3.460  1.00  0.00    -0.495 OA
ATOM     34  C   UNL     1       1.799   5.584   4.860  1.00  0.00     0.278 C 
ENDBRANCH  30  33
ENDBRANCH  23  25
ENDBRANCH  15  23
ENDBRANCH   9  14
ENDBRANCH   5   8
ENDBRANCH   3   4
ENDBRANCH   2   3
ENDBRANCH   1   2
BRANCH   1  35
ATOM     35  C   UNL     1      12.858   6.474  -1.746  1.00  0.00     0.002 C 
BRANCH  35  36
ATOM     36  C   UNL     1      13.730   6.571  -0.491  1.00  0.00     0.021 C 
BRANCH  36  37
ATOM     37  C   UNL     1      14.648   5.373  -0.267  1.00  0.00     0.116 C 
BRANCH  37  38
ATOM     38  N   UNL     1      15.636   5.251  -1.329  1.00  0.00    -0.352 N 
ATOM     39  C   UNL     1      17.001   5.223  -1.238  1.00  0.00     0.251 C 
ATOM     40  H   UNL     1      15.271   5.178  -2.240  1.00  0.00     0.163 HD
ATOM     41  O   UNL     1      17.686   5.365  -2.254  1.00  0.00    -0.269 OA
BRANCH  39  42
ATOM     42  C   UNL     1      17.653   5.032   0.073  1.00  0.00     0.039 A 
ATOM     43  C   UNL     1      18.756   5.822   0.407  1.00  0.00     0.014 A 
ATOM     44  C   UNL     1      17.189   4.058   0.964  1.00  0.00     0.014 A 
ATOM     45  C   UNL     1      19.366   5.666   1.654  1.00  0.00     0.010 A 
ATOM     46  C   UNL     1      17.756   3.950   2.231  1.00  0.00     0.010 A 
ATOM     47  C   UNL     1      18.856   4.746   2.585  1.00  0.00    -0.014 A 
BRANCH  47  48
ATOM     48  C   UNL     1      19.468   4.595   3.929  1.00  0.00     0.031 A 
ATOM     49  C   UNL     1      20.133   3.301   4.314  1.00  0.00     0.074 A 
ATOM     50  C   UNL     1      19.381   5.604   4.818  1.00  0.00     0.049 A 
ATOM     51  N   UNL     1      20.669   2.955   5.456  1.00  0.00    -0.248 NA
ATOM     52  C   UNL     1      20.179   2.247   3.287  1.00  0.00     0.031 C 
ATOM     53  C   UNL     1      18.724   6.891   4.576  1.00  0.00     0.029 A 
ATOM     54  N   UNL     1      19.840   5.705   6.107  1.00  0.00    -0.354 N 
ATOM     55  C   UNL     1      21.110   1.647   5.288  1.00  0.00     0.074 A 
ATOM     56  C   UNL     1      20.727   1.241   3.953  1.00  0.00     0.031 C 
ATOM     57  C   UNL     1      18.842   7.658   5.672  1.00  0.00     0.029 A 
ATOM     58  C   UNL     1      19.551   6.909   6.704  1.00  0.00     0.049 A 
ATOM     59  H   UNL     1      20.331   4.983   6.561  1.00  0.00     0.167 HD
ATOM     60  C   UNL     1      21.796   0.866   6.156  1.00  0.00     0.037 A 
ATOM     61  C   UNL     1      19.822   7.356   7.946  1.00  0.00     0.037 A 
ATOM     62  C   UNL     1      22.191   1.283   7.476  1.00  0.00     0.049 A 
ATOM     63  C   UNL     1      20.578   6.466   8.895  1.00  0.00     0.074 A 
ATOM     64  C   UNL     1      22.919   0.580   8.421  1.00  0.00     0.029 A 
ATOM     65  N   UNL     1      21.897   2.517   8.037  1.00  0.00    -0.354 N 
ATOM     66  N   UNL     1      21.029   5.249   8.701  1.00  0.00    -0.248 NA
ATOM     67  C   UNL     1      20.869   7.011  10.228  1.00  0.00     0.031 C 
ATOM     68  C   UNL     1      23.035   1.376   9.565  1.00  0.00     0.029 A 
ATOM     69  C   UNL     1      22.418   2.592   9.318  1.00  0.00     0.049 A 
ATOM     70  H   UNL     1      21.392   3.234   7.590  1.00  0.00     0.167 HD
ATOM     71  C   UNL     1      21.683   4.895   9.877  1.00  0.00     0.074 A 
ATOM     72  C   UNL     1      21.578   6.030  10.770  1.00  0.00     0.031 C 
ATOM     73  C   UNL     1      22.313   3.736  10.189  1.00  0.00     0.037 A 
BRANCH  60  74
ATOM     74  C   UNL     1      22.174  -0.516   5.698  1.00  0.00     0.058 A 
ATOM     75  C   UNL     1      23.155  -0.719   4.713  1.00  0.00     0.135 A 
ATOM     76  C   UNL     1      21.576  -1.652   6.266  1.00  0.00     0.135 A 
ATOM     77  F   UNL     1      23.749   0.332   4.124  1.00  0.00    -0.206 F 
ATOM     78  C   UNL     1      23.508  -1.995   4.287  1.00  0.00     0.059 A 
ATOM     79  C   UNL     1      21.933  -2.940   5.875  1.00  0.00     0.059 A 
ATOM     80  F   UNL     1      20.632  -1.518   7.211  1.00  0.00    -0.206 F 
ATOM     81  C   UNL     1      22.890  -3.100   4.873  1.00  0.00     0.060 A 
BRANCH  81  82
ATOM     82  S   UNL     1      23.359  -4.750   4.311  1.00  0.00     0.124 S 
ATOM     83  O   UNL     1      22.710  -4.806   3.004  1.00  0.00    -0.237 OA
ATOM     84  O   UNL     1      24.817  -4.670   4.289  1.00  0.00    -0.237 OA
ATOM     85  O   UNL     1      22.797  -5.629   5.329  1.00  0.00    -0.744 OA
ENDBRANCH  81  82
ENDBRANCH  60  74
BRANCH  61  86
ATOM     86  C   UNL     1      19.398   8.720   8.358  1.00  0.00     0.058 A 
ATOM     87  C   UNL     1      20.342   9.738   8.562  1.00  0.00     0.135 A 
ATOM     88  C   UNL     1      18.045   9.034   8.561  1.00  0.00     0.135 A 
ATOM     89  F   UNL     1      21.648   9.485   8.384  1.00  0.00    -0.206 F 
ATOM     90  C   UNL     1      19.965  11.010   8.977  1.00  0.00     0.059 A 
ATOM     91  C   UNL     1      17.641  10.307   8.951  1.00  0.00     0.059 A 
ATOM     92  F   UNL     1      17.100   8.102   8.361  1.00  0.00    -0.206 F 
ATOM     93  C   UNL     1      18.610  11.285   9.171  1.00  0.00     0.060 A 
BRANCH  93  94
ATOM     94  S   UNL     1      18.127  12.948   9.683  1.00  0.00     0.124 S 
ATOM     95  O   UNL     1      18.517  12.947  11.088  1.00  0.00    -0.237 OA
ATOM     96  O   UNL     1      18.928  13.788   8.797  1.00  0.00    -0.237 OA
ATOM     97  O   UNL     1      16.691  12.972   9.425  1.00  0.00    -0.744 OA
ENDBRANCH  93  94
ENDBRANCH  61  86
BRANCH  73  98
ATOM     98  C   UNL     1      22.972   3.651  11.537  1.00  0.00     0.058 A 
ATOM     99  C   UNL     1      22.223   3.520  12.717  1.00  0.00     0.135 A 
ATOM    100  C   UNL     1      24.372   3.658  11.645  1.00  0.00     0.135 A 
ATOM    101  F   UNL     1      20.882   3.515  12.669  1.00  0.00    -0.206 F 
ATOM    102  C   UNL     1      22.840   3.425  13.960  1.00  0.00     0.059 A 
ATOM    103  C   UNL     1      25.010   3.537  12.875  1.00  0.00     0.059 A 
ATOM    104  F   UNL     1      25.134   3.771  10.545  1.00  0.00    -0.206 F 
ATOM    105  C   UNL     1      24.235   3.434  14.029  1.00  0.00     0.060 A 
BRANCH 105 106
ATOM    106  S   UNL     1      25.023   3.280  15.645  1.00  0.00     0.124 S 
ATOM    107  O   UNL     1      24.811   4.611  16.204  1.00  0.00    -0.237 OA
ATOM    108  O   UNL     1      24.259   2.202  16.266  1.00  0.00    -0.237 OA
ATOM    109  O   UNL     1      26.407   2.949  15.317  1.00  0.00    -0.744 OA
ENDBRANCH 105 106
ENDBRANCH  73  98
ENDBRANCH  47  48
ENDBRANCH  39  42
ENDBRANCH  37  38
ENDBRANCH  36  37
ENDBRANCH  35  36
ENDBRANCH   1  35
TORSDOF 21
