REMARK SMILES Nn1c(S[C@@H](C(=O)NCCCCCCNC(=O)c2ccc(-c3c4nc(c(-c5c(F)cc(S(=O)(=O)[O-])cc5F)c5ccc([nH]5)c(-c5c(F)cc(S(=O)(=O)[O-])cc5F)c5nc(c(-c6c(F)cc(S(=O)(=O)[O-])cc6F)c6ccc3[nH]6)C=C5)C=C4)cc2)c2ccccc2)nc2ccc(Br)cc2c1=O
REMARK SMILES IDX 11 1 10 2 9 3 8 4 6 5 7 6 5 8 4 9 3 10 2 11 98 12 90 13
REMARK SMILES IDX 97 14 99 15 91 16 96 17 92 18 94 19 93 20 95 21 1 22 84 25
REMARK SMILES IDX 85 26 89 27 86 28 88 29 87 30 12 31 13 32 14 33 15 34 16 35
REMARK SMILES IDX 17 37 18 38 19 39 83 40 20 41 82 42 21 43 22 44 23 45 76 46
REMARK SMILES IDX 24 47 81 48 75 49 77 50 25 51 80 52 74 53 73 54 26 56 60 57
REMARK SMILES IDX 39 58 59 59 40 60 43 61 58 62 78 63 41 64 42 65 57 67 79 68
REMARK SMILES IDX 44 69 27 70 28 71 37 72 29 73 30 74 36 75 38 76 31 77 32 78
REMARK SMILES IDX 33 79 34 80 35 81 61 82 62 83 71 84 63 85 64 86 70 87 72 88
REMARK SMILES IDX 65 89 66 90 67 91 68 92 69 93 45 94 46 95 55 96 47 97 48 98
REMARK SMILES IDX 54 99 56 100 49 101 50 102 51 103 52 104 53 105
REMARK H PARENT 8 7 1 23 1 24 15 36 77 55 43 66
REMARK Flexibility Score: inf
ROOT
ATOM      1  C   UNL     1       5.331   2.289   2.482  1.00  0.00     0.002 C 
ENDROOT
BRANCH   1   2
ATOM      2  C   UNL     1       4.837   2.816   1.125  1.00  0.00     0.021 C 
BRANCH   2   3
ATOM      3  C   UNL     1       5.074   1.879  -0.066  1.00  0.00     0.116 C 
BRANCH   3   4
ATOM      4  N   UNL     1       4.455   0.583   0.152  1.00  0.00    -0.355 N 
ATOM      5  C   UNL     1       3.281   0.055  -0.311  1.00  0.00     0.238 C 
ATOM      6  O   UNL     1       2.942  -0.998   0.242  1.00  0.00    -0.273 OA
ATOM      7  H   UNL     1       4.971  -0.020   0.734  1.00  0.00     0.163 HD
BRANCH   5   8
ATOM      8  C   UNL     1       2.488   0.738  -1.458  1.00  0.00     0.174 C 
BRANCH   8   9
ATOM      9  S   UNL     1       1.810   2.318  -0.897  1.00  0.00    -0.068 SA
BRANCH   9  10
ATOM     10  C   UNL     1       0.479   2.167   0.221  1.00  0.00     0.191 A 
ATOM     11  N   UNL     1      -0.049   0.987   0.743  1.00  0.00    -0.202 N 
ATOM     12  C   UNL     1      -1.107   0.995   1.660  1.00  0.00     0.280 A 
ATOM     13  N   UNL     1       0.005   3.331   0.545  1.00  0.00    -0.222 NA
ATOM     14  C   UNL     1      -1.663   2.309   2.005  1.00  0.00     0.069 A 
ATOM     15  O   UNL     1      -1.593  -0.025   2.152  1.00  0.00    -0.267 OA
ATOM     16  C   UNL     1      -1.081   3.425   1.414  1.00  0.00     0.079 A 
ATOM     17  C   UNL     1      -2.760   2.427   2.864  1.00  0.00     0.031 A 
ATOM     18  C   UNL     1      -1.613   4.686   1.689  1.00  0.00     0.030 A 
ATOM     19  C   UNL     1      -3.280   3.691   3.124  1.00  0.00     0.018 A 
ATOM     20  C   UNL     1      -2.713   4.823   2.540  1.00  0.00     0.018 A 
ATOM     21  Br  UNL     1      -4.774   3.872   4.267  1.00  0.00    -0.051 Br
BRANCH  11  22
ATOM     22  N   UNL     1       0.359  -0.291   0.336  1.00  0.00    -0.334 N 
ATOM     23  H   UNL     1       1.097  -0.391  -0.308  1.00  0.00     0.178 HD
ATOM     24  H   UNL     1      -0.092  -1.090   0.694  1.00  0.00     0.178 HD
ENDBRANCH  11  22
ENDBRANCH   9  10
ENDBRANCH   8   9
BRANCH   8  25
ATOM     25  C   UNL     1       1.549  -0.127  -2.318  1.00  0.00    -0.025 A 
ATOM     26  C   UNL     1       1.727  -1.518  -2.431  1.00  0.00     0.005 A 
ATOM     27  C   UNL     1       0.505   0.447  -3.074  1.00  0.00     0.005 A 
ATOM     28  C   UNL     1       0.842  -2.307  -3.175  1.00  0.00     0.000 A 
ATOM     29  C   UNL     1      -0.379  -0.341  -3.818  1.00  0.00     0.000 A 
ATOM     30  C   UNL     1      -0.219  -1.720  -3.855  1.00  0.00     0.000 A 
ENDBRANCH   8  25
ENDBRANCH   5   8
ENDBRANCH   3   4
ENDBRANCH   2   3
ENDBRANCH   1   2
BRANCH   1  31
ATOM     31  C   UNL     1       6.814   1.915   2.558  1.00  0.00     0.002 C 
BRANCH  31  32
ATOM     32  C   UNL     1       7.789   2.996   2.095  1.00  0.00     0.021 C 
BRANCH  32  33
ATOM     33  C   UNL     1       7.673   4.328   2.826  1.00  0.00     0.116 C 
BRANCH  33  34
ATOM     34  N   UNL     1       8.123   4.263   4.208  1.00  0.00    -0.352 N 
ATOM     35  C   UNL     1       8.988   5.113   4.868  1.00  0.00     0.251 C 
ATOM     36  H   UNL     1       7.764   3.517   4.741  1.00  0.00     0.163 HD
ATOM     37  O   UNL     1       9.361   4.872   6.002  1.00  0.00    -0.269 OA
BRANCH  35  38
ATOM     38  C   UNL     1       9.491   6.303   4.144  1.00  0.00     0.039 A 
ATOM     39  C   UNL     1       8.597   7.178   3.519  1.00  0.00     0.014 A 
ATOM     40  C   UNL     1      10.870   6.480   4.010  1.00  0.00     0.014 A 
ATOM     41  C   UNL     1       9.081   8.124   2.621  1.00  0.00     0.010 A 
ATOM     42  C   UNL     1      11.354   7.476   3.159  1.00  0.00     0.010 A 
ATOM     43  C   UNL     1      10.463   8.265   2.413  1.00  0.00    -0.014 A 
BRANCH  43  44
ATOM     44  C   UNL     1      10.963   9.205   1.376  1.00  0.00     0.031 A 
ATOM     45  C   UNL     1      11.671   8.684   0.153  1.00  0.00     0.074 A 
ATOM     46  C   UNL     1      10.755  10.526   1.518  1.00  0.00     0.049 A 
ATOM     47  N   UNL     1      12.229   9.350  -0.826  1.00  0.00    -0.248 NA
ATOM     48  C   UNL     1      11.768   7.222   0.013  1.00  0.00     0.031 C 
ATOM     49  C   UNL     1      10.064  11.154   2.645  1.00  0.00     0.029 A 
ATOM     50  N   UNL     1      11.095  11.577   0.706  1.00  0.00    -0.354 N 
ATOM     51  C   UNL     1      12.775   8.396  -1.676  1.00  0.00     0.074 A 
ATOM     52  C   UNL     1      12.488   7.102  -1.094  1.00  0.00     0.031 C 
ATOM     53  C   UNL     1      10.007  12.478   2.441  1.00  0.00     0.029 A 
ATOM     54  C   UNL     1      10.706  12.798   1.199  1.00  0.00     0.049 A 
ATOM     55  H   UNL     1      11.572  11.467  -0.148  1.00  0.00     0.167 HD
ATOM     56  C   UNL     1      13.449   8.580  -2.837  1.00  0.00     0.037 A 
ATOM     57  C   UNL     1      10.910  14.040   0.723  1.00  0.00     0.037 A 
ATOM     58  C   UNL     1      13.705   9.867  -3.432  1.00  0.00     0.049 A 
ATOM     59  C   UNL     1      11.674  14.224  -0.554  1.00  0.00     0.074 A 
ATOM     60  C   UNL     1      14.345  10.155  -4.625  1.00  0.00     0.029 A 
ATOM     61  N   UNL     1      13.332  11.083  -2.878  1.00  0.00    -0.354 N 
ATOM     62  N   UNL     1      12.199  13.311  -1.337  1.00  0.00    -0.248 NA
ATOM     63  C   UNL     1      11.886  15.605  -1.006  1.00  0.00     0.031 C 
ATOM     64  C   UNL     1      14.388  11.547  -4.776  1.00  0.00     0.029 A 
ATOM     65  C   UNL     1      13.745  12.125  -3.693  1.00  0.00     0.049 A 
ATOM     66  H   UNL     1      12.845  11.191  -2.029  1.00  0.00     0.167 HD
ATOM     67  C   UNL     1      12.816  14.007  -2.369  1.00  0.00     0.074 A 
ATOM     68  C   UNL     1      12.572  15.416  -2.126  1.00  0.00     0.031 C 
ATOM     69  C   UNL     1      13.525  13.523  -3.418  1.00  0.00     0.037 A 
BRANCH  56  70
ATOM     70  C   UNL     1      13.984   7.356  -3.526  1.00  0.00     0.058 A 
ATOM     71  C   UNL     1      13.146   6.470  -4.220  1.00  0.00     0.135 A 
ATOM     72  C   UNL     1      15.359   7.068  -3.494  1.00  0.00     0.135 A 
ATOM     73  F   UNL     1      11.822   6.688  -4.266  1.00  0.00    -0.206 F 
ATOM     74  C   UNL     1      13.647   5.323  -4.830  1.00  0.00     0.059 A 
ATOM     75  C   UNL     1      15.884   5.938  -4.114  1.00  0.00     0.059 A 
ATOM     76  F   UNL     1      16.204   7.883  -2.842  1.00  0.00    -0.206 F 
ATOM     77  C   UNL     1      15.017   5.062  -4.764  1.00  0.00     0.060 A 
BRANCH  77  78
ATOM     78  S   UNL     1      15.648   3.556  -5.535  1.00  0.00     0.124 S 
ATOM     79  O   UNL     1      15.214   2.540  -4.581  1.00  0.00    -0.237 OA
ATOM     80  O   UNL     1      14.961   3.549  -6.822  1.00  0.00    -0.237 OA
ATOM     81  O   UNL     1      17.088   3.784  -5.597  1.00  0.00    -0.744 OA
ENDBRANCH  77  78
ENDBRANCH  56  70
BRANCH  57  82
ATOM     82  C   UNL     1      10.386  15.198   1.488  1.00  0.00     0.058 A 
ATOM     83  C   UNL     1       9.237  15.879   1.066  1.00  0.00     0.135 A 
ATOM     84  C   UNL     1      10.971  15.581   2.706  1.00  0.00     0.135 A 
ATOM     85  F   UNL     1       8.652  15.550  -0.096  1.00  0.00    -0.206 F 
ATOM     86  C   UNL     1       8.670  16.888   1.835  1.00  0.00     0.059 A 
ATOM     87  C   UNL     1      10.411  16.574   3.502  1.00  0.00     0.059 A 
ATOM     88  F   UNL     1      12.065  14.947   3.154  1.00  0.00    -0.206 F 
ATOM     89  C   UNL     1       9.256  17.218   3.060  1.00  0.00     0.060 A 
BRANCH  89  90
ATOM     90  S   UNL     1       8.440  18.440   4.109  1.00  0.00     0.124 S 
ATOM     91  O   UNL     1       8.777  19.685   3.429  1.00  0.00    -0.237 OA
ATOM     92  O   UNL     1       7.041  18.027   4.030  1.00  0.00    -0.237 OA
ATOM     93  O   UNL     1       9.070  18.238   5.410  1.00  0.00    -0.744 OA
ENDBRANCH  89  90
ENDBRANCH  57  82
BRANCH  69  94
ATOM     94  C   UNL     1      14.106  14.533  -4.366  1.00  0.00     0.058 A 
ATOM     95  C   UNL     1      15.236  15.289  -4.019  1.00  0.00     0.135 A 
ATOM     96  C   UNL     1      13.538  14.741  -5.632  1.00  0.00     0.135 A 
ATOM     97  F   UNL     1      15.811  15.131  -2.816  1.00  0.00    -0.206 F 
ATOM     98  C   UNL     1      15.766  16.241  -4.883  1.00  0.00     0.059 A 
ATOM     99  C   UNL     1      14.063  15.674  -6.521  1.00  0.00     0.059 A 
ATOM    100  F   UNL     1      12.461  14.036  -6.015  1.00  0.00    -0.206 F 
ATOM    101  C   UNL     1      15.167  16.432  -6.130  1.00  0.00     0.060 A 
BRANCH 101 102
ATOM    102  S   UNL     1      15.860  17.671  -7.245  1.00  0.00     0.124 S 
ATOM    103  O   UNL     1      15.347  18.907  -6.662  1.00  0.00    -0.237 OA
ATOM    104  O   UNL     1      17.296  17.453  -7.107  1.00  0.00    -0.237 OA
ATOM    105  O   UNL     1      15.299  17.308  -8.543  1.00  0.00    -0.744 OA
ENDBRANCH 101 102
ENDBRANCH  69  94
ENDBRANCH  43  44
ENDBRANCH  35  38
ENDBRANCH  33  34
ENDBRANCH  32  33
ENDBRANCH  31  32
ENDBRANCH   1  31
TORSDOF 20
