REMARK SMILES O=C(NCCCCCCNC(=O)c1ccn(-c2cc(-c3ccncc3)nc(-c3ccccc3F)n2)n1)c1ccc(-c2c3nc(c(-c4c(F)cc(S(=O)(=O)[O-])cc4F)c4ccc([nH]4)c(-c4c(F)cc(S(=O)(=O)[O-])cc4F)c4nc(c(-c5c(F)cc(S(=O)(=O)[O-])cc5F)c5ccc2[nH]5)C=C4)C=C3)cc1
REMARK SMILES IDX 6 1 5 2 4 3 3 4 1 5 2 6 37 8 38 9 102 10 39 11 101 12 40 13
REMARK SMILES IDX 41 14 42 15 95 16 43 17 100 18 94 19 96 20 44 21 99 22 93 23
REMARK SMILES IDX 92 24 45 26 79 27 58 28 78 29 59 30 62 31 77 32 97 33 60 34
REMARK SMILES IDX 61 35 76 37 98 38 63 39 46 40 47 41 56 42 48 43 49 44 55 45
REMARK SMILES IDX 57 46 50 47 51 48 52 49 53 50 54 51 80 52 81 53 90 54 82 55
REMARK SMILES IDX 83 56 89 57 91 58 84 59 85 60 86 61 87 62 88 63 64 64 65 65
REMARK SMILES IDX 74 66 66 67 67 68 73 69 75 70 68 71 69 72 70 73 71 74 72 75
REMARK SMILES IDX 7 76 8 77 9 78 10 79 11 80 12 82 13 83 14 84 36 85 15 86
REMARK SMILES IDX 16 87 17 88 18 89 35 90 19 91 27 92 26 93 20 94 21 95 25 96
REMARK SMILES IDX 22 97 24 98 23 99 28 100 29 101 33 102 30 103 32 104 34 105
REMARK SMILES IDX 31 106
REMARK H PARENT 3 7 96 25 62 36 10 81
REMARK Flexibility Score: inf
ROOT
ATOM      1  C   UNL     1       4.380  -1.042  -3.442  1.00  0.00     0.002 C 
ENDROOT
BRANCH   1   2
ATOM      2  C   UNL     1       4.868  -1.084  -1.990  1.00  0.00     0.021 C 
BRANCH   2   3
ATOM      3  C   UNL     1       4.771   0.258  -1.266  1.00  0.00     0.116 C 
BRANCH   3   4
ATOM      4  N   UNL     1       3.424   0.763  -1.129  1.00  0.00    -0.352 N 
ATOM      5  O   UNL     1       1.407   1.231  -0.341  1.00  0.00    -0.269 OA
ATOM      6  C   UNL     1       2.417   0.534  -0.234  1.00  0.00     0.251 C 
ATOM      7  H   UNL     1       3.179   1.410  -1.829  1.00  0.00     0.163 HD
BRANCH   6   8
ATOM      8  C   UNL     1       2.440  -0.564   0.762  1.00  0.00     0.039 A 
ATOM      9  C   UNL     1       3.589  -1.198   1.244  1.00  0.00     0.014 A 
ATOM     10  C   UNL     1       1.182  -1.013   1.190  1.00  0.00     0.014 A 
ATOM     11  C   UNL     1       3.489  -2.362   1.992  1.00  0.00     0.010 A 
ATOM     12  C   UNL     1       1.075  -2.145   1.975  1.00  0.00     0.010 A 
ATOM     13  C   UNL     1       2.229  -2.853   2.312  1.00  0.00    -0.014 A 
BRANCH  13  14
ATOM     14  C   UNL     1       2.132  -4.064   3.117  1.00  0.00     0.031 A 
ATOM     15  C   UNL     1       2.610  -3.916   4.530  1.00  0.00     0.074 A 
ATOM     16  C   UNL     1       1.451  -5.125   2.638  1.00  0.00     0.049 A 
ATOM     17  N   UNL     1       3.423  -4.664   5.207  1.00  0.00    -0.248 NA
ATOM     18  C   UNL     1       2.207  -2.690   5.251  1.00  0.00     0.031 C 
ATOM     19  C   UNL     1       0.732  -5.234   1.361  1.00  0.00     0.029 A 
ATOM     20  N   UNL     1       1.130  -6.291   3.253  1.00  0.00    -0.354 N 
ATOM     21  C   UNL     1       3.465  -4.121   6.494  1.00  0.00     0.074 A 
ATOM     22  C   UNL     1       2.826  -2.835   6.420  1.00  0.00     0.031 C 
ATOM     23  C   UNL     1      -0.137  -6.268   1.422  1.00  0.00     0.029 A 
ATOM     24  C   UNL     1       0.058  -6.965   2.678  1.00  0.00     0.049 A 
ATOM     25  H   UNL     1       1.614  -6.631   4.040  1.00  0.00     0.167 HD
ATOM     26  C   UNL     1       3.834  -4.843   7.588  1.00  0.00     0.037 A 
ATOM     27  C   UNL     1      -0.679  -7.940   3.272  1.00  0.00     0.037 A 
ATOM     28  C   UNL     1       4.598  -6.004   7.231  1.00  0.00     0.049 A 
ATOM     29  C   UNL     1       0.147  -8.468   4.394  1.00  0.00     0.074 A 
ATOM     30  C   UNL     1       5.827  -6.203   6.632  1.00  0.00     0.029 A 
ATOM     31  N   UNL     1       3.950  -7.212   7.155  1.00  0.00    -0.354 N 
ATOM     32  N   UNL     1       1.292  -9.078   4.225  1.00  0.00    -0.248 NA
ATOM     33  C   UNL     1      -0.057  -7.875   5.708  1.00  0.00     0.031 C 
ATOM     34  C   UNL     1       5.643  -7.336   5.788  1.00  0.00     0.029 A 
ATOM     35  C   UNL     1       4.337  -7.794   5.973  1.00  0.00     0.049 A 
ATOM     36  H   UNL     1       3.329  -7.588   7.819  1.00  0.00     0.167 HD
ATOM     37  C   UNL     1       2.103  -8.617   5.253  1.00  0.00     0.074 A 
ATOM     38  C   UNL     1       1.200  -7.907   6.159  1.00  0.00     0.031 C 
ATOM     39  C   UNL     1       3.465  -8.598   5.144  1.00  0.00     0.037 A 
BRANCH  26  40
ATOM     40  C   UNL     1       3.221  -4.657   8.955  1.00  0.00     0.058 A 
ATOM     41  C   UNL     1       1.919  -4.142   9.147  1.00  0.00     0.135 A 
ATOM     42  C   UNL     1       3.813  -5.253  10.087  1.00  0.00     0.135 A 
ATOM     43  F   UNL     1       1.197  -3.640   8.136  1.00  0.00    -0.206 F 
ATOM     44  C   UNL     1       1.254  -4.205  10.364  1.00  0.00     0.059 A 
ATOM     45  C   UNL     1       3.142  -5.373  11.307  1.00  0.00     0.059 A 
ATOM     46  F   UNL     1       5.040  -5.793  10.009  1.00  0.00    -0.206 F 
ATOM     47  C   UNL     1       1.858  -4.851  11.431  1.00  0.00     0.060 A 
BRANCH  47  48
ATOM     48  S   UNL     1       0.883  -5.082  12.929  1.00  0.00     0.124 S 
ATOM     49  O   UNL     1       0.748  -3.709  13.405  1.00  0.00    -0.237 OA
ATOM     50  O   UNL     1      -0.332  -5.697  12.404  1.00  0.00    -0.237 OA
ATOM     51  O   UNL     1       1.722  -5.953  13.746  1.00  0.00    -0.744 OA
ENDBRANCH  47  48
ENDBRANCH  26  40
BRANCH  27  52
ATOM     52  C   UNL     1      -2.167  -8.057   3.239  1.00  0.00     0.058 A 
ATOM     53  C   UNL     1      -2.991  -6.932   3.020  1.00  0.00     0.135 A 
ATOM     54  C   UNL     1      -2.823  -9.219   3.687  1.00  0.00     0.135 A 
ATOM     55  F   UNL     1      -2.472  -5.750   2.656  1.00  0.00    -0.206 F 
ATOM     56  C   UNL     1      -4.364  -6.946   3.254  1.00  0.00     0.059 A 
ATOM     57  C   UNL     1      -4.203  -9.255   3.936  1.00  0.00     0.059 A 
ATOM     58  F   UNL     1      -2.115 -10.329   3.949  1.00  0.00    -0.206 F 
ATOM     59  C   UNL     1      -4.961  -8.103   3.738  1.00  0.00     0.060 A 
BRANCH  59  60
ATOM     60  S   UNL     1      -6.714  -8.025   4.172  1.00  0.00     0.124 S 
ATOM     61  O   UNL     1      -6.719  -7.008   5.218  1.00  0.00    -0.237 OA
ATOM     62  O   UNL     1      -7.324  -7.630   2.906  1.00  0.00    -0.237 OA
ATOM     63  O   UNL     1      -7.018  -9.382   4.614  1.00  0.00    -0.744 OA
ENDBRANCH  59  60
ENDBRANCH  27  52
BRANCH  39  64
ATOM     64  C   UNL     1       4.105  -9.247   3.941  1.00  0.00     0.058 A 
ATOM     65  C   UNL     1       5.040 -10.270   4.148  1.00  0.00     0.135 A 
ATOM     66  C   UNL     1       3.992  -8.744   2.630  1.00  0.00     0.135 A 
ATOM     67  F   UNL     1       5.242 -10.754   5.385  1.00  0.00    -0.206 F 
ATOM     68  C   UNL     1       5.838 -10.759   3.116  1.00  0.00     0.059 A 
ATOM     69  C   UNL     1       4.759  -9.240   1.573  1.00  0.00     0.059 A 
ATOM     70  F   UNL     1       3.199  -7.700   2.363  1.00  0.00    -0.206 F 
ATOM     71  C   UNL     1       5.696 -10.235   1.831  1.00  0.00     0.060 A 
BRANCH  71  72
ATOM     72  S   UNL     1       6.795 -10.840   0.533  1.00  0.00     0.124 S 
ATOM     73  O   UNL     1       8.098 -10.369   0.994  1.00  0.00    -0.237 OA
ATOM     74  O   UNL     1       6.588 -12.284   0.598  1.00  0.00    -0.237 OA
ATOM     75  O   UNL     1       6.296 -10.194  -0.678  1.00  0.00    -0.744 OA
ENDBRANCH  71  72
ENDBRANCH  39  64
ENDBRANCH  13  14
ENDBRANCH   6   8
ENDBRANCH   3   4
ENDBRANCH   2   3
ENDBRANCH   1   2
BRANCH   1  76
ATOM     76  C   UNL     1       4.955   0.105  -4.280  1.00  0.00     0.002 C 
BRANCH  76  77
ATOM     77  C   UNL     1       6.487   0.187  -4.294  1.00  0.00     0.021 C 
BRANCH  77  78
ATOM     78  C   UNL     1       7.165  -1.046  -4.882  1.00  0.00     0.116 C 
BRANCH  78  79
ATOM     79  N   UNL     1       6.856  -1.165  -6.293  1.00  0.00    -0.351 N 
ATOM     80  C   UNL     1       7.711  -0.995  -7.348  1.00  0.00     0.271 C 
ATOM     81  H   UNL     1       5.925  -1.392  -6.519  1.00  0.00     0.163 HD
ATOM     82  O   UNL     1       7.248  -0.831  -8.484  1.00  0.00    -0.267 OA
BRANCH  80  83
ATOM     83  C   UNL     1       9.147  -1.077  -7.088  1.00  0.00     0.150 A 
ATOM     84  C   UNL     1       9.843  -2.190  -6.549  1.00  0.00     0.056 A 
ATOM     85  N   UNL     1       9.988  -0.061  -7.354  1.00  0.00    -0.161 NA
ATOM     86  C   UNL     1      11.171  -1.863  -6.654  1.00  0.00     0.118 A 
ATOM     87  N   UNL     1      11.222  -0.598  -7.189  1.00  0.00    -0.222 N 
BRANCH  87  88
ATOM     88  C   UNL     1      12.397   0.096  -7.576  1.00  0.00     0.158 A 
ATOM     89  C   UNL     1      12.383   1.473  -7.576  1.00  0.00     0.078 A 
ATOM     90  N   UNL     1      13.475  -0.637  -7.927  1.00  0.00    -0.209 NA
ATOM     91  C   UNL     1      13.570   2.084  -7.919  1.00  0.00     0.077 A 
ATOM     92  C   UNL     1      14.549   0.053  -8.337  1.00  0.00     0.165 A 
ATOM     93  N   UNL     1      14.649   1.393  -8.346  1.00  0.00    -0.228 NA
BRANCH  91  94
ATOM     94  C   UNL     1      13.750   3.532  -7.788  1.00  0.00     0.003 A 
ATOM     95  C   UNL     1      13.662   4.152  -6.535  1.00  0.00     0.030 A 
ATOM     96  C   UNL     1      14.021   4.333  -8.900  1.00  0.00     0.030 A 
ATOM     97  C   UNL     1      13.832   5.524  -6.452  1.00  0.00     0.111 A 
ATOM     98  C   UNL     1      14.167   5.699  -8.717  1.00  0.00     0.111 A 
ATOM     99  N   UNL     1      14.075   6.313  -7.518  1.00  0.00    -0.265 NA
ENDBRANCH  91  94
BRANCH  92 100
ATOM    100  C   UNL     1      15.639  -0.722  -8.912  1.00  0.00     0.055 A 
ATOM    101  C   UNL     1      15.439  -1.499 -10.070  1.00  0.00     0.015 A 
ATOM    102  C   UNL     1      16.905  -0.738  -8.325  1.00  0.00     0.134 A 
ATOM    103  C   UNL     1      16.479  -2.256 -10.618  1.00  0.00     0.001 A 
ATOM    104  C   UNL     1      17.945  -1.499  -8.860  1.00  0.00     0.040 A 
ATOM    105  F   UNL     1      17.142  -0.040  -7.204  1.00  0.00    -0.206 F 
ATOM    106  C   UNL     1      17.733  -2.257 -10.010  1.00  0.00     0.003 A 
ENDBRANCH  92 100
ENDBRANCH  87  88
ENDBRANCH  80  83
ENDBRANCH  78  79
ENDBRANCH  77  78
ENDBRANCH  76  77
ENDBRANCH   1  76
TORSDOF 19
