REMARK SMILES CCn1ncc(Br)c1C(=O)N[C@H]1C(=O)N2C(C(=O)NCCCCCCNC(=O)c3ccc(-c4c5nc(c(-c6c(F)cc(S(=O)(=O)[O-])cc6F)c6ccc([nH]6)c(-c6c(F)cc(S(=O)(=O)[O-])cc6F)c6nc(c(-c7c(F)cc(S(=O)(=O)[O-])cc7F)c7ccc4[nH]7)C=C6)C=C5)cc3)=C(C)CS[C@H]12
REMARK SMILES IDX 22 1 21 2 20 3 19 4 17 5 18 6 16 8 12 9 13 10 99 11 14 12
REMARK SMILES IDX 15 13 98 14 97 15 95 16 96 17 11 18 9 19 10 20 8 22 3 23
REMARK SMILES IDX 4 24 5 25 6 26 7 27 2 28 1 29 23 30 24 31 25 32 26 33 27 34
REMARK SMILES IDX 28 36 29 37 30 38 94 39 31 40 93 41 32 42 33 43 34 44 87 45
REMARK SMILES IDX 35 46 92 47 86 48 88 49 36 50 91 51 85 52 84 53 37 55 71 56
REMARK SMILES IDX 50 57 70 58 51 59 54 60 69 61 89 62 52 63 53 64 68 66 90 67
REMARK SMILES IDX 55 68 38 69 39 70 48 71 40 72 41 73 47 74 49 75 42 76 43 77
REMARK SMILES IDX 44 78 45 79 46 80 72 81 73 82 82 83 74 84 75 85 81 86 83 87
REMARK SMILES IDX 76 88 77 89 78 90 79 91 80 92 56 93 57 94 66 95 58 96 59 97
REMARK SMILES IDX 65 98 67 99 60 100 61 101 62 102 63 103 64 104
REMARK H PARENT 19 7 11 21 26 35 88 54 54 65
REMARK Flexibility Score: inf
ROOT
ATOM      1  C   UNL     1      -6.154   3.256   1.984  1.00  0.00     0.002 C 
ENDROOT
BRANCH   1   2
ATOM      2  C   UNL     1      -5.278   2.040   2.323  1.00  0.00     0.021 C 
BRANCH   2   3
ATOM      3  C   UNL     1      -4.492   1.357   1.204  1.00  0.00     0.116 C 
BRANCH   3   4
ATOM      4  N   UNL     1      -3.364   2.046   0.604  1.00  0.00    -0.351 N 
ATOM      5  C   UNL     1      -2.318   1.537  -0.136  1.00  0.00     0.268 C 
ATOM      6  O   UNL     1      -1.646   2.327  -0.803  1.00  0.00    -0.268 OA
ATOM      7  H   UNL     1      -3.342   3.019   0.747  1.00  0.00     0.163 HD
BRANCH   5   8
ATOM      8  C   UNL     1      -1.940   0.055  -0.160  1.00  0.00     0.110 C 
ATOM      9  C   UNL     1       1.094  -0.639  -1.459  1.00  0.00     0.206 C 
ATOM     10  C   UNL     1       0.640  -0.358  -0.055  1.00  0.00     0.253 C 
ATOM     11  C   UNL     1      -0.390  -1.001  -1.700  1.00  0.00     0.181 C 
ATOM     12  O   UNL     1       1.366  -0.249   0.883  1.00  0.00    -0.272 OA
ATOM     13  N   UNL     1      -0.643  -0.245  -0.482  1.00  0.00    -0.290 N 
ATOM     14  S   UNL     1      -0.831  -2.746  -1.316  1.00  0.00    -0.129 SA
ATOM     15  C   UNL     1      -2.357  -2.390  -0.380  1.00  0.00     0.104 C 
ATOM     16  C   UNL     1      -2.815  -0.944  -0.441  1.00  0.00    -0.034 C 
ATOM     17  C   UNL     1      -4.237  -0.790  -0.884  1.00  0.00     0.043 C 
BRANCH   9  18
ATOM     18  N   UNL     1       1.682   0.618  -2.043  1.00  0.00    -0.336 N 
ATOM     19  C   UNL     1       2.298   1.595  -1.241  1.00  0.00     0.271 C 
ATOM     20  O   UNL     1       3.502   1.734  -1.500  1.00  0.00    -0.267 OA
ATOM     21  H   UNL     1       1.633   0.760  -3.016  1.00  0.00     0.164 HD
BRANCH  19  22
ATOM     22  C   UNL     1       1.550   2.661  -0.547  1.00  0.00     0.140 A 
ATOM     23  N   UNL     1       0.989   2.902   0.740  1.00  0.00    -0.259 N 
ATOM     24  N   UNL     1       0.725   4.251   0.902  1.00  0.00    -0.180 NA
ATOM     25  C   UNL     1       1.044   4.842  -0.227  1.00  0.00     0.151 A 
ATOM     26  C   UNL     1       1.547   3.934  -1.133  1.00  0.00     0.069 A 
ATOM     27  Br  UNL     1       2.198   4.512  -2.803  1.00  0.00    -0.047 Br
BRANCH  23  28
ATOM     28  C   UNL     1       0.422   2.258   1.925  1.00  0.00     0.142 C 
ATOM     29  C   UNL     1       0.622   1.003   2.776  1.00  0.00     0.029 C 
ENDBRANCH  23  28
ENDBRANCH  19  22
ENDBRANCH   9  18
ENDBRANCH   5   8
ENDBRANCH   3   4
ENDBRANCH   2   3
ENDBRANCH   1   2
BRANCH   1  30
ATOM     30  C   UNL     1      -7.097   3.205   0.768  1.00  0.00     0.002 C 
BRANCH  30  31
ATOM     31  C   UNL     1      -8.115   2.060   0.652  1.00  0.00     0.021 C 
BRANCH  31  32
ATOM     32  C   UNL     1      -9.092   1.915   1.811  1.00  0.00     0.116 C 
BRANCH  32  33
ATOM     33  N   UNL     1     -10.032   3.030   1.956  1.00  0.00    -0.352 N 
ATOM     34  C   UNL     1     -11.111   3.136   2.825  1.00  0.00     0.251 C 
ATOM     35  H   UNL     1      -9.881   3.801   1.362  1.00  0.00     0.163 HD
ATOM     36  O   UNL     1     -12.026   3.918   2.587  1.00  0.00    -0.269 OA
BRANCH  34  37
ATOM     37  C   UNL     1     -11.132   2.316   4.057  1.00  0.00     0.039 A 
ATOM     38  C   UNL     1     -12.314   1.841   4.640  1.00  0.00     0.014 A 
ATOM     39  C   UNL     1      -9.906   2.032   4.648  1.00  0.00     0.014 A 
ATOM     40  C   UNL     1     -12.229   1.047   5.789  1.00  0.00     0.010 A 
ATOM     41  C   UNL     1      -9.811   1.086   5.628  1.00  0.00     0.010 A 
ATOM     42  C   UNL     1     -10.965   0.675   6.274  1.00  0.00    -0.014 A 
BRANCH  42  43
ATOM     43  C   UNL     1     -10.774  -0.307   7.336  1.00  0.00     0.031 A 
ATOM     44  C   UNL     1     -11.290  -1.641   6.936  1.00  0.00     0.074 A 
ATOM     45  C   UNL     1      -9.951  -0.088   8.392  1.00  0.00     0.049 A 
ATOM     46  N   UNL     1     -12.387  -2.204   7.322  1.00  0.00    -0.248 NA
ATOM     47  C   UNL     1     -10.669  -2.311   5.774  1.00  0.00     0.031 C 
ATOM     48  C   UNL     1      -9.155   1.115   8.674  1.00  0.00     0.029 A 
ATOM     49  N   UNL     1      -9.555  -0.932   9.391  1.00  0.00    -0.354 N 
ATOM     50  C   UNL     1     -12.378  -3.452   6.708  1.00  0.00     0.074 A 
ATOM     51  C   UNL     1     -11.528  -3.310   5.560  1.00  0.00     0.031 C 
ATOM     52  C   UNL     1      -8.224   0.844   9.618  1.00  0.00     0.029 A 
ATOM     53  C   UNL     1      -8.432  -0.502  10.117  1.00  0.00     0.049 A 
ATOM     54  H   UNL     1     -10.021  -1.776   9.587  1.00  0.00     0.167 HD
ATOM     55  C   UNL     1     -12.715  -4.564   7.421  1.00  0.00     0.037 A 
ATOM     56  C   UNL     1      -7.725  -1.221  11.039  1.00  0.00     0.037 A 
ATOM     57  C   UNL     1     -13.405  -4.185   8.637  1.00  0.00     0.049 A 
ATOM     58  C   UNL     1      -8.610  -2.332  11.480  1.00  0.00     0.074 A 
ATOM     59  C   UNL     1     -14.512  -3.412   8.938  1.00  0.00     0.029 A 
ATOM     60  N   UNL     1     -12.693  -4.289   9.807  1.00  0.00    -0.354 N 
ATOM     61  N   UNL     1      -9.714  -2.146  12.150  1.00  0.00    -0.248 NA
ATOM     62  C   UNL     1      -8.536  -3.573  10.727  1.00  0.00     0.031 C 
ATOM     63  C   UNL     1     -14.162  -2.711  10.131  1.00  0.00     0.029 A 
ATOM     64  C   UNL     1     -12.916  -3.168  10.559  1.00  0.00     0.049 A 
ATOM     65  H   UNL     1     -12.117  -5.045  10.062  1.00  0.00     0.167 HD
ATOM     66  C   UNL     1     -10.636  -2.983  11.540  1.00  0.00     0.074 A 
ATOM     67  C   UNL     1      -9.835  -3.885  10.709  1.00  0.00     0.031 C 
ATOM     68  C   UNL     1     -11.964  -2.660  11.521  1.00  0.00     0.037 A 
BRANCH  55  69
ATOM     69  C   UNL     1     -12.017  -5.912   7.293  1.00  0.00     0.058 A 
ATOM     70  C   UNL     1     -12.490  -6.984   8.081  1.00  0.00     0.135 A 
ATOM     71  C   UNL     1     -10.761  -6.133   6.681  1.00  0.00     0.135 A 
ATOM     72  F   UNL     1     -13.676  -6.901   8.705  1.00  0.00    -0.206 F 
ATOM     73  C   UNL     1     -11.733  -8.130   8.328  1.00  0.00     0.059 A 
ATOM     74  C   UNL     1     -10.013  -7.288   6.874  1.00  0.00     0.059 A 
ATOM     75  F   UNL     1     -10.140  -5.223   5.925  1.00  0.00    -0.206 F 
ATOM     76  C   UNL     1     -10.488  -8.265   7.727  1.00  0.00     0.060 A 
BRANCH  76  77
ATOM     77  S   UNL     1      -9.484  -9.715   8.078  1.00  0.00     0.124 S 
ATOM     78  O   UNL     1      -9.153  -9.507   9.482  1.00  0.00    -0.237 OA
ATOM     79  O   UNL     1     -10.418 -10.798   7.789  1.00  0.00    -0.237 OA
ATOM     80  O   UNL     1      -8.373  -9.587   7.138  1.00  0.00    -0.744 OA
ENDBRANCH  76  77
ENDBRANCH  55  69
BRANCH  56  81
ATOM     81  C   UNL     1      -6.253  -1.244  11.313  1.00  0.00     0.058 A 
ATOM     82  C   UNL     1      -5.712  -1.955  12.408  1.00  0.00     0.135 A 
ATOM     83  C   UNL     1      -5.323  -0.836  10.338  1.00  0.00     0.135 A 
ATOM     84  F   UNL     1      -6.517  -2.401  13.385  1.00  0.00    -0.206 F 
ATOM     85  C   UNL     1      -4.352  -2.292  12.495  1.00  0.00     0.059 A 
ATOM     86  C   UNL     1      -3.965  -1.154  10.407  1.00  0.00     0.059 A 
ATOM     87  F   UNL     1      -5.723  -0.195   9.230  1.00  0.00    -0.206 F 
ATOM     88  C   UNL     1      -3.488  -1.908  11.472  1.00  0.00     0.060 A 
BRANCH  88  89
ATOM     89  S   UNL     1      -1.774  -2.500  11.463  1.00  0.00     0.124 S 
ATOM     90  O   UNL     1      -1.188  -1.755  12.572  1.00  0.00    -0.237 OA
ATOM     91  O   UNL     1      -1.938  -3.934  11.675  1.00  0.00    -0.237 OA
ATOM     92  O   UNL     1      -1.295  -2.123  10.136  1.00  0.00    -0.744 OA
ENDBRANCH  88  89
ENDBRANCH  56  81
BRANCH  68  93
ATOM     93  C   UNL     1     -12.452  -1.586  12.460  1.00  0.00     0.058 A 
ATOM     94  C   UNL     1     -12.046  -0.238  12.445  1.00  0.00     0.135 A 
ATOM     95  C   UNL     1     -13.476  -1.933  13.352  1.00  0.00     0.135 A 
ATOM     96  F   UNL     1     -11.152   0.204  11.548  1.00  0.00    -0.206 F 
ATOM     97  C   UNL     1     -12.592   0.703  13.323  1.00  0.00     0.059 A 
ATOM     98  C   UNL     1     -14.059  -1.007  14.209  1.00  0.00     0.059 A 
ATOM     99  F   UNL     1     -13.955  -3.188  13.371  1.00  0.00    -0.206 F 
ATOM    100  C   UNL     1     -13.594   0.304  14.208  1.00  0.00     0.060 A 
BRANCH 100 101
ATOM    101  S   UNL     1     -14.312   1.512  15.342  1.00  0.00     0.124 S 
ATOM    102  O   UNL     1     -13.199   1.780  16.247  1.00  0.00    -0.237 OA
ATOM    103  O   UNL     1     -14.682   2.605  14.449  1.00  0.00    -0.237 OA
ATOM    104  O   UNL     1     -15.438   0.795  15.936  1.00  0.00    -0.744 OA
ENDBRANCH 100 101
ENDBRANCH  68  93
ENDBRANCH  42  43
ENDBRANCH  34  37
ENDBRANCH  32  33
ENDBRANCH  31  32
ENDBRANCH  30  31
ENDBRANCH   1  30
TORSDOF 19
