REMARK SMILES O=C(NCCCCCCNC(=O)[C@@H]1CCn2c(C(=O)c3ccccc3)ccc21)c1ccc(-c2c3nc(c(-c4c(F)cc(S(=O)(=O)[O-])cc4F)c4ccc([nH]4)c(-c4c(F)cc(S(=O)(=O)[O-])cc4F)c4nc(c(-c5c(F)cc(S(=O)(=O)[O-])cc5F)c5ccc2[nH]5)C=C4)C=C3)cc1
REMARK SMILES IDX 6 1 5 2 4 3 3 4 1 5 2 6 29 8 30 9 94 10 31 11 93 12 32 13
REMARK SMILES IDX 33 14 34 15 87 16 35 17 92 18 86 19 88 20 36 21 91 22 85 23
REMARK SMILES IDX 84 24 37 26 71 27 50 28 70 29 51 30 54 31 69 32 89 33 52 34
REMARK SMILES IDX 53 35 68 37 90 38 55 39 38 40 39 41 48 42 40 43 41 44 47 45
REMARK SMILES IDX 49 46 42 47 43 48 44 49 45 50 46 51 72 52 73 53 82 54 74 55
REMARK SMILES IDX 75 56 81 57 83 58 76 59 77 60 78 61 79 62 80 63 56 64 57 65
REMARK SMILES IDX 66 66 58 67 59 68 65 69 67 70 60 71 61 72 62 73 63 74 64 75
REMARK SMILES IDX 7 76 8 77 9 78 10 79 11 80 12 82 13 83 14 84 28 85 15 86
REMARK SMILES IDX 16 87 27 88 17 89 26 90 18 91 19 92 20 93 21 94 25 95 22 96
REMARK SMILES IDX 24 97 23 98
REMARK H PARENT 3 7 88 25 54 36 10 81
REMARK Flexibility Score: inf
ROOT
ATOM      1  C   UNL     1       3.935  -3.570  -1.407  1.00  0.00     0.002 C 
ENDROOT
BRANCH   1   2
ATOM      2  C   UNL     1       4.383  -2.639  -0.279  1.00  0.00     0.021 C 
BRANCH   2   3
ATOM      3  C   UNL     1       4.295  -1.152  -0.607  1.00  0.00     0.116 C 
BRANCH   3   4
ATOM      4  N   UNL     1       2.921  -0.707  -0.789  1.00  0.00    -0.352 N 
ATOM      5  O   UNL     1       1.026   0.411  -0.293  1.00  0.00    -0.269 OA
ATOM      6  C   UNL     1       2.239   0.292  -0.137  1.00  0.00     0.251 C 
ATOM      7  H   UNL     1       2.409  -1.191  -1.476  1.00  0.00     0.163 HD
BRANCH   6   8
ATOM      8  C   UNL     1       2.965   1.205   0.773  1.00  0.00     0.039 A 
ATOM      9  C   UNL     1       4.187   1.763   0.391  1.00  0.00     0.014 A 
ATOM     10  C   UNL     1       2.421   1.499   2.026  1.00  0.00     0.014 A 
ATOM     11  C   UNL     1       4.934   2.486   1.315  1.00  0.00     0.010 A 
ATOM     12  C   UNL     1       3.138   2.296   2.925  1.00  0.00     0.010 A 
ATOM     13  C   UNL     1       4.419   2.762   2.592  1.00  0.00    -0.014 A 
BRANCH  13  14
ATOM     14  C   UNL     1       5.234   3.560   3.546  1.00  0.00     0.031 A 
ATOM     15  C   UNL     1       5.751   2.954   4.823  1.00  0.00     0.074 A 
ATOM     16  C   UNL     1       5.546   4.832   3.227  1.00  0.00     0.049 A 
ATOM     17  N   UNL     1       6.520   3.490   5.737  1.00  0.00    -0.248 NA
ATOM     18  C   UNL     1       5.348   1.570   5.121  1.00  0.00     0.031 C 
ATOM     19  C   UNL     1       5.088   5.534   2.025  1.00  0.00     0.029 A 
ATOM     20  N   UNL     1       6.339   5.750   3.865  1.00  0.00    -0.354 N 
ATOM     21  C   UNL     1       6.673   2.526   6.726  1.00  0.00     0.074 A 
ATOM     22  C   UNL     1       5.898   1.375   6.312  1.00  0.00     0.031 C 
ATOM     23  C   UNL     1       5.652   6.750   1.984  1.00  0.00     0.029 A 
ATOM     24  C   UNL     1       6.470   6.934   3.178  1.00  0.00     0.049 A 
ATOM     25  H   UNL     1       6.773   5.578   4.731  1.00  0.00     0.167 HD
ATOM     26  C   UNL     1       7.398   2.591   7.870  1.00  0.00     0.037 A 
ATOM     27  C   UNL     1       7.169   8.045   3.473  1.00  0.00     0.037 A 
ATOM     28  C   UNL     1       8.191   3.729   8.261  1.00  0.00     0.049 A 
ATOM     29  C   UNL     1       7.982   8.083   4.736  1.00  0.00     0.074 A 
ATOM     30  C   UNL     1       8.991   3.877   9.382  1.00  0.00     0.029 A 
ATOM     31  N   UNL     1       8.290   4.912   7.543  1.00  0.00    -0.354 N 
ATOM     32  N   UNL     1       8.134   7.150   5.645  1.00  0.00    -0.248 NA
ATOM     33  C   UNL     1       8.717   9.323   5.012  1.00  0.00     0.031 C 
ATOM     34  C   UNL     1       9.546   5.162   9.359  1.00  0.00     0.029 A 
ATOM     35  C   UNL     1       9.126   5.799   8.203  1.00  0.00     0.049 A 
ATOM     36  H   UNL     1       7.834   5.095   6.691  1.00  0.00     0.167 HD
ATOM     37  C   UNL     1       9.001   7.682   6.591  1.00  0.00     0.074 A 
ATOM     38  C   UNL     1       9.348   9.014   6.137  1.00  0.00     0.031 C 
ATOM     39  C   UNL     1       9.466   7.119   7.734  1.00  0.00     0.037 A 
BRANCH  26  40
ATOM     40  C   UNL     1       7.356   1.403   8.792  1.00  0.00     0.058 A 
ATOM     41  C   UNL     1       8.018   0.204   8.487  1.00  0.00     0.135 A 
ATOM     42  C   UNL     1       6.672   1.479  10.017  1.00  0.00     0.135 A 
ATOM     43  F   UNL     1       8.676   0.072   7.324  1.00  0.00    -0.206 F 
ATOM     44  C   UNL     1       7.982  -0.887   9.350  1.00  0.00     0.059 A 
ATOM     45  C   UNL     1       6.641   0.407  10.906  1.00  0.00     0.059 A 
ATOM     46  F   UNL     1       6.023   2.602  10.361  1.00  0.00    -0.206 F 
ATOM     47  C   UNL     1       7.287  -0.778  10.555  1.00  0.00     0.060 A 
BRANCH  47  48
ATOM     48  S   UNL     1       7.243  -2.204  11.662  1.00  0.00     0.124 S 
ATOM     49  O   UNL     1       6.282  -3.068  10.984  1.00  0.00    -0.237 OA
ATOM     50  O   UNL     1       8.629  -2.662  11.641  1.00  0.00    -0.237 OA
ATOM     51  O   UNL     1       6.793  -1.637  12.930  1.00  0.00    -0.744 OA
ENDBRANCH  47  48
ENDBRANCH  26  40
BRANCH  27  52
ATOM     52  C   UNL     1       7.144   9.201   2.541  1.00  0.00     0.058 A 
ATOM     53  C   UNL     1       8.268   9.532   1.772  1.00  0.00     0.135 A 
ATOM     54  C   UNL     1       5.985   9.976   2.377  1.00  0.00     0.135 A 
ATOM     55  F   UNL     1       9.399   8.822   1.896  1.00  0.00    -0.206 F 
ATOM     56  C   UNL     1       8.251  10.600   0.880  1.00  0.00     0.059 A 
ATOM     57  C   UNL     1       5.935  11.032   1.475  1.00  0.00     0.059 A 
ATOM     58  F   UNL     1       4.878   9.686   3.078  1.00  0.00    -0.206 F 
ATOM     59  C   UNL     1       7.077  11.343   0.737  1.00  0.00     0.060 A 
BRANCH  59  60
ATOM     60  S   UNL     1       7.043  12.693  -0.462  1.00  0.00     0.124 S 
ATOM     61  O   UNL     1       7.777  13.733   0.248  1.00  0.00    -0.237 OA
ATOM     62  O   UNL     1       7.722  12.103  -1.612  1.00  0.00    -0.237 OA
ATOM     63  O   UNL     1       5.616  12.938  -0.646  1.00  0.00    -0.744 OA
ENDBRANCH  59  60
ENDBRANCH  27  52
BRANCH  39  64
ATOM     64  C   UNL     1      10.429   7.932   8.551  1.00  0.00     0.058 A 
ATOM     65  C   UNL     1      10.004   9.028   9.317  1.00  0.00     0.135 A 
ATOM     66  C   UNL     1      11.792   7.596   8.582  1.00  0.00     0.135 A 
ATOM     67  F   UNL     1       8.712   9.393   9.315  1.00  0.00    -0.206 F 
ATOM     68  C   UNL     1      10.903   9.784  10.063  1.00  0.00     0.059 A 
ATOM     69  C   UNL     1      12.704   8.323   9.340  1.00  0.00     0.059 A 
ATOM     70  F   UNL     1      12.247   6.550   7.875  1.00  0.00    -0.206 F 
ATOM     71  C   UNL     1      12.252   9.426  10.065  1.00  0.00     0.060 A 
BRANCH  71  72
ATOM     72  S   UNL     1      13.411  10.403  11.046  1.00  0.00     0.124 S 
ATOM     73  O   UNL     1      13.600  11.573  10.195  1.00  0.00    -0.237 OA
ATOM     74  O   UNL     1      12.666  10.630  12.280  1.00  0.00    -0.237 OA
ATOM     75  O   UNL     1      14.570   9.524  11.174  1.00  0.00    -0.744 OA
ENDBRANCH  71  72
ENDBRANCH  39  64
ENDBRANCH  13  14
ENDBRANCH   6   8
ENDBRANCH   3   4
ENDBRANCH   2   3
ENDBRANCH   1   2
BRANCH   1  76
ATOM     76  C   UNL     1       4.688  -3.402  -2.732  1.00  0.00     0.002 C 
BRANCH  76  77
ATOM     77  C   UNL     1       6.218  -3.466  -2.629  1.00  0.00     0.021 C 
BRANCH  77  78
ATOM     78  C   UNL     1       6.746  -4.807  -2.118  1.00  0.00     0.116 C 
BRANCH  78  79
ATOM     79  N   UNL     1       6.654  -5.823  -3.153  1.00  0.00    -0.356 N 
ATOM     80  C   UNL     1       7.614  -6.403  -3.925  1.00  0.00     0.229 C 
ATOM     81  H   UNL     1       5.741  -6.148  -3.325  1.00  0.00     0.163 HD
ATOM     82  O   UNL     1       7.226  -7.150  -4.830  1.00  0.00    -0.274 OA
BRANCH  80  83
ATOM     83  C   UNL     1       9.107  -6.272  -3.641  1.00  0.00     0.127 C 
ATOM     84  C   UNL     1       9.492  -6.938  -2.299  1.00  0.00     0.042 C 
ATOM     85  C   UNL     1       9.614  -4.885  -3.483  1.00  0.00     0.031 A 
ATOM     86  C   UNL     1      10.526  -6.015  -1.637  1.00  0.00     0.124 C 
ATOM     87  N   UNL     1      10.395  -4.765  -2.364  1.00  0.00    -0.341 N 
ATOM     88  C   UNL     1       9.546  -3.665  -4.096  1.00  0.00     0.025 A 
ATOM     89  C   UNL     1      10.739  -3.467  -2.134  1.00  0.00     0.090 A 
ATOM     90  C   UNL     1      10.230  -2.766  -3.231  1.00  0.00     0.032 A 
BRANCH  89  91
ATOM     91  C   UNL     1      11.411  -2.870  -0.988  1.00  0.00     0.209 C 
ATOM     92  O   UNL     1      11.326  -1.671  -0.732  1.00  0.00    -0.287 OA
BRANCH  91  93
ATOM     93  C   UNL     1      12.223  -3.691  -0.059  1.00  0.00     0.024 A 
ATOM     94  C   UNL     1      12.034  -3.531   1.319  1.00  0.00     0.012 A 
ATOM     95  C   UNL     1      13.203  -4.571  -0.533  1.00  0.00     0.012 A 
ATOM     96  C   UNL     1      12.787  -4.287   2.218  1.00  0.00     0.001 A 
ATOM     97  C   UNL     1      13.947  -5.332   0.370  1.00  0.00     0.001 A 
ATOM     98  C   UNL     1      13.735  -5.193   1.743  1.00  0.00     0.000 A 
ENDBRANCH  91  93
ENDBRANCH  89  91
ENDBRANCH  80  83
ENDBRANCH  78  79
ENDBRANCH  77  78
ENDBRANCH  76  77
ENDBRANCH   1  76
TORSDOF 18
