REMARK SMILES COc1ccc2c(CC(=O)NCCCCCCNC(=O)c3ccc(-c4c5nc(c(-c6c(F)cc(S(=O)(=O)[O-])cc6F)c6ccc([nH]6)c(-c6c(F)cc(S(=O)(=O)[O-])cc6F)c6nc(c(-c7c(F)cc(S(=O)(=O)[O-])cc7F)c7ccc4[nH]7)C=C6)C=C5)cc3)c(C(=O)c3cc(C)ccn3)[nH]c2c1
REMARK SMILES IDX 14 1 13 2 12 3 11 4 9 5 10 6 8 8 7 9 3 10 4 11 99 12 5 13
REMARK SMILES IDX 98 14 6 15 97 16 87 17 2 19 1 20 88 21 89 22 90 23 91 24
REMARK SMILES IDX 96 25 92 26 95 27 93 28 94 29 15 30 16 31 17 32 18 33 19 34
REMARK SMILES IDX 20 36 21 37 22 38 86 39 23 40 85 41 24 42 25 43 26 44 79 45
REMARK SMILES IDX 27 46 84 47 78 48 80 49 28 50 83 51 77 52 76 53 29 55 63 56
REMARK SMILES IDX 42 57 62 58 43 59 46 60 61 61 81 62 44 63 45 64 60 66 82 67
REMARK SMILES IDX 47 68 30 69 31 70 40 71 32 72 33 73 39 74 41 75 34 76 35 77
REMARK SMILES IDX 36 78 37 79 38 80 64 81 65 82 74 83 66 84 67 85 73 86 75 87
REMARK SMILES IDX 68 88 69 89 70 90 71 91 72 92 48 93 49 94 58 95 50 96 51 97
REMARK SMILES IDX 57 98 59 99 52 100 53 101 54 102 55 103 56 104
REMARK H PARENT 11 7 97 18 18 35 80 54 46 65
REMARK Flexibility Score: inf
ROOT
ATOM      1  C   UNL     1       2.337  -8.497  -2.287  1.00  0.00     0.002 C 
ENDROOT
BRANCH   1   2
ATOM      2  C   UNL     1       2.232  -6.973  -2.435  1.00  0.00     0.021 C 
BRANCH   2   3
ATOM      3  C   UNL     1       3.406  -6.334  -3.175  1.00  0.00     0.116 C 
BRANCH   3   4
ATOM      4  N   UNL     1       3.421  -6.688  -4.578  1.00  0.00    -0.356 N 
ATOM      5  C   UNL     1       3.173  -5.921  -5.679  1.00  0.00     0.224 C 
ATOM      6  O   UNL     1       3.416  -6.430  -6.778  1.00  0.00    -0.275 OA
ATOM      7  H   UNL     1       3.646  -7.628  -4.768  1.00  0.00     0.163 HD
BRANCH   5   8
ATOM      8  C   UNL     1       2.764  -4.458  -5.558  1.00  0.00     0.138 C 
BRANCH   8   9
ATOM      9  C   UNL     1       1.542  -4.180  -4.722  1.00  0.00    -0.002 A 
ATOM     10  C   UNL     1       0.831  -1.993  -1.185  1.00  0.00     0.120 A 
ATOM     11  C   UNL     1       2.142  -1.957  -1.653  1.00  0.00     0.047 A 
ATOM     12  C   UNL     1      -0.142  -2.748  -1.848  1.00  0.00     0.073 A 
ATOM     13  C   UNL     1       2.496  -2.636  -2.825  1.00  0.00     0.014 A 
ATOM     14  C   UNL     1       0.229  -3.412  -3.024  1.00  0.00     0.050 A 
ATOM     15  C   UNL     1       1.522  -3.373  -3.533  1.00  0.00     0.004 A 
ATOM     16  N   UNL     1      -0.514  -4.194  -3.873  1.00  0.00    -0.351 N 
ATOM     17  C   UNL     1       0.228  -4.584  -4.969  1.00  0.00     0.093 A 
ATOM     18  H   UNL     1      -1.454  -4.444  -3.719  1.00  0.00     0.167 HD
BRANCH  10  19
ATOM     19  O   UNL     1       0.407  -1.357  -0.048  1.00  0.00    -0.497 OA
ATOM     20  C   UNL     1       0.966  -0.059   0.140  1.00  0.00     0.278 C 
ENDBRANCH  10  19
BRANCH  17  21
ATOM     21  C   UNL     1      -0.296  -5.300  -6.127  1.00  0.00     0.227 C 
ATOM     22  O   UNL     1       0.397  -5.616  -7.096  1.00  0.00    -0.285 OA
BRANCH  21  23
ATOM     23  C   UNL     1      -1.748  -5.611  -6.199  1.00  0.00     0.113 A 
ATOM     24  C   UNL     1      -2.677  -4.575  -6.260  1.00  0.00     0.036 A 
ATOM     25  N   UNL     1      -2.080  -6.925  -6.236  1.00  0.00    -0.253 NA
ATOM     26  C   UNL     1      -4.031  -4.903  -6.360  1.00  0.00    -0.047 A 
ATOM     27  C   UNL     1      -3.390  -7.214  -6.358  1.00  0.00     0.112 A 
ATOM     28  C   UNL     1      -5.087  -3.842  -6.429  1.00  0.00     0.044 C 
ATOM     29  C   UNL     1      -4.388  -6.253  -6.419  1.00  0.00     0.023 A 
ENDBRANCH  21  23
ENDBRANCH  17  21
ENDBRANCH   8   9
ENDBRANCH   5   8
ENDBRANCH   3   4
ENDBRANCH   2   3
ENDBRANCH   1   2
BRANCH   1  30
ATOM     30  C   UNL     1       3.607  -9.005  -1.595  1.00  0.00     0.002 C 
BRANCH  30  31
ATOM     31  C   UNL     1       3.885  -8.406  -0.213  1.00  0.00     0.021 C 
BRANCH  31  32
ATOM     32  C   UNL     1       2.801  -8.667   0.830  1.00  0.00     0.116 C 
BRANCH  32  33
ATOM     33  N   UNL     1       2.659 -10.084   1.129  1.00  0.00    -0.352 N 
ATOM     34  C   UNL     1       2.684 -10.726   2.341  1.00  0.00     0.251 C 
ATOM     35  H   UNL     1       2.524 -10.668   0.347  1.00  0.00     0.163 HD
ATOM     36  O   UNL     1       2.736 -11.955   2.381  1.00  0.00    -0.269 OA
BRANCH  34  37
ATOM     37  C   UNL     1       2.668  -9.947   3.598  1.00  0.00     0.039 A 
ATOM     38  C   UNL     1       3.537 -10.311   4.631  1.00  0.00     0.014 A 
ATOM     39  C   UNL     1       1.789  -8.873   3.768  1.00  0.00     0.014 A 
ATOM     40  C   UNL     1       3.565  -9.564   5.811  1.00  0.00     0.010 A 
ATOM     41  C   UNL     1       1.862  -8.091   4.919  1.00  0.00     0.010 A 
ATOM     42  C   UNL     1       2.749  -8.429   5.953  1.00  0.00    -0.014 A 
BRANCH  42  43
ATOM     43  C   UNL     1       2.814  -7.582   7.172  1.00  0.00     0.031 A 
ATOM     44  C   UNL     1       1.623  -7.473   8.084  1.00  0.00     0.074 A 
ATOM     45  C   UNL     1       3.925  -6.860   7.421  1.00  0.00     0.049 A 
ATOM     46  N   UNL     1       1.465  -6.733   9.151  1.00  0.00    -0.248 NA
ATOM     47  C   UNL     1       0.445  -8.283   7.736  1.00  0.00     0.031 C 
ATOM     48  C   UNL     1       5.127  -6.843   6.585  1.00  0.00     0.029 A 
ATOM     49  N   UNL     1       4.219  -5.991   8.441  1.00  0.00    -0.354 N 
ATOM     50  C   UNL     1       0.169  -6.974   9.593  1.00  0.00     0.074 A 
ATOM     51  C   UNL     1      -0.432  -7.895   8.652  1.00  0.00     0.031 C 
ATOM     52  C   UNL     1       6.034  -6.019   7.135  1.00  0.00     0.029 A 
ATOM     53  C   UNL     1       5.467  -5.423   8.341  1.00  0.00     0.049 A 
ATOM     54  H   UNL     1       3.594  -5.792   9.176  1.00  0.00     0.167 HD
ATOM     55  C   UNL     1      -0.455  -6.490  10.693  1.00  0.00     0.037 A 
ATOM     56  C   UNL     1       6.083  -4.519   9.128  1.00  0.00     0.037 A 
ATOM     57  C   UNL     1       0.158  -5.596  11.642  1.00  0.00     0.049 A 
ATOM     58  C   UNL     1       5.374  -4.003  10.349  1.00  0.00     0.074 A 
ATOM     59  C   UNL     1      -0.369  -5.099  12.821  1.00  0.00     0.029 A 
ATOM     60  N   UNL     1       1.433  -5.064  11.520  1.00  0.00    -0.354 N 
ATOM     61  N   UNL     1       4.171  -4.291  10.786  1.00  0.00    -0.248 NA
ATOM     62  C   UNL     1       6.106  -3.046  11.189  1.00  0.00     0.031 C 
ATOM     63  C   UNL     1       0.573  -4.236  13.392  1.00  0.00     0.029 A 
ATOM     64  C   UNL     1       1.704  -4.230  12.592  1.00  0.00     0.049 A 
ATOM     65  H   UNL     1       2.055  -5.252  10.780  1.00  0.00     0.167 HD
ATOM     66  C   UNL     1       4.011  -3.568  11.963  1.00  0.00     0.074 A 
ATOM     67  C   UNL     1       5.245  -2.840  12.176  1.00  0.00     0.031 C 
ATOM     68  C   UNL     1       2.939  -3.514  12.792  1.00  0.00     0.037 A 
BRANCH  55  69
ATOM     69  C   UNL     1      -1.876  -6.922  10.934  1.00  0.00     0.058 A 
ATOM     70  C   UNL     1      -2.190  -8.233  11.327  1.00  0.00     0.135 A 
ATOM     71  C   UNL     1      -2.933  -6.007  10.802  1.00  0.00     0.135 A 
ATOM     72  F   UNL     1      -1.220  -9.151  11.454  1.00  0.00    -0.206 F 
ATOM     73  C   UNL     1      -3.505  -8.631  11.548  1.00  0.00     0.059 A 
ATOM     74  C   UNL     1      -4.253  -6.376  11.045  1.00  0.00     0.059 A 
ATOM     75  F   UNL     1      -2.690  -4.740  10.431  1.00  0.00    -0.206 F 
ATOM     76  C   UNL     1      -4.530  -7.695  11.402  1.00  0.00     0.060 A 
BRANCH  76  77
ATOM     77  S   UNL     1      -6.231  -8.226  11.692  1.00  0.00     0.124 S 
ATOM     78  O   UNL     1      -6.500  -9.007  10.489  1.00  0.00    -0.237 OA
ATOM     79  O   UNL     1      -6.114  -8.991  12.930  1.00  0.00    -0.237 OA
ATOM     80  O   UNL     1      -6.966  -6.970  11.802  1.00  0.00    -0.744 OA
ENDBRANCH  76  77
ENDBRANCH  55  69
BRANCH  56  81
ATOM     81  C   UNL     1       7.458  -4.062   8.793  1.00  0.00     0.058 A 
ATOM     82  C   UNL     1       8.558  -4.464   9.563  1.00  0.00     0.135 A 
ATOM     83  C   UNL     1       7.700  -3.231   7.689  1.00  0.00     0.135 A 
ATOM     84  F   UNL     1       8.375  -5.253  10.633  1.00  0.00    -0.206 F 
ATOM     85  C   UNL     1       9.851  -4.048   9.261  1.00  0.00     0.059 A 
ATOM     86  C   UNL     1       8.987  -2.820   7.352  1.00  0.00     0.059 A 
ATOM     87  F   UNL     1       6.683  -2.832   6.910  1.00  0.00    -0.206 F 
ATOM     88  C   UNL     1      10.055  -3.227   8.151  1.00  0.00     0.060 A 
BRANCH  88  89
ATOM     89  S   UNL     1      11.742  -2.733   7.735  1.00  0.00     0.124 S 
ATOM     90  O   UNL     1      12.014  -1.729   8.757  1.00  0.00    -0.237 OA
ATOM     91  O   UNL     1      12.471  -3.991   7.864  1.00  0.00    -0.237 OA
ATOM     92  O   UNL     1      11.616  -2.228   6.371  1.00  0.00    -0.744 OA
ENDBRANCH  88  89
ENDBRANCH  56  81
BRANCH  68  93
ATOM     93  C   UNL     1       3.061  -2.657  14.021  1.00  0.00     0.058 A 
ATOM     94  C   UNL     1       3.021  -1.257  13.950  1.00  0.00     0.135 A 
ATOM     95  C   UNL     1       3.169  -3.248  15.291  1.00  0.00     0.135 A 
ATOM     96  F   UNL     1       2.925  -0.643  12.759  1.00  0.00    -0.206 F 
ATOM     97  C   UNL     1       3.106  -0.469  15.093  1.00  0.00     0.059 A 
ATOM     98  C   UNL     1       3.231  -2.480  16.450  1.00  0.00     0.059 A 
ATOM     99  F   UNL     1       3.201  -4.584  15.415  1.00  0.00    -0.206 F 
ATOM    100  C   UNL     1       3.210  -1.090  16.339  1.00  0.00     0.060 A 
BRANCH 100 101
ATOM    101  S   UNL     1       3.286  -0.058  17.818  1.00  0.00     0.124 S 
ATOM    102  O   UNL     1       4.657   0.438  17.760  1.00  0.00    -0.237 OA
ATOM    103  O   UNL     1       2.243   0.931  17.565  1.00  0.00    -0.237 OA
ATOM    104  O   UNL     1       3.002  -0.995  18.901  1.00  0.00    -0.744 OA
ENDBRANCH 100 101
ENDBRANCH  68  93
ENDBRANCH  42  43
ENDBRANCH  34  37
ENDBRANCH  32  33
ENDBRANCH  31  32
ENDBRANCH  30  31
ENDBRANCH   1  30
TORSDOF 20
