REMARK SMILES O=C(NCCCCCCNC(=O)[C@@H]1[C@H](C(=O)Nc2cccc(Cl)c2F)[C@@H]2C=C[C@H]1C2)c1ccc(-c2c3nc(c(-c4c(F)cc(S(=O)(=O)[O-])cc4F)c4ccc([nH]4)c(-c4c(F)cc(S(=O)(=O)[O-])cc4F)c4nc(c(-c5c(F)cc(S(=O)(=O)[O-])cc5F)c5ccc2[nH]5)C=C4)C=C3)cc1
REMARK SMILES IDX 6 1 5 2 4 3 3 4 1 5 2 6 31 8 32 9 96 10 33 11 95 12 34 13
REMARK SMILES IDX 35 14 36 15 89 16 37 17 94 18 88 19 90 20 38 21 93 22 87 23
REMARK SMILES IDX 86 24 39 26 73 27 52 28 72 29 53 30 56 31 71 32 91 33 54 34
REMARK SMILES IDX 55 35 70 37 92 38 57 39 40 40 41 41 50 42 42 43 43 44 49 45
REMARK SMILES IDX 51 46 44 47 45 48 46 49 47 50 48 51 74 52 75 53 84 54 76 55
REMARK SMILES IDX 77 56 83 57 85 58 78 59 79 60 80 61 81 62 82 63 58 64 59 65
REMARK SMILES IDX 68 66 60 67 61 68 67 69 69 70 62 71 63 72 64 73 65 74 66 75
REMARK SMILES IDX 7 76 8 77 9 78 10 79 11 80 12 82 13 83 14 84 29 85 26 86
REMARK SMILES IDX 28 87 30 88 27 89 15 90 16 91 17 92 18 94 19 95 24 96 20 97
REMARK SMILES IDX 22 98 25 99 21 100 23 101
REMARK H PARENT 3 7 90 25 56 36 10 81 17 93
REMARK Flexibility Score: inf
ROOT
ATOM      1  C   UNL     1       4.186  -2.887   2.534  1.00  0.00     0.002 C 
ENDROOT
BRANCH   1   2
ATOM      2  C   UNL     1       4.628  -1.470   2.170  1.00  0.00     0.021 C 
BRANCH   2   3
ATOM      3  C   UNL     1       4.400  -1.071   0.716  1.00  0.00     0.116 C 
BRANCH   3   4
ATOM      4  N   UNL     1       2.991  -0.990   0.373  1.00  0.00    -0.352 N 
ATOM      5  O   UNL     1       1.043   0.031  -0.125  1.00  0.00    -0.269 OA
ATOM      6  C   UNL     1       2.260   0.100  -0.041  1.00  0.00     0.251 C 
ATOM      7  H   UNL     1       2.489  -1.833   0.448  1.00  0.00     0.163 HD
BRANCH   6   8
ATOM      8  C   UNL     1       2.962   1.364  -0.360  1.00  0.00     0.039 A 
ATOM      9  C   UNL     1       4.103   1.361  -1.167  1.00  0.00     0.014 A 
ATOM     10  C   UNL     1       2.473   2.564   0.161  1.00  0.00     0.014 A 
ATOM     11  C   UNL     1       4.832   2.533  -1.337  1.00  0.00     0.010 A 
ATOM     12  C   UNL     1       3.160   3.756  -0.085  1.00  0.00     0.010 A 
ATOM     13  C   UNL     1       4.360   3.747  -0.813  1.00  0.00    -0.014 A 
BRANCH  13  14
ATOM     14  C   UNL     1       5.098   5.006  -1.094  1.00  0.00     0.031 A 
ATOM     15  C   UNL     1       5.717   5.810   0.017  1.00  0.00     0.074 A 
ATOM     16  C   UNL     1       5.205   5.420  -2.372  1.00  0.00     0.049 A 
ATOM     17  N   UNL     1       6.364   6.945  -0.051  1.00  0.00    -0.248 NA
ATOM     18  C   UNL     1       5.586   5.276   1.381  1.00  0.00     0.031 C 
ATOM     19  C   UNL     1       4.638   4.725  -3.531  1.00  0.00     0.029 A 
ATOM     20  N   UNL     1       5.824   6.516  -2.914  1.00  0.00    -0.354 N 
ATOM     21  C   UNL     1       6.701   7.274   1.257  1.00  0.00     0.074 A 
ATOM     22  C   UNL     1       6.163   6.229   2.102  1.00  0.00     0.031 C 
ATOM     23  C   UNL     1       4.962   5.393  -4.647  1.00  0.00     0.029 A 
ATOM     24  C   UNL     1       5.697   6.597  -4.281  1.00  0.00     0.049 A 
ATOM     25  H   UNL     1       6.312   7.182  -2.377  1.00  0.00     0.167 HD
ATOM     26  C   UNL     1       7.400   8.345   1.706  1.00  0.00     0.037 A 
ATOM     27  C   UNL     1       6.101   7.547  -5.144  1.00  0.00     0.037 A 
ATOM     28  C   UNL     1       7.934   9.376   0.851  1.00  0.00     0.049 A 
ATOM     29  C   UNL     1       6.842   8.742  -4.618  1.00  0.00     0.074 A 
ATOM     30  C   UNL     1       8.683  10.486   1.205  1.00  0.00     0.029 A 
ATOM     31  N   UNL     1       7.769   9.432  -0.527  1.00  0.00    -0.354 N 
ATOM     32  N   UNL     1       7.179   9.021  -3.381  1.00  0.00    -0.248 NA
ATOM     33  C   UNL     1       7.257   9.751  -5.600  1.00  0.00     0.031 C 
ATOM     34  C   UNL     1       8.925  11.239   0.051  1.00  0.00     0.029 A 
ATOM     35  C   UNL     1       8.380  10.569  -1.034  1.00  0.00     0.049 A 
ATOM     36  H   UNL     1       7.289   8.762  -1.065  1.00  0.00     0.167 HD
ATOM     37  C   UNL     1       7.867  10.226  -3.438  1.00  0.00     0.074 A 
ATOM     38  C   UNL     1       7.908  10.616  -4.834  1.00  0.00     0.031 C 
ATOM     39  C   UNL     1       8.417  10.943  -2.427  1.00  0.00     0.037 A 
BRANCH  26  40
ATOM     40  C   UNL     1       7.607   8.474   3.193  1.00  0.00     0.058 A 
ATOM     41  C   UNL     1       8.457   7.610   3.903  1.00  0.00     0.135 A 
ATOM     42  C   UNL     1       6.975   9.502   3.914  1.00  0.00     0.135 A 
ATOM     43  F   UNL     1       9.080   6.604   3.270  1.00  0.00    -0.206 F 
ATOM     44  C   UNL     1       8.645   7.738   5.276  1.00  0.00     0.059 A 
ATOM     45  C   UNL     1       7.170   9.666   5.283  1.00  0.00     0.059 A 
ATOM     46  F   UNL     1       6.155  10.360   3.288  1.00  0.00    -0.206 F 
ATOM     47  C   UNL     1       7.995   8.768   5.958  1.00  0.00     0.060 A 
BRANCH  47  48
ATOM     48  S   UNL     1       8.240   8.912   7.741  1.00  0.00     0.124 S 
ATOM     49  O   UNL     1       7.482   7.765   8.232  1.00  0.00    -0.237 OA
ATOM     50  O   UNL     1       9.691   8.812   7.866  1.00  0.00    -0.237 OA
ATOM     51  O   UNL     1       7.676  10.220   8.059  1.00  0.00    -0.744 OA
ENDBRANCH  47  48
ENDBRANCH  26  40
BRANCH  27  52
ATOM     52  C   UNL     1       5.801   7.397  -6.592  1.00  0.00     0.058 A 
ATOM     53  C   UNL     1       6.819   7.136  -7.519  1.00  0.00     0.135 A 
ATOM     54  C   UNL     1       4.482   7.466  -7.071  1.00  0.00     0.135 A 
ATOM     55  F   UNL     1       8.095   7.065  -7.112  1.00  0.00    -0.206 F 
ATOM     56  C   UNL     1       6.544   6.958  -8.871  1.00  0.00     0.059 A 
ATOM     57  C   UNL     1       4.178   7.261  -8.412  1.00  0.00     0.059 A 
ATOM     58  F   UNL     1       3.469   7.694  -6.220  1.00  0.00    -0.206 F 
ATOM     59  C   UNL     1       5.218   7.016  -9.306  1.00  0.00     0.060 A 
BRANCH  59  60
ATOM     60  S   UNL     1       4.868   6.721 -11.053  1.00  0.00     0.124 S 
ATOM     61  O   UNL     1       5.370   7.946 -11.664  1.00  0.00    -0.237 OA
ATOM     62  O   UNL     1       5.640   5.511 -11.319  1.00  0.00    -0.237 OA
ATOM     63  O   UNL     1       3.418   6.549 -11.080  1.00  0.00    -0.744 OA
ENDBRANCH  59  60
ENDBRANCH  27  52
BRANCH  39  64
ATOM     64  C   UNL     1       9.147  12.206  -2.794  1.00  0.00     0.058 A 
ATOM     65  C   UNL     1       8.469  13.359  -3.217  1.00  0.00     0.135 A 
ATOM     66  C   UNL     1      10.545  12.274  -2.676  1.00  0.00     0.135 A 
ATOM     67  F   UNL     1       7.134  13.345  -3.357  1.00  0.00    -0.206 F 
ATOM     68  C   UNL     1       9.153  14.530  -3.530  1.00  0.00     0.059 A 
ATOM     69  C   UNL     1      11.246  13.442  -2.955  1.00  0.00     0.059 A 
ATOM     70  F   UNL     1      11.243  11.201  -2.269  1.00  0.00    -0.206 F 
ATOM     71  C   UNL     1      10.542  14.562  -3.393  1.00  0.00     0.060 A 
BRANCH  71  72
ATOM     72  S   UNL     1      11.413  16.099  -3.766  1.00  0.00     0.124 S 
ATOM     73  O   UNL     1      11.334  16.135  -5.222  1.00  0.00    -0.237 OA
ATOM     74  O   UNL     1      10.608  17.092  -3.062  1.00  0.00    -0.237 OA
ATOM     75  O   UNL     1      12.746  15.876  -3.215  1.00  0.00    -0.744 OA
ENDBRANCH  71  72
ENDBRANCH  39  64
ENDBRANCH  13  14
ENDBRANCH   6   8
ENDBRANCH   3   4
ENDBRANCH   2   3
ENDBRANCH   1   2
BRANCH   1  76
ATOM     76  C   UNL     1       4.747  -3.997   1.650  1.00  0.00     0.002 C 
BRANCH  76  77
ATOM     77  C   UNL     1       6.255  -3.965   1.410  1.00  0.00     0.021 C 
BRANCH  77  78
ATOM     78  C   UNL     1       7.157  -4.045   2.641  1.00  0.00     0.116 C 
BRANCH  78  79
ATOM     79  N   UNL     1       7.008  -5.276   3.396  1.00  0.00    -0.356 N 
ATOM     80  C   UNL     1       7.945  -6.198   3.770  1.00  0.00     0.224 C 
ATOM     81  H   UNL     1       6.088  -5.478   3.684  1.00  0.00     0.163 HD
ATOM     82  O   UNL     1       7.699  -6.925   4.735  1.00  0.00    -0.275 OA
BRANCH  80  83
ATOM     83  C   UNL     1       9.300  -6.217   3.110  1.00  0.00     0.098 C 
ATOM     84  C   UNL     1       9.511  -6.202   1.579  1.00  0.00     0.099 C 
ATOM     85  C   UNL     1      10.269  -7.354   3.556  1.00  0.00     0.025 C 
ATOM     86  C   UNL     1      10.734  -7.140   1.374  1.00  0.00     0.025 C 
ATOM     87  C   UNL     1       9.988  -8.681   2.879  1.00  0.00    -0.027 C 
ATOM     88  C   UNL     1      11.490  -6.966   2.704  1.00  0.00     0.017 C 
ATOM     89  C   UNL     1      10.307  -8.561   1.582  1.00  0.00    -0.027 C 
BRANCH  84  90
ATOM     90  C   UNL     1       8.429  -6.314   0.507  1.00  0.00     0.228 C 
ATOM     91  O   UNL     1       8.446  -5.424  -0.368  1.00  0.00    -0.274 OA
ATOM     92  N   UNL     1       7.517  -7.284   0.247  1.00  0.00    -0.323 N 
ATOM     93  H   UNL     1       6.868  -7.018  -0.444  1.00  0.00     0.170 HD
BRANCH  92  94
ATOM     94  C   UNL     1       7.287  -8.577   0.735  1.00  0.00     0.078 A 
ATOM     95  C   UNL     1       7.355  -9.617  -0.199  1.00  0.00     0.029 A 
ATOM     96  C   UNL     1       6.873  -8.887   2.027  1.00  0.00     0.165 A 
ATOM     97  C   UNL     1       7.196 -10.948   0.198  1.00  0.00     0.004 A 
ATOM     98  C   UNL     1       6.753 -10.215   2.445  1.00  0.00     0.078 A 
ATOM     99  F   UNL     1       6.416  -7.918   2.821  1.00  0.00    -0.203 F 
ATOM    100  C   UNL     1       6.940 -11.251   1.534  1.00  0.00     0.024 A 
ATOM    101  Cl  UNL     1       6.359 -10.598   4.078  1.00  0.00    -0.081 Cl
ENDBRANCH  92  94
ENDBRANCH  84  90
ENDBRANCH  80  83
ENDBRANCH  78  79
ENDBRANCH  77  78
ENDBRANCH  76  77
ENDBRANCH   1  76
TORSDOF 18
