REMARK SMILES C[C@H]1[C@H](C(=O)NCCCCCCNC(=O)c2ccc(-c3c4nc(c(-c5c(F)cc(S(=O)(=O)[O-])cc5F)c5ccc([nH]5)c(-c5c(F)cc(S(=O)(=O)[O-])cc5F)c5nc(c(-c6c(F)cc(S(=O)(=O)[O-])cc6F)c6ccc3[nH]6)C=C5)C=C4)cc2)CC[N@@H+]1Cc1ccc(C(F)(F)F)cc1
REMARK SMILES IDX 9 1 8 2 7 3 6 4 4 5 5 6 3 8 1 9 2 10 84 11 82 12 83 13 85 15
REMARK SMILES IDX 86 16 87 17 95 18 88 19 94 20 89 21 90 22 91 23 92 24 93 25
REMARK SMILES IDX 10 26 11 27 12 28 13 29 14 30 15 32 16 33 17 34 81 35 18 36
REMARK SMILES IDX 80 37 19 38 20 39 21 40 74 41 22 42 79 43 73 44 75 45 23 46
REMARK SMILES IDX 78 47 72 48 71 49 24 51 58 52 37 53 57 54 38 55 41 56 56 57
REMARK SMILES IDX 76 58 39 59 40 60 55 62 77 63 42 64 25 65 26 66 35 67 27 68
REMARK SMILES IDX 28 69 34 70 36 71 29 72 30 73 31 74 32 75 33 76 59 77 60 78
REMARK SMILES IDX 69 79 61 80 62 81 68 82 70 83 63 84 64 85 65 86 66 87 67 88
REMARK SMILES IDX 43 89 44 90 53 91 45 92 46 93 52 94 54 95 47 96 48 97 49 98
REMARK SMILES IDX 50 99 51 100
REMARK H PARENT 6 7 84 14 13 31 75 50 41 61
REMARK Flexibility Score: inf
ROOT
ATOM      1  C   UNL     1       0.466   1.585   5.734  1.00  0.00     0.002 C 
ENDROOT
BRANCH   1   2
ATOM      2  C   UNL     1       0.386   0.774   4.430  1.00  0.00     0.021 C 
BRANCH   2   3
ATOM      3  C   UNL     1      -0.445   1.401   3.299  1.00  0.00     0.116 C 
BRANCH   3   4
ATOM      4  N   UNL     1       0.296   2.372   2.519  1.00  0.00    -0.356 N 
ATOM      5  C   UNL     1       0.587   2.434   1.194  1.00  0.00     0.229 C 
ATOM      6  O   UNL     1       1.110   3.489   0.808  1.00  0.00    -0.275 OA
ATOM      7  H   UNL     1       0.653   3.123   3.045  1.00  0.00     0.163 HD
BRANCH   5   8
ATOM      8  C   UNL     1       0.283   1.348   0.163  1.00  0.00     0.142 C 
ATOM      9  C   UNL     1       2.073  -0.388  -0.147  1.00  0.00     0.076 C 
ATOM     10  C   UNL     1       0.687  -0.110   0.449  1.00  0.00     0.193 C 
ATOM     11  N   UNL     1      -0.295  -0.951  -0.276  1.00  0.00    -0.328 N 
ATOM     12  C   UNL     1      -1.160   1.254  -0.297  1.00  0.00     0.081 C 
ATOM     13  C   UNL     1      -1.141  -0.059  -1.067  1.00  0.00     0.263 C 
ATOM     14  H   UNL     1       0.222  -1.571  -0.899  1.00  0.00     0.348 HD
BRANCH  11  15
ATOM     15  C   UNL     1      -0.988  -2.009   0.486  1.00  0.00     0.299 C 
BRANCH  15  16
ATOM     16  C   UNL     1      -2.037  -1.585   1.498  1.00  0.00     0.006 A 
ATOM     17  C   UNL     1      -1.813  -1.751   2.867  1.00  0.00     0.010 A 
ATOM     18  C   UNL     1      -3.252  -1.006   1.103  1.00  0.00     0.010 A 
ATOM     19  C   UNL     1      -2.683  -1.176   3.799  1.00  0.00     0.013 A 
ATOM     20  C   UNL     1      -4.079  -0.365   2.027  1.00  0.00     0.013 A 
ATOM     21  C   UNL     1      -3.763  -0.385   3.385  1.00  0.00     0.056 A 
BRANCH  21  22
ATOM     22  C   UNL     1      -4.484   0.528   4.347  1.00  0.00     0.416 C 
ATOM     23  F   UNL     1      -4.539   0.052   5.619  1.00  0.00    -0.166 F 
ATOM     24  F   UNL     1      -3.854   1.738   4.438  1.00  0.00    -0.166 F 
ATOM     25  F   UNL     1      -5.763   0.811   3.983  1.00  0.00    -0.166 F 
ENDBRANCH  21  22
ENDBRANCH  15  16
ENDBRANCH  11  15
ENDBRANCH   5   8
ENDBRANCH   3   4
ENDBRANCH   2   3
ENDBRANCH   1   2
BRANCH   1  26
ATOM     26  C   UNL     1      -0.814   1.716   6.577  1.00  0.00     0.002 C 
BRANCH  26  27
ATOM     27  C   UNL     1      -1.504   0.448   7.098  1.00  0.00     0.021 C 
BRANCH  27  28
ATOM     28  C   UNL     1      -0.643  -0.666   7.699  1.00  0.00     0.116 C 
BRANCH  28  29
ATOM     29  N   UNL     1      -0.494  -0.509   9.135  1.00  0.00    -0.352 N 
ATOM     30  C   UNL     1      -1.068  -1.218  10.165  1.00  0.00     0.251 C 
ATOM     31  H   UNL     1       0.111   0.216   9.414  1.00  0.00     0.163 HD
ATOM     32  O   UNL     1      -1.081  -0.717  11.289  1.00  0.00    -0.269 OA
BRANCH  30  33
ATOM     33  C   UNL     1      -1.650  -2.575   9.971  1.00  0.00     0.039 A 
ATOM     34  C   UNL     1      -2.782  -2.934  10.716  1.00  0.00     0.014 A 
ATOM     35  C   UNL     1      -1.019  -3.544   9.185  1.00  0.00     0.014 A 
ATOM     36  C   UNL     1      -3.278  -4.245  10.673  1.00  0.00     0.010 A 
ATOM     37  C   UNL     1      -1.542  -4.843   9.107  1.00  0.00     0.010 A 
ATOM     38  C   UNL     1      -2.660  -5.217   9.871  1.00  0.00    -0.014 A 
BRANCH  38  39
ATOM     39  C   UNL     1      -3.129  -6.634   9.875  1.00  0.00     0.031 A 
ATOM     40  C   UNL     1      -2.251  -7.721  10.446  1.00  0.00     0.074 A 
ATOM     41  C   UNL     1      -4.325  -6.960   9.346  1.00  0.00     0.049 A 
ATOM     42  N   UNL     1      -2.450  -9.016  10.484  1.00  0.00    -0.248 NA
ATOM     43  C   UNL     1      -0.971  -7.297  11.034  1.00  0.00     0.031 C 
ATOM     44  C   UNL     1      -5.267  -6.018   8.741  1.00  0.00     0.029 A 
ATOM     45  N   UNL     1      -4.949  -8.179   9.222  1.00  0.00    -0.354 N 
ATOM     46  C   UNL     1      -1.315  -9.560  11.077  1.00  0.00     0.074 A 
ATOM     47  C   UNL     1      -0.415  -8.459  11.347  1.00  0.00     0.031 C 
ATOM     48  C   UNL     1      -6.353  -6.690   8.322  1.00  0.00     0.029 A 
ATOM     49  C   UNL     1      -6.174  -8.114   8.599  1.00  0.00     0.049 A 
ATOM     50  H   UNL     1      -4.556  -9.020   9.548  1.00  0.00     0.167 HD
ATOM     51  C   UNL     1      -1.051 -10.854  11.388  1.00  0.00     0.037 A 
ATOM     52  C   UNL     1      -7.051  -9.086   8.280  1.00  0.00     0.037 A 
ATOM     53  C   UNL     1      -1.959 -11.948  11.156  1.00  0.00     0.049 A 
ATOM     54  C   UNL     1      -6.742 -10.515   8.639  1.00  0.00     0.074 A 
ATOM     55  C   UNL     1      -1.803 -13.283  11.488  1.00  0.00     0.029 A 
ATOM     56  N   UNL     1      -3.196 -11.834  10.537  1.00  0.00    -0.354 N 
ATOM     57  N   UNL     1      -5.681 -11.003   9.237  1.00  0.00    -0.248 NA
ATOM     58  C   UNL     1      -7.750 -11.525   8.284  1.00  0.00     0.031 C 
ATOM     59  C   UNL     1      -2.930 -13.982  11.041  1.00  0.00     0.029 A 
ATOM     60  C   UNL     1      -3.805 -13.076  10.464  1.00  0.00     0.049 A 
ATOM     61  H   UNL     1      -3.583 -10.994  10.200  1.00  0.00     0.167 HD
ATOM     62  C   UNL     1      -5.904 -12.372   9.349  1.00  0.00     0.074 A 
ATOM     63  C   UNL     1      -7.204 -12.633   8.768  1.00  0.00     0.031 C 
ATOM     64  C   UNL     1      -5.102 -13.325   9.886  1.00  0.00     0.037 A 
BRANCH  51  65
ATOM     65  C   UNL     1       0.281 -11.160  12.018  1.00  0.00     0.058 A 
ATOM     66  C   UNL     1       0.573 -10.791  13.341  1.00  0.00     0.135 A 
ATOM     67  C   UNL     1       1.270 -11.853  11.300  1.00  0.00     0.135 A 
ATOM     68  F   UNL     1      -0.332 -10.118  14.069  1.00  0.00    -0.206 F 
ATOM     69  C   UNL     1       1.809 -11.065  13.918  1.00  0.00     0.059 A 
ATOM     70  C   UNL     1       2.505 -12.161  11.866  1.00  0.00     0.059 A 
ATOM     71  F   UNL     1       1.043 -12.235  10.033  1.00  0.00    -0.206 F 
ATOM     72  C   UNL     1       2.771 -11.745  13.170  1.00  0.00     0.060 A 
BRANCH  72  73
ATOM     73  S   UNL     1       4.378 -12.082  13.922  1.00  0.00     0.124 S 
ATOM     74  O   UNL     1       5.006 -10.764  13.863  1.00  0.00    -0.237 OA
ATOM     75  O   UNL     1       4.006 -12.543  15.260  1.00  0.00    -0.237 OA
ATOM     76  O   UNL     1       4.956 -13.094  13.053  1.00  0.00    -0.744 OA
ENDBRANCH  72  73
ENDBRANCH  51  65
BRANCH  52  77
ATOM     77  C   UNL     1      -8.325  -8.738   7.596  1.00  0.00     0.058 A 
ATOM     78  C   UNL     1      -9.548  -8.790   8.281  1.00  0.00     0.135 A 
ATOM     79  C   UNL     1      -8.344  -8.331   6.253  1.00  0.00     0.135 A 
ATOM     80  F   UNL     1      -9.582  -9.184   9.563  1.00  0.00    -0.206 F 
ATOM     81  C   UNL     1     -10.747  -8.458   7.659  1.00  0.00     0.059 A 
ATOM     82  C   UNL     1      -9.528  -7.973   5.615  1.00  0.00     0.059 A 
ATOM     83  F   UNL     1      -7.199  -8.254   5.558  1.00  0.00    -0.206 F 
ATOM     84  C   UNL     1     -10.726  -8.047   6.325  1.00  0.00     0.060 A 
BRANCH  84  85
ATOM     85  S   UNL     1     -12.279  -7.558   5.542  1.00  0.00     0.124 S 
ATOM     86  O   UNL     1     -12.908  -8.852   5.303  1.00  0.00    -0.237 OA
ATOM     87  O   UNL     1     -12.895  -6.728   6.573  1.00  0.00    -0.237 OA
ATOM     88  O   UNL     1     -11.839  -6.838   4.350  1.00  0.00    -0.744 OA
ENDBRANCH  84  85
ENDBRANCH  52  77
BRANCH  64  89
ATOM     89  C   UNL     1      -5.614 -14.738   9.893  1.00  0.00     0.058 A 
ATOM     90  C   UNL     1      -5.647 -15.514   8.724  1.00  0.00     0.135 A 
ATOM     91  C   UNL     1      -6.029 -15.341  11.092  1.00  0.00     0.135 A 
ATOM     92  F   UNL     1      -5.267 -14.983   7.551  1.00  0.00    -0.206 F 
ATOM     93  C   UNL     1      -6.090 -16.832   8.739  1.00  0.00     0.059 A 
ATOM     94  C   UNL     1      -6.455 -16.665  11.134  1.00  0.00     0.059 A 
ATOM     95  F   UNL     1      -6.008 -14.646  12.240  1.00  0.00    -0.206 F 
ATOM     96  C   UNL     1      -6.492 -17.400   9.950  1.00  0.00     0.060 A 
BRANCH  96  97
ATOM     97  S   UNL     1      -7.031 -19.123   9.964  1.00  0.00     0.124 S 
ATOM     98  O   UNL     1      -8.370 -19.017   9.395  1.00  0.00    -0.237 OA
ATOM     99  O   UNL     1      -6.033 -19.773   9.120  1.00  0.00    -0.237 OA
ATOM    100  O   UNL     1      -6.976 -19.484  11.378  1.00  0.00    -0.744 OA
ENDBRANCH  96  97
ENDBRANCH  64  89
ENDBRANCH  38  39
ENDBRANCH  30  33
ENDBRANCH  28  29
ENDBRANCH  27  28
ENDBRANCH  26  27
ENDBRANCH   1  26
TORSDOF 19
