REMARK SMILES C[C@H](NC(=O)c1c(C(=O)NCCCCCCNC(=O)c2ccc(-c3c4nc(c(-c5c(F)cc(S(=O)(=O)[O-])cc5F)c5ccc([nH]5)c(-c5c(F)cc(S(=O)(=O)[O-])cc5F)c5nc(c(-c6c(F)cc(S(=O)(=O)[O-])cc6F)c6ccc3[nH]6)C=C5)C=C4)cc2)cnn1C)[C@]12C[C@H]3C[C@H](C[C@H](C3)C1)C2
REMARK SMILES IDX 13 1 12 2 11 3 10 4 8 5 9 6 7 8 6 9 88 10 86 11 87 12 89 13
REMARK SMILES IDX 4 14 3 15 5 17 2 18 1 19 90 20 91 21 98 22 99 23 92 24 96 25
REMARK SMILES IDX 94 26 93 27 97 28 95 29 14 30 15 31 16 32 17 33 18 34 19 36
REMARK SMILES IDX 20 37 21 38 85 39 22 40 84 41 23 42 24 43 25 44 78 45 26 46
REMARK SMILES IDX 83 47 77 48 79 49 27 50 82 51 76 52 75 53 28 55 62 56 41 57
REMARK SMILES IDX 61 58 42 59 45 60 60 61 80 62 43 63 44 64 59 66 81 67 46 68
REMARK SMILES IDX 29 69 30 70 39 71 31 72 32 73 38 74 40 75 33 76 34 77 35 78
REMARK SMILES IDX 36 79 37 80 63 81 64 82 73 83 65 84 66 85 72 86 74 87 67 88
REMARK SMILES IDX 68 89 69 90 70 91 71 92 47 93 48 94 57 95 49 96 50 97 56 98
REMARK SMILES IDX 58 99 51 100 52 101 53 102 54 103 55 104
REMARK H PARENT 10 7 3 16 17 35 79 54 45 65
REMARK Flexibility Score: inf
ROOT
ATOM      1  C   UNL     1       4.830  -0.932  -3.627  1.00  0.00     0.002 C 
ENDROOT
BRANCH   1   2
ATOM      2  C   UNL     1       3.682  -0.132  -3.016  1.00  0.00     0.021 C 
BRANCH   2   3
ATOM      3  C   UNL     1       3.822   0.276  -1.556  1.00  0.00     0.116 C 
BRANCH   3   4
ATOM      4  N   UNL     1       4.847   1.254  -1.306  1.00  0.00    -0.352 N 
ATOM      5  C   UNL     1       4.990   2.221  -0.351  1.00  0.00     0.255 C 
ATOM      6  O   UNL     1       6.020   2.905  -0.458  1.00  0.00    -0.269 OA
ATOM      7  H   UNL     1       5.591   1.221  -1.950  1.00  0.00     0.163 HD
BRANCH   5   8
ATOM      8  C   UNL     1       4.045   2.530   0.719  1.00  0.00     0.090 A 
ATOM      9  C   UNL     1       2.926   1.917   1.286  1.00  0.00     0.138 A 
ATOM     10  N   UNL     1       2.579   2.696   2.369  1.00  0.00    -0.262 N 
ATOM     11  C   UNL     1       4.168   3.728   1.485  1.00  0.00     0.149 A 
ATOM     12  N   UNL     1       3.260   3.850   2.450  1.00  0.00    -0.180 NA
ATOM     13  C   UNL     1       1.588   2.416   3.386  1.00  0.00     0.174 C 
BRANCH   9  14
ATOM     14  C   UNL     1       2.252   0.678   1.011  1.00  0.00     0.270 C 
ATOM     15  N   UNL     1       0.996   0.757   0.438  1.00  0.00    -0.348 N 
ATOM     16  H   UNL     1       0.550  -0.109   0.291  1.00  0.00     0.164 HD
ATOM     17  O   UNL     1       2.730  -0.413   1.242  1.00  0.00    -0.267 OA
BRANCH  15  18
ATOM     18  C   UNL     1       0.225   1.935   0.015  1.00  0.00     0.085 C 
ATOM     19  C   UNL     1       0.745   2.449  -1.334  1.00  0.00     0.031 C 
BRANCH  18  20
ATOM     20  C   UNL     1      -1.323   1.673   0.033  1.00  0.00    -0.009 C 
ATOM     21  C   UNL     1      -1.749   0.890   1.310  1.00  0.00     0.012 C 
ATOM     22  C   UNL     1      -1.811   0.872  -1.204  1.00  0.00     0.012 C 
ATOM     23  C   UNL     1      -2.076   3.036   0.058  1.00  0.00     0.012 C 
ATOM     24  C   UNL     1      -3.271   0.680   1.352  1.00  0.00    -0.010 C 
ATOM     25  C   UNL     1      -3.335   0.668  -1.165  1.00  0.00    -0.010 C 
ATOM     26  C   UNL     1      -3.598   2.833   0.099  1.00  0.00    -0.010 C 
ATOM     27  C   UNL     1      -3.967   2.047   1.363  1.00  0.00     0.007 C 
ATOM     28  C   UNL     1      -3.707  -0.108   0.106  1.00  0.00     0.007 C 
ATOM     29  C   UNL     1      -4.030   2.040  -1.143  1.00  0.00     0.007 C 
ENDBRANCH  18  20
ENDBRANCH  15  18
ENDBRANCH   9  14
ENDBRANCH   5   8
ENDBRANCH   3   4
ENDBRANCH   2   3
ENDBRANCH   1   2
BRANCH   1  30
ATOM     30  C   UNL     1       5.292  -2.183  -2.880  1.00  0.00     0.002 C 
BRANCH  30  31
ATOM     31  C   UNL     1       4.223  -3.180  -2.424  1.00  0.00     0.021 C 
BRANCH  31  32
ATOM     32  C   UNL     1       3.203  -3.643  -3.460  1.00  0.00     0.116 C 
BRANCH  32  33
ATOM     33  N   UNL     1       3.794  -4.263  -4.628  1.00  0.00    -0.352 N 
ATOM     34  C   UNL     1       3.445  -5.415  -5.291  1.00  0.00     0.251 C 
ATOM     35  H   UNL     1       4.566  -3.784  -5.006  1.00  0.00     0.163 HD
ATOM     36  O   UNL     1       4.133  -5.790  -6.238  1.00  0.00    -0.269 OA
BRANCH  34  37
ATOM     37  C   UNL     1       2.284  -6.234  -4.866  1.00  0.00     0.039 A 
ATOM     38  C   UNL     1       2.438  -7.627  -4.841  1.00  0.00     0.014 A 
ATOM     39  C   UNL     1       1.045  -5.670  -4.540  1.00  0.00     0.014 A 
ATOM     40  C   UNL     1       1.379  -8.445  -4.430  1.00  0.00     0.010 A 
ATOM     41  C   UNL     1      -0.000  -6.487  -4.091  1.00  0.00     0.010 A 
ATOM     42  C   UNL     1       0.159  -7.880  -4.025  1.00  0.00    -0.014 A 
BRANCH  42  43
ATOM     43  C   UNL     1      -0.949  -8.738  -3.531  1.00  0.00     0.031 A 
ATOM     44  C   UNL     1      -2.189  -8.941  -4.355  1.00  0.00     0.074 A 
ATOM     45  C   UNL     1      -0.857  -9.305  -2.313  1.00  0.00     0.049 A 
ATOM     46  N   UNL     1      -3.280  -9.600  -4.060  1.00  0.00    -0.248 NA
ATOM     47  C   UNL     1      -2.210  -8.303  -5.678  1.00  0.00     0.031 C 
ATOM     48  C   UNL     1       0.272  -9.160  -1.394  1.00  0.00     0.029 A 
ATOM     49  N   UNL     1      -1.736 -10.109  -1.634  1.00  0.00    -0.354 N 
ATOM     50  C   UNL     1      -4.130  -9.435  -5.144  1.00  0.00     0.074 A 
ATOM     51  C   UNL     1      -3.429  -8.607  -6.102  1.00  0.00     0.031 C 
ATOM     52  C   UNL     1       0.020  -9.861  -0.276  1.00  0.00     0.029 A 
ATOM     53  C   UNL     1      -1.292 -10.489  -0.392  1.00  0.00     0.049 A 
ATOM     54  H   UNL     1      -2.605 -10.388  -2.004  1.00  0.00     0.167 HD
ATOM     55  C   UNL     1      -5.377  -9.932  -5.325  1.00  0.00     0.037 A 
ATOM     56  C   UNL     1      -1.874 -11.256   0.551  1.00  0.00     0.037 A 
ATOM     57  C   UNL     1      -6.063 -10.788  -4.393  1.00  0.00     0.049 A 
ATOM     58  C   UNL     1      -3.227 -11.851   0.299  1.00  0.00     0.074 A 
ATOM     59  C   UNL     1      -7.315 -11.367  -4.513  1.00  0.00     0.029 A 
ATOM     60  N   UNL     1      -5.553 -11.200  -3.172  1.00  0.00    -0.354 N 
ATOM     61  N   UNL     1      -4.009 -11.704  -0.742  1.00  0.00    -0.248 NA
ATOM     62  C   UNL     1      -3.778 -12.721   1.345  1.00  0.00     0.031 C 
ATOM     63  C   UNL     1      -7.563 -12.124  -3.360  1.00  0.00     0.029 A 
ATOM     64  C   UNL     1      -6.461 -12.024  -2.529  1.00  0.00     0.049 A 
ATOM     65  H   UNL     1      -4.673 -10.943  -2.814  1.00  0.00     0.167 HD
ATOM     66  C   UNL     1      -5.139 -12.468  -0.480  1.00  0.00     0.074 A 
ATOM     67  C   UNL     1      -4.939 -13.083   0.815  1.00  0.00     0.031 C 
ATOM     68  C   UNL     1      -6.245 -12.637  -1.244  1.00  0.00     0.037 A 
BRANCH  55  69
ATOM     69  C   UNL     1      -6.083  -9.545  -6.589  1.00  0.00     0.058 A 
ATOM     70  C   UNL     1      -5.805 -10.193  -7.805  1.00  0.00     0.135 A 
ATOM     71  C   UNL     1      -7.043  -8.514  -6.579  1.00  0.00     0.135 A 
ATOM     72  F   UNL     1      -4.884 -11.172  -7.864  1.00  0.00    -0.206 F 
ATOM     73  C   UNL     1      -6.445  -9.808  -8.982  1.00  0.00     0.059 A 
ATOM     74  C   UNL     1      -7.702  -8.124  -7.743  1.00  0.00     0.059 A 
ATOM     75  F   UNL     1      -7.336  -7.866  -5.438  1.00  0.00    -0.206 F 
ATOM     76  C   UNL     1      -7.381  -8.765  -8.944  1.00  0.00     0.060 A 
BRANCH  76  77
ATOM     77  S   UNL     1      -8.189  -8.247 -10.477  1.00  0.00     0.124 S 
ATOM     78  O   UNL     1      -7.218  -7.287 -10.995  1.00  0.00    -0.237 OA
ATOM     79  O   UNL     1      -8.300  -9.503 -11.215  1.00  0.00    -0.237 OA
ATOM     80  O   UNL     1      -9.451  -7.683 -10.004  1.00  0.00    -0.744 OA
ENDBRANCH  76  77
ENDBRANCH  55  69
BRANCH  56  81
ATOM     81  C   UNL     1      -1.157 -11.518   1.822  1.00  0.00     0.058 A 
ATOM     82  C   UNL     1      -0.458 -12.723   2.013  1.00  0.00     0.135 A 
ATOM     83  C   UNL     1      -1.133 -10.559   2.849  1.00  0.00     0.135 A 
ATOM     84  F   UNL     1      -0.463 -13.665   1.054  1.00  0.00    -0.206 F 
ATOM     85  C   UNL     1       0.248 -12.972   3.186  1.00  0.00     0.059 A 
ATOM     86  C   UNL     1      -0.425 -10.783   4.026  1.00  0.00     0.059 A 
ATOM     87  F   UNL     1      -1.780  -9.391   2.700  1.00  0.00    -0.206 F 
ATOM     88  C   UNL     1       0.260 -11.994   4.187  1.00  0.00     0.060 A 
BRANCH  88  89
ATOM     89  S   UNL     1       1.235 -12.278   5.684  1.00  0.00     0.124 S 
ATOM     90  O   UNL     1       0.285 -13.016   6.509  1.00  0.00    -0.237 OA
ATOM     91  O   UNL     1       2.370 -13.041   5.173  1.00  0.00    -0.237 OA
ATOM     92  O   UNL     1       1.546 -10.920   6.124  1.00  0.00    -0.744 OA
ENDBRANCH  88  89
ENDBRANCH  56  81
BRANCH  68  93
ATOM     93  C   UNL     1      -7.317 -13.534  -0.704  1.00  0.00     0.058 A 
ATOM     94  C   UNL     1      -8.263 -13.059   0.219  1.00  0.00     0.135 A 
ATOM     95  C   UNL     1      -7.417 -14.869  -1.137  1.00  0.00     0.135 A 
ATOM     96  F   UNL     1      -8.202 -11.792   0.665  1.00  0.00    -0.206 F 
ATOM     97  C   UNL     1      -9.274 -13.885   0.706  1.00  0.00     0.059 A 
ATOM     98  C   UNL     1      -8.425 -15.709  -0.670  1.00  0.00     0.059 A 
ATOM     99  F   UNL     1      -6.534 -15.365  -2.021  1.00  0.00    -0.206 F 
ATOM    100  C   UNL     1      -9.344 -15.210   0.259  1.00  0.00     0.060 A 
BRANCH 100 101
ATOM    101  S   UNL     1     -10.674 -16.276   0.865  1.00  0.00     0.124 S 
ATOM    102  O   UNL     1     -10.090 -16.786   2.102  1.00  0.00    -0.237 OA
ATOM    103  O   UNL     1     -11.783 -15.339   1.024  1.00  0.00    -0.237 OA
ATOM    104  O   UNL     1     -10.828 -17.249  -0.213  1.00  0.00    -0.744 OA
ENDBRANCH 100 101
ENDBRANCH  68  93
ENDBRANCH  42  43
ENDBRANCH  34  37
ENDBRANCH  32  33
ENDBRANCH  31  32
ENDBRANCH  30  31
ENDBRANCH   1  30
TORSDOF 19
