REMARK SMILES Cc1cc(C(=O)NCCCCCCNC(=O)c2ccc(-c3c4nc(c(-c5c(F)cc(S(=O)(=O)[O-])cc5F)c5ccc([nH]5)c(-c5c(F)cc(S(=O)(=O)[O-])cc5F)c5nc(c(-c6c(F)cc(S(=O)(=O)[O-])cc6F)c6ccc3[nH]6)C=C5)C=C4)cc2)c(O)c(S(=O)(=O)N2CCCc3cc(F)cc(F)c32)c1
REMARK SMILES IDX 11 1 10 2 9 3 8 4 7 5 5 6 6 7 4 9 1 10 2 11 3 12 101 13
REMARK SMILES IDX 85 14 83 15 86 16 87 17 88 18 89 19 90 20 100 21 91 22 93 23
REMARK SMILES IDX 98 24 92 25 94 26 97 27 99 28 95 29 96 30 84 31 12 33 13 34
REMARK SMILES IDX 14 35 15 36 16 38 17 39 18 40 82 41 19 42 81 43 20 44 21 45
REMARK SMILES IDX 22 46 75 47 23 48 80 49 74 50 76 51 24 52 79 53 73 54 72 55
REMARK SMILES IDX 25 57 59 58 38 59 58 60 39 61 42 62 57 63 77 64 40 65 41 66
REMARK SMILES IDX 56 68 78 69 43 70 26 71 27 72 36 73 28 74 29 75 35 76 37 77
REMARK SMILES IDX 30 78 31 79 32 80 33 81 34 82 60 83 61 84 70 85 62 86 63 87
REMARK SMILES IDX 69 88 71 89 64 90 65 91 66 92 67 93 68 94 44 95 45 96 54 97
REMARK SMILES IDX 46 98 47 99 53 100 55 101 48 102 49 103 50 104 51 105 52 106
REMARK H PARENT 7 8 84 32 14 37 76 56 42 67
REMARK Flexibility Score: inf
ROOT
ATOM      1  C   UNL     1      -6.524   2.623  -0.203  1.00  0.00     0.002 C 
ENDROOT
BRANCH   1   2
ATOM      2  C   UNL     1      -5.432   2.651   0.870  1.00  0.00     0.002 C 
BRANCH   2   3
ATOM      3  C   UNL     1      -4.357   1.570   0.724  1.00  0.00     0.021 C 
BRANCH   3   4
ATOM      4  C   UNL     1      -3.428   1.758  -0.487  1.00  0.00     0.116 C 
BRANCH   4   5
ATOM      5  N   UNL     1      -2.258   2.555  -0.125  1.00  0.00    -0.352 N 
ATOM      6  C   UNL     1      -0.955   2.228   0.186  1.00  0.00     0.255 C 
ATOM      7  O   UNL     1      -0.191   3.156   0.467  1.00  0.00    -0.269 OA
ATOM      8  H   UNL     1      -2.436   3.523  -0.098  1.00  0.00     0.163 HD
BRANCH   6   9
ATOM      9  C   UNL     1      -0.388   0.846   0.100  1.00  0.00     0.083 A 
ATOM     10  C   UNL     1       3.059  -0.643  -0.448  1.00  0.00     0.044 C 
ATOM     11  C   UNL     1       1.561  -0.568  -0.368  1.00  0.00    -0.049 A 
ATOM     12  C   UNL     1       0.976   0.704  -0.176  1.00  0.00     0.021 A 
ATOM     13  C   UNL     1       0.737  -1.702  -0.487  1.00  0.00     0.029 A 
ATOM     14  C   UNL     1      -0.610  -1.561  -0.173  1.00  0.00     0.130 A 
ATOM     15  C   UNL     1      -1.104  -0.322   0.295  1.00  0.00     0.148 A 
BRANCH  14  16
ATOM     16  S   UNL     1      -1.891  -2.698  -0.607  1.00  0.00     0.268 S 
ATOM     17  O   UNL     1      -2.808  -2.577   0.518  1.00  0.00    -0.201 OA
ATOM     18  O   UNL     1      -2.322  -2.273  -1.923  1.00  0.00    -0.201 OA
BRANCH  16  19
ATOM     19  N   UNL     1      -1.450  -4.388  -0.698  1.00  0.00    -0.263 N 
ATOM     20  C   UNL     1      -0.734  -4.964   0.475  1.00  0.00     0.136 C 
ATOM     21  C   UNL     1      -2.724  -5.086  -1.004  1.00  0.00     0.091 A 
ATOM     22  C   UNL     1      -1.601  -5.811   1.411  1.00  0.00     0.028 C 
ATOM     23  C   UNL     1      -3.613  -5.256   0.078  1.00  0.00    -0.018 A 
ATOM     24  C   UNL     1      -3.233  -5.061  -2.312  1.00  0.00     0.150 A 
ATOM     25  C   UNL     1      -3.060  -5.371   1.473  1.00  0.00     0.040 C 
ATOM     26  C   UNL     1      -4.988  -5.130  -0.149  1.00  0.00     0.045 A 
ATOM     27  C   UNL     1      -4.604  -5.015  -2.540  1.00  0.00     0.080 A 
ATOM     28  F   UNL     1      -2.395  -4.976  -3.356  1.00  0.00    -0.205 F 
ATOM     29  C   UNL     1      -5.463  -4.974  -1.449  1.00  0.00     0.126 A 
ATOM     30  F   UNL     1      -6.766  -4.738  -1.645  1.00  0.00    -0.207 F 
ENDBRANCH  16  19
ENDBRANCH  14  16
BRANCH  15  31
ATOM     31  O   UNL     1      -2.241  -0.240   1.054  1.00  0.00    -0.506 OA
ATOM     32  H   UNL     1      -2.546   0.595   1.352  1.00  0.00     0.293 HD
ENDBRANCH  15  31
ENDBRANCH   6   9
ENDBRANCH   4   5
ENDBRANCH   3   4
ENDBRANCH   2   3
ENDBRANCH   1   2
BRANCH   1  33
ATOM     33  C   UNL     1      -7.305   1.309  -0.315  1.00  0.00     0.021 C 
BRANCH  33  34
ATOM     34  C   UNL     1      -8.061   0.903   0.949  1.00  0.00     0.116 C 
BRANCH  34  35
ATOM     35  N   UNL     1      -9.104   1.860   1.284  1.00  0.00    -0.352 N 
ATOM     36  C   UNL     1     -10.465   1.678   1.381  1.00  0.00     0.251 C 
ATOM     37  H   UNL     1      -8.789   2.775   1.469  1.00  0.00     0.163 HD
ATOM     38  O   UNL     1     -11.209   2.642   1.430  1.00  0.00    -0.269 OA
BRANCH  36  39
ATOM     39  C   UNL     1     -11.019   0.304   1.421  1.00  0.00     0.039 A 
ATOM     40  C   UNL     1     -12.156   0.010   0.664  1.00  0.00     0.014 A 
ATOM     41  C   UNL     1     -10.437  -0.679   2.225  1.00  0.00     0.014 A 
ATOM     42  C   UNL     1     -12.676  -1.287   0.672  1.00  0.00     0.010 A 
ATOM     43  C   UNL     1     -10.915  -1.986   2.178  1.00  0.00     0.010 A 
ATOM     44  C   UNL     1     -12.042  -2.303   1.406  1.00  0.00    -0.014 A 
BRANCH  44  45
ATOM     45  C   UNL     1     -12.544  -3.701   1.378  1.00  0.00     0.031 A 
ATOM     46  C   UNL     1     -13.066  -4.343   2.635  1.00  0.00     0.074 A 
ATOM     47  C   UNL     1     -12.468  -4.412   0.236  1.00  0.00     0.049 A 
ATOM     48  N   UNL     1     -13.483  -5.569   2.825  1.00  0.00    -0.248 NA
ATOM     49  C   UNL     1     -13.099  -3.505   3.845  1.00  0.00     0.031 C 
ATOM     50  C   UNL     1     -11.934  -3.915  -1.034  1.00  0.00     0.029 A 
ATOM     51  N   UNL     1     -12.830  -5.706  -0.042  1.00  0.00    -0.354 N 
ATOM     52  C   UNL     1     -13.815  -5.653   4.172  1.00  0.00     0.074 A 
ATOM     53  C   UNL     1     -13.500  -4.371   4.764  1.00  0.00     0.031 C 
ATOM     54  C   UNL     1     -12.023  -4.885  -1.959  1.00  0.00     0.029 A 
ATOM     55  C   UNL     1     -12.583  -6.083  -1.341  1.00  0.00     0.049 A 
ATOM     56  H   UNL     1     -13.229  -6.309   0.627  1.00  0.00     0.167 HD
ATOM     57  C   UNL     1     -14.354  -6.696   4.849  1.00  0.00     0.037 A 
ATOM     58  C   UNL     1     -12.777  -7.262  -1.963  1.00  0.00     0.037 A 
ATOM     59  C   UNL     1     -14.685  -7.961   4.246  1.00  0.00     0.049 A 
ATOM     60  C   UNL     1     -13.376  -8.406  -1.190  1.00  0.00     0.074 A 
ATOM     61  C   UNL     1     -15.290  -9.060   4.830  1.00  0.00     0.029 A 
ATOM     62  N   UNL     1     -14.438  -8.297   2.922  1.00  0.00    -0.354 N 
ATOM     63  N   UNL     1     -13.744  -8.448   0.068  1.00  0.00    -0.248 NA
ATOM     64  C   UNL     1     -13.590  -9.662  -1.922  1.00  0.00     0.031 C 
ATOM     65  C   UNL     1     -15.366 -10.078   3.873  1.00  0.00     0.029 A 
ATOM     66  C   UNL     1     -14.856  -9.596   2.678  1.00  0.00     0.049 A 
ATOM     67  H   UNL     1     -14.027  -7.702   2.255  1.00  0.00     0.167 HD
ATOM     68  C   UNL     1     -14.255  -9.725   0.273  1.00  0.00     0.074 A 
ATOM     69  C   UNL     1     -14.162 -10.419  -0.995  1.00  0.00     0.031 C 
ATOM     70  C   UNL     1     -14.758 -10.273   1.407  1.00  0.00     0.037 A 
BRANCH  57  71
ATOM     71  C   UNL     1     -14.620  -6.511   6.319  1.00  0.00     0.058 A 
ATOM     72  C   UNL     1     -15.630  -5.654   6.785  1.00  0.00     0.135 A 
ATOM     73  C   UNL     1     -13.877  -7.224   7.274  1.00  0.00     0.135 A 
ATOM     74  F   UNL     1     -16.362  -4.938   5.917  1.00  0.00    -0.206 F 
ATOM     75  C   UNL     1     -15.872  -5.484   8.144  1.00  0.00     0.059 A 
ATOM     76  C   UNL     1     -14.122  -7.092   8.639  1.00  0.00     0.059 A 
ATOM     77  F   UNL     1     -12.899  -8.058   6.887  1.00  0.00    -0.206 F 
ATOM     78  C   UNL     1     -15.111  -6.207   9.064  1.00  0.00     0.060 A 
BRANCH  78  79
ATOM     79  S   UNL     1     -15.438  -5.976  10.824  1.00  0.00     0.124 S 
ATOM     80  O   UNL     1     -14.878  -4.647  11.051  1.00  0.00    -0.237 OA
ATOM     81  O   UNL     1     -16.893  -6.069  10.887  1.00  0.00    -0.237 OA
ATOM     82  O   UNL     1     -14.715  -7.076  11.453  1.00  0.00    -0.744 OA
ENDBRANCH  78  79
ENDBRANCH  57  71
BRANCH  58  83
ATOM     83  C   UNL     1     -12.422  -7.411  -3.399  1.00  0.00     0.058 A 
ATOM     84  C   UNL     1     -13.418  -7.536  -4.380  1.00  0.00     0.135 A 
ATOM     85  C   UNL     1     -11.084  -7.412  -3.824  1.00  0.00     0.135 A 
ATOM     86  F   UNL     1     -14.711  -7.547  -4.023  1.00  0.00    -0.206 F 
ATOM     87  C   UNL     1     -13.101  -7.673  -5.727  1.00  0.00     0.059 A 
ATOM     88  C   UNL     1     -10.743  -7.521  -5.168  1.00  0.00     0.059 A 
ATOM     89  F   UNL     1     -10.094  -7.282  -2.927  1.00  0.00    -0.206 F 
ATOM     90  C   UNL     1     -11.759  -7.662  -6.112  1.00  0.00     0.060 A 
BRANCH  90  91
ATOM     91  S   UNL     1     -11.362  -7.794  -7.869  1.00  0.00     0.124 S 
ATOM     92  O   UNL     1     -11.658  -9.198  -8.132  1.00  0.00    -0.237 OA
ATOM     93  O   UNL     1     -12.277  -6.825  -8.464  1.00  0.00    -0.237 OA
ATOM     94  O   UNL     1      -9.950  -7.426  -7.922  1.00  0.00    -0.744 OA
ENDBRANCH  90  91
ENDBRANCH  58  83
BRANCH  70  95
ATOM     95  C   UNL     1     -15.270 -11.684   1.326  1.00  0.00     0.058 A 
ATOM     96  C   UNL     1     -14.400 -12.779   1.211  1.00  0.00     0.135 A 
ATOM     97  C   UNL     1     -16.647 -11.947   1.417  1.00  0.00     0.135 A 
ATOM     98  F   UNL     1     -13.076 -12.583   1.114  1.00  0.00    -0.206 F 
ATOM     99  C   UNL     1     -14.879 -14.085   1.166  1.00  0.00     0.059 A 
ATOM    100  C   UNL     1     -17.145 -13.245   1.403  1.00  0.00     0.059 A 
ATOM    101  F   UNL     1     -17.522 -10.936   1.539  1.00  0.00    -0.206 F 
ATOM    102  C   UNL     1     -16.253 -14.308   1.265  1.00  0.00     0.060 A 
BRANCH 102 103
ATOM    103  S   UNL     1     -16.857 -16.009   1.242  1.00  0.00     0.124 S 
ATOM    104  O   UNL     1     -16.690 -16.361  -0.164  1.00  0.00    -0.237 OA
ATOM    105  O   UNL     1     -15.952 -16.674   2.174  1.00  0.00    -0.237 OA
ATOM    106  O   UNL     1     -18.238 -15.886   1.699  1.00  0.00    -0.744 OA
ENDBRANCH 102 103
ENDBRANCH  70  95
ENDBRANCH  44  45
ENDBRANCH  36  39
ENDBRANCH  34  35
ENDBRANCH  33  34
ENDBRANCH   1  33
TORSDOF 19
