REMARK SMILES Cc1cccc(C(=O)Nc2cc(C(=O)NCCCCCCNC(=O)c3ccc(-c4c5nc(c(-c6c(F)cc(S(=O)(=O)[O-])cc6F)c6ccc([nH]6)c(-c6c(F)cc(S(=O)(=O)[O-])cc6F)c6nc(c(-c7c(F)cc(S(=O)(=O)[O-])cc7F)c7ccc4[nH]7)C=C6)C=C5)cc3)ccc2N2CC[NH+](CC(=O)NC(C)(C)C)CC2)c1
REMARK SMILES IDX 18 1 17 2 16 3 15 4 13 5 14 6 12 8 10 9 11 10 93 11 92 12
REMARK SMILES IDX 91 13 9 14 7 15 8 16 6 18 1 19 2 20 3 21 108 22 4 23 5 24
REMARK SMILES IDX 94 25 95 26 107 27 96 28 106 29 97 30 98 32 99 33 100 34
REMARK SMILES IDX 101 35 102 37 103 38 104 39 105 40 19 41 20 42 21 43 22 44
REMARK SMILES IDX 23 45 24 47 25 48 26 49 90 50 27 51 89 52 28 53 29 54 30 55
REMARK SMILES IDX 83 56 31 57 88 58 82 59 84 60 32 61 87 62 81 63 80 64 33 66
REMARK SMILES IDX 67 67 46 68 66 69 47 70 50 71 65 72 85 73 48 74 49 75 64 77
REMARK SMILES IDX 86 78 51 79 34 80 35 81 44 82 36 83 37 84 43 85 45 86 38 87
REMARK SMILES IDX 39 88 40 89 41 90 42 91 68 92 69 93 78 94 70 95 71 96 77 97
REMARK SMILES IDX 79 98 72 99 73 100 74 101 75 102 76 103 52 104 53 105 62 106
REMARK SMILES IDX 54 107 55 108 61 109 63 110 56 111 57 112 58 113 59 114
REMARK SMILES IDX 60 115
REMARK H PARENT 15 7 9 17 97 31 101 36 22 46 84 65 50 76
REMARK Flexibility Score: inf
ROOT
ATOM      1  C   UNL     1       1.198  -0.034  -5.463  1.00  0.00     0.002 C 
ENDROOT
BRANCH   1   2
ATOM      2  C   UNL     1       0.998   0.931  -4.288  1.00  0.00     0.021 C 
BRANCH   2   3
ATOM      3  C   UNL     1       1.762   0.550  -3.018  1.00  0.00     0.116 C 
BRANCH   3   4
ATOM      4  N   UNL     1       3.060   1.199  -2.930  1.00  0.00    -0.352 N 
ATOM      5  C   UNL     1       3.507   2.345  -2.317  1.00  0.00     0.251 C 
ATOM      6  O   UNL     1       4.724   2.546  -2.326  1.00  0.00    -0.269 OA
ATOM      7  H   UNL     1       3.769   0.715  -3.410  1.00  0.00     0.163 HD
BRANCH   5   8
ATOM      8  C   UNL     1       2.632   3.325  -1.602  1.00  0.00     0.042 A 
ATOM      9  C   UNL     1       0.499   4.159  -0.826  1.00  0.00     0.065 A 
ATOM     10  C   UNL     1       1.247   3.336  -1.671  1.00  0.00     0.042 A 
ATOM     11  C   UNL     1       1.099   5.163  -0.023  1.00  0.00     0.061 A 
ATOM     12  C   UNL     1       2.495   5.218  -0.041  1.00  0.00     0.029 A 
ATOM     13  C   UNL     1       3.248   4.289  -0.783  1.00  0.00     0.016 A 
BRANCH   9  14
ATOM     14  N   UNL     1      -0.891   3.967  -0.749  1.00  0.00    -0.320 N 
ATOM     15  C   UNL     1      -1.603   2.828  -0.406  1.00  0.00     0.255 C 
ATOM     16  O   UNL     1      -2.821   2.937  -0.237  1.00  0.00    -0.269 OA
ATOM     17  H   UNL     1      -1.438   4.755  -0.972  1.00  0.00     0.170 HD
BRANCH  15  18
ATOM     18  C   UNL     1      -0.983   1.492  -0.133  1.00  0.00     0.040 A 
ATOM     19  C   UNL     1       2.297  -0.201   0.845  1.00  0.00     0.044 C 
ATOM     20  C   UNL     1       0.847   0.001   0.506  1.00  0.00    -0.050 A 
ATOM     21  C   UNL     1       0.054  -1.105   0.184  1.00  0.00     0.003 A 
ATOM     22  C   UNL     1       0.296   1.292   0.411  1.00  0.00     0.017 A 
ATOM     23  C   UNL     1      -1.260  -0.925  -0.244  1.00  0.00     0.001 A 
ATOM     24  C   UNL     1      -1.768   0.364  -0.414  1.00  0.00     0.014 A 
ENDBRANCH  15  18
ENDBRANCH   9  14
BRANCH  11  25
ATOM     25  N   UNL     1       0.335   5.979   0.804  1.00  0.00    -0.359 N 
ATOM     26  C   UNL     1       0.760   7.318   1.257  1.00  0.00     0.178 C 
ATOM     27  C   UNL     1      -0.515   5.315   1.792  1.00  0.00     0.178 C 
ATOM     28  C   UNL     1      -0.464   8.158   1.765  1.00  0.00     0.284 C 
ATOM     29  C   UNL     1      -1.799   6.144   1.963  1.00  0.00     0.284 C 
ATOM     30  N   UNL     1      -1.551   7.479   2.510  1.00  0.00    -0.324 N 
ATOM     31  H   UNL     1      -2.377   8.054   2.343  1.00  0.00     0.348 HD
BRANCH  30  32
ATOM     32  C   UNL     1      -1.488   7.525   3.980  1.00  0.00     0.363 C 
BRANCH  32  33
ATOM     33  C   UNL     1      -0.363   6.725   4.624  1.00  0.00     0.275 C 
ATOM     34  O   UNL     1       0.789   7.181   4.636  1.00  0.00    -0.268 OA
ATOM     35  N   UNL     1      -0.526   5.512   5.221  1.00  0.00    -0.347 N 
ATOM     36  H   UNL     1       0.298   5.252   5.694  1.00  0.00     0.164 HD
BRANCH  35  37
ATOM     37  C   UNL     1      -1.566   4.457   5.380  1.00  0.00     0.032 C 
ATOM     38  C   UNL     1      -1.468   3.401   4.264  1.00  0.00     0.034 C 
ATOM     39  C   UNL     1      -1.238   3.724   6.700  1.00  0.00     0.034 C 
ATOM     40  C   UNL     1      -3.004   4.971   5.486  1.00  0.00     0.034 C 
ENDBRANCH  35  37
ENDBRANCH  32  33
ENDBRANCH  30  32
ENDBRANCH  11  25
ENDBRANCH   5   8
ENDBRANCH   3   4
ENDBRANCH   2   3
ENDBRANCH   1   2
BRANCH   1  41
ATOM     41  C   UNL     1       0.864  -1.512  -5.195  1.00  0.00     0.002 C 
BRANCH  41  42
ATOM     42  C   UNL     1      -0.488  -1.782  -4.530  1.00  0.00     0.021 C 
BRANCH  42  43
ATOM     43  C   UNL     1      -1.673  -1.539  -5.459  1.00  0.00     0.116 C 
BRANCH  43  44
ATOM     44  N   UNL     1      -2.333  -2.772  -5.864  1.00  0.00    -0.352 N 
ATOM     45  C   UNL     1      -3.544  -2.896  -6.522  1.00  0.00     0.251 C 
ATOM     46  H   UNL     1      -1.866  -3.611  -5.645  1.00  0.00     0.163 HD
ATOM     47  O   UNL     1      -4.186  -3.929  -6.545  1.00  0.00    -0.269 OA
BRANCH  45  48
ATOM     48  C   UNL     1      -3.948  -1.738  -7.345  1.00  0.00     0.039 A 
ATOM     49  C   UNL     1      -3.760  -1.853  -8.728  1.00  0.00     0.014 A 
ATOM     50  C   UNL     1      -4.186  -0.506  -6.744  1.00  0.00     0.014 A 
ATOM     51  C   UNL     1      -3.639  -0.702  -9.499  1.00  0.00     0.010 A 
ATOM     52  C   UNL     1      -3.994   0.635  -7.499  1.00  0.00     0.010 A 
ATOM     53  C   UNL     1      -3.671   0.537  -8.864  1.00  0.00    -0.014 A 
BRANCH  53  54
ATOM     54  C   UNL     1      -3.309   1.792  -9.515  1.00  0.00     0.031 A 
ATOM     55  C   UNL     1      -4.357   2.781  -9.850  1.00  0.00     0.074 A 
ATOM     56  C   UNL     1      -2.008   2.108  -9.687  1.00  0.00     0.049 A 
ATOM     57  N   UNL     1      -4.179   3.820 -10.594  1.00  0.00    -0.248 NA
ATOM     58  C   UNL     1      -5.730   2.638  -9.386  1.00  0.00     0.031 C 
ATOM     59  C   UNL     1      -1.447   3.431  -9.946  1.00  0.00     0.029 A 
ATOM     60  N   UNL     1      -0.936   1.232  -9.880  1.00  0.00    -0.354 N 
ATOM     61  C   UNL     1      -5.302   4.611 -10.498  1.00  0.00     0.074 A 
ATOM     62  C   UNL     1      -6.256   3.804  -9.772  1.00  0.00     0.031 C 
ATOM     63  C   UNL     1      -0.237   3.287 -10.506  1.00  0.00     0.029 A 
ATOM     64  C   UNL     1      -0.053   1.873 -10.778  1.00  0.00     0.049 A 
ATOM     65  H   UNL     1      -0.820   0.344  -9.471  1.00  0.00     0.167 HD
ATOM     66  C   UNL     1      -5.249   5.900 -10.948  1.00  0.00     0.037 A 
ATOM     67  C   UNL     1       0.181   1.341 -12.015  1.00  0.00     0.037 A 
ATOM     68  C   UNL     1      -3.997   6.163 -11.661  1.00  0.00     0.049 A 
ATOM     69  C   UNL     1      -0.281   2.203 -13.177  1.00  0.00     0.074 A 
ATOM     70  C   UNL     1      -2.792   6.768 -11.339  1.00  0.00     0.029 A 
ATOM     71  N   UNL     1      -3.779   5.507 -12.859  1.00  0.00    -0.354 N 
ATOM     72  N   UNL     1      -0.869   3.362 -13.055  1.00  0.00    -0.248 NA
ATOM     73  C   UNL     1      -0.180   1.781 -14.576  1.00  0.00     0.031 C 
ATOM     74  C   UNL     1      -1.840   6.430 -12.346  1.00  0.00     0.029 A 
ATOM     75  C   UNL     1      -2.469   5.626 -13.279  1.00  0.00     0.049 A 
ATOM     76  H   UNL     1      -4.473   5.015 -13.352  1.00  0.00     0.167 HD
ATOM     77  C   UNL     1      -1.291   3.790 -14.287  1.00  0.00     0.074 A 
ATOM     78  C   UNL     1      -0.810   2.783 -15.213  1.00  0.00     0.031 C 
ATOM     79  C   UNL     1      -2.053   4.905 -14.470  1.00  0.00     0.037 A 
BRANCH  66  80
ATOM     80  C   UNL     1      -6.234   6.983 -10.548  1.00  0.00     0.058 A 
ATOM     81  C   UNL     1      -5.827   8.334 -10.483  1.00  0.00     0.135 A 
ATOM     82  C   UNL     1      -7.566   6.759 -10.151  1.00  0.00     0.135 A 
ATOM     83  F   UNL     1      -4.626   8.727 -10.929  1.00  0.00    -0.206 F 
ATOM     84  C   UNL     1      -6.626   9.347  -9.947  1.00  0.00     0.059 A 
ATOM     85  C   UNL     1      -8.364   7.740  -9.553  1.00  0.00     0.059 A 
ATOM     86  F   UNL     1      -8.179   5.592 -10.383  1.00  0.00    -0.206 F 
ATOM     87  C   UNL     1      -7.879   9.033  -9.441  1.00  0.00     0.060 A 
BRANCH  87  88
ATOM     88  S   UNL     1      -8.855  10.327  -8.655  1.00  0.00     0.124 S 
ATOM     89  O   UNL     1      -7.933  10.835  -7.643  1.00  0.00    -0.237 OA
ATOM     90  O   UNL     1      -9.130  11.223  -9.772  1.00  0.00    -0.237 OA
ATOM     91  O   UNL     1     -10.013   9.608  -8.129  1.00  0.00    -0.744 OA
ENDBRANCH  87  88
ENDBRANCH  66  80
BRANCH  67  92
ATOM     92  C   UNL     1       0.200  -0.149 -11.992  1.00  0.00     0.058 A 
ATOM     93  C   UNL     1       1.204  -0.778 -11.228  1.00  0.00     0.135 A 
ATOM     94  C   UNL     1      -0.941  -0.899 -12.307  1.00  0.00     0.135 A 
ATOM     95  F   UNL     1       2.326  -0.110 -10.912  1.00  0.00    -0.206 F 
ATOM     96  C   UNL     1       1.008  -2.027 -10.651  1.00  0.00     0.059 A 
ATOM     97  C   UNL     1      -1.150  -2.163 -11.753  1.00  0.00     0.059 A 
ATOM     98  F   UNL     1      -1.927  -0.357 -13.037  1.00  0.00    -0.206 F 
ATOM     99  C   UNL     1      -0.203  -2.680 -10.867  1.00  0.00     0.060 A 
BRANCH  99 100
ATOM    100  S   UNL     1      -0.583  -4.116  -9.834  1.00  0.00     0.124 S 
ATOM    101  O   UNL     1       0.492  -5.036 -10.185  1.00  0.00    -0.237 OA
ATOM    102  O   UNL     1      -0.511  -3.547  -8.488  1.00  0.00    -0.237 OA
ATOM    103  O   UNL     1      -1.917  -4.503 -10.278  1.00  0.00    -0.744 OA
ENDBRANCH  99 100
ENDBRANCH  67  92
BRANCH  79 104
ATOM    104  C   UNL     1      -2.488   5.383 -15.824  1.00  0.00     0.058 A 
ATOM    105  C   UNL     1      -1.572   5.580 -16.870  1.00  0.00     0.135 A 
ATOM    106  C   UNL     1      -3.819   5.780 -16.072  1.00  0.00     0.135 A 
ATOM    107  F   UNL     1      -0.277   5.262 -16.712  1.00  0.00    -0.206 F 
ATOM    108  C   UNL     1      -1.956   6.116 -18.099  1.00  0.00     0.059 A 
ATOM    109  C   UNL     1      -4.215   6.360 -17.274  1.00  0.00     0.059 A 
ATOM    110  F   UNL     1      -4.782   5.590 -15.158  1.00  0.00    -0.206 F 
ATOM    111  C   UNL     1      -3.281   6.507 -18.290  1.00  0.00     0.060 A 
BRANCH 111 112
ATOM    112  S   UNL     1      -3.778   7.237 -19.863  1.00  0.00     0.124 S 
ATOM    113  O   UNL     1      -2.581   7.965 -20.274  1.00  0.00    -0.237 OA
ATOM    114  O   UNL     1      -4.093   6.048 -20.648  1.00  0.00    -0.237 OA
ATOM    115  O   UNL     1      -4.917   8.074 -19.499  1.00  0.00    -0.744 OA
ENDBRANCH 111 112
ENDBRANCH  79 104
ENDBRANCH  53  54
ENDBRANCH  45  48
ENDBRANCH  43  44
ENDBRANCH  42  43
ENDBRANCH  41  42
ENDBRANCH   1  41
TORSDOF 22
