REMARK SMILES CCN(Cc1ccc(Br)s1)C(=O)C[N@@H+](C)CC(=O)NCCCCCCNC(=O)c1ccc(-c2c3nc(c(-c4c(F)cc(S(=O)(=O)[O-])cc4F)c4ccc([nH]4)c(-c4c(F)cc(S(=O)(=O)[O-])cc4F)c4nc(c(-c5c(F)cc(S(=O)(=O)[O-])cc5F)c5ccc2[nH]5)C=C4)C=C3)cc1
REMARK SMILES IDX 21 1 20 2 19 3 17 4 18 5 16 7 14 8 15 9 13 11 11 12 12 13
REMARK SMILES IDX 3 14 2 15 1 16 4 17 5 18 6 19 10 20 7 21 8 22 9 23 22 24
REMARK SMILES IDX 23 25 24 26 25 27 26 28 27 29 28 31 29 32 30 33 94 34 31 35
REMARK SMILES IDX 93 36 32 37 33 38 34 39 87 40 35 41 92 42 86 43 88 44 36 45
REMARK SMILES IDX 91 46 85 47 84 48 37 50 71 51 50 52 70 53 51 54 54 55 69 56
REMARK SMILES IDX 89 57 52 58 53 59 68 61 90 62 55 63 38 64 39 65 48 66 40 67
REMARK SMILES IDX 41 68 47 69 49 70 42 71 43 72 44 73 45 74 46 75 72 76 73 77
REMARK SMILES IDX 82 78 74 79 75 80 81 81 83 82 76 83 77 84 78 85 79 86 80 87
REMARK SMILES IDX 56 88 57 89 66 90 58 91 59 92 65 93 67 94 60 95 61 96 62 97
REMARK SMILES IDX 63 98 64 99
REMARK H PARENT 19 6 14 10 26 30 88 49 54 60
REMARK Flexibility Score: inf
ROOT
ATOM      1  C   UNL     1       5.480   6.285  -2.968  1.00  0.00     0.021 C 
ENDROOT
BRANCH   1   2
ATOM      2  C   UNL     1       4.997   5.102  -3.811  1.00  0.00     0.116 C 
BRANCH   2   3
ATOM      3  N   UNL     1       5.319   3.856  -3.153  1.00  0.00    -0.351 N 
ATOM      4  C   UNL     1       4.512   2.974  -2.501  1.00  0.00     0.275 C 
ATOM      5  O   UNL     1       5.061   2.033  -1.922  1.00  0.00    -0.269 OA
ATOM      6  H   UNL     1       6.271   3.605  -3.180  1.00  0.00     0.163 HD
BRANCH   4   7
ATOM      7  C   UNL     1       2.985   3.103  -2.536  1.00  0.00     0.363 C 
BRANCH   7   8
ATOM      8  N   UNL     1       2.363   3.996  -1.537  1.00  0.00    -0.322 N 
ATOM      9  C   UNL     1       2.276   5.389  -1.928  1.00  0.00     0.333 C 
ATOM     10  H   UNL     1       1.403   3.653  -1.520  1.00  0.00     0.348 HD
BRANCH   8  11
ATOM     11  C   UNL     1       2.868   3.840  -0.161  1.00  0.00     0.363 C 
BRANCH  11  12
ATOM     12  C   UNL     1       2.376   2.543   0.496  1.00  0.00     0.278 C 
ATOM     13  O   UNL     1       3.202   1.733   0.931  1.00  0.00    -0.268 OA
BRANCH  12  14
ATOM     14  N   UNL     1       1.006   2.321   0.643  1.00  0.00    -0.333 N 
BRANCH  14  15
ATOM     15  C   UNL     1       0.594   1.014   1.147  1.00  0.00     0.116 C 
ATOM     16  C   UNL     1       0.760  -0.075   0.094  1.00  0.00     0.027 C 
ENDBRANCH  14  15
BRANCH  14  17
ATOM     17  C   UNL     1      -0.055   3.241   0.221  1.00  0.00     0.166 C 
BRANCH  17  18
ATOM     18  C   UNL     1      -0.076   4.527   1.007  1.00  0.00     0.025 A 
ATOM     19  C   UNL     1      -0.385   5.791   0.529  1.00  0.00     0.018 A 
ATOM     20  S   UNL     1       0.279   4.586   2.689  1.00  0.00    -0.131 S 
ATOM     21  C   UNL     1      -0.179   6.814   1.502  1.00  0.00     0.028 A 
ATOM     22  C   UNL     1       0.203   6.278   2.704  1.00  0.00     0.070 A 
ATOM     23  Br  UNL     1       0.595   7.310   4.216  1.00  0.00    -0.039 Br
ENDBRANCH  17  18
ENDBRANCH  14  17
ENDBRANCH  12  14
ENDBRANCH  11  12
ENDBRANCH   8  11
ENDBRANCH   7   8
ENDBRANCH   4   7
ENDBRANCH   2   3
ENDBRANCH   1   2
BRANCH   1  24
ATOM     24  C   UNL     1       6.964   6.615  -3.138  1.00  0.00     0.002 C 
BRANCH  24  25
ATOM     25  C   UNL     1       7.363   7.082  -4.540  1.00  0.00     0.002 C 
BRANCH  25  26
ATOM     26  C   UNL     1       6.542   8.248  -5.099  1.00  0.00     0.021 C 
BRANCH  26  27
ATOM     27  C   UNL     1       6.513   9.495  -4.218  1.00  0.00     0.116 C 
BRANCH  27  28
ATOM     28  N   UNL     1       7.845  10.036  -3.999  1.00  0.00    -0.352 N 
ATOM     29  C   UNL     1       8.359  11.259  -4.350  1.00  0.00     0.251 C 
ATOM     30  H   UNL     1       8.469   9.437  -3.529  1.00  0.00     0.163 HD
ATOM     31  O   UNL     1       9.568  11.457  -4.285  1.00  0.00    -0.269 OA
BRANCH  29  32
ATOM     32  C   UNL     1       7.455  12.331  -4.818  1.00  0.00     0.039 A 
ATOM     33  C   UNL     1       7.805  13.062  -5.956  1.00  0.00     0.014 A 
ATOM     34  C   UNL     1       6.273  12.621  -4.130  1.00  0.00     0.014 A 
ATOM     35  C   UNL     1       6.937  14.043  -6.440  1.00  0.00     0.010 A 
ATOM     36  C   UNL     1       5.380  13.555  -4.650  1.00  0.00     0.010 A 
ATOM     37  C   UNL     1       5.703  14.274  -5.810  1.00  0.00    -0.014 A 
BRANCH  37  38
ATOM     38  C   UNL     1       4.728  15.245  -6.367  1.00  0.00     0.031 A 
ATOM     39  C   UNL     1       4.354  16.478  -5.592  1.00  0.00     0.074 A 
ATOM     40  C   UNL     1       4.124  14.976  -7.540  1.00  0.00     0.049 A 
ATOM     41  N   UNL     1       3.477  17.403  -5.886  1.00  0.00    -0.248 NA
ATOM     42  C   UNL     1       5.035  16.681  -4.304  1.00  0.00     0.031 C 
ATOM     43  C   UNL     1       4.360  13.783  -8.356  1.00  0.00     0.029 A 
ATOM     44  N   UNL     1       3.177  15.677  -8.243  1.00  0.00    -0.354 N 
ATOM     45  C   UNL     1       3.494  18.294  -4.821  1.00  0.00     0.074 A 
ATOM     46  C   UNL     1       4.428  17.767  -3.847  1.00  0.00     0.031 C 
ATOM     47  C   UNL     1       3.586  13.839  -9.451  1.00  0.00     0.029 A 
ATOM     48  C   UNL     1       2.776  15.053  -9.400  1.00  0.00     0.049 A 
ATOM     49  H   UNL     1       2.818  16.544  -7.946  1.00  0.00     0.167 HD
ATOM     50  C   UNL     1       2.813  19.457  -4.676  1.00  0.00     0.037 A 
ATOM     51  C   UNL     1       1.853  15.410 -10.314  1.00  0.00     0.037 A 
ATOM     52  C   UNL     1       1.892  19.979  -5.653  1.00  0.00     0.049 A 
ATOM     53  C   UNL     1       1.109  16.703 -10.138  1.00  0.00     0.074 A 
ATOM     54  C   UNL     1       1.197  21.175  -5.630  1.00  0.00     0.029 A 
ATOM     55  N   UNL     1       1.530  19.331  -6.826  1.00  0.00    -0.354 N 
ATOM     56  N   UNL     1       1.191  17.572  -9.159  1.00  0.00    -0.248 NA
ATOM     57  C   UNL     1       0.153  17.069 -11.192  1.00  0.00     0.031 C 
ATOM     58  C   UNL     1       0.383  21.230  -6.767  1.00  0.00     0.029 A 
ATOM     59  C   UNL     1       0.603  20.089  -7.522  1.00  0.00     0.049 A 
ATOM     60  H   UNL     1       1.882  18.459  -7.120  1.00  0.00     0.167 HD
ATOM     61  C   UNL     1       0.305  18.593  -9.482  1.00  0.00     0.074 A 
ATOM     62  C   UNL     1      -0.288  18.242 -10.757  1.00  0.00     0.031 C 
ATOM     63  C   UNL     1       0.009  19.718  -8.784  1.00  0.00     0.037 A 
BRANCH  50  64
ATOM     64  C   UNL     1       3.042  20.235  -3.408  1.00  0.00     0.058 A 
ATOM     65  C   UNL     1       4.267  20.873  -3.147  1.00  0.00     0.135 A 
ATOM     66  C   UNL     1       2.031  20.342  -2.440  1.00  0.00     0.135 A 
ATOM     67  F   UNL     1       5.272  20.793  -4.034  1.00  0.00    -0.206 F 
ATOM     68  C   UNL     1       4.498  21.544  -1.952  1.00  0.00     0.059 A 
ATOM     69  C   UNL     1       2.231  21.035  -1.249  1.00  0.00     0.059 A 
ATOM     70  F   UNL     1       0.839  19.757  -2.638  1.00  0.00    -0.206 F 
ATOM     71  C   UNL     1       3.476  21.612  -1.004  1.00  0.00     0.060 A 
BRANCH  71  72
ATOM     72  S   UNL     1       3.802  22.454   0.559  1.00  0.00     0.124 S 
ATOM     73  O   UNL     1       4.634  21.472   1.248  1.00  0.00    -0.237 OA
ATOM     74  O   UNL     1       4.485  23.669   0.125  1.00  0.00    -0.237 OA
ATOM     75  O   UNL     1       2.470  22.654   1.121  1.00  0.00    -0.744 OA
ENDBRANCH  71  72
ENDBRANCH  50  64
BRANCH  51  76
ATOM     76  C   UNL     1       1.604  14.524 -11.481  1.00  0.00     0.058 A 
ATOM     77  C   UNL     1       2.065  14.867 -12.760  1.00  0.00     0.135 A 
ATOM     78  C   UNL     1       0.958  13.288 -11.327  1.00  0.00     0.135 A 
ATOM     79  F   UNL     1       2.683  16.042 -12.957  1.00  0.00    -0.206 F 
ATOM     80  C   UNL     1       1.900  14.014 -13.846  1.00  0.00     0.059 A 
ATOM     81  C   UNL     1       0.800  12.408 -12.393  1.00  0.00     0.059 A 
ATOM     82  F   UNL     1       0.515  12.907 -10.118  1.00  0.00    -0.206 F 
ATOM     83  C   UNL     1       1.274  12.781 -13.650  1.00  0.00     0.060 A 
BRANCH  83  84
ATOM     84  S   UNL     1       1.149  11.640 -15.044  1.00  0.00     0.124 S 
ATOM     85  O   UNL     1       0.097  12.263 -15.840  1.00  0.00    -0.237 OA
ATOM     86  O   UNL     1       2.494  11.696 -15.607  1.00  0.00    -0.237 OA
ATOM     87  O   UNL     1       0.796  10.374 -14.409  1.00  0.00    -0.744 OA
ENDBRANCH  83  84
ENDBRANCH  51  76
BRANCH  63  88
ATOM     88  C   UNL     1      -1.002  20.655  -9.385  1.00  0.00     0.058 A 
ATOM     89  C   UNL     1      -2.371  20.345  -9.396  1.00  0.00     0.135 A 
ATOM     90  C   UNL     1      -0.605  21.895  -9.910  1.00  0.00     0.135 A 
ATOM     91  F   UNL     1      -2.802  19.169  -8.914  1.00  0.00    -0.206 F 
ATOM     92  C   UNL     1      -3.310  21.225  -9.925  1.00  0.00     0.059 A 
ATOM     93  C   UNL     1      -1.529  22.801 -10.420  1.00  0.00     0.059 A 
ATOM     94  F   UNL     1       0.692  22.243  -9.915  1.00  0.00    -0.206 F 
ATOM     95  C   UNL     1      -2.879  22.452 -10.433  1.00  0.00     0.060 A 
BRANCH  95  96
ATOM     96  S   UNL     1      -4.112  23.600 -11.083  1.00  0.00     0.124 S 
ATOM     97  O   UNL     1      -4.452  22.975 -12.357  1.00  0.00    -0.237 OA
ATOM     98  O   UNL     1      -5.151  23.557 -10.059  1.00  0.00    -0.237 OA
ATOM     99  O   UNL     1      -3.384  24.862 -11.176  1.00  0.00    -0.744 OA
ENDBRANCH  95  96
ENDBRANCH  63  88
ENDBRANCH  37  38
ENDBRANCH  29  32
ENDBRANCH  27  28
ENDBRANCH  26  27
ENDBRANCH  25  26
ENDBRANCH  24  25
ENDBRANCH   1  24
TORSDOF 23
