REMARK SMILES Cc1ccc(-c2cc(Cl)cc3c2O[C@H](C(F)(F)F)C(C(=O)NCCCCCCNC(=O)c2ccc(-c4c5nc(c(-c6c(F)cc(S(=O)(=O)[O-])cc6F)c6ccc([nH]6)c(-c6c(F)cc(S(=O)(=O)[O-])cc6F)c6nc(c(-c7c(F)cc(S(=O)(=O)[O-])cc7F)c7ccc4[nH]7)C=C6)C=C5)cc2)=C3)cc1F
REMARK SMILES IDX 26 1 25 2 24 3 23 4 22 5 20 6 21 7 19 9 6 10 7 11 12 12 8 13
REMARK SMILES IDX 11 14 13 15 9 16 10 17 98 18 14 19 5 20 1 21 2 22 3 23
REMARK SMILES IDX 100 24 4 25 99 26 101 27 15 28 16 29 17 30 18 31 27 32 28 33
REMARK SMILES IDX 29 34 30 35 31 37 32 38 33 39 97 40 34 41 96 42 35 43 36 44
REMARK SMILES IDX 37 45 90 46 38 47 95 48 89 49 91 50 39 51 94 52 88 53 87 54
REMARK SMILES IDX 40 56 74 57 53 58 73 59 54 60 57 61 72 62 92 63 55 64 56 65
REMARK SMILES IDX 71 67 93 68 58 69 41 70 42 71 51 72 43 73 44 74 50 75 52 76
REMARK SMILES IDX 45 77 46 78 47 79 48 80 49 81 75 82 76 83 85 84 77 85 78 86
REMARK SMILES IDX 84 87 86 88 79 89 80 90 81 91 82 92 83 93 59 94 60 95 69 96
REMARK SMILES IDX 61 97 62 98 68 99 70 100 63 101 64 102 65 103 66 104 67 105
REMARK H PARENT 22 8 29 36 91 55 57 66
REMARK Flexibility Score: inf
ROOT
ATOM      1  C   UNL     1      -0.440  -4.576   8.598  1.00  0.00     0.002 C 
ENDROOT
BRANCH   1   2
ATOM      2  C   UNL     1      -1.917  -4.328   8.285  1.00  0.00     0.002 C 
BRANCH   2   3
ATOM      3  C   UNL     1      -2.170  -3.744   6.895  1.00  0.00     0.021 C 
BRANCH   3   4
ATOM      4  C   UNL     1      -1.787  -4.718   5.782  1.00  0.00     0.116 C 
BRANCH   4   5
ATOM      5  N   UNL     1      -2.960  -5.412   5.265  1.00  0.00    -0.352 N 
ATOM      6  C   UNL     1      -3.763  -5.338   4.179  1.00  0.00     0.251 C 
ATOM      7  O   UNL     1      -4.728  -6.109   4.164  1.00  0.00    -0.270 OA
ATOM      8  H   UNL     1      -3.246  -6.131   5.873  1.00  0.00     0.163 HD
BRANCH   6   9
ATOM      9  C   UNL     1      -3.554  -4.408   3.031  1.00  0.00     0.067 C 
ATOM     10  C   UNL     1      -3.106  -1.737  -0.195  1.00  0.00     0.026 A 
ATOM     11  C   UNL     1      -4.053  -1.753  -1.228  1.00  0.00     0.033 A 
ATOM     12  C   UNL     1      -3.301  -2.607   0.896  1.00  0.00     0.135 A 
ATOM     13  C   UNL     1      -5.149  -2.618  -1.163  1.00  0.00     0.042 A 
ATOM     14  C   UNL     1      -4.392  -3.478   0.961  1.00  0.00     0.019 A 
ATOM     15  O   UNL     1      -2.412  -2.499   1.929  1.00  0.00    -0.475 OA
ATOM     16  Cl  UNL     1      -6.311  -2.610  -2.435  1.00  0.00    -0.084 Cl
ATOM     17  C   UNL     1      -5.321  -3.482  -0.080  1.00  0.00     0.032 A 
ATOM     18  C   UNL     1      -4.553  -4.336   2.131  1.00  0.00     0.025 C 
ATOM     19  C   UNL     1      -2.292  -3.624   2.829  1.00  0.00     0.314 C 
BRANCH  10  20
ATOM     20  C   UNL     1      -1.939  -0.838  -0.238  1.00  0.00    -0.012 A 
ATOM     21  C   UNL     1       1.521   1.751  -0.000  1.00  0.00     0.047 C 
ATOM     22  C   UNL     1       0.312   0.873  -0.105  1.00  0.00    -0.015 A 
ATOM     23  C   UNL     1      -0.982   1.404  -0.119  1.00  0.00     0.007 A 
ATOM     24  C   UNL     1       0.465  -0.512  -0.171  1.00  0.00     0.126 A 
ATOM     25  C   UNL     1      -2.095   0.556  -0.187  1.00  0.00     0.009 A 
ATOM     26  C   UNL     1      -0.636  -1.360  -0.243  1.00  0.00     0.048 A 
ATOM     27  F   UNL     1       1.693  -1.048  -0.148  1.00  0.00    -0.207 F 
ENDBRANCH  10  20
BRANCH  19  28
ATOM     28  C   UNL     1      -1.102  -4.499   2.395  1.00  0.00     0.429 C 
ATOM     29  F   UNL     1       0.064  -3.826   2.551  1.00  0.00    -0.167 F 
ATOM     30  F   UNL     1      -0.996  -5.637   3.117  1.00  0.00    -0.167 F 
ATOM     31  F   UNL     1      -1.186  -4.864   1.093  1.00  0.00    -0.167 F 
ENDBRANCH  19  28
ENDBRANCH   6   9
ENDBRANCH   4   5
ENDBRANCH   3   4
ENDBRANCH   2   3
ENDBRANCH   1   2
BRANCH   1  32
ATOM     32  C   UNL     1       0.474  -3.357   8.465  1.00  0.00     0.021 C 
BRANCH  32  33
ATOM     33  C   UNL     1       0.192  -2.228   9.443  1.00  0.00     0.116 C 
BRANCH  33  34
ATOM     34  N   UNL     1       0.344  -2.548  10.845  1.00  0.00    -0.352 N 
ATOM     35  C   UNL     1       1.403  -2.430  11.711  1.00  0.00     0.251 C 
ATOM     36  H   UNL     1      -0.467  -2.923  11.258  1.00  0.00     0.163 HD
ATOM     37  O   UNL     1       1.164  -2.261  12.909  1.00  0.00    -0.269 OA
BRANCH  35  38
ATOM     38  C   UNL     1       2.801  -2.682  11.280  1.00  0.00     0.039 A 
ATOM     39  C   UNL     1       3.344  -2.334  10.040  1.00  0.00     0.014 A 
ATOM     40  C   UNL     1       3.546  -3.482  12.160  1.00  0.00     0.014 A 
ATOM     41  C   UNL     1       4.526  -2.939   9.607  1.00  0.00     0.010 A 
ATOM     42  C   UNL     1       4.720  -4.081  11.735  1.00  0.00     0.010 A 
ATOM     43  C   UNL     1       5.173  -3.860  10.435  1.00  0.00    -0.014 A 
BRANCH  43  44
ATOM     44  C   UNL     1       6.402  -4.536  10.044  1.00  0.00     0.031 A 
ATOM     45  C   UNL     1       7.635  -3.722   9.949  1.00  0.00     0.074 A 
ATOM     46  C   UNL     1       6.432  -5.851   9.725  1.00  0.00     0.049 A 
ATOM     47  N   UNL     1       8.593  -3.951   9.118  1.00  0.00    -0.248 NA
ATOM     48  C   UNL     1       7.843  -2.511  10.741  1.00  0.00     0.031 C 
ATOM     49  C   UNL     1       7.617  -6.676   9.540  1.00  0.00     0.029 A 
ATOM     50  N   UNL     1       5.384  -6.687   9.340  1.00  0.00    -0.354 N 
ATOM     51  C   UNL     1       9.647  -3.131   9.460  1.00  0.00     0.074 A 
ATOM     52  C   UNL     1       9.086  -2.169  10.380  1.00  0.00     0.031 C 
ATOM     53  C   UNL     1       7.281  -7.790   8.870  1.00  0.00     0.029 A 
ATOM     54  C   UNL     1       5.891  -7.675   8.466  1.00  0.00     0.049 A 
ATOM     55  H   UNL     1       4.447  -6.604   9.630  1.00  0.00     0.167 HD
ATOM     56  C   UNL     1      10.903  -3.464   9.043  1.00  0.00     0.037 A 
ATOM     57  C   UNL     1       5.439  -7.819   7.175  1.00  0.00     0.037 A 
ATOM     58  C   UNL     1      10.869  -4.696   8.261  1.00  0.00     0.049 A 
ATOM     59  C   UNL     1       6.452  -7.469   6.117  1.00  0.00     0.074 A 
ATOM     60  C   UNL     1      11.024  -6.030   8.600  1.00  0.00     0.029 A 
ATOM     61  N   UNL     1      10.351  -4.676   6.986  1.00  0.00    -0.354 N 
ATOM     62  N   UNL     1       7.652  -7.045   6.381  1.00  0.00    -0.248 NA
ATOM     63  C   UNL     1       6.168  -7.476   4.681  1.00  0.00     0.031 C 
ATOM     64  C   UNL     1      10.570  -6.814   7.509  1.00  0.00     0.029 A 
ATOM     65  C   UNL     1      10.153  -5.955   6.508  1.00  0.00     0.049 A 
ATOM     66  H   UNL     1      10.148  -3.856   6.481  1.00  0.00     0.167 HD
ATOM     67  C   UNL     1       8.271  -6.677   5.222  1.00  0.00     0.074 A 
ATOM     68  C   UNL     1       7.306  -6.967   4.179  1.00  0.00     0.031 C 
ATOM     69  C   UNL     1       9.521  -6.137   5.215  1.00  0.00     0.037 A 
BRANCH  56  70
ATOM     70  C   UNL     1      12.209  -2.875   9.533  1.00  0.00     0.058 A 
ATOM     71  C   UNL     1      13.395  -3.643   9.445  1.00  0.00     0.135 A 
ATOM     72  C   UNL     1      12.379  -1.599  10.104  1.00  0.00     0.135 A 
ATOM     73  F   UNL     1      13.419  -4.843   8.850  1.00  0.00    -0.206 F 
ATOM     74  C   UNL     1      14.617  -3.226   9.962  1.00  0.00     0.059 A 
ATOM     75  C   UNL     1      13.592  -1.169  10.659  1.00  0.00     0.059 A 
ATOM     76  F   UNL     1      11.392  -0.694  10.106  1.00  0.00    -0.206 F 
ATOM     77  C   UNL     1      14.705  -1.997  10.592  1.00  0.00     0.060 A 
BRANCH  77  78
ATOM     78  S   UNL     1      16.294  -1.510  11.284  1.00  0.00     0.124 S 
ATOM     79  O   UNL     1      16.551  -2.582  12.241  1.00  0.00    -0.237 OA
ATOM     80  O   UNL     1      17.150  -1.497  10.102  1.00  0.00    -0.237 OA
ATOM     81  O   UNL     1      16.023  -0.203  11.874  1.00  0.00    -0.744 OA
ENDBRANCH  77  78
ENDBRANCH  56  70
BRANCH  57  82
ATOM     82  C   UNL     1       3.964  -7.624   6.991  1.00  0.00     0.058 A 
ATOM     83  C   UNL     1       3.165  -8.685   7.453  1.00  0.00     0.135 A 
ATOM     84  C   UNL     1       3.517  -6.321   7.207  1.00  0.00     0.135 A 
ATOM     85  F   UNL     1       3.481  -9.951   7.137  1.00  0.00    -0.206 F 
ATOM     86  C   UNL     1       2.205  -8.473   8.430  1.00  0.00     0.059 A 
ATOM     87  C   UNL     1       2.669  -6.101   8.279  1.00  0.00     0.059 A 
ATOM     88  F   UNL     1       4.181  -5.279   6.683  1.00  0.00    -0.206 F 
ATOM     89  C   UNL     1       2.082  -7.183   8.935  1.00  0.00     0.060 A 
BRANCH  89  90
ATOM     90  S   UNL     1       1.517  -7.027  10.647  1.00  0.00     0.124 S 
ATOM     91  O   UNL     1       0.132  -7.413  10.556  1.00  0.00    -0.237 OA
ATOM     92  O   UNL     1       2.422  -7.956  11.329  1.00  0.00    -0.237 OA
ATOM     93  O   UNL     1       1.766  -5.614  10.951  1.00  0.00    -0.744 OA
ENDBRANCH  89  90
ENDBRANCH  57  82
BRANCH  69  94
ATOM     94  C   UNL     1      10.245  -5.765   3.962  1.00  0.00     0.058 A 
ATOM     95  C   UNL     1      10.325  -6.643   2.872  1.00  0.00     0.135 A 
ATOM     96  C   UNL     1      10.985  -4.568   3.863  1.00  0.00     0.135 A 
ATOM     97  F   UNL     1       9.711  -7.837   2.905  1.00  0.00    -0.206 F 
ATOM     98  C   UNL     1      11.038  -6.324   1.720  1.00  0.00     0.059 A 
ATOM     99  C   UNL     1      11.753  -4.255   2.749  1.00  0.00     0.059 A 
ATOM    100  F   UNL     1      10.953  -3.641   4.833  1.00  0.00    -0.206 F 
ATOM    101  C   UNL     1      11.743  -5.123   1.667  1.00  0.00     0.060 A 
BRANCH 101 102
ATOM    102  S   UNL     1      12.633  -4.693   0.163  1.00  0.00     0.124 S 
ATOM    103  O   UNL     1      13.210  -5.971  -0.242  1.00  0.00    -0.237 OA
ATOM    104  O   UNL     1      11.548  -4.196  -0.677  1.00  0.00    -0.237 OA
ATOM    105  O   UNL     1      13.594  -3.690   0.610  1.00  0.00    -0.744 OA
ENDBRANCH 101 102
ENDBRANCH  69  94
ENDBRANCH  43  44
ENDBRANCH  35  38
ENDBRANCH  33  34
ENDBRANCH  32  33
ENDBRANCH   1  32
TORSDOF 18
