REMARK SMILES CC(C)C[C@H](NC(N)=O)C(=O)N[C@@H](C(=O)NCCCCCCNC(=O)c1ccc(-c2c3nc(c(-c4c(F)cc(S(=O)(=O)[O-])cc4F)c4ccc([nH]4)c(-c4c(F)cc(S(=O)(=O)[O-])cc4F)c4nc(c(-c5c(F)cc(S(=O)(=O)[O-])cc5F)c5ccc2[nH]5)C=C4)C=C3)cc1)C(C)C
REMARK SMILES IDX 19 1 18 2 17 3 16 4 14 5 15 6 13 8 12 9 10 10 11 11 5 13
REMARK SMILES IDX 4 14 2 15 1 16 3 17 6 18 7 19 8 21 9 22 92 25 93 26 94 27
REMARK SMILES IDX 20 28 21 29 22 30 23 31 24 32 25 34 26 35 27 36 91 37 28 38
REMARK SMILES IDX 90 39 29 40 30 41 31 42 84 43 32 44 89 45 83 46 85 47 33 48
REMARK SMILES IDX 88 49 82 50 81 51 34 53 68 54 47 55 67 56 48 57 51 58 66 59
REMARK SMILES IDX 86 60 49 61 50 62 65 64 87 65 52 66 35 67 36 68 45 69 37 70
REMARK SMILES IDX 38 71 44 72 46 73 39 74 40 75 41 76 42 77 43 78 69 79 70 80
REMARK SMILES IDX 79 81 71 82 72 83 78 84 80 85 73 86 74 87 75 88 76 89 77 90
REMARK SMILES IDX 53 91 54 92 63 93 55 94 56 95 62 96 64 97 57 98 58 99 59 100
REMARK SMILES IDX 60 101 61 102
REMARK H PARENT 16 7 12 12 6 20 8 23 8 24 23 33 85 52 51 63
REMARK Flexibility Score: inf
ROOT
ATOM      1  C   UNL     1      -3.886   2.461  -3.826  1.00  0.00     0.002 C 
ENDROOT
BRANCH   1   2
ATOM      2  C   UNL     1      -3.799   1.786  -2.457  1.00  0.00     0.021 C 
BRANCH   2   3
ATOM      3  C   UNL     1      -2.883   2.501  -1.474  1.00  0.00     0.116 C 
BRANCH   3   4
ATOM      4  N   UNL     1      -3.473   3.707  -0.958  1.00  0.00    -0.354 N 
ATOM      5  C   UNL     1      -3.588   4.163   0.318  1.00  0.00     0.242 C 
ATOM      6  O   UNL     1      -4.107   5.281   0.421  1.00  0.00    -0.273 OA
ATOM      7  H   UNL     1      -3.857   4.301  -1.642  1.00  0.00     0.163 HD
BRANCH   5   8
ATOM      8  C   UNL     1      -3.003   3.390   1.558  1.00  0.00     0.173 C 
BRANCH   8   9
ATOM      9  N   UNL     1      -3.504   2.007   1.567  1.00  0.00    -0.342 N 
ATOM     10  C   UNL     1      -2.870   0.800   1.512  1.00  0.00     0.243 C 
ATOM     11  O   UNL     1      -3.590  -0.180   1.286  1.00  0.00    -0.273 OA
ATOM     12  H   UNL     1      -4.484   1.939   1.624  1.00  0.00     0.164 HD
BRANCH  10  13
ATOM     13  C   UNL     1      -1.336   0.608   1.678  1.00  0.00     0.173 C 
BRANCH  13  14
ATOM     14  C   UNL     1      -0.827   0.965   3.078  1.00  0.00     0.038 C 
BRANCH  14  15
ATOM     15  C   UNL     1      -1.624   0.340   4.243  1.00  0.00    -0.015 C 
ATOM     16  C   UNL     1      -1.671  -1.187   4.194  1.00  0.00     0.007 C 
ATOM     17  C   UNL     1      -1.023   0.793   5.577  1.00  0.00     0.007 C 
ENDBRANCH  14  15
ENDBRANCH  13  14
BRANCH  13  18
ATOM     18  N   UNL     1      -0.609   1.181   0.536  1.00  0.00    -0.327 N 
ATOM     19  C   UNL     1       0.625   1.749   0.549  1.00  0.00     0.312 C 
ATOM     20  H   UNL     1      -1.067   1.148  -0.334  1.00  0.00     0.166 HD
ATOM     21  N   UNL     1       1.042   2.112  -0.689  1.00  0.00    -0.352 N 
ATOM     22  O   UNL     1       1.321   1.965   1.526  1.00  0.00    -0.249 OA
ATOM     23  H   UNL     1       0.473   1.934  -1.472  1.00  0.00     0.161 HD
ATOM     24  H   UNL     1       1.915   2.554  -0.804  1.00  0.00     0.161 HD
ENDBRANCH  13  18
ENDBRANCH  10  13
ENDBRANCH   8   9
BRANCH   8  25
ATOM     25  C   UNL     1      -3.440   4.173   2.841  1.00  0.00     0.015 C 
ATOM     26  C   UNL     1      -3.445   3.368   4.137  1.00  0.00     0.010 C 
ATOM     27  C   UNL     1      -2.554   5.411   3.049  1.00  0.00     0.010 C 
ENDBRANCH   8  25
ENDBRANCH   5   8
ENDBRANCH   3   4
ENDBRANCH   2   3
ENDBRANCH   1   2
BRANCH   1  28
ATOM     28  C   UNL     1      -2.544   2.635  -4.545  1.00  0.00     0.002 C 
BRANCH  28  29
ATOM     29  C   UNL     1      -1.715   1.357  -4.703  1.00  0.00     0.021 C 
BRANCH  29  30
ATOM     30  C   UNL     1      -2.437   0.203  -5.395  1.00  0.00     0.116 C 
BRANCH  30  31
ATOM     31  N   UNL     1      -2.911   0.571  -6.718  1.00  0.00    -0.352 N 
ATOM     32  C   UNL     1      -2.741  -0.076  -7.915  1.00  0.00     0.251 C 
ATOM     33  H   UNL     1      -3.431   1.406  -6.761  1.00  0.00     0.163 HD
ATOM     34  O   UNL     1      -3.057   0.483  -8.961  1.00  0.00    -0.269 OA
BRANCH  32  35
ATOM     35  C   UNL     1      -2.160  -1.434  -7.942  1.00  0.00     0.039 A 
ATOM     36  C   UNL     1      -1.176  -1.727  -8.889  1.00  0.00     0.014 A 
ATOM     37  C   UNL     1      -2.593  -2.418  -7.048  1.00  0.00     0.014 A 
ATOM     38  C   UNL     1      -0.587  -2.993  -8.904  1.00  0.00     0.010 A 
ATOM     39  C   UNL     1      -1.960  -3.657  -7.022  1.00  0.00     0.010 A 
ATOM     40  C   UNL     1      -0.954  -3.958  -7.952  1.00  0.00    -0.014 A 
BRANCH  40  41
ATOM     41  C   UNL     1      -0.297  -5.289  -7.916  1.00  0.00     0.031 A 
ATOM     42  C   UNL     1      -1.095  -6.532  -8.201  1.00  0.00     0.074 A 
ATOM     43  C   UNL     1       0.999  -5.381  -7.561  1.00  0.00     0.049 A 
ATOM     44  N   UNL     1      -0.720  -7.784  -8.146  1.00  0.00    -0.248 NA
ATOM     45  C   UNL     1      -2.508  -6.345  -8.571  1.00  0.00     0.031 C 
ATOM     46  C   UNL     1       1.863  -4.250  -7.214  1.00  0.00     0.029 A 
ATOM     47  N   UNL     1       1.815  -6.475  -7.420  1.00  0.00    -0.354 N 
ATOM     48  C   UNL     1      -1.850  -8.532  -8.456  1.00  0.00     0.074 A 
ATOM     49  C   UNL     1      -2.935  -7.596  -8.652  1.00  0.00     0.031 C 
ATOM     50  C   UNL     1       3.089  -4.708  -6.916  1.00  0.00     0.029 A 
ATOM     51  C   UNL     1       3.092  -6.164  -7.017  1.00  0.00     0.049 A 
ATOM     52  H   UNL     1       1.514  -7.396  -7.592  1.00  0.00     0.167 HD
ATOM     53  C   UNL     1      -1.966  -9.876  -8.586  1.00  0.00     0.037 A 
ATOM     54  C   UNL     1       4.144  -6.962  -6.750  1.00  0.00     0.037 A 
ATOM     55  C   UNL     1      -0.873 -10.798  -8.419  1.00  0.00     0.049 A 
ATOM     56  C   UNL     1       3.994  -8.450  -6.915  1.00  0.00     0.074 A 
ATOM     57  C   UNL     1      -0.872 -12.171  -8.590  1.00  0.00     0.029 A 
ATOM     58  N   UNL     1       0.414 -10.441  -8.043  1.00  0.00    -0.354 N 
ATOM     59  N   UNL     1       2.935  -9.136  -7.272  1.00  0.00    -0.248 NA
ATOM     60  C   UNL     1       5.183  -9.271  -6.652  1.00  0.00     0.031 C 
ATOM     61  C   UNL     1       0.406 -12.650  -8.281  1.00  0.00     0.029 A 
ATOM     62  C   UNL     1       1.213 -11.570  -7.960  1.00  0.00     0.049 A 
ATOM     63  H   UNL     1       0.715  -9.522  -7.861  1.00  0.00     0.167 HD
ATOM     64  C   UNL     1       3.336 -10.467  -7.301  1.00  0.00     0.074 A 
ATOM     65  C   UNL     1       4.738 -10.488  -6.936  1.00  0.00     0.031 C 
ATOM     66  C   UNL     1       2.610 -11.571  -7.605  1.00  0.00     0.037 A 
BRANCH  53  67
ATOM     67  C   UNL     1      -3.321 -10.429  -8.931  1.00  0.00     0.058 A 
ATOM     68  C   UNL     1      -3.886 -10.252 -10.204  1.00  0.00     0.135 A 
ATOM     69  C   UNL     1      -4.048 -11.176  -7.991  1.00  0.00     0.135 A 
ATOM     70  F   UNL     1      -3.240  -9.533 -11.137  1.00  0.00    -0.206 F 
ATOM     71  C   UNL     1      -5.136 -10.771 -10.524  1.00  0.00     0.059 A 
ATOM     72  C   UNL     1      -5.289 -11.727  -8.297  1.00  0.00     0.059 A 
ATOM     73  F   UNL     1      -3.555 -11.376  -6.758  1.00  0.00    -0.206 F 
ATOM     74  C   UNL     1      -5.831 -11.506  -9.563  1.00  0.00     0.060 A 
BRANCH  74  75
ATOM     75  S   UNL     1      -7.451 -12.177  -9.995  1.00  0.00     0.124 S 
ATOM     76  O   UNL     1      -8.278 -10.974  -9.973  1.00  0.00    -0.237 OA
ATOM     77  O   UNL     1      -7.209 -12.755 -11.313  1.00  0.00    -0.237 OA
ATOM     78  O   UNL     1      -7.715 -13.139  -8.930  1.00  0.00    -0.744 OA
ENDBRANCH  74  75
ENDBRANCH  53  67
BRANCH  54  79
ATOM     79  C   UNL     1       5.436  -6.366  -6.322  1.00  0.00     0.058 A 
ATOM     80  C   UNL     1       6.544  -6.355  -7.182  1.00  0.00     0.135 A 
ATOM     81  C   UNL     1       5.586  -5.781  -5.055  1.00  0.00     0.135 A 
ATOM     82  F   UNL     1       6.451  -6.906  -8.402  1.00  0.00    -0.206 F 
ATOM     83  C   UNL     1       7.760  -5.799  -6.798  1.00  0.00     0.059 A 
ATOM     84  C   UNL     1       6.784  -5.197  -4.657  1.00  0.00     0.059 A 
ATOM     85  F   UNL     1       4.550  -5.749  -4.203  1.00  0.00    -0.206 F 
ATOM     86  C   UNL     1       7.869  -5.220  -5.532  1.00  0.00     0.060 A 
BRANCH  86  87
ATOM     87  S   UNL     1       9.435  -4.453  -5.062  1.00  0.00     0.124 S 
ATOM     88  O   UNL     1      10.268  -5.621  -4.803  1.00  0.00    -0.237 OA
ATOM     89  O   UNL     1       9.769  -3.681  -6.255  1.00  0.00    -0.237 OA
ATOM     90  O   UNL     1       9.079  -3.657  -3.891  1.00  0.00    -0.744 OA
ENDBRANCH  86  87
ENDBRANCH  54  79
BRANCH  66  91
ATOM     91  C   UNL     1       3.324 -12.893  -7.593  1.00  0.00     0.058 A 
ATOM     92  C   UNL     1       3.688 -13.524  -6.393  1.00  0.00     0.135 A 
ATOM     93  C   UNL     1       3.596 -13.563  -8.797  1.00  0.00     0.135 A 
ATOM     94  F   UNL     1       3.457 -12.922  -5.216  1.00  0.00    -0.206 F 
ATOM     95  C   UNL     1       4.316 -14.765  -6.388  1.00  0.00     0.059 A 
ATOM     96  C   UNL     1       4.199 -14.817  -8.814  1.00  0.00     0.059 A 
ATOM     97  F   UNL     1       3.259 -13.007  -9.971  1.00  0.00    -0.206 F 
ATOM     98  C   UNL     1       4.565 -15.405  -7.604  1.00  0.00     0.060 A 
BRANCH  98  99
ATOM     99  S   UNL     1       5.344 -17.034  -7.583  1.00  0.00     0.124 S 
ATOM    100  O   UNL     1       6.729 -16.692  -7.276  1.00  0.00    -0.237 OA
ATOM    101  O   UNL     1       4.610 -17.718  -6.523  1.00  0.00    -0.237 OA
ATOM    102  O   UNL     1       5.105 -17.542  -8.931  1.00  0.00    -0.744 OA
ENDBRANCH  98  99
ENDBRANCH  66  91
ENDBRANCH  40  41
ENDBRANCH  32  35
ENDBRANCH  30  31
ENDBRANCH  29  30
ENDBRANCH  28  29
ENDBRANCH   1  28
TORSDOF 22
