REMARK SMILES C[C@@H](C(=O)NCCCCCCNC(=O)c1ccc(-c2c3nc(c(-c4c(F)cc(S(=O)(=O)[O-])cc4F)c4ccc([nH]4)c(-c4c(F)cc(S(=O)(=O)[O-])cc4F)c4nc(c(-c5c(F)cc(S(=O)(=O)[O-])cc5F)c5ccc2[nH]5)C=C4)C=C3)cc1)c1cc(/C=C/S(C)(=O)=O)cc(C(=O)c2ccccc2)c1
REMARK SMILES IDX 8 1 7 2 6 3 5 4 3 5 4 6 2 8 1 9 81 10 82 11 100 12 83 13
REMARK SMILES IDX 91 14 90 15 84 16 85 17 86 18 87 19 88 20 89 21 92 22 93 23
REMARK SMILES IDX 94 24 95 25 99 26 96 27 98 28 97 29 9 30 10 31 11 32 12 33
REMARK SMILES IDX 13 34 14 36 15 37 16 38 80 39 17 40 79 41 18 42 19 43 20 44
REMARK SMILES IDX 73 45 21 46 78 47 72 48 74 49 22 50 77 51 71 52 70 53 23 55
REMARK SMILES IDX 57 56 36 57 56 58 37 59 40 60 55 61 75 62 38 63 39 64 54 66
REMARK SMILES IDX 76 67 41 68 24 69 25 70 34 71 26 72 27 73 33 74 35 75 28 76
REMARK SMILES IDX 29 77 30 78 31 79 32 80 58 81 59 82 68 83 60 84 61 85 67 86
REMARK SMILES IDX 69 87 62 88 63 89 64 90 65 91 66 92 42 93 43 94 52 95 44 96
REMARK SMILES IDX 45 97 51 98 53 99 46 100 47 101 48 102 49 103 50 104
REMARK H PARENT 5 7 12 35 74 54 40 65
REMARK Flexibility Score: inf
ROOT
ATOM      1  C   UNL     1       4.937  -2.551  -1.361  1.00  0.00     0.002 C 
ENDROOT
BRANCH   1   2
ATOM      2  C   UNL     1       4.218  -1.314  -0.805  1.00  0.00     0.021 C 
BRANCH   2   3
ATOM      3  C   UNL     1       3.470  -0.503  -1.864  1.00  0.00     0.116 C 
BRANCH   3   4
ATOM      4  N   UNL     1       2.434  -1.302  -2.478  1.00  0.00    -0.356 N 
ATOM      5  C   UNL     1       1.082  -1.255  -2.352  1.00  0.00     0.227 C 
ATOM      6  O   UNL     1       0.455  -2.077  -3.024  1.00  0.00    -0.274 OA
ATOM      7  H   UNL     1       2.764  -1.998  -3.092  1.00  0.00     0.163 HD
BRANCH   5   8
ATOM      8  C   UNL     1       0.418  -0.177  -1.473  1.00  0.00     0.105 C 
ATOM      9  C   UNL     1       0.803  -0.247   0.012  1.00  0.00     0.023 C 
BRANCH   8  10
ATOM     10  C   UNL     1      -1.111  -0.189  -1.497  1.00  0.00    -0.035 A 
ATOM     11  C   UNL     1      -1.812   1.020  -1.393  1.00  0.00     0.012 A 
ATOM     12  C   UNL     1      -1.832  -1.386  -1.432  1.00  0.00     0.016 A 
ATOM     13  C   UNL     1      -3.199   1.050  -1.183  1.00  0.00    -0.024 A 
ATOM     14  C   UNL     1      -3.216  -1.394  -1.250  1.00  0.00     0.023 A 
ATOM     15  C   UNL     1      -3.895  -0.172  -1.132  1.00  0.00     0.020 A 
BRANCH  13  16
ATOM     16  C   UNL     1      -3.933   2.310  -0.946  1.00  0.00     0.020 C 
ATOM     17  C   UNL     1      -3.354   3.511  -0.782  1.00  0.00     0.106 C 
BRANCH  17  18
ATOM     18  S   UNL     1      -4.308   4.909  -0.397  1.00  0.00     0.168 S 
ATOM     19  C   UNL     1      -3.451   5.522   1.036  1.00  0.00     0.163 C 
ATOM     20  O   UNL     1      -4.128   5.888  -1.454  1.00  0.00    -0.225 OA
ATOM     21  O   UNL     1      -5.636   4.518   0.031  1.00  0.00    -0.225 OA
ENDBRANCH  17  18
ENDBRANCH  13  16
BRANCH  14  22
ATOM     22  C   UNL     1      -3.972  -2.682  -1.178  1.00  0.00     0.193 C 
ATOM     23  O   UNL     1      -5.198  -2.686  -1.239  1.00  0.00    -0.289 OA
BRANCH  22  24
ATOM     24  C   UNL     1      -3.258  -3.982  -1.076  1.00  0.00     0.022 A 
ATOM     25  C   UNL     1      -3.504  -4.958  -2.046  1.00  0.00     0.012 A 
ATOM     26  C   UNL     1      -2.324  -4.221  -0.059  1.00  0.00     0.012 A 
ATOM     27  C   UNL     1      -2.777  -6.150  -2.030  1.00  0.00     0.001 A 
ATOM     28  C   UNL     1      -1.593  -5.410  -0.054  1.00  0.00     0.001 A 
ATOM     29  C   UNL     1      -1.814  -6.370  -1.043  1.00  0.00     0.000 A 
ENDBRANCH  22  24
ENDBRANCH  14  22
ENDBRANCH   8  10
ENDBRANCH   5   8
ENDBRANCH   3   4
ENDBRANCH   2   3
ENDBRANCH   1   2
BRANCH   1  30
ATOM     30  C   UNL     1       5.878  -2.273  -2.537  1.00  0.00     0.002 C 
BRANCH  30  31
ATOM     31  C   UNL     1       6.922  -1.188  -2.271  1.00  0.00     0.021 C 
BRANCH  31  32
ATOM     32  C   UNL     1       7.841  -1.486  -1.096  1.00  0.00     0.116 C 
BRANCH  32  33
ATOM     33  N   UNL     1       8.663  -2.659  -1.340  1.00  0.00    -0.352 N 
ATOM     34  C   UNL     1      10.027  -2.783  -1.255  1.00  0.00     0.251 C 
ATOM     35  H   UNL     1       8.177  -3.473  -1.602  1.00  0.00     0.163 HD
ATOM     36  O   UNL     1      10.582  -3.777  -1.713  1.00  0.00    -0.269 OA
BRANCH  34  37
ATOM     37  C   UNL     1      10.818  -1.708  -0.620  1.00  0.00     0.039 A 
ATOM     38  C   UNL     1      12.017  -1.306  -1.212  1.00  0.00     0.014 A 
ATOM     39  C   UNL     1      10.380  -1.105   0.563  1.00  0.00     0.014 A 
ATOM     40  C   UNL     1      12.761  -0.278  -0.630  1.00  0.00     0.010 A 
ATOM     41  C   UNL     1      11.074  -0.022   1.088  1.00  0.00     0.010 A 
ATOM     42  C   UNL     1      12.288   0.384   0.515  1.00  0.00    -0.014 A 
BRANCH  42  43
ATOM     43  C   UNL     1      13.076   1.464   1.162  1.00  0.00     0.031 A 
ATOM     44  C   UNL     1      13.590   1.275   2.566  1.00  0.00     0.074 A 
ATOM     45  C   UNL     1      13.290   2.623   0.511  1.00  0.00     0.049 A 
ATOM     46  N   UNL     1      14.264   2.105   3.318  1.00  0.00    -0.248 NA
ATOM     47  C   UNL     1      13.277  -0.005   3.222  1.00  0.00     0.031 C 
ATOM     48  C   UNL     1      12.808   2.940  -0.835  1.00  0.00     0.029 A 
ATOM     49  N   UNL     1      13.969   3.752   0.894  1.00  0.00    -0.354 N 
ATOM     50  C   UNL     1      14.435   1.459   4.537  1.00  0.00     0.074 A 
ATOM     51  C   UNL     1      13.741   0.195   4.446  1.00  0.00     0.031 C 
ATOM     52  C   UNL     1      13.239   4.165  -1.179  1.00  0.00     0.029 A 
ATOM     53  C   UNL     1      13.992   4.736  -0.067  1.00  0.00     0.049 A 
ATOM     54  H   UNL     1      14.399   3.849   1.774  1.00  0.00     0.167 HD
ATOM     55  C   UNL     1      15.130   1.869   5.626  1.00  0.00     0.037 A 
ATOM     56  C   UNL     1      14.560   5.957  -0.052  1.00  0.00     0.037 A 
ATOM     57  C   UNL     1      15.843   3.117   5.695  1.00  0.00     0.049 A 
ATOM     58  C   UNL     1      15.328   6.392   1.168  1.00  0.00     0.074 A 
ATOM     59  C   UNL     1      16.632   3.601   6.724  1.00  0.00     0.029 A 
ATOM     60  N   UNL     1      15.851   4.082   4.698  1.00  0.00    -0.354 N 
ATOM     61  N   UNL     1      15.536   5.742   2.288  1.00  0.00    -0.248 NA
ATOM     62  C   UNL     1      15.948   7.723   1.121  1.00  0.00     0.031 C 
ATOM     63  C   UNL     1      17.067   4.883   6.374  1.00  0.00     0.029 A 
ATOM     64  C   UNL     1      16.609   5.170   5.097  1.00  0.00     0.049 A 
ATOM     65  H   UNL     1      15.386   4.005   3.833  1.00  0.00     0.167 HD
ATOM     66  C   UNL     1      16.349   6.565   3.061  1.00  0.00     0.074 A 
ATOM     67  C   UNL     1      16.593   7.759   2.278  1.00  0.00     0.031 C 
ATOM     68  C   UNL     1      16.854   6.348   4.301  1.00  0.00     0.037 A 
BRANCH  55  69
ATOM     69  C   UNL     1      15.136   0.965   6.831  1.00  0.00     0.058 A 
ATOM     70  C   UNL     1      15.777  -0.285   6.822  1.00  0.00     0.135 A 
ATOM     71  C   UNL     1      14.501   1.362   8.019  1.00  0.00     0.135 A 
ATOM     72  F   UNL     1      16.389  -0.725   5.711  1.00  0.00    -0.206 F 
ATOM     73  C   UNL     1      15.747  -1.127   7.929  1.00  0.00     0.059 A 
ATOM     74  C   UNL     1      14.490   0.552   9.150  1.00  0.00     0.059 A 
ATOM     75  F   UNL     1      13.873   2.547   8.087  1.00  0.00    -0.206 F 
ATOM     76  C   UNL     1      15.098  -0.701   9.089  1.00  0.00     0.060 A 
BRANCH  76  77
ATOM     77  S   UNL     1      15.054  -1.811  10.511  1.00  0.00     0.124 S 
ATOM     78  O   UNL     1      14.112  -2.829  10.055  1.00  0.00    -0.237 OA
ATOM     79  O   UNL     1      16.445  -2.237  10.617  1.00  0.00    -0.237 OA
ATOM     80  O   UNL     1      14.577  -0.957  11.595  1.00  0.00    -0.744 OA
ENDBRANCH  76  77
ENDBRANCH  55  69
BRANCH  56  81
ATOM     81  C   UNL     1      14.467   6.835  -1.250  1.00  0.00     0.058 A 
ATOM     82  C   UNL     1      15.600   7.103  -2.035  1.00  0.00     0.135 A 
ATOM     83  C   UNL     1      13.249   7.408  -1.647  1.00  0.00     0.135 A 
ATOM     84  F   UNL     1      16.789   6.583  -1.694  1.00  0.00    -0.206 F 
ATOM     85  C   UNL     1      15.533   7.919  -3.159  1.00  0.00     0.059 A 
ATOM     86  C   UNL     1      13.151   8.205  -2.783  1.00  0.00     0.059 A 
ATOM     87  F   UNL     1      12.132   7.169  -0.941  1.00  0.00    -0.206 F 
ATOM     88  C   UNL     1      14.302   8.462  -3.528  1.00  0.00     0.060 A 
BRANCH  88  89
ATOM     89  S   UNL     1      14.217   9.476  -5.019  1.00  0.00     0.124 S 
ATOM     90  O   UNL     1      14.924  10.680  -4.598  1.00  0.00    -0.237 OA
ATOM     91  O   UNL     1      14.907   8.639  -5.996  1.00  0.00    -0.237 OA
ATOM     92  O   UNL     1      12.782   9.630  -5.239  1.00  0.00    -0.744 OA
ENDBRANCH  88  89
ENDBRANCH  56  81
BRANCH  68  93
ATOM     93  C   UNL     1      17.777   7.394   4.869  1.00  0.00     0.058 A 
ATOM     94  C   UNL     1      17.317   8.656   5.276  1.00  0.00     0.135 A 
ATOM     95  C   UNL     1      19.141   7.106   5.046  1.00  0.00     0.135 A 
ATOM     96  F   UNL     1      16.024   8.985   5.126  1.00  0.00    -0.206 F 
ATOM     97  C   UNL     1      18.183   9.607   5.806  1.00  0.00     0.059 A 
ATOM     98  C   UNL     1      20.017   8.029   5.606  1.00  0.00     0.059 A 
ATOM     99  F   UNL     1      19.632   5.909   4.687  1.00  0.00    -0.206 F 
ATOM    100  C   UNL     1      19.531   9.284   5.968  1.00  0.00     0.060 A 
BRANCH 100 101
ATOM    101  S   UNL     1      20.640  10.520   6.675  1.00  0.00     0.124 S 
ATOM    102  O   UNL     1      20.763  11.469   5.573  1.00  0.00    -0.237 OA
ATOM    103  O   UNL     1      19.886  10.988   7.834  1.00  0.00    -0.237 OA
ATOM    104  O   UNL     1      21.846   9.758   6.985  1.00  0.00    -0.744 OA
ENDBRANCH 100 101
ENDBRANCH  68  93
ENDBRANCH  42  43
ENDBRANCH  34  37
ENDBRANCH  32  33
ENDBRANCH  31  32
ENDBRANCH  30  31
ENDBRANCH   1  30
TORSDOF 21
