REMARK SMILES N#C/C(=C\c1ccc(-c2cc(C(F)(F)F)ccc2Cl)o1)C(=O)NCCCCCCNC(=O)c1ccc(-c2c3nc(c(-c4c(F)cc(S(=O)(=O)[O-])cc4F)c4ccc([nH]4)c(-c4c(F)cc(S(=O)(=O)[O-])cc4F)c4nc(c(-c5c(F)cc(S(=O)(=O)[O-])cc5F)c5ccc2[nH]5)C=C4)C=C3)cc1
REMARK SMILES IDX 26 1 25 2 24 3 23 4 21 5 22 6 3 8 4 9 2 10 1 11 5 12 6 13
REMARK SMILES IDX 20 14 7 15 8 16 9 17 10 18 18 19 11 20 17 21 19 22 16 23
REMARK SMILES IDX 12 24 13 25 14 26 15 27 27 28 28 29 29 30 30 31 31 32 32 34
REMARK SMILES IDX 33 35 34 36 98 37 35 38 97 39 36 40 37 41 38 42 91 43 39 44
REMARK SMILES IDX 96 45 90 46 92 47 40 48 95 49 89 50 88 51 41 53 75 54 54 55
REMARK SMILES IDX 74 56 55 57 58 58 73 59 93 60 56 61 57 62 72 64 94 65 59 66
REMARK SMILES IDX 42 67 43 68 52 69 44 70 45 71 51 72 53 73 46 74 47 75 48 76
REMARK SMILES IDX 49 77 50 78 76 79 77 80 86 81 78 82 79 83 85 84 87 85 80 86
REMARK SMILES IDX 81 87 82 88 83 89 84 90 60 91 61 92 70 93 62 94 63 95 69 96
REMARK SMILES IDX 71 97 64 98 65 99 66 100 67 101 68 102
REMARK H PARENT 23 7 30 33 92 52 58 63
REMARK Flexibility Score: inf
ROOT
ATOM      1  C   UNL     1       8.912   0.263  -2.053  1.00  0.00     0.002 C 
ENDROOT
BRANCH   1   2
ATOM      2  C   UNL     1       7.872  -0.573  -1.315  1.00  0.00     0.021 C 
BRANCH   2   3
ATOM      3  C   UNL     1       7.004   0.184  -0.320  1.00  0.00     0.116 C 
BRANCH   3   4
ATOM      4  N   UNL     1       5.943   0.966  -0.939  1.00  0.00    -0.351 N 
ATOM      5  C   UNL     1       4.583   0.977  -0.805  1.00  0.00     0.262 C 
ATOM      6  O   UNL     1       3.952   1.792  -1.479  1.00  0.00    -0.268 OA
ATOM      7  H   UNL     1       6.275   1.625  -1.591  1.00  0.00     0.163 HD
BRANCH   5   8
ATOM      8  C   UNL     1       3.850   0.025   0.068  1.00  0.00     0.120 C 
ATOM      9  C   UNL     1       4.339  -0.574   1.185  1.00  0.00     0.072 C 
BRANCH   8  10
ATOM     10  C   UNL     1       2.330   0.025   0.068  1.00  0.00     0.105 C 
ATOM     11  N   UNL     1       1.069   0.025   0.068  1.00  0.00    -0.192 NA
ENDBRANCH   8  10
BRANCH   9  12
ATOM     12  C   UNL     1       3.612  -1.540   1.968  1.00  0.00     0.129 A 
ATOM     13  C   UNL     1       2.690  -2.510   1.576  1.00  0.00     0.051 A 
ATOM     14  O   UNL     1       3.788  -1.685   3.333  1.00  0.00    -0.457 OA
ATOM     15  C   UNL     1       2.263  -3.210   2.723  1.00  0.00     0.051 A 
ATOM     16  C   UNL     1       2.985  -2.699   3.774  1.00  0.00     0.136 A 
BRANCH  16  17
ATOM     17  C   UNL     1       3.050  -3.030   5.193  1.00  0.00     0.036 A 
ATOM     18  C   UNL     1       2.891  -2.006   6.145  1.00  0.00     0.026 A 
ATOM     19  C   UNL     1       3.209  -4.350   5.653  1.00  0.00     0.052 A 
ATOM     20  C   UNL     1       2.873  -2.284   7.526  1.00  0.00     0.056 A 
ATOM     21  C   UNL     1       3.207  -4.632   7.023  1.00  0.00     0.022 A 
ATOM     22  Cl  UNL     1       3.437  -5.694   4.584  1.00  0.00    -0.084 Cl
ATOM     23  C   UNL     1       3.036  -3.607   7.954  1.00  0.00     0.014 A 
BRANCH  20  24
ATOM     24  C   UNL     1       2.667  -1.166   8.521  1.00  0.00     0.416 C 
ATOM     25  F   UNL     1       3.670  -0.249   8.493  1.00  0.00    -0.166 F 
ATOM     26  F   UNL     1       1.517  -0.473   8.289  1.00  0.00    -0.166 F 
ATOM     27  F   UNL     1       2.583  -1.596   9.811  1.00  0.00    -0.166 F 
ENDBRANCH  20  24
ENDBRANCH  16  17
ENDBRANCH   9  12
ENDBRANCH   5   8
ENDBRANCH   3   4
ENDBRANCH   2   3
ENDBRANCH   1   2
BRANCH   1  28
ATOM     28  C   UNL     1       9.855   1.091  -1.173  1.00  0.00     0.002 C 
BRANCH  28  29
ATOM     29  C   UNL     1      10.549   0.349  -0.024  1.00  0.00     0.021 C 
BRANCH  29  30
ATOM     30  C   UNL     1      11.359  -0.884  -0.417  1.00  0.00     0.116 C 
BRANCH  30  31
ATOM     31  N   UNL     1      12.381  -0.580  -1.399  1.00  0.00    -0.352 N 
ATOM     32  C   UNL     1      13.722  -0.865  -1.402  1.00  0.00     0.251 C 
ATOM     33  H   UNL     1      12.061  -0.091  -2.192  1.00  0.00     0.163 HD
ATOM     34  O   UNL     1      14.438  -0.346  -2.254  1.00  0.00    -0.269 OA
BRANCH  32  35
ATOM     35  C   UNL     1      14.317  -1.774  -0.394  1.00  0.00     0.039 A 
ATOM     36  C   UNL     1      15.578  -1.454   0.119  1.00  0.00     0.014 A 
ATOM     37  C   UNL     1      13.689  -2.960  -0.001  1.00  0.00     0.014 A 
ATOM     38  C   UNL     1      16.191  -2.302   1.044  1.00  0.00     0.010 A 
ATOM     39  C   UNL     1      14.276  -3.777   0.968  1.00  0.00     0.010 A 
ATOM     40  C   UNL     1      15.538  -3.463   1.490  1.00  0.00    -0.014 A 
BRANCH  40  41
ATOM     41  C   UNL     1      16.183  -4.339   2.502  1.00  0.00     0.031 A 
ATOM     42  C   UNL     1      16.642  -5.725   2.139  1.00  0.00     0.074 A 
ATOM     43  C   UNL     1      16.347  -3.882   3.759  1.00  0.00     0.049 A 
ATOM     44  N   UNL     1      17.256  -6.612   2.881  1.00  0.00    -0.248 NA
ATOM     45  C   UNL     1      16.358  -6.185   0.770  1.00  0.00     0.031 C 
ATOM     46  C   UNL     1      15.885  -2.581   4.251  1.00  0.00     0.029 A 
ATOM     47  N   UNL     1      16.947  -4.455   4.851  1.00  0.00    -0.354 N 
ATOM     48  C   UNL     1      17.435  -7.728   2.073  1.00  0.00     0.074 A 
ATOM     49  C   UNL     1      16.813  -7.430   0.801  1.00  0.00     0.031 C 
ATOM     50  C   UNL     1      16.240  -2.447   5.538  1.00  0.00     0.029 A 
ATOM     51  C   UNL     1      16.939  -3.654   5.968  1.00  0.00     0.049 A 
ATOM     52  H   UNL     1      17.346  -5.355   4.836  1.00  0.00     0.167 HD
ATOM     53  C   UNL     1      18.083  -8.885   2.355  1.00  0.00     0.037 A 
ATOM     54  C   UNL     1      17.446  -3.864   7.198  1.00  0.00     0.037 A 
ATOM     55  C   UNL     1      18.712  -9.174   3.618  1.00  0.00     0.049 A 
ATOM     56  C   UNL     1      18.194  -5.138   7.474  1.00  0.00     0.074 A 
ATOM     57  C   UNL     1      19.421 -10.303   3.992  1.00  0.00     0.029 A 
ATOM     58  N   UNL     1      18.715  -8.322   4.713  1.00  0.00    -0.354 N 
ATOM     59  N   UNL     1      18.403  -6.159   6.677  1.00  0.00    -0.248 NA
ATOM     60  C   UNL     1      18.793  -5.280   8.808  1.00  0.00     0.031 C 
ATOM     61  C   UNL     1      19.829 -10.145   5.322  1.00  0.00     0.029 A 
ATOM     62  C   UNL     1      19.407  -8.902   5.765  1.00  0.00     0.049 A 
ATOM     63  H   UNL     1      18.287  -7.436   4.740  1.00  0.00     0.167 HD
ATOM     64  C   UNL     1      19.167  -7.061   7.410  1.00  0.00     0.074 A 
ATOM     65  C   UNL     1      19.405  -6.451   8.703  1.00  0.00     0.031 C 
ATOM     66  C   UNL     1      19.625  -8.285   7.048  1.00  0.00     0.037 A 
BRANCH  53  67
ATOM     67  C   UNL     1      18.160  -9.920   1.265  1.00  0.00     0.058 A 
ATOM     68  C   UNL     1      18.980  -9.735   0.140  1.00  0.00     0.135 A 
ATOM     69  C   UNL     1      17.441 -11.122   1.359  1.00  0.00     0.135 A 
ATOM     70  F   UNL     1      19.678  -8.598  -0.008  1.00  0.00    -0.206 F 
ATOM     71  C   UNL     1      19.064 -10.693  -0.866  1.00  0.00     0.059 A 
ATOM     72  C   UNL     1      17.528 -12.105   0.377  1.00  0.00     0.059 A 
ATOM     73  F   UNL     1      16.641 -11.351   2.413  1.00  0.00    -0.206 F 
ATOM     74  C   UNL     1      18.333 -11.874  -0.739  1.00  0.00     0.060 A 
BRANCH  74  75
ATOM     75  S   UNL     1      18.457 -13.111  -2.049  1.00  0.00     0.124 S 
ATOM     76  O   UNL     1      17.652 -12.499  -3.102  1.00  0.00    -0.237 OA
ATOM     77  O   UNL     1      19.895 -13.159  -2.299  1.00  0.00    -0.237 OA
ATOM     78  O   UNL     1      17.889 -14.309  -1.440  1.00  0.00    -0.744 OA
ENDBRANCH  74  75
ENDBRANCH  53  67
BRANCH  54  79
ATOM     79  C   UNL     1      17.287  -2.827   8.250  1.00  0.00     0.058 A 
ATOM     80  C   UNL     1      18.376  -2.051   8.674  1.00  0.00     0.135 A 
ATOM     81  C   UNL     1      16.038  -2.582   8.842  1.00  0.00     0.135 A 
ATOM     82  F   UNL     1      19.590  -2.251   8.138  1.00  0.00    -0.206 F 
ATOM     83  C   UNL     1      18.238  -1.081   9.661  1.00  0.00     0.059 A 
ATOM     84  C   UNL     1      15.871  -1.602   9.814  1.00  0.00     0.059 A 
ATOM     85  F   UNL     1      14.962  -3.284   8.455  1.00  0.00    -0.206 F 
ATOM     86  C   UNL     1      16.980  -0.864  10.226  1.00  0.00     0.060 A 
BRANCH  86  87
ATOM     87  S   UNL     1      16.796   0.430  11.472  1.00  0.00     0.124 S 
ATOM     88  O   UNL     1      17.352  -0.219  12.652  1.00  0.00    -0.237 OA
ATOM     89  O   UNL     1      17.589   1.519  10.907  1.00  0.00    -0.237 OA
ATOM     90  O   UNL     1      15.355   0.665  11.497  1.00  0.00    -0.744 OA
ENDBRANCH  86  87
ENDBRANCH  54  79
BRANCH  66  91
ATOM     91  C   UNL     1      20.437  -9.034   8.067  1.00  0.00     0.058 A 
ATOM     92  C   UNL     1      19.839  -9.610   9.200  1.00  0.00     0.135 A 
ATOM     93  C   UNL     1      21.823  -9.181   7.909  1.00  0.00     0.135 A 
ATOM     94  F   UNL     1      18.517  -9.494   9.399  1.00  0.00    -0.206 F 
ATOM     95  C   UNL     1      20.595 -10.271  10.162  1.00  0.00     0.059 A 
ATOM     96  C   UNL     1      22.596  -9.860   8.846  1.00  0.00     0.059 A 
ATOM     97  F   UNL     1      22.441  -8.659   6.837  1.00  0.00    -0.206 F 
ATOM     98  C   UNL     1      21.975 -10.384   9.980  1.00  0.00     0.060 A 
BRANCH  98  99
ATOM     99  S   UNL     1      22.950 -11.236  11.237  1.00  0.00     0.124 S 
ATOM    100  O   UNL     1      23.050 -10.213  12.273  1.00  0.00    -0.237 OA
ATOM    101  O   UNL     1      22.112 -12.387  11.561  1.00  0.00    -0.237 OA
ATOM    102  O   UNL     1      24.194 -11.553  10.542  1.00  0.00    -0.744 OA
ENDBRANCH  98  99
ENDBRANCH  66  91
ENDBRANCH  40  41
ENDBRANCH  32  35
ENDBRANCH  30  31
ENDBRANCH  29  30
ENDBRANCH  28  29
ENDBRANCH   1  28
TORSDOF 20
