REMARK SMILES CC[NH+]1CCN(c2ccc(NC(=O)C3CCCC3)c(C(=O)NCCCCCCNC(=O)c3ccc(-c4c5nc(c(-c6c(F)cc(S(=O)(=O)[O-])cc6F)c6ccc([nH]6)c(-c6c(F)cc(S(=O)(=O)[O-])cc6F)c6nc(c(-c7c(F)cc(S(=O)(=O)[O-])cc7F)c7ccc4[nH]7)C=C6)C=C5)cc3)c2)CC1
REMARK SMILES IDX 26 1 25 2 24 3 23 4 22 5 20 6 21 7 19 9 7 10 8 11 98 12 9 13
REMARK SMILES IDX 10 14 6 15 3 16 4 17 100 18 5 20 99 21 2 22 1 23 11 24 12 25
REMARK SMILES IDX 13 27 14 28 15 29 18 30 16 31 17 32 27 33 28 34 29 35 30 36
REMARK SMILES IDX 31 38 32 39 33 40 97 41 34 42 96 43 35 44 36 45 37 46 90 47
REMARK SMILES IDX 38 48 95 49 89 50 91 51 39 52 94 53 88 54 87 55 40 57 74 58
REMARK SMILES IDX 53 59 73 60 54 61 57 62 72 63 92 64 55 65 56 66 71 68 93 69
REMARK SMILES IDX 58 70 41 71 42 72 51 73 43 74 44 75 50 76 52 77 45 78 46 79
REMARK SMILES IDX 47 80 48 81 49 82 75 83 76 84 85 85 77 86 78 87 84 88 86 89
REMARK SMILES IDX 79 90 80 91 81 92 82 93 83 94 59 95 60 96 69 97 61 98 62 99
REMARK SMILES IDX 68 100 70 101 63 102 64 103 65 104 66 105 67 106
REMARK H PARENT 22 8 3 19 11 26 29 37 91 56 57 67
REMARK Flexibility Score: inf
ROOT
ATOM      1  C   UNL     1       1.316   6.224   7.163  1.00  0.00     0.002 C 
ENDROOT
BRANCH   1   2
ATOM      2  C   UNL     1       2.524   6.551   6.283  1.00  0.00     0.002 C 
BRANCH   2   3
ATOM      3  C   UNL     1       2.580   5.865   4.922  1.00  0.00     0.021 C 
BRANCH   3   4
ATOM      4  C   UNL     1       1.339   5.974   4.044  1.00  0.00     0.116 C 
BRANCH   4   5
ATOM      5  N   UNL     1       0.981   7.320   3.611  1.00  0.00    -0.352 N 
ATOM      6  C   UNL     1       0.467   7.766   2.403  1.00  0.00     0.253 C 
ATOM      7  O   UNL     1       0.238   8.966   2.256  1.00  0.00    -0.269 OA
ATOM      8  H   UNL     1       1.127   8.024   4.284  1.00  0.00     0.163 HD
BRANCH   6   9
ATOM      9  C   UNL     1       0.301   6.840   1.242  1.00  0.00     0.065 A 
ATOM     10  C   UNL     1       0.272   4.500   0.574  1.00  0.00     0.038 A 
ATOM     11  C   UNL     1       0.773   4.903  -0.658  1.00  0.00     0.028 A 
ATOM     12  C   UNL     1      -0.074   5.505   1.475  1.00  0.00     0.042 A 
ATOM     13  C   UNL     1       0.978   6.242  -0.954  1.00  0.00     0.029 A 
ATOM     14  C   UNL     1       0.673   7.244  -0.054  1.00  0.00     0.054 A 
BRANCH  10  15
ATOM     15  N   UNL     1       0.323   3.175   0.938  1.00  0.00    -0.360 N 
ATOM     16  N   UNL     1       1.042   0.684   2.296  1.00  0.00    -0.332 N 
ATOM     17  C   UNL     1       2.028   1.460   1.538  1.00  0.00     0.283 C 
ATOM     18  C   UNL     1       0.012   1.600   2.832  1.00  0.00     0.283 C 
ATOM     19  H   UNL     1       1.563   0.251   3.058  1.00  0.00     0.348 HD
ATOM     20  C   UNL     1       1.446   2.363   0.437  1.00  0.00     0.178 C 
ATOM     21  C   UNL     1      -0.674   2.495   1.773  1.00  0.00     0.178 C 
BRANCH  16  22
ATOM     22  C   UNL     1       0.475  -0.502   1.640  1.00  0.00     0.258 C 
ATOM     23  C   UNL     1       0.814  -0.806   0.181  1.00  0.00     0.071 C 
ENDBRANCH  16  22
ENDBRANCH  10  15
BRANCH  14  24
ATOM     24  N   UNL     1       0.754   8.603  -0.416  1.00  0.00    -0.325 N 
ATOM     25  C   UNL     1       0.720   9.275  -1.604  1.00  0.00     0.227 C 
ATOM     26  H   UNL     1       0.859   9.201   0.359  1.00  0.00     0.169 HD
ATOM     27  O   UNL     1       0.905  10.501  -1.547  1.00  0.00    -0.274 OA
BRANCH  25  28
ATOM     28  C   UNL     1       0.460   8.669  -2.997  1.00  0.00     0.079 C 
ATOM     29  C   UNL     1       1.698   8.092  -3.677  1.00  0.00     0.013 C 
ATOM     30  C   UNL     1      -0.686   7.672  -3.160  1.00  0.00     0.013 C 
ATOM     31  C   UNL     1       1.262   6.835  -4.423  1.00  0.00     0.001 C 
ATOM     32  C   UNL     1      -0.176   6.526  -4.029  1.00  0.00     0.001 C 
ENDBRANCH  25  28
ENDBRANCH  14  24
ENDBRANCH   6   9
ENDBRANCH   4   5
ENDBRANCH   3   4
ENDBRANCH   2   3
ENDBRANCH   1   2
BRANCH   1  33
ATOM     33  C   UNL     1       1.027   4.741   7.408  1.00  0.00     0.021 C 
BRANCH  33  34
ATOM     34  C   UNL     1       2.190   3.914   7.948  1.00  0.00     0.116 C 
BRANCH  34  35
ATOM     35  N   UNL     1       2.683   4.407   9.222  1.00  0.00    -0.352 N 
ATOM     36  C   UNL     1       2.838   3.748  10.419  1.00  0.00     0.251 C 
ATOM     37  H   UNL     1       2.948   5.356   9.230  1.00  0.00     0.163 HD
ATOM     38  O   UNL     1       3.118   4.382  11.430  1.00  0.00    -0.269 OA
BRANCH  36  39
ATOM     39  C   UNL     1       2.642   2.282  10.493  1.00  0.00     0.039 A 
ATOM     40  C   UNL     1       1.905   1.755  11.556  1.00  0.00     0.014 A 
ATOM     41  C   UNL     1       3.191   1.429   9.531  1.00  0.00     0.014 A 
ATOM     42  C   UNL     1       1.664   0.380  11.619  1.00  0.00     0.010 A 
ATOM     43  C   UNL     1       2.888   0.069   9.556  1.00  0.00     0.010 A 
ATOM     44  C   UNL     1       2.123  -0.471  10.601  1.00  0.00    -0.014 A 
BRANCH  44  45
ATOM     45  C   UNL     1       1.804  -1.923  10.612  1.00  0.00     0.031 A 
ATOM     46  C   UNL     1       2.905  -2.943  10.724  1.00  0.00     0.074 A 
ATOM     47  C   UNL     1       0.525  -2.324  10.464  1.00  0.00     0.049 A 
ATOM     48  N   UNL     1       2.827  -4.249  10.699  1.00  0.00    -0.248 NA
ATOM     49  C   UNL     1       4.277  -2.428  10.859  1.00  0.00     0.031 C 
ATOM     50  C   UNL     1      -0.626  -1.433  10.299  1.00  0.00     0.029 A 
ATOM     51  N   UNL     1      -0.023  -3.582  10.420  1.00  0.00    -0.354 N 
ATOM     52  C   UNL     1       4.134  -4.711  10.805  1.00  0.00     0.074 A 
ATOM     53  C   UNL     1       4.990  -3.545  10.839  1.00  0.00     0.031 C 
ATOM     54  C   UNL     1      -1.743  -2.170  10.195  1.00  0.00     0.029 A 
ATOM     55  C   UNL     1      -1.388  -3.585  10.244  1.00  0.00     0.049 A 
ATOM     56  H   UNL     1       0.510  -4.405  10.506  1.00  0.00     0.167 HD
ATOM     57  C   UNL     1       4.577  -5.988  10.890  1.00  0.00     0.037 A 
ATOM     58  C   UNL     1      -2.254  -4.610  10.124  1.00  0.00     0.037 A 
ATOM     59  C   UNL     1       3.716  -7.143  10.874  1.00  0.00     0.049 A 
ATOM     60  C   UNL     1      -1.735  -6.021  10.206  1.00  0.00     0.074 A 
ATOM     61  C   UNL     1       4.063  -8.475  11.013  1.00  0.00     0.029 A 
ATOM     62  N   UNL     1       2.340  -7.104  10.702  1.00  0.00    -0.354 N 
ATOM     63  N   UNL     1      -0.503  -6.437  10.377  1.00  0.00    -0.248 NA
ATOM     64  C   UNL     1      -2.724  -7.101  10.083  1.00  0.00     0.031 C 
ATOM     65  C   UNL     1       2.904  -9.246  10.871  1.00  0.00     0.029 A 
ATOM     66  C   UNL     1       1.826  -8.392  10.702  1.00  0.00     0.049 A 
ATOM     67  H   UNL     1       1.807  -6.284  10.595  1.00  0.00     0.167 HD
ATOM     68  C   UNL     1      -0.571  -7.826  10.407  1.00  0.00     0.074 A 
ATOM     69  C   UNL     1      -1.968  -8.178  10.253  1.00  0.00     0.031 C 
ATOM     70  C   UNL     1       0.432  -8.728  10.549  1.00  0.00     0.037 A 
BRANCH  57  71
ATOM     71  C   UNL     1       6.062  -6.207  11.009  1.00  0.00     0.058 A 
ATOM     72  C   UNL     1       6.771  -5.854  12.169  1.00  0.00     0.135 A 
ATOM     73  C   UNL     1       6.781  -6.816   9.967  1.00  0.00     0.135 A 
ATOM     74  F   UNL     1       6.138  -5.256  13.193  1.00  0.00    -0.206 F 
ATOM     75  C   UNL     1       8.141  -6.066  12.280  1.00  0.00     0.059 A 
ATOM     76  C   UNL     1       8.147  -7.066  10.068  1.00  0.00     0.059 A 
ATOM     77  F   UNL     1       6.156  -7.175   8.835  1.00  0.00    -0.206 F 
ATOM     78  C   UNL     1       8.820  -6.674  11.223  1.00  0.00     0.060 A 
BRANCH  78  79
ATOM     79  S   UNL     1      10.597  -6.947  11.387  1.00  0.00     0.124 S 
ATOM     80  O   UNL     1      11.112  -5.586  11.277  1.00  0.00    -0.237 OA
ATOM     81  O   UNL     1      10.698  -7.558  12.708  1.00  0.00    -0.237 OA
ATOM     82  O   UNL     1      10.911  -7.828  10.266  1.00  0.00    -0.744 OA
ENDBRANCH  78  79
ENDBRANCH  57  71
BRANCH  58  83
ATOM     83  C   UNL     1      -3.704  -4.339   9.926  1.00  0.00     0.058 A 
ATOM     84  C   UNL     1      -4.638  -4.629  10.932  1.00  0.00     0.135 A 
ATOM     85  C   UNL     1      -4.184  -3.776   8.733  1.00  0.00     0.135 A 
ATOM     86  F   UNL     1      -4.231  -5.176  12.088  1.00  0.00    -0.206 F 
ATOM     87  C   UNL     1      -5.997  -4.387  10.758  1.00  0.00     0.059 A 
ATOM     88  C   UNL     1      -5.534  -3.498   8.546  1.00  0.00     0.059 A 
ATOM     89  F   UNL     1      -3.331  -3.464   7.745  1.00  0.00    -0.206 F 
ATOM     90  C   UNL     1      -6.435  -3.818   9.561  1.00  0.00     0.060 A 
BRANCH  90  91
ATOM     91  S   UNL     1      -8.195  -3.464   9.363  1.00  0.00     0.124 S 
ATOM     92  O   UNL     1      -8.748  -4.804   9.207  1.00  0.00    -0.237 OA
ATOM     93  O   UNL     1      -8.512  -2.781  10.613  1.00  0.00    -0.237 OA
ATOM     94  O   UNL     1      -8.235  -2.622   8.170  1.00  0.00    -0.744 OA
ENDBRANCH  90  91
ENDBRANCH  58  83
BRANCH  70  95
ATOM     95  C   UNL     1       0.057 -10.185  10.571  1.00  0.00     0.058 A 
ATOM     96  C   UNL     1      -0.367 -10.856   9.413  1.00  0.00     0.135 A 
ATOM     97  C   UNL     1       0.176 -10.932  11.754  1.00  0.00     0.135 A 
ATOM     98  F   UNL     1      -0.506 -10.188   8.257  1.00  0.00    -0.206 F 
ATOM     99  C   UNL     1      -0.681 -12.211   9.433  1.00  0.00     0.059 A 
ATOM    100  C   UNL     1      -0.103 -12.295  11.790  1.00  0.00     0.059 A 
ATOM    101  F   UNL     1       0.587 -10.342  12.888  1.00  0.00    -0.206 F 
ATOM    102  C   UNL     1      -0.542 -12.923  10.626  1.00  0.00     0.060 A 
BRANCH 102 103
ATOM    103  S   UNL     1      -0.917 -14.689  10.627  1.00  0.00     0.124 S 
ATOM    104  O   UNL     1      -2.372 -14.681  10.527  1.00  0.00    -0.237 OA
ATOM    105  O   UNL     1      -0.203 -15.159   9.443  1.00  0.00    -0.237 OA
ATOM    106  O   UNL     1      -0.377 -15.151  11.902  1.00  0.00    -0.744 OA
ENDBRANCH 102 103
ENDBRANCH  70  95
ENDBRANCH  44  45
ENDBRANCH  36  39
ENDBRANCH  34  35
ENDBRANCH  33  34
ENDBRANCH   1  33
TORSDOF 20
