REMARK SMILES Cc1ccc(N2C(=O)C[C@H](Sc3ccccc3C(=O)NCCCCCCNC(=O)c3ccc(-c4c5nc(c(-c6c(F)cc(S(=O)(=O)[O-])cc6F)c6ccc([nH]6)c(-c6c(F)cc(S(=O)(=O)[O-])cc6F)c6nc(c(-c7c(F)cc(S(=O)(=O)[O-])cc7F)c7ccc4[nH]7)C=C6)C=C5)cc3)C2=O)cc1
REMARK SMILES IDX 23 1 22 2 21 3 20 4 18 5 19 6 17 8 12 9 13 10 14 11 16 12
REMARK SMILES IDX 15 13 11 14 10 15 6 16 7 17 96 18 8 19 9 20 97 21 5 22 1 23
REMARK SMILES IDX 2 24 3 25 99 26 4 27 98 28 24 29 25 30 26 31 27 32 28 33
REMARK SMILES IDX 29 35 30 36 31 37 95 38 32 39 94 40 33 41 34 42 35 43 88 44
REMARK SMILES IDX 36 45 93 46 87 47 89 48 37 49 92 50 86 51 85 52 38 54 72 55
REMARK SMILES IDX 51 56 71 57 52 58 55 59 70 60 90 61 53 62 54 63 69 65 91 66
REMARK SMILES IDX 56 67 39 68 40 69 49 70 41 71 42 72 48 73 50 74 43 75 44 76
REMARK SMILES IDX 45 77 46 78 47 79 73 80 74 81 83 82 75 83 76 84 82 85 84 86
REMARK SMILES IDX 77 87 78 88 79 89 80 90 81 91 57 92 58 93 67 94 59 95 60 96
REMARK SMILES IDX 66 97 68 98 61 99 62 100 63 101 64 102 65 103
REMARK H PARENT 20 7 27 34 89 53 55 64
REMARK Flexibility Score: inf
ROOT
ATOM      1  C   UNL     1      -5.334   5.073  -3.613  1.00  0.00     0.002 C 
ENDROOT
BRANCH   1   2
ATOM      2  C   UNL     1      -4.564   5.036  -2.290  1.00  0.00     0.021 C 
BRANCH   2   3
ATOM      3  C   UNL     1      -5.339   4.926  -0.977  1.00  0.00     0.116 C 
BRANCH   3   4
ATOM      4  N   UNL     1      -6.399   3.933  -0.939  1.00  0.00    -0.352 N 
ATOM      5  C   UNL     1      -6.876   3.165   0.104  1.00  0.00     0.252 C 
ATOM      6  O   UNL     1      -7.915   2.531  -0.062  1.00  0.00    -0.269 OA
ATOM      7  H   UNL     1      -6.852   3.782  -1.800  1.00  0.00     0.163 HD
BRANCH   5   8
ATOM      8  C   UNL     1      -6.132   3.062   1.390  1.00  0.00     0.053 A 
ATOM      9  C   UNL     1      -5.861   1.820   2.011  1.00  0.00     0.021 A 
ATOM     10  C   UNL     1      -5.130   1.814   3.215  1.00  0.00     0.016 A 
ATOM     11  C   UNL     1      -4.704   3.003   3.809  1.00  0.00     0.001 A 
ATOM     12  C   UNL     1      -5.755   4.252   2.039  1.00  0.00     0.015 A 
ATOM     13  C   UNL     1      -5.034   4.223   3.232  1.00  0.00     0.001 A 
BRANCH   9  14
ATOM     14  S   UNL     1      -6.597   0.239   1.568  1.00  0.00    -0.111 SA
BRANCH  14  15
ATOM     15  C   UNL     1      -5.464  -0.500   0.346  1.00  0.00     0.151 C 
ATOM     16  N   UNL     1      -3.228   0.099   0.028  1.00  0.00    -0.250 N 
ATOM     17  C   UNL     1      -3.945   0.783  -0.930  1.00  0.00     0.235 C 
ATOM     18  C   UNL     1      -4.050  -0.655   0.838  1.00  0.00     0.247 C 
ATOM     19  O   UNL     1      -3.557   1.614  -1.738  1.00  0.00    -0.274 OA
ATOM     20  C   UNL     1      -5.339   0.240  -0.960  1.00  0.00     0.126 C 
ATOM     21  O   UNL     1      -3.744  -1.329   1.815  1.00  0.00    -0.273 OA
BRANCH  16  22
ATOM     22  C   UNL     1      -1.810   0.119   0.116  1.00  0.00     0.052 A 
ATOM     23  C   UNL     1       2.520   0.022   0.029  1.00  0.00     0.044 C 
ATOM     24  C   UNL     1       1.023   0.072   0.107  1.00  0.00    -0.051 A 
ATOM     25  C   UNL     1       0.295  -1.055   0.496  1.00  0.00     0.005 A 
ATOM     26  C   UNL     1       0.329   1.222  -0.274  1.00  0.00     0.005 A 
ATOM     27  C   UNL     1      -1.104  -1.024   0.522  1.00  0.00     0.027 A 
ATOM     28  C   UNL     1      -1.070   1.241  -0.278  1.00  0.00     0.027 A 
ENDBRANCH  16  22
ENDBRANCH  14  15
ENDBRANCH   9  14
ENDBRANCH   5   8
ENDBRANCH   3   4
ENDBRANCH   2   3
ENDBRANCH   1   2
BRANCH   1  29
ATOM     29  C   UNL     1      -6.522   6.031  -3.751  1.00  0.00     0.002 C 
BRANCH  29  30
ATOM     30  C   UNL     1      -6.311   7.483  -3.327  1.00  0.00     0.021 C 
BRANCH  30  31
ATOM     31  C   UNL     1      -5.258   8.241  -4.132  1.00  0.00     0.116 C 
BRANCH  31  32
ATOM     32  N   UNL     1      -5.814   9.367  -4.877  1.00  0.00    -0.352 N 
ATOM     33  C   UNL     1      -5.130  10.397  -5.503  1.00  0.00     0.251 C 
ATOM     34  H   UNL     1      -6.796   9.398  -4.942  1.00  0.00     0.163 HD
ATOM     35  O   UNL     1      -5.709  11.321  -6.047  1.00  0.00    -0.269 OA
BRANCH  33  36
ATOM     36  C   UNL     1      -3.656  10.307  -5.527  1.00  0.00     0.039 A 
ATOM     37  C   UNL     1      -3.029  10.026  -6.745  1.00  0.00     0.014 A 
ATOM     38  C   UNL     1      -2.957  10.242  -4.325  1.00  0.00     0.014 A 
ATOM     39  C   UNL     1      -1.744   9.486  -6.740  1.00  0.00     0.010 A 
ATOM     40  C   UNL     1      -1.715   9.635  -4.319  1.00  0.00     0.010 A 
ATOM     41  C   UNL     1      -1.130   9.202  -5.521  1.00  0.00    -0.014 A 
BRANCH  41  42
ATOM     42  C   UNL     1       0.060   8.362  -5.381  1.00  0.00     0.031 A 
ATOM     43  C   UNL     1       1.343   8.941  -4.917  1.00  0.00     0.074 A 
ATOM     44  C   UNL     1      -0.022   7.028  -5.580  1.00  0.00     0.049 A 
ATOM     45  N   UNL     1       2.478   8.324  -4.923  1.00  0.00    -0.248 NA
ATOM     46  C   UNL     1       1.453  10.328  -4.483  1.00  0.00     0.031 C 
ATOM     47  C   UNL     1       0.915   6.011  -5.111  1.00  0.00     0.029 A 
ATOM     48  N   UNL     1      -0.866   6.344  -6.455  1.00  0.00    -0.354 N 
ATOM     49  C   UNL     1       3.404   9.111  -4.276  1.00  0.00     0.074 A 
ATOM     50  C   UNL     1       2.737  10.380  -4.117  1.00  0.00     0.031 C 
ATOM     51  C   UNL     1       0.770   4.907  -5.856  1.00  0.00     0.029 A 
ATOM     52  C   UNL     1      -0.152   5.223  -6.930  1.00  0.00     0.049 A 
ATOM     53  H   UNL     1      -1.786   6.595  -6.696  1.00  0.00     0.167 HD
ATOM     54  C   UNL     1       4.580   8.547  -3.866  1.00  0.00     0.037 A 
ATOM     55  C   UNL     1       0.126   5.079  -8.261  1.00  0.00     0.037 A 
ATOM     56  C   UNL     1       4.780   7.237  -4.497  1.00  0.00     0.049 A 
ATOM     57  C   UNL     1       1.599   5.099  -8.614  1.00  0.00     0.074 A 
ATOM     58  C   UNL     1       4.658   5.917  -4.094  1.00  0.00     0.029 A 
ATOM     59  N   UNL     1       4.956   7.196  -5.871  1.00  0.00    -0.354 N 
ATOM     60  N   UNL     1       2.567   5.227  -7.750  1.00  0.00    -0.248 NA
ATOM     61  C   UNL     1       2.093   5.057  -9.994  1.00  0.00     0.031 C 
ATOM     62  C   UNL     1       4.713   5.089  -5.256  1.00  0.00     0.029 A 
ATOM     63  C   UNL     1       4.876   5.907  -6.359  1.00  0.00     0.049 A 
ATOM     64  H   UNL     1       5.118   7.990  -6.430  1.00  0.00     0.167 HD
ATOM     65  C   UNL     1       3.750   5.387  -8.419  1.00  0.00     0.074 A 
ATOM     66  C   UNL     1       3.414   5.232  -9.820  1.00  0.00     0.031 C 
ATOM     67  C   UNL     1       4.920   5.701  -7.797  1.00  0.00     0.037 A 
BRANCH  54  68
ATOM     68  C   UNL     1       5.479   9.077  -2.751  1.00  0.00     0.058 A 
ATOM     69  C   UNL     1       6.441   8.230  -2.147  1.00  0.00     0.135 A 
ATOM     70  C   UNL     1       5.392  10.350  -2.150  1.00  0.00     0.135 A 
ATOM     71  F   UNL     1       6.702   7.008  -2.632  1.00  0.00    -0.206 F 
ATOM     72  C   UNL     1       7.170   8.583  -1.004  1.00  0.00     0.059 A 
ATOM     73  C   UNL     1       6.093  10.719  -1.000  1.00  0.00     0.059 A 
ATOM     74  F   UNL     1       4.640  11.331  -2.646  1.00  0.00    -0.206 F 
ATOM     75  C   UNL     1       6.965   9.822  -0.416  1.00  0.00     0.060 A 
BRANCH  75  76
ATOM     76  S   UNL     1       7.827  10.245   1.106  1.00  0.00     0.124 S 
ATOM     77  O   UNL     1       7.338   9.222   2.025  1.00  0.00    -0.237 OA
ATOM     78  O   UNL     1       9.226  10.131   0.710  1.00  0.00    -0.237 OA
ATOM     79  O   UNL     1       7.369  11.602   1.392  1.00  0.00    -0.744 OA
ENDBRANCH  75  76
ENDBRANCH  54  68
BRANCH  55  80
ATOM     80  C   UNL     1      -0.975   5.576  -9.128  1.00  0.00     0.058 A 
ATOM     81  C   UNL     1      -2.201   4.886  -9.078  1.00  0.00     0.135 A 
ATOM     82  C   UNL     1      -0.983   6.893  -9.607  1.00  0.00     0.135 A 
ATOM     83  F   UNL     1      -2.240   3.616  -8.642  1.00  0.00    -0.206 F 
ATOM     84  C   UNL     1      -3.406   5.531  -9.315  1.00  0.00     0.059 A 
ATOM     85  C   UNL     1      -2.181   7.556  -9.866  1.00  0.00     0.059 A 
ATOM     86  F   UNL     1       0.158   7.595  -9.679  1.00  0.00    -0.206 F 
ATOM     87  C   UNL     1      -3.385   6.886  -9.640  1.00  0.00     0.060 A 
BRANCH  87  88
ATOM     88  S   UNL     1      -4.946   7.793  -9.548  1.00  0.00     0.124 S 
ATOM     89  O   UNL     1      -5.768   7.084 -10.521  1.00  0.00    -0.237 OA
ATOM     90  O   UNL     1      -5.310   7.599  -8.146  1.00  0.00    -0.237 OA
ATOM     91  O   UNL     1      -4.563   9.152  -9.914  1.00  0.00    -0.744 OA
ENDBRANCH  87  88
ENDBRANCH  55  80
BRANCH  67  92
ATOM     92  C   UNL     1       6.208   5.860  -8.540  1.00  0.00     0.058 A 
ATOM     93  C   UNL     1       6.730   4.827  -9.334  1.00  0.00     0.135 A 
ATOM     94  C   UNL     1       7.018   6.999  -8.366  1.00  0.00     0.135 A 
ATOM     95  F   UNL     1       6.024   3.703  -9.539  1.00  0.00    -0.206 F 
ATOM     96  C   UNL     1       7.990   4.917  -9.924  1.00  0.00     0.059 A 
ATOM     97  C   UNL     1       8.293   7.096  -8.915  1.00  0.00     0.059 A 
ATOM     98  F   UNL     1       6.576   8.057  -7.668  1.00  0.00    -0.206 F 
ATOM     99  C   UNL     1       8.769   6.052  -9.701  1.00  0.00     0.060 A 
BRANCH  99 100
ATOM    100  S   UNL     1      10.430   6.147 -10.400  1.00  0.00     0.124 S 
ATOM    101  O   UNL     1      10.854   4.750 -10.422  1.00  0.00    -0.237 OA
ATOM    102  O   UNL     1      10.162   6.744 -11.705  1.00  0.00    -0.237 OA
ATOM    103  O   UNL     1      11.143   6.996  -9.451  1.00  0.00    -0.744 OA
ENDBRANCH  99 100
ENDBRANCH  67  92
ENDBRANCH  41  42
ENDBRANCH  33  36
ENDBRANCH  31  32
ENDBRANCH  30  31
ENDBRANCH  29  30
ENDBRANCH   1  29
TORSDOF 19
