REMARK SMILES CCOc1ccc(C(=O)N2CCC(C(=O)NCCCCCCNC(=O)c3ccc(-c4c5nc(c(-c6c(F)cc(S(=O)(=O)[O-])cc6F)c6ccc([nH]6)c(-c6c(F)cc(S(=O)(=O)[O-])cc6F)c6nc(c(-c7c(F)cc(S(=O)(=O)[O-])cc7F)c7ccc4[nH]7)C=C6)C=C5)cc3)(c3ccccc3)CC2)cc1OC
REMARK SMILES IDX 19 1 18 2 17 3 16 4 14 5 15 6 13 8 8 9 9 10 10 11 11 12
REMARK SMILES IDX 99 13 12 14 98 15 7 16 4 17 5 18 101 19 6 20 100 21 3 22
REMARK SMILES IDX 2 23 1 24 102 25 103 26 92 27 93 28 97 29 94 30 96 31 95 32
REMARK SMILES IDX 20 33 21 34 22 35 23 36 24 37 25 39 26 40 27 41 91 42 28 43
REMARK SMILES IDX 90 44 29 45 30 46 31 47 84 48 32 49 89 50 83 51 85 52 33 53
REMARK SMILES IDX 88 54 82 55 81 56 34 58 68 59 47 60 67 61 48 62 51 63 66 64
REMARK SMILES IDX 86 65 49 66 50 67 65 69 87 70 52 71 35 72 36 73 45 74 37 75
REMARK SMILES IDX 38 76 44 77 46 78 39 79 40 80 41 81 42 82 43 83 69 84 70 85
REMARK SMILES IDX 79 86 71 87 72 88 78 89 80 90 73 91 74 92 75 93 76 94 77 95
REMARK SMILES IDX 53 96 54 97 63 98 55 99 56 100 62 101 64 102 57 103 58 104
REMARK SMILES IDX 59 105 60 106 61 107
REMARK H PARENT 16 7 23 38 85 57 51 68
REMARK Flexibility Score: inf
ROOT
ATOM      1  C   UNL     1      12.557   5.741   2.325  1.00  0.00     0.002 C 
ENDROOT
BRANCH   1   2
ATOM      2  C   UNL     1      11.390   4.755   2.453  1.00  0.00     0.021 C 
BRANCH   2   3
ATOM      3  C   UNL     1      10.485   4.710   1.225  1.00  0.00     0.116 C 
BRANCH   3   4
ATOM      4  N   UNL     1      11.222   4.226   0.068  1.00  0.00    -0.355 N 
ATOM      5  C   UNL     1      11.085   3.124  -0.729  1.00  0.00     0.230 C 
ATOM      6  O   UNL     1      12.014   2.987  -1.528  1.00  0.00    -0.274 OA
ATOM      7  H   UNL     1      11.970   4.810  -0.194  1.00  0.00     0.163 HD
BRANCH   5   8
ATOM      8  C   UNL     1       9.843   2.170  -0.614  1.00  0.00     0.077 C 
ATOM      9  C   UNL     1       6.572   2.367   2.273  1.00  0.00     0.253 C 
ATOM     10  O   UNL     1       6.919   2.484   3.449  1.00  0.00    -0.269 OA
ATOM     11  N   UNL     1       7.528   2.244   1.245  1.00  0.00    -0.339 N 
ATOM     12  C   UNL     1       8.588   1.287   1.510  1.00  0.00     0.121 C 
ATOM     13  C   UNL     1       7.339   2.702  -0.130  1.00  0.00     0.121 C 
ATOM     14  C   UNL     1       9.911   1.539   0.805  1.00  0.00     0.043 C 
ATOM     15  C   UNL     1       8.614   3.098  -0.852  1.00  0.00     0.043 C 
BRANCH   9  16
ATOM     16  C   UNL     1       5.109   2.186   1.989  1.00  0.00     0.043 A 
ATOM     17  C   UNL     1       2.374   1.614   1.525  1.00  0.00     0.161 A 
ATOM     18  C   UNL     1       2.800   2.141   2.757  1.00  0.00     0.051 A 
ATOM     19  C   UNL     1       3.307   1.403   0.516  1.00  0.00     0.161 A 
ATOM     20  C   UNL     1       4.156   2.439   2.982  1.00  0.00     0.018 A 
ATOM     21  C   UNL     1       4.657   1.616   0.801  1.00  0.00     0.064 A 
BRANCH  17  22
ATOM     22  O   UNL     1       1.046   1.380   1.313  1.00  0.00    -0.490 OA
BRANCH  22  23
ATOM     23  C   UNL     1       0.536   0.268   2.059  1.00  0.00     0.226 C 
ATOM     24  C   UNL     1      -0.080  -0.727   1.086  1.00  0.00     0.049 C 
ENDBRANCH  22  23
ENDBRANCH  17  22
BRANCH  19  25
ATOM     25  O   UNL     1       3.153   0.993  -0.776  1.00  0.00    -0.493 OA
ATOM     26  C   UNL     1       1.866   0.741  -1.297  1.00  0.00     0.278 C 
ENDBRANCH  19  25
ENDBRANCH   9  16
BRANCH   8  27
ATOM     27  C   UNL     1       9.771   0.990  -1.656  1.00  0.00    -0.032 A 
ATOM     28  C   UNL     1      10.717   0.766  -2.669  1.00  0.00     0.005 A 
ATOM     29  C   UNL     1       8.704   0.062  -1.614  1.00  0.00     0.005 A 
ATOM     30  C   UNL     1      10.606  -0.297  -3.579  1.00  0.00     0.000 A 
ATOM     31  C   UNL     1       8.579  -0.993  -2.527  1.00  0.00     0.000 A 
ATOM     32  C   UNL     1       9.533  -1.174  -3.513  1.00  0.00     0.000 A 
ENDBRANCH   8  27
ENDBRANCH   5   8
ENDBRANCH   3   4
ENDBRANCH   2   3
ENDBRANCH   1   2
BRANCH   1  33
ATOM     33  C   UNL     1      12.150   7.180   1.997  1.00  0.00     0.002 C 
BRANCH  33  34
ATOM     34  C   UNL     1      11.111   7.783   2.945  1.00  0.00     0.021 C 
BRANCH  34  35
ATOM     35  C   UNL     1      11.512   7.757   4.414  1.00  0.00     0.116 C 
BRANCH  35  36
ATOM     36  N   UNL     1      12.710   8.541   4.662  1.00  0.00    -0.352 N 
ATOM     37  C   UNL     1      12.909   9.548   5.574  1.00  0.00     0.251 C 
ATOM     38  H   UNL     1      13.487   8.319   4.099  1.00  0.00     0.163 HD
ATOM     39  O   UNL     1      13.914  10.246   5.511  1.00  0.00    -0.269 OA
BRANCH  37  40
ATOM     40  C   UNL     1      11.890   9.793   6.617  1.00  0.00     0.039 A 
ATOM     41  C   UNL     1      11.497  11.107   6.882  1.00  0.00     0.014 A 
ATOM     42  C   UNL     1      11.319   8.730   7.322  1.00  0.00     0.014 A 
ATOM     43  C   UNL     1      10.491  11.348   7.819  1.00  0.00     0.010 A 
ATOM     44  C   UNL     1      10.261   8.966   8.193  1.00  0.00     0.010 A 
ATOM     45  C   UNL     1       9.842  10.278   8.458  1.00  0.00    -0.014 A 
BRANCH  45  46
ATOM     46  C   UNL     1       8.725  10.514   9.408  1.00  0.00     0.031 A 
ATOM     47  C   UNL     1       8.862  10.116  10.852  1.00  0.00     0.074 A 
ATOM     48  C   UNL     1       7.568  11.039   8.957  1.00  0.00     0.049 A 
ATOM     49  N   UNL     1       7.987  10.206  11.821  1.00  0.00    -0.248 NA
ATOM     50  C   UNL     1      10.142   9.513  11.255  1.00  0.00     0.031 C 
ATOM     51  C   UNL     1       7.299  11.423   7.570  1.00  0.00     0.029 A 
ATOM     52  N   UNL     1       6.402  11.336   9.615  1.00  0.00    -0.354 N 
ATOM     53  C   UNL     1       8.606   9.666  12.942  1.00  0.00     0.074 A 
ATOM     54  C   UNL     1       9.905   9.191  12.518  1.00  0.00     0.031 C 
ATOM     55  C   UNL     1       6.061  11.937   7.488  1.00  0.00     0.029 A 
ATOM     56  C   UNL     1       5.433  11.879   8.804  1.00  0.00     0.049 A 
ATOM     57  H   UNL     1       6.271  11.176  10.578  1.00  0.00     0.167 HD
ATOM     58  C   UNL     1       8.145   9.596  14.215  1.00  0.00     0.037 A 
ATOM     59  C   UNL     1       4.179  12.280   9.088  1.00  0.00     0.037 A 
ATOM     60  C   UNL     1       6.852  10.077  14.628  1.00  0.00     0.049 A 
ATOM     61  C   UNL     1       3.677  12.169  10.502  1.00  0.00     0.074 A 
ATOM     62  C   UNL     1       6.306  10.096  15.899  1.00  0.00     0.029 A 
ATOM     63  N   UNL     1       5.897  10.616  13.777  1.00  0.00    -0.354 N 
ATOM     64  N   UNL     1       4.298  11.715  11.564  1.00  0.00    -0.248 NA
ATOM     65  C   UNL     1       2.306  12.630  10.757  1.00  0.00     0.031 C 
ATOM     66  C   UNL     1       5.002  10.594  15.808  1.00  0.00     0.029 A 
ATOM     67  C   UNL     1       4.755  10.945  14.490  1.00  0.00     0.049 A 
ATOM     68  H   UNL     1       6.014  10.746  12.808  1.00  0.00     0.167 HD
ATOM     69  C   UNL     1       3.405  11.863  12.620  1.00  0.00     0.074 A 
ATOM     70  C   UNL     1       2.205  12.459  12.068  1.00  0.00     0.031 C 
ATOM     71  C   UNL     1       3.566  11.538  13.928  1.00  0.00     0.037 A 
BRANCH  58  72
ATOM     72  C   UNL     1       9.048   8.968  15.245  1.00  0.00     0.058 A 
ATOM     73  C   UNL     1      10.251   9.575  15.644  1.00  0.00     0.135 A 
ATOM     74  C   UNL     1       8.705   7.746  15.847  1.00  0.00     0.135 A 
ATOM     75  F   UNL     1      10.636  10.738  15.095  1.00  0.00    -0.206 F 
ATOM     76  C   UNL     1      11.103   8.972  16.564  1.00  0.00     0.059 A 
ATOM     77  C   UNL     1       9.526   7.141  16.795  1.00  0.00     0.059 A 
ATOM     78  F   UNL     1       7.567   7.120  15.509  1.00  0.00    -0.206 F 
ATOM     79  C   UNL     1      10.733   7.752  17.131  1.00  0.00     0.060 A 
BRANCH  79  80
ATOM     80  S   UNL     1      11.861   6.972  18.305  1.00  0.00     0.124 S 
ATOM     81  O   UNL     1      12.935   6.525  17.424  1.00  0.00    -0.237 OA
ATOM     82  O   UNL     1      12.193   8.076  19.199  1.00  0.00    -0.237 OA
ATOM     83  O   UNL     1      11.054   5.909  18.897  1.00  0.00    -0.744 OA
ENDBRANCH  79  80
ENDBRANCH  58  72
BRANCH  59  84
ATOM     84  C   UNL     1       3.328  12.858   8.013  1.00  0.00     0.058 A 
ATOM     85  C   UNL     1       3.010  14.225   8.004  1.00  0.00     0.135 A 
ATOM     86  C   UNL     1       2.845  12.069   6.957  1.00  0.00     0.135 A 
ATOM     87  F   UNL     1       3.442  15.020   8.995  1.00  0.00    -0.206 F 
ATOM     88  C   UNL     1       2.239  14.788   6.993  1.00  0.00     0.059 A 
ATOM     89  C   UNL     1       2.094  12.614   5.920  1.00  0.00     0.059 A 
ATOM     90  F   UNL     1       3.133  10.759   6.910  1.00  0.00    -0.206 F 
ATOM     91  C   UNL     1       1.792  13.975   5.950  1.00  0.00     0.060 A 
BRANCH  91  92
ATOM     92  S   UNL     1       0.848  14.732   4.609  1.00  0.00     0.124 S 
ATOM     93  O   UNL     1      -0.416  15.032   5.271  1.00  0.00    -0.237 OA
ATOM     94  O   UNL     1       1.678  15.882   4.264  1.00  0.00    -0.237 OA
ATOM     95  O   UNL     1       0.798  13.679   3.598  1.00  0.00    -0.744 OA
ENDBRANCH  91  92
ENDBRANCH  59  84
BRANCH  71  96
ATOM     96  C   UNL     1       2.429  11.852  14.864  1.00  0.00     0.058 A 
ATOM     97  C   UNL     1       1.224  11.132  14.835  1.00  0.00     0.135 A 
ATOM     98  C   UNL     1       2.568  12.857  15.836  1.00  0.00     0.135 A 
ATOM     99  F   UNL     1       1.035  10.166  13.923  1.00  0.00    -0.206 F 
ATOM    100  C   UNL     1       0.187  11.416  15.719  1.00  0.00     0.059 A 
ATOM    101  C   UNL     1       1.557  13.135  16.750  1.00  0.00     0.059 A 
ATOM    102  F   UNL     1       3.704  13.569  15.915  1.00  0.00    -0.206 F 
ATOM    103  C   UNL     1       0.365  12.418  16.675  1.00  0.00     0.060 A 
BRANCH 103 104
ATOM    104  S   UNL     1      -0.977  12.754  17.835  1.00  0.00     0.124 S 
ATOM    105  O   UNL     1      -1.952  13.416  16.974  1.00  0.00    -0.237 OA
ATOM    106  O   UNL     1      -1.339  11.414  18.288  1.00  0.00    -0.237 OA
ATOM    107  O   UNL     1      -0.351  13.603  18.844  1.00  0.00    -0.744 OA
ENDBRANCH 103 104
ENDBRANCH  71  96
ENDBRANCH  45  46
ENDBRANCH  37  40
ENDBRANCH  35  36
ENDBRANCH  34  35
ENDBRANCH  33  34
ENDBRANCH   1  33
TORSDOF 21
