REMARK SMILES C[C@@](NC(=O)CSCc1ccccc1)(C(=O)NCCCCCCNC(=O)c1ccc(-c2c3nc(c(-c4c(F)cc(S(=O)(=O)[O-])cc4F)c4ccc([nH]4)c(-c4c(F)cc(S(=O)(=O)[O-])cc4F)c4nc(c(-c5c(F)cc(S(=O)(=O)[O-])cc5F)c5ccc2[nH]5)C=C4)C=C3)cc1)C1CC1
REMARK SMILES IDX 19 1 18 2 17 3 15 4 16 5 2 7 1 8 3 9 4 10 5 12 6 13 7 14
REMARK SMILES IDX 8 15 9 16 10 17 14 18 11 19 13 20 12 21 93 22 94 23 95 24
REMARK SMILES IDX 20 25 21 26 22 27 23 28 24 29 25 30 26 32 27 33 28 34 92 35
REMARK SMILES IDX 29 36 91 37 30 38 31 39 32 40 85 41 33 42 90 43 84 44 86 45
REMARK SMILES IDX 34 46 89 47 83 48 82 49 35 51 69 52 48 53 68 54 49 55 52 56
REMARK SMILES IDX 67 57 87 58 50 59 51 60 66 62 88 63 53 64 36 65 37 66 46 67
REMARK SMILES IDX 38 68 39 69 45 70 47 71 40 72 41 73 42 74 43 75 44 76 70 77
REMARK SMILES IDX 71 78 80 79 72 80 73 81 79 82 81 83 74 84 75 85 76 86 77 87
REMARK SMILES IDX 78 88 54 89 55 90 64 91 56 92 57 93 63 94 65 95 58 96 59 97
REMARK SMILES IDX 60 98 61 99 62 100
REMARK H PARENT 17 6 3 11 24 31 86 50 52 61
REMARK Flexibility Score: inf
ROOT
ATOM      1  C   UNL     1      -1.620  -1.744   2.358  1.00  0.00     0.021 C 
ENDROOT
BRANCH   1   2
ATOM      2  C   UNL     1      -0.820  -1.494   1.077  1.00  0.00     0.116 C 
BRANCH   2   3
ATOM      3  N   UNL     1      -1.355  -0.417   0.271  1.00  0.00    -0.354 N 
ATOM      4  C   UNL     1      -0.860   0.247  -0.812  1.00  0.00     0.245 C 
ATOM      5  O   UNL     1      -1.679   0.984  -1.371  1.00  0.00    -0.272 OA
ATOM      6  H   UNL     1      -2.244  -0.106   0.558  1.00  0.00     0.163 HD
BRANCH   4   7
ATOM      7  C   UNL     1       0.625   0.104  -1.308  1.00  0.00     0.119 C 
ATOM      8  C   UNL     1       1.591   0.400  -0.126  1.00  0.00     0.046 C 
BRANCH   7   9
ATOM      9  N   UNL     1       0.937  -1.272  -1.752  1.00  0.00    -0.341 N 
ATOM     10  C   UNL     1       0.422  -2.044  -2.742  1.00  0.00     0.230 C 
ATOM     11  H   UNL     1       1.650  -1.710  -1.233  1.00  0.00     0.164 HD
ATOM     12  O   UNL     1       1.125  -2.983  -3.128  1.00  0.00    -0.274 OA
BRANCH  10  13
ATOM     13  C   UNL     1      -0.960  -1.824  -3.317  1.00  0.00     0.169 C 
BRANCH  13  14
ATOM     14  S   UNL     1      -2.272  -2.679  -2.373  1.00  0.00    -0.147 SA
BRANCH  14  15
ATOM     15  C   UNL     1      -1.437  -4.238  -1.923  1.00  0.00     0.105 C 
BRANCH  15  16
ATOM     16  C   UNL     1      -2.311  -5.451  -1.678  1.00  0.00    -0.038 A 
ATOM     17  C   UNL     1      -3.685  -5.516  -1.942  1.00  0.00     0.004 A 
ATOM     18  C   UNL     1      -1.673  -6.617  -1.209  1.00  0.00     0.004 A 
ATOM     19  C   UNL     1      -4.393  -6.708  -1.760  1.00  0.00     0.000 A 
ATOM     20  C   UNL     1      -2.379  -7.808  -1.030  1.00  0.00     0.000 A 
ATOM     21  C   UNL     1      -3.740  -7.854  -1.313  1.00  0.00     0.000 A 
ENDBRANCH  15  16
ENDBRANCH  14  15
ENDBRANCH  13  14
ENDBRANCH  10  13
ENDBRANCH   7   9
BRANCH   7  22
ATOM     22  C   UNL     1       1.059   1.054  -2.453  1.00  0.00     0.024 C 
ATOM     23  C   UNL     1       0.250   2.133  -3.153  1.00  0.00     0.007 C 
ATOM     24  C   UNL     1       1.285   2.528  -2.148  1.00  0.00     0.007 C 
ENDBRANCH   7  22
ENDBRANCH   4   7
ENDBRANCH   2   3
ENDBRANCH   1   2
BRANCH   1  25
ATOM     25  C   UNL     1      -3.119  -2.035   2.208  1.00  0.00     0.002 C 
BRANCH  25  26
ATOM     26  C   UNL     1      -3.509  -3.290   1.428  1.00  0.00     0.002 C 
BRANCH  26  27
ATOM     27  C   UNL     1      -2.852  -4.598   1.866  1.00  0.00     0.021 C 
BRANCH  27  28
ATOM     28  C   UNL     1      -2.993  -4.954   3.341  1.00  0.00     0.116 C 
BRANCH  28  29
ATOM     29  N   UNL     1      -4.367  -5.215   3.736  1.00  0.00    -0.352 N 
ATOM     30  C   UNL     1      -4.882  -6.253   4.473  1.00  0.00     0.251 C 
ATOM     31  H   UNL     1      -5.025  -4.551   3.429  1.00  0.00     0.163 HD
ATOM     32  O   UNL     1      -6.103  -6.366   4.585  1.00  0.00    -0.269 OA
BRANCH  30  33
ATOM     33  C   UNL     1      -3.990  -7.252   5.112  1.00  0.00     0.039 A 
ATOM     34  C   UNL     1      -4.369  -8.598   5.095  1.00  0.00     0.014 A 
ATOM     35  C   UNL     1      -2.802  -6.878   5.748  1.00  0.00     0.014 A 
ATOM     36  C   UNL     1      -3.537  -9.567   5.663  1.00  0.00     0.010 A 
ATOM     37  C   UNL     1      -1.935  -7.852   6.243  1.00  0.00     0.010 A 
ATOM     38  C   UNL     1      -2.297  -9.207   6.216  1.00  0.00    -0.014 A 
BRANCH  38  39
ATOM     39  C   UNL     1      -1.376 -10.239   6.765  1.00  0.00     0.031 A 
ATOM     40  C   UNL     1      -1.019 -10.246   8.229  1.00  0.00     0.074 A 
ATOM     41  C   UNL     1      -0.825 -11.146   5.935  1.00  0.00     0.049 A 
ATOM     42  N   UNL     1      -0.235 -11.064   8.884  1.00  0.00    -0.248 NA
ATOM     43  C   UNL     1      -1.594  -9.177   9.059  1.00  0.00     0.031 C 
ATOM     44  C   UNL     1      -1.041 -11.208   4.488  1.00  0.00     0.029 A 
ATOM     45  N   UNL     1       0.028 -12.192   6.187  1.00  0.00    -0.354 N 
ATOM     46  C   UNL     1      -0.209 -10.600  10.195  1.00  0.00     0.074 A 
ATOM     47  C   UNL     1      -1.013  -9.398  10.229  1.00  0.00     0.031 C 
ATOM     48  C   UNL     1      -0.374 -12.260   3.987  1.00  0.00     0.029 A 
ATOM     49  C   UNL     1       0.342 -12.929   5.069  1.00  0.00     0.049 A 
ATOM     50  H   UNL     1       0.381 -12.395   7.083  1.00  0.00     0.167 HD
ATOM     51  C   UNL     1       0.408 -11.138  11.275  1.00  0.00     0.037 A 
ATOM     52  C   UNL     1       1.112 -14.026   4.932  1.00  0.00     0.037 A 
ATOM     53  C   UNL     1       1.180 -12.353  11.241  1.00  0.00     0.049 A 
ATOM     54  C   UNL     1       1.766 -14.620   6.148  1.00  0.00     0.074 A 
ATOM     55  C   UNL     1       1.776 -13.026  12.293  1.00  0.00     0.029 A 
ATOM     56  N   UNL     1       1.470 -13.075  10.092  1.00  0.00    -0.354 N 
ATOM     57  N   UNL     1       1.714 -14.214   7.394  1.00  0.00    -0.248 NA
ATOM     58  C   UNL     1       2.579 -15.826   5.941  1.00  0.00     0.031 C 
ATOM     59  C   UNL     1       2.462 -14.131  11.775  1.00  0.00     0.029 A 
ATOM     60  C   UNL     1       2.257 -14.172  10.405  1.00  0.00     0.049 A 
ATOM     61  H   UNL     1       1.161 -12.843   9.187  1.00  0.00     0.167 HD
ATOM     62  C   UNL     1       2.471 -15.124   8.123  1.00  0.00     0.074 A 
ATOM     63  C   UNL     1       2.955 -16.112   7.180  1.00  0.00     0.031 C 
ATOM     64  C   UNL     1       2.742 -15.140   9.452  1.00  0.00     0.037 A 
BRANCH  51  65
ATOM     65  C   UNL     1       0.270 -10.410  12.586  1.00  0.00     0.058 A 
ATOM     66  C   UNL     1      -0.952 -10.351  13.277  1.00  0.00     0.135 A 
ATOM     67  C   UNL     1       1.377  -9.769  13.166  1.00  0.00     0.135 A 
ATOM     68  F   UNL     1      -2.046 -10.936  12.764  1.00  0.00    -0.206 F 
ATOM     69  C   UNL     1      -1.082  -9.647  14.469  1.00  0.00     0.059 A 
ATOM     70  C   UNL     1       1.277  -9.083  14.374  1.00  0.00     0.059 A 
ATOM     71  F   UNL     1       2.571  -9.795  12.553  1.00  0.00    -0.206 F 
ATOM     72  C   UNL     1       0.036  -9.010  15.007  1.00  0.00     0.060 A 
BRANCH  72  73
ATOM     73  S   UNL     1      -0.149  -8.081  16.544  1.00  0.00     0.124 S 
ATOM     74  O   UNL     1      -0.847  -6.885  16.075  1.00  0.00    -0.237 OA
ATOM     75  O   UNL     1      -0.943  -8.992  17.367  1.00  0.00    -0.237 OA
ATOM     76  O   UNL     1       1.222  -7.875  16.986  1.00  0.00    -0.744 OA
ENDBRANCH  72  73
ENDBRANCH  51  65
BRANCH  52  77
ATOM     77  C   UNL     1       1.263 -14.659   3.595  1.00  0.00     0.058 A 
ATOM     78  C   UNL     1       0.634 -15.879   3.305  1.00  0.00     0.135 A 
ATOM     79  C   UNL     1       2.003 -14.045   2.573  1.00  0.00     0.135 A 
ATOM     80  F   UNL     1      -0.079 -16.507   4.252  1.00  0.00    -0.206 F 
ATOM     81  C   UNL     1       0.738 -16.473   2.051  1.00  0.00     0.059 A 
ATOM     82  C   UNL     1       2.103 -14.608   1.304  1.00  0.00     0.059 A 
ATOM     83  F   UNL     1       2.611 -12.869   2.796  1.00  0.00    -0.206 F 
ATOM     84  C   UNL     1       1.470 -15.825   1.055  1.00  0.00     0.060 A 
BRANCH  84  85
ATOM     85  S   UNL     1       1.538 -16.568  -0.590  1.00  0.00     0.124 S 
ATOM     86  O   UNL     1       2.446 -17.688  -0.370  1.00  0.00    -0.237 OA
ATOM     87  O   UNL     1       0.140 -16.917  -0.827  1.00  0.00    -0.237 OA
ATOM     88  O   UNL     1       2.055 -15.488  -1.424  1.00  0.00    -0.744 OA
ENDBRANCH  84  85
ENDBRANCH  52  77
BRANCH  64  89
ATOM     89  C   UNL     1       3.594 -16.269   9.963  1.00  0.00     0.058 A 
ATOM     90  C   UNL     1       4.970 -16.332   9.693  1.00  0.00     0.135 A 
ATOM     91  C   UNL     1       3.032 -17.290  10.746  1.00  0.00     0.135 A 
ATOM     92  F   UNL     1       5.555 -15.384   8.944  1.00  0.00    -0.206 F 
ATOM     93  C   UNL     1       5.753 -17.385  10.153  1.00  0.00     0.059 A 
ATOM     94  C   UNL     1       3.802 -18.339  11.240  1.00  0.00     0.059 A 
ATOM     95  F   UNL     1       1.723 -17.272  11.044  1.00  0.00    -0.206 F 
ATOM     96  C   UNL     1       5.159 -18.387  10.923  1.00  0.00     0.060 A 
BRANCH  96  97
ATOM     97  S   UNL     1       6.186 -19.745  11.521  1.00  0.00     0.124 S 
ATOM     98  O   UNL     1       6.347 -20.545  10.311  1.00  0.00    -0.237 OA
ATOM     99  O   UNL     1       7.383 -19.053  11.987  1.00  0.00    -0.237 OA
ATOM    100  O   UNL     1       5.371 -20.349  12.570  1.00  0.00    -0.744 OA
ENDBRANCH  96  97
ENDBRANCH  64  89
ENDBRANCH  38  39
ENDBRANCH  30  33
ENDBRANCH  28  29
ENDBRANCH  27  28
ENDBRANCH  26  27
ENDBRANCH  25  26
ENDBRANCH   1  25
TORSDOF 22
