REMARK SMILES C=CCN(CC(=O)NCCCCCCNC(=O)c1ccc(-c2c3nc(c(-c4c(F)cc(S(=O)(=O)[O-])cc4F)c4ccc([nH]4)c(-c4c(F)cc(S(=O)(=O)[O-])cc4F)c4nc(c(-c5c(F)cc(S(=O)(=O)[O-])cc5F)c5ccc2[nH]5)C=C4)C=C3)cc1)C(=O)N1CCC[C@@H]1C(=O)OCC
REMARK SMILES IDX 10 1 9 2 8 3 6 4 7 5 5 7 4 8 3 9 2 10 1 11 84 12 85 13 86 14
REMARK SMILES IDX 87 15 90 16 88 17 89 18 91 19 92 20 93 21 94 22 95 23 11 24
REMARK SMILES IDX 12 25 13 26 14 27 15 28 16 29 17 31 18 32 19 33 83 34 20 35
REMARK SMILES IDX 82 36 21 37 22 38 23 39 76 40 24 41 81 42 75 43 77 44 25 45
REMARK SMILES IDX 80 46 74 47 73 48 26 50 60 51 39 52 59 53 40 54 43 55 58 56
REMARK SMILES IDX 78 57 41 58 42 59 57 61 79 62 44 63 27 64 28 65 37 66 29 67
REMARK SMILES IDX 30 68 36 69 38 70 31 71 32 72 33 73 34 74 35 75 61 76 62 77
REMARK SMILES IDX 71 78 63 79 64 80 70 81 72 82 65 83 66 84 67 85 68 86 69 87
REMARK SMILES IDX 45 88 46 89 55 90 47 91 48 92 54 93 56 94 49 95 50 96 51 97
REMARK SMILES IDX 52 98 53 99
REMARK H PARENT 8 6 15 30 77 49 43 60
REMARK Flexibility Score: inf
ROOT
ATOM      1  C   UNL     1      -4.412  -0.033  -0.681  1.00  0.00     0.021 C 
ENDROOT
BRANCH   1   2
ATOM      2  C   UNL     1      -4.449  -0.733   0.676  1.00  0.00     0.116 C 
BRANCH   2   3
ATOM      3  N   UNL     1      -4.732  -2.147   0.595  1.00  0.00    -0.355 N 
ATOM      4  C   UNL     1      -3.906  -3.217   0.762  1.00  0.00     0.239 C 
ATOM      5  O   UNL     1      -4.451  -4.300   1.009  1.00  0.00    -0.273 OA
ATOM      6  H   UNL     1      -5.667  -2.372   0.385  1.00  0.00     0.163 HD
BRANCH   4   7
ATOM      7  C   UNL     1      -2.368  -3.109   0.776  1.00  0.00     0.221 C 
BRANCH   7   8
ATOM      8  N   UNL     1      -1.736  -2.193  -0.180  1.00  0.00    -0.312 N 
BRANCH   8   9
ATOM      9  C   UNL     1      -1.139  -0.971   0.355  1.00  0.00     0.149 C 
BRANCH   9  10
ATOM     10  C   UNL     1       0.348  -1.115   0.495  1.00  0.00    -0.013 C 
ATOM     11  C   UNL     1       1.214  -0.199   0.039  1.00  0.00     0.006 C 
ENDBRANCH   9  10
ENDBRANCH   8   9
BRANCH   8  12
ATOM     12  C   UNL     1      -1.491  -2.485  -1.515  1.00  0.00     0.321 C 
ATOM     13  O   UNL     1      -0.924  -1.692  -2.267  1.00  0.00    -0.248 OA
BRANCH  12  14
ATOM     14  N   UNL     1      -1.758  -3.769  -1.936  1.00  0.00    -0.311 N 
ATOM     15  C   UNL     1      -3.094  -4.244  -2.224  1.00  0.00     0.122 C 
ATOM     16  C   UNL     1      -0.855  -4.359  -2.930  1.00  0.00     0.197 C 
ATOM     17  C   UNL     1      -2.858  -5.699  -2.562  1.00  0.00     0.024 C 
ATOM     18  C   UNL     1      -1.563  -5.654  -3.375  1.00  0.00     0.039 C 
BRANCH  16  19
ATOM     19  C   UNL     1       0.558  -4.670  -2.439  1.00  0.00     0.328 C 
ATOM     20  O   UNL     1       1.539  -4.645  -3.176  1.00  0.00    -0.250 OA
BRANCH  19  21
ATOM     21  O   UNL     1       0.565  -5.141  -1.159  1.00  0.00    -0.464 OA
BRANCH  21  22
ATOM     22  C   UNL     1       1.853  -5.451  -0.603  1.00  0.00     0.229 C 
ATOM     23  C   UNL     1       2.522  -6.654  -1.253  1.00  0.00     0.049 C 
ENDBRANCH  21  22
ENDBRANCH  19  21
ENDBRANCH  16  19
ENDBRANCH  12  14
ENDBRANCH   8  12
ENDBRANCH   7   8
ENDBRANCH   4   7
ENDBRANCH   2   3
ENDBRANCH   1   2
BRANCH   1  24
ATOM     24  C   UNL     1      -5.772   0.103  -1.374  1.00  0.00     0.002 C 
BRANCH  24  25
ATOM     25  C   UNL     1      -6.893   0.713  -0.525  1.00  0.00     0.002 C 
BRANCH  25  26
ATOM     26  C   UNL     1      -6.566   2.053   0.140  1.00  0.00     0.021 C 
BRANCH  26  27
ATOM     27  C   UNL     1      -6.259   3.192  -0.825  1.00  0.00     0.116 C 
BRANCH  27  28
ATOM     28  N   UNL     1      -7.416   3.550  -1.628  1.00  0.00    -0.352 N 
ATOM     29  C   UNL     1      -8.009   4.775  -1.808  1.00  0.00     0.251 C 
ATOM     30  H   UNL     1      -7.835   2.804  -2.115  1.00  0.00     0.163 HD
ATOM     31  O   UNL     1      -9.104   4.842  -2.360  1.00  0.00    -0.269 OA
BRANCH  29  32
ATOM     32  C   UNL     1      -7.343   6.008  -1.330  1.00  0.00     0.039 A 
ATOM     33  C   UNL     1      -8.118   7.007  -0.733  1.00  0.00     0.014 A 
ATOM     34  C   UNL     1      -5.970   6.204  -1.506  1.00  0.00     0.014 A 
ATOM     35  C   UNL     1      -7.512   8.182  -0.281  1.00  0.00     0.010 A 
ATOM     36  C   UNL     1      -5.356   7.343  -0.989  1.00  0.00     0.010 A 
ATOM     37  C   UNL     1      -6.122   8.353  -0.388  1.00  0.00    -0.014 A 
BRANCH  37  38
ATOM     38  C   UNL     1      -5.459   9.599   0.079  1.00  0.00     0.031 A 
ATOM     39  C   UNL     1      -4.765  10.496  -0.914  1.00  0.00     0.074 A 
ATOM     40  C   UNL     1      -5.435   9.898   1.393  1.00  0.00     0.049 A 
ATOM     41  N   UNL     1      -4.065  11.580  -0.701  1.00  0.00    -0.248 NA
ATOM     42  C   UNL     1      -4.845  10.105  -2.332  1.00  0.00     0.031 C 
ATOM     43  C   UNL     1      -6.034   9.089   2.457  1.00  0.00     0.029 A 
ATOM     44  N   UNL     1      -4.874  10.959   2.060  1.00  0.00    -0.354 N 
ATOM     45  C   UNL     1      -3.607  11.988  -1.949  1.00  0.00     0.074 A 
ATOM     46  C   UNL     1      -4.065  11.008  -2.909  1.00  0.00     0.031 C 
ATOM     47  C   UNL     1      -5.822   9.691   3.639  1.00  0.00     0.029 A 
ATOM     48  C   UNL     1      -5.044  10.908   3.424  1.00  0.00     0.049 A 
ATOM     49  H   UNL     1      -4.394  11.688   1.605  1.00  0.00     0.167 HD
ATOM     50  C   UNL     1      -2.892  13.092  -2.271  1.00  0.00     0.037 A 
ATOM     51  C   UNL     1      -4.616  11.742   4.391  1.00  0.00     0.037 A 
ATOM     52  C   UNL     1      -2.473  14.086  -1.317  1.00  0.00     0.049 A 
ATOM     53  C   UNL     1      -3.835  12.972   4.006  1.00  0.00     0.074 A 
ATOM     54  C   UNL     1      -1.793  15.269  -1.549  1.00  0.00     0.029 A 
ATOM     55  N   UNL     1      -2.700  14.017   0.050  1.00  0.00    -0.354 N 
ATOM     56  N   UNL     1      -3.459  13.370   2.814  1.00  0.00    -0.248 NA
ATOM     57  C   UNL     1      -3.431  13.872   5.095  1.00  0.00     0.031 C 
ATOM     58  C   UNL     1      -1.574  15.896  -0.319  1.00  0.00     0.029 A 
ATOM     59  C   UNL     1      -2.163  15.130   0.675  1.00  0.00     0.049 A 
ATOM     60  H   UNL     1      -3.172  13.285   0.508  1.00  0.00     0.167 HD
ATOM     61  C   UNL     1      -2.807  14.583   3.006  1.00  0.00     0.074 A 
ATOM     62  C   UNL     1      -2.847  14.857   4.428  1.00  0.00     0.031 C 
ATOM     63  C   UNL     1      -2.231  15.399   2.089  1.00  0.00     0.037 A 
BRANCH  50  64
ATOM     64  C   UNL     1      -2.524  13.296  -3.715  1.00  0.00     0.058 A 
ATOM     65  C   UNL     1      -3.486  13.631  -4.681  1.00  0.00     0.135 A 
ATOM     66  C   UNL     1      -1.185  13.206  -4.130  1.00  0.00     0.135 A 
ATOM     67  F   UNL     1      -4.783  13.714  -4.344  1.00  0.00    -0.206 F 
ATOM     68  C   UNL     1      -3.138  13.849  -6.010  1.00  0.00     0.059 A 
ATOM     69  C   UNL     1      -0.810  13.448  -5.449  1.00  0.00     0.059 A 
ATOM     70  F   UNL     1      -0.224  12.886  -3.249  1.00  0.00    -0.206 F 
ATOM     71  C   UNL     1      -1.797  13.758  -6.384  1.00  0.00     0.060 A 
BRANCH  71  72
ATOM     72  S   UNL     1      -1.360  14.069  -8.108  1.00  0.00     0.124 S 
ATOM     73  O   UNL     1      -1.866  12.864  -8.758  1.00  0.00    -0.237 OA
ATOM     74  O   UNL     1      -2.091  15.299  -8.398  1.00  0.00    -0.237 OA
ATOM     75  O   UNL     1       0.093  14.200  -8.073  1.00  0.00    -0.744 OA
ENDBRANCH  71  72
ENDBRANCH  50  64
BRANCH  51  76
ATOM     76  C   UNL     1      -4.931  11.460   5.818  1.00  0.00     0.058 A 
ATOM     77  C   UNL     1      -5.828  12.267   6.534  1.00  0.00     0.135 A 
ATOM     78  C   UNL     1      -4.335  10.386   6.497  1.00  0.00     0.135 A 
ATOM     79  F   UNL     1      -6.420  13.309   5.931  1.00  0.00    -0.206 F 
ATOM     80  C   UNL     1      -6.102  12.039   7.879  1.00  0.00     0.059 A 
ATOM     81  C   UNL     1      -4.615  10.120   7.834  1.00  0.00     0.059 A 
ATOM     82  F   UNL     1      -3.485   9.571   5.854  1.00  0.00    -0.206 F 
ATOM     83  C   UNL     1      -5.488  10.963   8.521  1.00  0.00     0.060 A 
BRANCH  83  84
ATOM     84  S   UNL     1      -5.870  10.658  10.260  1.00  0.00     0.124 S 
ATOM     85  O   UNL     1      -5.133  11.733  10.914  1.00  0.00    -0.237 OA
ATOM     86  O   UNL     1      -7.324  10.774  10.280  1.00  0.00    -0.237 OA
ATOM     87  O   UNL     1      -5.354   9.310  10.484  1.00  0.00    -0.744 OA
ENDBRANCH  83  84
ENDBRANCH  51  76
BRANCH  63  88
ATOM     88  C   UNL     1      -1.645  16.694   2.581  1.00  0.00     0.058 A 
ATOM     89  C   UNL     1      -0.453  16.737   3.320  1.00  0.00     0.135 A 
ATOM     90  C   UNL     1      -2.263  17.914   2.260  1.00  0.00     0.135 A 
ATOM     91  F   UNL     1       0.174  15.599   3.656  1.00  0.00    -0.206 F 
ATOM     92  C   UNL     1       0.092  17.943   3.747  1.00  0.00     0.059 A 
ATOM     93  C   UNL     1      -1.720  19.133   2.652  1.00  0.00     0.059 A 
ATOM     94  F   UNL     1      -3.399  17.930   1.545  1.00  0.00    -0.206 F 
ATOM     95  C   UNL     1      -0.548  19.136   3.407  1.00  0.00     0.060 A 
BRANCH  95  96
ATOM     96  S   UNL     1       0.185  20.697   3.942  1.00  0.00     0.124 S 
ATOM     97  O   UNL     1      -0.141  20.702   5.364  1.00  0.00    -0.237 OA
ATOM     98  O   UNL     1       1.595  20.508   3.615  1.00  0.00    -0.237 OA
ATOM     99  O   UNL     1      -0.511  21.694   3.134  1.00  0.00    -0.744 OA
ENDBRANCH  95  96
ENDBRANCH  63  88
ENDBRANCH  37  38
ENDBRANCH  29  32
ENDBRANCH  27  28
ENDBRANCH  26  27
ENDBRANCH  25  26
ENDBRANCH  24  25
ENDBRANCH   1  24
TORSDOF 24
