REMARK SMILES Cc1ccc(-c2cc(Cl)cc3c2O[C@@H](C(F)(F)F)C(C(=O)NCCCCCCNC(=O)c2ccc(-c4c5nc(c(-c6c(F)cc(S(=O)(=O)[O-])cc6F)c6ccc([nH]6)c(-c6c(F)cc(S(=O)(=O)[O-])cc6F)c6nc(c(-c7c(F)cc(S(=O)(=O)[O-])cc7F)c7ccc4[nH]7)C=C6)C=C5)cc2)=C3)cc1
REMARK SMILES IDX 26 1 25 2 24 3 23 4 22 5 20 6 21 7 19 9 6 10 7 11 12 12 8 13
REMARK SMILES IDX 11 14 13 15 9 16 10 17 98 18 14 19 5 20 1 21 2 22 3 23
REMARK SMILES IDX 100 24 4 25 99 26 15 27 16 28 17 29 18 30 27 31 28 32 29 33
REMARK SMILES IDX 30 34 31 36 32 37 33 38 97 39 34 40 96 41 35 42 36 43 37 44
REMARK SMILES IDX 90 45 38 46 95 47 89 48 91 49 39 50 94 51 88 52 87 53 40 55
REMARK SMILES IDX 74 56 53 57 73 58 54 59 57 60 72 61 92 62 55 63 56 64 71 66
REMARK SMILES IDX 93 67 58 68 41 69 42 70 51 71 43 72 44 73 50 74 52 75 45 76
REMARK SMILES IDX 46 77 47 78 48 79 49 80 75 81 76 82 85 83 77 84 78 85 84 86
REMARK SMILES IDX 86 87 79 88 80 89 81 90 82 91 83 92 59 93 60 94 69 95 61 96
REMARK SMILES IDX 62 97 68 98 70 99 63 100 64 101 65 102 66 103 67 104
REMARK H PARENT 22 8 29 35 91 54 57 65
REMARK Flexibility Score: inf
ROOT
ATOM      1  C   UNL     1      -1.377  -3.142   7.231  1.00  0.00     0.002 C 
ENDROOT
BRANCH   1   2
ATOM      2  C   UNL     1      -1.440  -3.874   5.890  1.00  0.00     0.002 C 
BRANCH   2   3
ATOM      3  C   UNL     1      -2.763  -3.907   5.130  1.00  0.00     0.021 C 
BRANCH   3   4
ATOM      4  C   UNL     1      -3.707  -2.706   5.135  1.00  0.00     0.116 C 
BRANCH   4   5
ATOM      5  N   UNL     1      -3.269  -1.442   4.584  1.00  0.00    -0.352 N 
ATOM      6  C   UNL     1      -3.976  -0.343   4.163  1.00  0.00     0.251 C 
ATOM      7  O   UNL     1      -3.352   0.723   4.101  1.00  0.00    -0.270 OA
ATOM      8  H   UNL     1      -2.292  -1.355   4.497  1.00  0.00     0.163 HD
BRANCH   6   9
ATOM      9  C   UNL     1      -5.449  -0.359   3.708  1.00  0.00     0.067 C 
ATOM     10  C   UNL     1      -3.897  -1.163   0.129  1.00  0.00     0.026 A 
ATOM     11  C   UNL     1      -4.366  -0.529  -1.039  1.00  0.00     0.033 A 
ATOM     12  C   UNL     1      -4.701  -0.999   1.255  1.00  0.00     0.135 A 
ATOM     13  C   UNL     1      -5.318   0.493  -0.953  1.00  0.00     0.042 A 
ATOM     14  C   UNL     1      -5.395   0.226   1.428  1.00  0.00     0.019 A 
ATOM     15  O   UNL     1      -4.915  -2.061   2.161  1.00  0.00    -0.475 OA
ATOM     16  Cl  UNL     1      -5.813   1.313  -2.382  1.00  0.00    -0.084 Cl
ATOM     17  C   UNL     1      -5.757   0.945   0.294  1.00  0.00     0.032 A 
ATOM     18  C   UNL     1      -5.730   0.649   2.837  1.00  0.00     0.025 C 
ATOM     19  C   UNL     1      -5.965  -1.645   3.093  1.00  0.00     0.314 C 
BRANCH  10  20
ATOM     20  C   UNL     1      -2.415  -1.085   0.293  1.00  0.00    -0.015 A 
ATOM     21  C   UNL     1       1.874  -0.424   0.193  1.00  0.00     0.044 C 
ATOM     22  C   UNL     1       0.394  -0.658   0.277  1.00  0.00    -0.051 A 
ATOM     23  C   UNL     1      -0.148  -1.949   0.165  1.00  0.00     0.004 A 
ATOM     24  C   UNL     1      -0.470   0.415   0.468  1.00  0.00     0.004 A 
ATOM     25  C   UNL     1      -1.541  -2.163   0.168  1.00  0.00     0.009 A 
ATOM     26  C   UNL     1      -1.846   0.199   0.484  1.00  0.00     0.009 A 
ENDBRANCH  10  20
BRANCH  19  27
ATOM     27  C   UNL     1      -6.698  -2.598   4.057  1.00  0.00     0.429 C 
ATOM     28  F   UNL     1      -8.042  -2.382   3.978  1.00  0.00    -0.167 F 
ATOM     29  F   UNL     1      -6.497  -3.899   3.765  1.00  0.00    -0.167 F 
ATOM     30  F   UNL     1      -6.384  -2.398   5.358  1.00  0.00    -0.167 F 
ENDBRANCH  19  27
ENDBRANCH   6   9
ENDBRANCH   4   5
ENDBRANCH   3   4
ENDBRANCH   2   3
ENDBRANCH   1   2
BRANCH   1  31
ATOM     31  C   UNL     1      -2.427  -3.501   8.278  1.00  0.00     0.021 C 
BRANCH  31  32
ATOM     32  C   UNL     1      -2.325  -4.910   8.851  1.00  0.00     0.116 C 
BRANCH  32  33
ATOM     33  N   UNL     1      -1.751  -4.935  10.189  1.00  0.00    -0.352 N 
ATOM     34  C   UNL     1      -1.804  -5.954  11.124  1.00  0.00     0.251 C 
ATOM     35  H   UNL     1      -1.263  -4.125  10.463  1.00  0.00     0.163 HD
ATOM     36  O   UNL     1      -1.501  -5.790  12.292  1.00  0.00    -0.269 OA
BRANCH  34  37
ATOM     37  C   UNL     1      -2.131  -7.303  10.620  1.00  0.00     0.039 A 
ATOM     38  C   UNL     1      -1.098  -8.247  10.602  1.00  0.00     0.014 A 
ATOM     39  C   UNL     1      -3.334  -7.538   9.960  1.00  0.00     0.014 A 
ATOM     40  C   UNL     1      -1.207  -9.363   9.776  1.00  0.00     0.010 A 
ATOM     41  C   UNL     1      -3.405  -8.599   9.077  1.00  0.00     0.010 A 
ATOM     42  C   UNL     1      -2.328  -9.488   8.954  1.00  0.00    -0.014 A 
BRANCH  42  43
ATOM     43  C   UNL     1      -2.418 -10.456   7.867  1.00  0.00     0.031 A 
ATOM     44  C   UNL     1      -3.289 -11.646   7.984  1.00  0.00     0.074 A 
ATOM     45  C   UNL     1      -1.748 -10.239   6.714  1.00  0.00     0.049 A 
ATOM     46  N   UNL     1      -3.097 -12.748   7.338  1.00  0.00    -0.248 NA
ATOM     47  C   UNL     1      -4.446 -11.696   8.873  1.00  0.00     0.031 C 
ATOM     48  C   UNL     1      -1.943 -10.927   5.441  1.00  0.00     0.029 A 
ATOM     49  N   UNL     1      -0.607  -9.465   6.514  1.00  0.00    -0.354 N 
ATOM     50  C   UNL     1      -4.218 -13.527   7.500  1.00  0.00     0.074 A 
ATOM     51  C   UNL     1      -5.004 -12.856   8.511  1.00  0.00     0.031 C 
ATOM     52  C   UNL     1      -0.856 -10.747   4.675  1.00  0.00     0.029 A 
ATOM     53  C   UNL     1       0.137 -10.058   5.481  1.00  0.00     0.049 A 
ATOM     54  H   UNL     1      -0.366  -8.649   7.009  1.00  0.00     0.167 HD
ATOM     55  C   UNL     1      -4.442 -14.584   6.668  1.00  0.00     0.037 A 
ATOM     56  C   UNL     1       1.409 -10.507   5.693  1.00  0.00     0.037 A 
ATOM     57  C   UNL     1      -3.369 -14.738   5.691  1.00  0.00     0.049 A 
ATOM     58  C   UNL     1       1.573 -11.998   5.499  1.00  0.00     0.074 A 
ATOM     59  C   UNL     1      -3.236 -14.309   4.380  1.00  0.00     0.029 A 
ATOM     60  N   UNL     1      -2.100 -15.127   6.106  1.00  0.00    -0.354 N 
ATOM     61  N   UNL     1       0.581 -12.844   5.453  1.00  0.00    -0.248 NA
ATOM     62  C   UNL     1       2.868 -12.658   5.350  1.00  0.00     0.031 C 
ATOM     63  C   UNL     1      -1.871 -14.395   4.021  1.00  0.00     0.029 A 
ATOM     64  C   UNL     1      -1.173 -14.890   5.107  1.00  0.00     0.049 A 
ATOM     65  H   UNL     1      -1.891 -15.515   6.987  1.00  0.00     0.167 HD
ATOM     66  C   UNL     1       1.065 -14.121   5.314  1.00  0.00     0.074 A 
ATOM     67  C   UNL     1       2.502 -13.946   5.223  1.00  0.00     0.031 C 
ATOM     68  C   UNL     1       0.236 -15.209   5.292  1.00  0.00     0.037 A 
BRANCH  55  69
ATOM     69  C   UNL     1      -5.794 -15.252   6.565  1.00  0.00     0.058 A 
ATOM     70  C   UNL     1      -6.336 -15.620   5.315  1.00  0.00     0.135 A 
ATOM     71  C   UNL     1      -6.629 -15.499   7.673  1.00  0.00     0.135 A 
ATOM     72  F   UNL     1      -5.629 -15.516   4.183  1.00  0.00    -0.206 F 
ATOM     73  C   UNL     1      -7.643 -16.084   5.163  1.00  0.00     0.059 A 
ATOM     74  C   UNL     1      -7.958 -15.916   7.543  1.00  0.00     0.059 A 
ATOM     75  F   UNL     1      -6.170 -15.346   8.925  1.00  0.00    -0.206 F 
ATOM     76  C   UNL     1      -8.462 -16.194   6.278  1.00  0.00     0.060 A 
BRANCH  76  77
ATOM     77  S   UNL     1     -10.185 -16.669   6.038  1.00  0.00     0.124 S 
ATOM     78  O   UNL     1     -10.612 -15.761   4.977  1.00  0.00    -0.237 OA
ATOM     79  O   UNL     1     -10.062 -18.072   5.660  1.00  0.00    -0.237 OA
ATOM     80  O   UNL     1     -10.790 -16.419   7.343  1.00  0.00    -0.744 OA
ENDBRANCH  76  77
ENDBRANCH  55  69
BRANCH  56  81
ATOM     81  C   UNL     1       2.172  -9.666   6.654  1.00  0.00     0.058 A 
ATOM     82  C   UNL     1       2.506  -8.358   6.251  1.00  0.00     0.135 A 
ATOM     83  C   UNL     1       2.174  -9.941   8.029  1.00  0.00     0.135 A 
ATOM     84  F   UNL     1       2.535  -8.046   4.945  1.00  0.00    -0.206 F 
ATOM     85  C   UNL     1       2.673  -7.328   7.170  1.00  0.00     0.059 A 
ATOM     86  C   UNL     1       2.345  -8.923   8.970  1.00  0.00     0.059 A 
ATOM     87  F   UNL     1       1.866 -11.168   8.472  1.00  0.00    -0.206 F 
ATOM     88  C   UNL     1       2.525  -7.611   8.527  1.00  0.00     0.060 A 
BRANCH  88  89
ATOM     89  S   UNL     1       2.404  -6.214   9.670  1.00  0.00     0.124 S 
ATOM     90  O   UNL     1       3.688  -5.551   9.475  1.00  0.00    -0.237 OA
ATOM     91  O   UNL     1       1.240  -5.499   9.147  1.00  0.00    -0.237 OA
ATOM     92  O   UNL     1       2.215  -6.857  10.964  1.00  0.00    -0.744 OA
ENDBRANCH  88  89
ENDBRANCH  56  81
BRANCH  68  93
ATOM     93  C   UNL     1       0.650 -16.666   5.327  1.00  0.00     0.058 A 
ATOM     94  C   UNL     1       1.835 -17.141   5.914  1.00  0.00     0.135 A 
ATOM     95  C   UNL     1      -0.238 -17.671   4.863  1.00  0.00     0.135 A 
ATOM     96  F   UNL     1       2.709 -16.308   6.495  1.00  0.00    -0.206 F 
ATOM     97  C   UNL     1       2.150 -18.502   5.976  1.00  0.00     0.059 A 
ATOM     98  C   UNL     1       0.030 -19.034   4.966  1.00  0.00     0.059 A 
ATOM     99  F   UNL     1      -1.417 -17.362   4.301  1.00  0.00    -0.206 F 
ATOM    100  C   UNL     1       1.241 -19.442   5.500  1.00  0.00     0.060 A 
BRANCH 100 101
ATOM    101  S   UNL     1       1.605 -21.202   5.637  1.00  0.00     0.124 S 
ATOM    102  O   UNL     1       2.242 -21.469   4.351  1.00  0.00    -0.237 OA
ATOM    103  O   UNL     1       2.485 -21.264   6.800  1.00  0.00    -0.237 OA
ATOM    104  O   UNL     1       0.287 -21.799   5.827  1.00  0.00    -0.744 OA
ENDBRANCH 100 101
ENDBRANCH  68  93
ENDBRANCH  42  43
ENDBRANCH  34  37
ENDBRANCH  32  33
ENDBRANCH  31  32
ENDBRANCH   1  31
TORSDOF 18
