REMARK SMILES Cc1cccc(N2C(=O)/C(=C/c3ccc(C(=O)NCCCCCCNC(=O)c4ccc(-c5c6nc(c(-c7c(F)cc(S(=O)(=O)[O-])cc7F)c7ccc([nH]7)c(-c7c(F)cc(S(=O)(=O)[O-])cc7F)c7nc(c(-c8c(F)cc(S(=O)(=O)[O-])cc8F)c8ccc5[nH]8)C=C7)C=C6)cc4)cc3)c3ccccc3C2=O)c1
REMARK SMILES IDX 22 1 21 2 20 3 19 4 18 5 16 6 17 7 15 9 12 10 13 11 95 12
REMARK SMILES IDX 14 13 94 14 11 15 7 16 8 17 102 18 9 19 10 20 101 21 103 22
REMARK SMILES IDX 96 23 100 24 97 25 99 26 98 27 6 28 1 29 2 30 3 31 104 32
REMARK SMILES IDX 4 33 5 34 23 35 24 36 25 37 26 38 27 40 28 41 29 42 93 43
REMARK SMILES IDX 30 44 92 45 31 46 32 47 33 48 86 49 34 50 91 51 85 52 87 53
REMARK SMILES IDX 35 54 90 55 84 56 83 57 36 59 70 60 49 61 69 62 50 63 53 64
REMARK SMILES IDX 68 65 88 66 51 67 52 68 67 70 89 71 54 72 37 73 38 74 47 75
REMARK SMILES IDX 39 76 40 77 46 78 48 79 41 80 42 81 43 82 44 83 45 84 71 85
REMARK SMILES IDX 72 86 81 87 73 88 74 89 80 90 82 91 75 92 76 93 77 94 78 95
REMARK SMILES IDX 79 96 55 97 56 98 65 99 57 100 58 101 64 102 66 103 59 104
REMARK SMILES IDX 60 105 61 106 62 107 63 108
REMARK H PARENT 18 8 25 39 87 58 53 69
REMARK Flexibility Score: inf
ROOT
ATOM      1  C   UNL     1      -8.356  12.244   1.370  1.00  0.00     0.002 C 
ENDROOT
BRANCH   1   2
ATOM      2  C   UNL     1      -7.011  12.398   2.093  1.00  0.00     0.002 C 
BRANCH   2   3
ATOM      3  C   UNL     1      -6.068  11.190   2.107  1.00  0.00     0.021 C 
BRANCH   3   4
ATOM      4  C   UNL     1      -5.745  10.538   0.763  1.00  0.00     0.116 C 
BRANCH   4   5
ATOM      5  N   UNL     1      -5.132  11.436  -0.201  1.00  0.00    -0.352 N 
ATOM      6  C   UNL     1      -4.139  11.184  -1.118  1.00  0.00     0.251 C 
ATOM      7  O   UNL     1      -3.724  12.081  -1.848  1.00  0.00    -0.269 OA
ATOM      8  H   UNL     1      -5.478  12.358  -0.196  1.00  0.00     0.163 HD
BRANCH   6   9
ATOM      9  C   UNL     1      -3.519   9.842  -1.202  1.00  0.00     0.039 A 
ATOM     10  C   UNL     1      -2.269   7.337  -1.140  1.00  0.00    -0.025 A 
ATOM     11  C   UNL     1      -1.501   8.507  -1.118  1.00  0.00     0.009 A 
ATOM     12  C   UNL     1      -3.658   7.431  -1.307  1.00  0.00     0.009 A 
ATOM     13  C   UNL     1      -2.124   9.757  -1.151  1.00  0.00     0.014 A 
ATOM     14  C   UNL     1      -4.284   8.680  -1.337  1.00  0.00     0.014 A 
BRANCH  10  15
ATOM     15  C   UNL     1      -1.598   6.040  -0.972  1.00  0.00     0.022 C 
ATOM     16  N   UNL     1      -1.758   2.651   0.276  1.00  0.00    -0.242 N 
ATOM     17  C   UNL     1      -1.095   3.802  -0.196  1.00  0.00     0.265 C 
ATOM     18  C   UNL     1      -3.092   2.718   0.727  1.00  0.00     0.265 C 
ATOM     19  O   UNL     1      -0.022   3.826  -0.802  1.00  0.00    -0.268 OA
ATOM     20  C   UNL     1      -1.853   5.097  -0.035  1.00  0.00     0.049 C 
ATOM     21  C   UNL     1      -3.526   3.994   1.342  1.00  0.00     0.048 A 
ATOM     22  O   UNL     1      -3.945   1.835   0.676  1.00  0.00    -0.268 OA
ATOM     23  C   UNL     1      -2.862   5.175   1.024  1.00  0.00    -0.000 A 
ATOM     24  C   UNL     1      -4.584   3.995   2.264  1.00  0.00     0.014 A 
ATOM     25  C   UNL     1      -3.196   6.343   1.727  1.00  0.00     0.010 A 
ATOM     26  C   UNL     1      -4.950   5.175   2.908  1.00  0.00     0.001 A 
ATOM     27  C   UNL     1      -4.243   6.346   2.653  1.00  0.00     0.001 A 
BRANCH  16  28
ATOM     28  C   UNL     1      -1.093   1.353   0.155  1.00  0.00     0.053 A 
ATOM     29  C   UNL     1       2.485  -0.048   0.039  1.00  0.00     0.044 C 
ATOM     30  C   UNL     1       0.986   0.018   0.043  1.00  0.00    -0.049 A 
ATOM     31  C   UNL     1       0.242  -1.157  -0.050  1.00  0.00     0.003 A 
ATOM     32  C   UNL     1       0.314   1.250   0.162  1.00  0.00     0.030 A 
ATOM     33  C   UNL     1      -1.145  -1.094  -0.031  1.00  0.00     0.002 A 
ATOM     34  C   UNL     1      -1.798   0.141   0.071  1.00  0.00     0.027 A 
ENDBRANCH  16  28
ENDBRANCH  10  15
ENDBRANCH   6   9
ENDBRANCH   4   5
ENDBRANCH   3   4
ENDBRANCH   2   3
ENDBRANCH   1   2
BRANCH   1  35
ATOM     35  C   UNL     1      -9.182  11.001   1.701  1.00  0.00     0.021 C 
BRANCH  35  36
ATOM     36  C   UNL     1      -9.567  10.857   3.170  1.00  0.00     0.116 C 
BRANCH  36  37
ATOM     37  N   UNL     1     -10.965  11.135   3.441  1.00  0.00    -0.352 N 
ATOM     38  C   UNL     1     -11.680  10.828   4.592  1.00  0.00     0.251 C 
ATOM     39  H   UNL     1     -11.465  11.594   2.728  1.00  0.00     0.163 HD
ATOM     40  O   UNL     1     -12.888  10.766   4.608  1.00  0.00    -0.269 OA
BRANCH  38  41
ATOM     41  C   UNL     1     -10.896  10.720   5.847  1.00  0.00     0.039 A 
ATOM     42  C   UNL     1     -11.065  11.739   6.793  1.00  0.00     0.014 A 
ATOM     43  C   UNL     1      -9.858   9.803   5.965  1.00  0.00     0.014 A 
ATOM     44  C   UNL     1     -10.089  11.941   7.770  1.00  0.00     0.010 A 
ATOM     45  C   UNL     1      -8.852  10.057   6.881  1.00  0.00     0.010 A 
ATOM     46  C   UNL     1      -8.941  11.149   7.760  1.00  0.00    -0.014 A 
BRANCH  46  47
ATOM     47  C   UNL     1      -7.733  11.442   8.533  1.00  0.00     0.031 A 
ATOM     48  C   UNL     1      -7.258  10.529   9.606  1.00  0.00     0.074 A 
ATOM     49  C   UNL     1      -6.946  12.489   8.198  1.00  0.00     0.049 A 
ATOM     50  N   UNL     1      -6.383  10.857  10.500  1.00  0.00    -0.248 NA
ATOM     51  C   UNL     1      -7.755   9.168   9.771  1.00  0.00     0.031 C 
ATOM     52  C   UNL     1      -5.542  12.675   8.556  1.00  0.00     0.029 A 
ATOM     53  N   UNL     1      -7.301  13.695   7.607  1.00  0.00    -0.354 N 
ATOM     54  C   UNL     1      -6.005   9.715  11.165  1.00  0.00     0.074 A 
ATOM     55  C   UNL     1      -6.920   8.695  10.702  1.00  0.00     0.031 C 
ATOM     56  C   UNL     1      -5.214  13.964   8.398  1.00  0.00     0.029 A 
ATOM     57  C   UNL     1      -6.426  14.691   8.075  1.00  0.00     0.049 A 
ATOM     58  H   UNL     1      -8.040  13.830   6.970  1.00  0.00     0.167 HD
ATOM     59  C   UNL     1      -4.889   9.720  11.953  1.00  0.00     0.037 A 
ATOM     60  C   UNL     1      -6.889  15.778   8.764  1.00  0.00     0.037 A 
ATOM     61  C   UNL     1      -4.257  11.035  12.013  1.00  0.00     0.049 A 
ATOM     62  C   UNL     1      -6.418  15.872  10.203  1.00  0.00     0.074 A 
ATOM     63  C   UNL     1      -3.167  11.619  11.389  1.00  0.00     0.029 A 
ATOM     64  N   UNL     1      -4.921  12.063  12.654  1.00  0.00    -0.354 N 
ATOM     65  N   UNL     1      -5.594  15.034  10.767  1.00  0.00    -0.248 NA
ATOM     66  C   UNL     1      -6.910  16.879  11.148  1.00  0.00     0.031 C 
ATOM     67  C   UNL     1      -3.183  13.014  11.670  1.00  0.00     0.029 A 
ATOM     68  C   UNL     1      -4.292  13.275  12.451  1.00  0.00     0.049 A 
ATOM     69  H   UNL     1      -5.739  11.946  13.189  1.00  0.00     0.167 HD
ATOM     70  C   UNL     1      -5.537  15.292  12.111  1.00  0.00     0.074 A 
ATOM     71  C   UNL     1      -6.338  16.484  12.299  1.00  0.00     0.031 C 
ATOM     72  C   UNL     1      -4.898  14.475  12.994  1.00  0.00     0.037 A 
BRANCH  59  73
ATOM     73  C   UNL     1      -4.247   8.464  12.494  1.00  0.00     0.058 A 
ATOM     74  C   UNL     1      -2.846   8.367  12.630  1.00  0.00     0.135 A 
ATOM     75  C   UNL     1      -4.960   7.306  12.862  1.00  0.00     0.135 A 
ATOM     76  F   UNL     1      -2.042   9.416  12.414  1.00  0.00    -0.206 F 
ATOM     77  C   UNL     1      -2.198   7.181  12.973  1.00  0.00     0.059 A 
ATOM     78  C   UNL     1      -4.333   6.090  13.151  1.00  0.00     0.059 A 
ATOM     79  F   UNL     1      -6.295   7.325  12.982  1.00  0.00    -0.206 F 
ATOM     80  C   UNL     1      -2.947   6.033  13.188  1.00  0.00     0.060 A 
BRANCH  80  81
ATOM     81  S   UNL     1      -2.082   4.480  13.477  1.00  0.00     0.124 S 
ATOM     82  O   UNL     1      -1.120   4.453  12.378  1.00  0.00    -0.237 OA
ATOM     83  O   UNL     1      -1.521   4.688  14.807  1.00  0.00    -0.237 OA
ATOM     84  O   UNL     1      -3.143   3.481  13.391  1.00  0.00    -0.744 OA
ENDBRANCH  80  81
ENDBRANCH  59  73
BRANCH  60  85
ATOM     85  C   UNL     1      -8.204  16.250   8.256  1.00  0.00     0.058 A 
ATOM     86  C   UNL     1      -8.232  16.796   6.959  1.00  0.00     0.135 A 
ATOM     87  C   UNL     1      -9.402  15.752   8.786  1.00  0.00     0.135 A 
ATOM     88  F   UNL     1      -7.112  17.305   6.419  1.00  0.00    -0.206 F 
ATOM     89  C   UNL     1      -9.350  16.672   6.146  1.00  0.00     0.059 A 
ATOM     90  C   UNL     1     -10.540  15.630   7.991  1.00  0.00     0.059 A 
ATOM     91  F   UNL     1      -9.431  15.230  10.021  1.00  0.00    -0.206 F 
ATOM     92  C   UNL     1     -10.472  16.016   6.651  1.00  0.00     0.060 A 
BRANCH  92  93
ATOM     93  S   UNL     1     -11.743  15.500   5.475  1.00  0.00     0.124 S 
ATOM     94  O   UNL     1     -12.081  16.757   4.817  1.00  0.00    -0.237 OA
ATOM     95  O   UNL     1     -11.007  14.536   4.659  1.00  0.00    -0.237 OA
ATOM     96  O   UNL     1     -12.779  14.935   6.332  1.00  0.00    -0.744 OA
ENDBRANCH  92  93
ENDBRANCH  60  85
BRANCH  72  97
ATOM     97  C   UNL     1      -4.814  14.752  14.463  1.00  0.00     0.058 A 
ATOM     98  C   UNL     1      -4.308  15.963  14.957  1.00  0.00     0.135 A 
ATOM     99  C   UNL     1      -5.096  13.749  15.413  1.00  0.00     0.135 A 
ATOM    100  F   UNL     1      -3.991  16.963  14.118  1.00  0.00    -0.206 F 
ATOM    101  C   UNL     1      -4.096  16.173  16.320  1.00  0.00     0.059 A 
ATOM    102  C   UNL     1      -4.857  13.921  16.773  1.00  0.00     0.059 A 
ATOM    103  F   UNL     1      -5.633  12.577  15.040  1.00  0.00    -0.206 F 
ATOM    104  C   UNL     1      -4.367  15.142  17.220  1.00  0.00     0.060 A 
BRANCH 104 105
ATOM    105  S   UNL     1      -4.037  15.382  18.977  1.00  0.00     0.124 S 
ATOM    106  O   UNL     1      -2.882  16.276  18.971  1.00  0.00    -0.237 OA
ATOM    107  O   UNL     1      -5.291  15.977  19.429  1.00  0.00    -0.237 OA
ATOM    108  O   UNL     1      -3.771  14.030  19.456  1.00  0.00    -0.744 OA
ENDBRANCH 104 105
ENDBRANCH  72  97
ENDBRANCH  46  47
ENDBRANCH  38  41
ENDBRANCH  36  37
ENDBRANCH  35  36
ENDBRANCH   1  35
TORSDOF 18
