REMARK SMILES CSc1nc2nnc(C(=O)NCCCCCCNC(=O)c3ccc(-c4c5nc(c(-c6c(F)cc(S(=O)(=O)[O-])cc6F)c6ccc([nH]6)c(-c6c(F)cc(S(=O)(=O)[O-])cc6F)c6nc(c(-c7c(F)cc(S(=O)(=O)[O-])cc7F)c7ccc4[nH]7)C=C6)C=C5)cc3)c(O)n2n1
REMARK SMILES IDX 15 1 14 2 13 3 12 4 11 5 9 6 10 7 8 9 3 10 4 11 90 12 5 13
REMARK SMILES IDX 89 14 6 15 87 16 7 17 2 18 1 19 88 20 16 22 17 23 18 24
REMARK SMILES IDX 19 25 20 27 21 28 22 29 86 30 23 31 85 32 24 33 25 34 26 35
REMARK SMILES IDX 79 36 27 37 84 38 78 39 80 40 28 41 83 42 77 43 76 44 29 46
REMARK SMILES IDX 63 47 42 48 62 49 43 50 46 51 61 52 81 53 44 54 45 55 60 57
REMARK SMILES IDX 82 58 47 59 30 60 31 61 40 62 32 63 33 64 39 65 41 66 34 67
REMARK SMILES IDX 35 68 36 69 37 70 38 71 64 72 65 73 74 74 66 75 67 76 73 77
REMARK SMILES IDX 75 78 68 79 69 80 70 81 71 82 72 83 48 84 49 85 58 86 50 87
REMARK SMILES IDX 51 88 57 89 59 90 52 91 53 92 54 93 55 94 56 95
REMARK H PARENT 11 8 88 21 18 26 80 45 46 56
REMARK Flexibility Score: inf
ROOT
ATOM      1  C   UNL     1       5.900  11.734  -2.281  1.00  0.00     0.002 C 
ENDROOT
BRANCH   1   2
ATOM      2  C   UNL     1       5.873  10.881  -1.004  1.00  0.00     0.002 C 
BRANCH   2   3
ATOM      3  C   UNL     1       4.606  10.051  -0.771  1.00  0.00     0.021 C 
BRANCH   3   4
ATOM      4  C   UNL     1       4.211   9.133  -1.927  1.00  0.00     0.116 C 
BRANCH   4   5
ATOM      5  N   UNL     1       5.190   8.075  -2.133  1.00  0.00    -0.350 N 
ATOM      6  C   UNL     1       5.114   6.718  -2.114  1.00  0.00     0.277 C 
ATOM      7  O   UNL     1       6.170   6.096  -2.287  1.00  0.00    -0.267 OA
ATOM      8  H   UNL     1       6.095   8.413  -2.325  1.00  0.00     0.163 HD
BRANCH   6   9
ATOM      9  C   UNL     1       3.831   5.958  -1.919  1.00  0.00     0.212 A 
ATOM     10  C   UNL     1       1.055   2.619  -1.581  1.00  0.00     0.210 A 
ATOM     11  N   UNL     1       0.461   3.842  -1.604  1.00  0.00    -0.182 NA
ATOM     12  N   UNL     1       2.385   2.618  -1.649  1.00  0.00    -0.134 NA
ATOM     13  C   UNL     1       1.480   4.669  -1.672  1.00  0.00     0.275 A 
ATOM     14  N   UNL     1       2.665   3.945  -1.718  1.00  0.00    -0.159 N 
ATOM     15  N   UNL     1       1.522   6.029  -1.734  1.00  0.00    -0.108 NA
ATOM     16  C   UNL     1       3.890   4.605  -1.852  1.00  0.00     0.249 A 
ATOM     17  N   UNL     1       2.624   6.626  -1.858  1.00  0.00    -0.136 NA
BRANCH  10  18
ATOM     18  S   UNL     1       0.133   1.142  -1.547  1.00  0.00    -0.088 SA
ATOM     19  C   UNL     1       0.966   0.290  -0.192  1.00  0.00     0.094 C 
ENDBRANCH  10  18
BRANCH  16  20
ATOM     20  O   UNL     1       5.050   3.844  -1.930  1.00  0.00    -0.491 OA
ATOM     21  H   UNL     1       5.882   4.265  -2.021  1.00  0.00     0.295 HD
ENDBRANCH  16  20
ENDBRANCH   6   9
ENDBRANCH   4   5
ENDBRANCH   3   4
ENDBRANCH   2   3
ENDBRANCH   1   2
BRANCH   1  22
ATOM     22  C   UNL     1       4.697  12.659  -2.514  1.00  0.00     0.021 C 
BRANCH  22  23
ATOM     23  C   UNL     1       4.514  13.723  -1.442  1.00  0.00     0.116 C 
BRANCH  23  24
ATOM     24  N   UNL     1       5.581  14.722  -1.455  1.00  0.00    -0.352 N 
ATOM     25  C   UNL     1       5.708  15.830  -0.643  1.00  0.00     0.251 C 
ATOM     26  H   UNL     1       6.294  14.588  -2.121  1.00  0.00     0.163 HD
ATOM     27  O   UNL     1       6.413  16.778  -0.987  1.00  0.00    -0.269 OA
BRANCH  25  28
ATOM     28  C   UNL     1       4.987  15.858   0.641  1.00  0.00     0.039 A 
ATOM     29  C   UNL     1       4.359  17.019   1.099  1.00  0.00     0.014 A 
ATOM     30  C   UNL     1       4.927  14.679   1.381  1.00  0.00     0.014 A 
ATOM     31  C   UNL     1       3.603  16.957   2.268  1.00  0.00     0.010 A 
ATOM     32  C   UNL     1       4.066  14.582   2.445  1.00  0.00     0.010 A 
ATOM     33  C   UNL     1       3.442  15.727   2.926  1.00  0.00    -0.014 A 
BRANCH  33  34
ATOM     34  C   UNL     1       2.518  15.595   4.050  1.00  0.00     0.031 A 
ATOM     35  C   UNL     1       1.130  16.046   3.751  1.00  0.00     0.074 A 
ATOM     36  C   UNL     1       2.826  14.922   5.181  1.00  0.00     0.049 A 
ATOM     37  N   UNL     1       0.516  17.083   4.216  1.00  0.00    -0.248 NA
ATOM     38  C   UNL     1       0.389  15.353   2.682  1.00  0.00     0.031 C 
ATOM     39  C   UNL     1       4.052  14.165   5.477  1.00  0.00     0.029 A 
ATOM     40  N   UNL     1       2.061  14.683   6.282  1.00  0.00    -0.354 N 
ATOM     41  C   UNL     1      -0.772  17.033   3.688  1.00  0.00     0.074 A 
ATOM     42  C   UNL     1      -0.726  16.084   2.608  1.00  0.00     0.031 C 
ATOM     43  C   UNL     1       3.853  13.375   6.555  1.00  0.00     0.029 A 
ATOM     44  C   UNL     1       2.566  13.704   7.135  1.00  0.00     0.049 A 
ATOM     45  H   UNL     1       1.220  15.164   6.461  1.00  0.00     0.167 HD
ATOM     46  C   UNL     1      -1.828  17.572   4.361  1.00  0.00     0.037 A 
ATOM     47  C   UNL     1       1.969  13.204   8.245  1.00  0.00     0.037 A 
ATOM     48  C   UNL     1      -1.369  18.417   5.434  1.00  0.00     0.049 A 
ATOM     49  C   UNL     1       0.988  14.223   8.687  1.00  0.00     0.074 A 
ATOM     50  C   UNL     1      -0.712  19.623   5.535  1.00  0.00     0.029 A 
ATOM     51  N   UNL     1      -1.246  17.787   6.646  1.00  0.00    -0.354 N 
ATOM     52  N   UNL     1       1.320  15.413   9.108  1.00  0.00    -0.248 NA
ATOM     53  C   UNL     1      -0.408  14.063   8.307  1.00  0.00     0.031 C 
ATOM     54  C   UNL     1       0.069  19.535   6.726  1.00  0.00     0.029 A 
ATOM     55  C   UNL     1      -0.179  18.302   7.333  1.00  0.00     0.049 A 
ATOM     56  H   UNL     1      -1.837  17.071   6.974  1.00  0.00     0.167 HD
ATOM     57  C   UNL     1       0.310  16.241   8.651  1.00  0.00     0.074 A 
ATOM     58  C   UNL     1      -0.790  15.343   8.316  1.00  0.00     0.031 C 
ATOM     59  C   UNL     1       0.570  17.537   8.312  1.00  0.00     0.037 A 
BRANCH  46  60
ATOM     60  C   UNL     1      -3.237  17.009   4.360  1.00  0.00     0.058 A 
ATOM     61  C   UNL     1      -4.269  17.732   5.000  1.00  0.00     0.135 A 
ATOM     62  C   UNL     1      -3.555  15.674   4.027  1.00  0.00     0.135 A 
ATOM     63  F   UNL     1      -4.077  19.006   5.380  1.00  0.00    -0.206 F 
ATOM     64  C   UNL     1      -5.495  17.153   5.336  1.00  0.00     0.059 A 
ATOM     65  C   UNL     1      -4.789  15.094   4.304  1.00  0.00     0.059 A 
ATOM     66  F   UNL     1      -2.655  14.832   3.507  1.00  0.00    -0.206 F 
ATOM     67  C   UNL     1      -5.741  15.828   4.991  1.00  0.00     0.060 A 
BRANCH  67  68
ATOM     68  S   UNL     1      -7.288  15.052   5.493  1.00  0.00     0.124 S 
ATOM     69  O   UNL     1      -7.138  15.011   6.943  1.00  0.00    -0.237 OA
ATOM     70  O   UNL     1      -8.277  15.992   4.977  1.00  0.00    -0.237 OA
ATOM     71  O   UNL     1      -7.248  13.758   4.817  1.00  0.00    -0.744 OA
ENDBRANCH  67  68
ENDBRANCH  46  60
BRANCH  47  72
ATOM     72  C   UNL     1       1.971  11.812   8.771  1.00  0.00     0.058 A 
ATOM     73  C   UNL     1       1.456  11.521  10.049  1.00  0.00     0.135 A 
ATOM     74  C   UNL     1       2.182  10.708   7.922  1.00  0.00     0.135 A 
ATOM     75  F   UNL     1       1.220  12.511  10.922  1.00  0.00    -0.206 F 
ATOM     76  C   UNL     1       1.094  10.225  10.432  1.00  0.00     0.059 A 
ATOM     77  C   UNL     1       1.837   9.405   8.286  1.00  0.00     0.059 A 
ATOM     78  F   UNL     1       2.642  10.876   6.673  1.00  0.00    -0.206 F 
ATOM     79  C   UNL     1       1.261   9.176   9.530  1.00  0.00     0.060 A 
BRANCH  79  80
ATOM     80  S   UNL     1       0.607   7.540   9.944  1.00  0.00     0.124 S 
ATOM     81  O   UNL     1       1.470   7.139  11.049  1.00  0.00    -0.237 OA
ATOM     82  O   UNL     1      -0.777   7.842  10.292  1.00  0.00    -0.237 OA
ATOM     83  O   UNL     1       0.785   6.782   8.707  1.00  0.00    -0.744 OA
ENDBRANCH  79  80
ENDBRANCH  47  72
BRANCH  59  84
ATOM     84  C   UNL     1       1.825  18.168   8.854  1.00  0.00     0.058 A 
ATOM     85  C   UNL     1       3.132  17.828   8.464  1.00  0.00     0.135 A 
ATOM     86  C   UNL     1       1.680  19.269   9.711  1.00  0.00     0.135 A 
ATOM     87  F   UNL     1       3.356  16.838   7.589  1.00  0.00    -0.206 F 
ATOM     88  C   UNL     1       4.244  18.541   8.919  1.00  0.00     0.059 A 
ATOM     89  C   UNL     1       2.770  20.013  10.152  1.00  0.00     0.059 A 
ATOM     90  F   UNL     1       0.453  19.672  10.083  1.00  0.00    -0.206 F 
ATOM     91  C   UNL     1       4.051  19.640   9.756  1.00  0.00     0.060 A 
BRANCH  91  92
ATOM     92  S   UNL     1       5.479  20.623  10.262  1.00  0.00     0.124 S 
ATOM     93  O   UNL     1       6.184  19.708  11.153  1.00  0.00    -0.237 OA
ATOM     94  O   UNL     1       6.138  20.902   8.989  1.00  0.00    -0.237 OA
ATOM     95  O   UNL     1       4.880  21.787  10.911  1.00  0.00    -0.744 OA
ENDBRANCH  91  92
ENDBRANCH  59  84
ENDBRANCH  33  34
ENDBRANCH  25  28
ENDBRANCH  23  24
ENDBRANCH  22  23
ENDBRANCH   1  22
TORSDOF 18
