REMARK SMILES COc1c(C(=O)NCCCCCCNC(=O)c2ccc(-c3c4nc(c(-c5c(F)cc(S(=O)(=O)[O-])cc5F)c5ccc([nH]5)c(-c5c(F)cc(S(=O)(=O)[O-])cc5F)c5nc(c(-c6c(F)cc(S(=O)(=O)[O-])cc6F)c6ccc3[nH]6)C=C5)C=C4)cc2)ccc(F)c1F
REMARK SMILES IDX 11 1 10 2 9 3 8 4 7 5 5 6 6 7 4 9 3 10 87 11 83 12 85 13
REMARK SMILES IDX 88 14 84 15 86 16 2 17 1 18 12 19 13 20 14 21 15 22 16 24
REMARK SMILES IDX 17 25 18 26 82 27 19 28 81 29 20 30 21 31 22 32 75 33 23 34
REMARK SMILES IDX 80 35 74 36 76 37 24 38 79 39 73 40 72 41 25 43 59 44 38 45
REMARK SMILES IDX 58 46 39 47 42 48 57 49 77 50 40 51 41 52 56 54 78 55 43 56
REMARK SMILES IDX 26 57 27 58 36 59 28 60 29 61 35 62 37 63 30 64 31 65 32 66
REMARK SMILES IDX 33 67 34 68 60 69 61 70 70 71 62 72 63 73 69 74 71 75 64 76
REMARK SMILES IDX 65 77 66 78 67 79 68 80 44 81 45 82 54 83 46 84 47 85 53 86
REMARK SMILES IDX 55 87 48 88 49 89 50 90 51 91 52 92
REMARK H PARENT 7 8 14 23 76 42 42 53
REMARK Flexibility Score: inf
ROOT
ATOM      1  C   UNL     1       8.127   1.046   3.084  1.00  0.00     0.002 C 
ENDROOT
BRANCH   1   2
ATOM      2  C   UNL     1       6.925   0.092   3.119  1.00  0.00     0.002 C 
BRANCH   2   3
ATOM      3  C   UNL     1       5.665   0.658   3.795  1.00  0.00     0.021 C 
BRANCH   3   4
ATOM      4  C   UNL     1       5.189   1.975   3.181  1.00  0.00     0.116 C 
BRANCH   4   5
ATOM      5  N   UNL     1       4.532   1.736   1.914  1.00  0.00    -0.352 N 
ATOM      6  C   UNL     1       3.247   1.649   1.457  1.00  0.00     0.255 C 
ATOM      7  O   UNL     1       3.174   1.424   0.247  1.00  0.00    -0.269 OA
ATOM      8  H   UNL     1       5.184   1.601   1.189  1.00  0.00     0.163 HD
BRANCH   6   9
ATOM      9  C   UNL     1       1.997   1.844   2.275  1.00  0.00     0.085 A 
ATOM     10  C   UNL     1       0.739   1.857   1.629  1.00  0.00     0.170 A 
ATOM     11  C   UNL     1      -0.420   2.248   2.315  1.00  0.00     0.201 A 
ATOM     12  C   UNL     1       1.993   2.063   3.663  1.00  0.00     0.021 A 
ATOM     13  C   UNL     1      -0.367   2.560   3.662  1.00  0.00     0.162 A 
ATOM     14  F   UNL     1      -1.597   2.300   1.673  1.00  0.00    -0.200 F 
ATOM     15  C   UNL     1       0.829   2.442   4.349  1.00  0.00     0.043 A 
ATOM     16  F   UNL     1      -1.471   2.942   4.317  1.00  0.00    -0.204 F 
BRANCH  10  17
ATOM     17  O   UNL     1       0.560   1.517   0.309  1.00  0.00    -0.493 OA
ATOM     18  C   UNL     1       0.518   0.093   0.166  1.00  0.00     0.278 C 
ENDBRANCH  10  17
ENDBRANCH   6   9
ENDBRANCH   4   5
ENDBRANCH   3   4
ENDBRANCH   2   3
ENDBRANCH   1   2
BRANCH   1  19
ATOM     19  C   UNL     1       8.498   1.665   4.435  1.00  0.00     0.021 C 
BRANCH  19  20
ATOM     20  C   UNL     1       8.902   0.646   5.495  1.00  0.00     0.116 C 
BRANCH  20  21
ATOM     21  N   UNL     1      10.126  -0.047   5.126  1.00  0.00    -0.352 N 
ATOM     22  C   UNL     1      11.312  -0.131   5.811  1.00  0.00     0.251 C 
ATOM     23  H   UNL     1      10.099  -0.523   4.264  1.00  0.00     0.163 HD
ATOM     24  O   UNL     1      12.319  -0.543   5.245  1.00  0.00    -0.269 OA
BRANCH  22  25
ATOM     25  C   UNL     1      11.368   0.285   7.228  1.00  0.00     0.039 A 
ATOM     26  C   UNL     1      12.447   1.055   7.667  1.00  0.00     0.014 A 
ATOM     27  C   UNL     1      10.364  -0.097   8.122  1.00  0.00     0.014 A 
ATOM     28  C   UNL     1      12.493   1.483   8.995  1.00  0.00     0.010 A 
ATOM     29  C   UNL     1      10.373   0.392   9.425  1.00  0.00     0.010 A 
ATOM     30  C   UNL     1      11.443   1.178   9.878  1.00  0.00    -0.014 A 
BRANCH  30  31
ATOM     31  C   UNL     1      11.450   1.667  11.280  1.00  0.00     0.031 A 
ATOM     32  C   UNL     1      11.508   0.687  12.420  1.00  0.00     0.074 A 
ATOM     33  C   UNL     1      11.342   2.988  11.524  1.00  0.00     0.049 A 
ATOM     34  N   UNL     1      11.469   0.915  13.708  1.00  0.00    -0.248 NA
ATOM     35  C   UNL     1      11.593  -0.740  12.068  1.00  0.00     0.031 C 
ATOM     36  C   UNL     1      11.233   4.031  10.501  1.00  0.00     0.029 A 
ATOM     37  N   UNL     1      11.299   3.680  12.707  1.00  0.00    -0.354 N 
ATOM     38  C   UNL     1      11.505  -0.334  14.316  1.00  0.00     0.074 A 
ATOM     39  C   UNL     1      11.518  -1.319  13.257  1.00  0.00     0.031 C 
ATOM     40  C   UNL     1      11.165   5.230  11.101  1.00  0.00     0.029 A 
ATOM     41  C   UNL     1      11.185   5.041  12.548  1.00  0.00     0.049 A 
ATOM     42  H   UNL     1      11.345   3.244  13.589  1.00  0.00     0.167 HD
ATOM     43  C   UNL     1      11.546  -0.632  15.637  1.00  0.00     0.037 A 
ATOM     44  C   UNL     1      11.100   6.025  13.464  1.00  0.00     0.037 A 
ATOM     45  C   UNL     1      11.562   0.357  16.683  1.00  0.00     0.049 A 
ATOM     46  C   UNL     1      11.143   5.668  14.925  1.00  0.00     0.074 A 
ATOM     47  C   UNL     1      11.678   0.164  18.048  1.00  0.00     0.029 A 
ATOM     48  N   UNL     1      11.454   1.726  16.482  1.00  0.00    -0.354 N 
ATOM     49  N   UNL     1      11.254   4.486  15.483  1.00  0.00    -0.248 NA
ATOM     50  C   UNL     1      11.053   6.779  15.883  1.00  0.00     0.031 C 
ATOM     51  C   UNL     1      11.584   1.410  18.676  1.00  0.00     0.029 A 
ATOM     52  C   UNL     1      11.468   2.387  17.699  1.00  0.00     0.049 A 
ATOM     53  H   UNL     1      11.377   2.163  15.603  1.00  0.00     0.167 HD
ATOM     54  C   UNL     1      11.278   4.713  16.855  1.00  0.00     0.074 A 
ATOM     55  C   UNL     1      11.181   6.146  17.041  1.00  0.00     0.031 C 
ATOM     56  C   UNL     1      11.375   3.816  17.868  1.00  0.00     0.037 A 
BRANCH  43  57
ATOM     57  C   UNL     1      11.570  -2.086  16.026  1.00  0.00     0.058 A 
ATOM     58  C   UNL     1      12.686  -2.902  15.779  1.00  0.00     0.135 A 
ATOM     59  C   UNL     1      10.472  -2.664  16.684  1.00  0.00     0.135 A 
ATOM     60  F   UNL     1      13.758  -2.407  15.141  1.00  0.00    -0.206 F 
ATOM     61  C   UNL     1      12.698  -4.247  16.137  1.00  0.00     0.059 A 
ATOM     62  C   UNL     1      10.475  -3.999  17.079  1.00  0.00     0.059 A 
ATOM     63  F   UNL     1       9.378  -1.932  16.947  1.00  0.00    -0.206 F 
ATOM     64  C   UNL     1      11.586  -4.787  16.785  1.00  0.00     0.060 A 
BRANCH  64  65
ATOM     65  S   UNL     1      11.617  -6.534  17.239  1.00  0.00     0.124 S 
ATOM     66  O   UNL     1      11.470  -7.175  15.936  1.00  0.00    -0.237 OA
ATOM     67  O   UNL     1      12.927  -6.670  17.867  1.00  0.00    -0.237 OA
ATOM     68  O   UNL     1      10.476  -6.672  18.138  1.00  0.00    -0.744 OA
ENDBRANCH  64  65
ENDBRANCH  43  57
BRANCH  44  69
ATOM     69  C   UNL     1      10.997   7.443  13.027  1.00  0.00     0.058 A 
ATOM     70  C   UNL     1      12.063   8.335  13.221  1.00  0.00     0.135 A 
ATOM     71  C   UNL     1       9.842   7.934  12.398  1.00  0.00     0.135 A 
ATOM     72  F   UNL     1      13.186   7.915  13.823  1.00  0.00    -0.206 F 
ATOM     73  C   UNL     1      11.983   9.665  12.824  1.00  0.00     0.059 A 
ATOM     74  C   UNL     1       9.749   9.253  11.967  1.00  0.00     0.059 A 
ATOM     75  F   UNL     1       8.801   7.118  12.172  1.00  0.00    -0.206 F 
ATOM     76  C   UNL     1      10.821  10.114  12.194  1.00  0.00     0.060 A 
BRANCH  76  77
ATOM     77  S   UNL     1      10.747  11.832  11.641  1.00  0.00     0.124 S 
ATOM     78  O   UNL     1      10.618  12.543  12.907  1.00  0.00    -0.237 OA
ATOM     79  O   UNL     1      12.022  11.985  10.948  1.00  0.00    -0.237 OA
ATOM     80  O   UNL     1       9.567  11.855  10.780  1.00  0.00    -0.744 OA
ENDBRANCH  76  77
ENDBRANCH  44  69
BRANCH  56  81
ATOM     81  C   UNL     1      11.415   4.359  19.270  1.00  0.00     0.058 A 
ATOM     82  C   UNL     1      10.278   4.907  19.884  1.00  0.00     0.135 A 
ATOM     83  C   UNL     1      12.596   4.283  20.027  1.00  0.00     0.135 A 
ATOM     84  F   UNL     1       9.125   5.010  19.203  1.00  0.00    -0.206 F 
ATOM     85  C   UNL     1      10.317   5.385  21.190  1.00  0.00     0.059 A 
ATOM     86  C   UNL     1      12.650   4.726  21.344  1.00  0.00     0.059 A 
ATOM     87  F   UNL     1      13.710   3.758  19.491  1.00  0.00    -0.206 F 
ATOM     88  C   UNL     1      11.507   5.287  21.913  1.00  0.00     0.060 A 
BRANCH  88  89
ATOM     89  S   UNL     1      11.535   5.880  23.618  1.00  0.00     0.124 S 
ATOM     90  O   UNL     1      11.517   7.326  23.426  1.00  0.00    -0.237 OA
ATOM     91  O   UNL     1      10.315   5.298  24.170  1.00  0.00    -0.237 OA
ATOM     92  O   UNL     1      12.779   5.332  24.149  1.00  0.00    -0.744 OA
ENDBRANCH  88  89
ENDBRANCH  56  81
ENDBRANCH  30  31
ENDBRANCH  22  25
ENDBRANCH  20  21
ENDBRANCH  19  20
ENDBRANCH   1  19
TORSDOF 17
