REMARK SMILES O=C(Nc1c(F)cc(F)cc1F)N[C@H]1C=C[C@@H](C(=O)NCCCCCCNC(=O)c2ccc(-c3c4nc(c(-c5c(F)cc(S(=O)(=O)[O-])cc5F)c5ccc([nH]5)c(-c5c(F)cc(S(=O)(=O)[O-])cc5F)c5nc(c(-c6c(F)cc(S(=O)(=O)[O-])cc6F)c6ccc3[nH]6)C=C5)C=C4)cc2)C1
REMARK SMILES IDX 24 1 23 2 22 3 21 4 20 5 18 6 19 7 17 9 14 10 15 11 96 12
REMARK SMILES IDX 16 13 13 14 1 15 2 16 3 17 4 20 5 21 11 22 6 23 7 24 10 25
REMARK SMILES IDX 12 26 8 27 9 28 25 29 26 30 27 31 28 32 29 34 30 35 31 36
REMARK SMILES IDX 95 37 32 38 94 39 33 40 34 41 35 42 88 43 36 44 93 45 87 46
REMARK SMILES IDX 89 47 37 48 92 49 86 50 85 51 38 53 72 54 51 55 71 56 52 57
REMARK SMILES IDX 55 58 70 59 90 60 53 61 54 62 69 64 91 65 56 66 39 67 40 68
REMARK SMILES IDX 49 69 41 70 42 71 48 72 50 73 43 74 44 75 45 76 46 77 47 78
REMARK SMILES IDX 73 79 74 80 83 81 75 82 76 83 82 84 84 85 77 86 78 87 79 88
REMARK SMILES IDX 80 89 81 90 57 91 58 92 67 93 59 94 60 95 66 96 68 97 61 98
REMARK SMILES IDX 62 99 63 100 64 101 65 102
REMARK H PARENT 20 8 3 18 13 19 27 33 89 52 55 63
REMARK Flexibility Score: inf
ROOT
ATOM      1  C   UNL     1       8.732   1.325   3.430  1.00  0.00     0.002 C 
ENDROOT
BRANCH   1   2
ATOM      2  C   UNL     1       7.652   2.362   3.102  1.00  0.00     0.002 C 
BRANCH   2   3
ATOM      3  C   UNL     1       6.294   1.792   2.675  1.00  0.00     0.021 C 
BRANCH   3   4
ATOM      4  C   UNL     1       5.636   0.871   3.702  1.00  0.00     0.116 C 
BRANCH   4   5
ATOM      5  N   UNL     1       5.198   1.604   4.873  1.00  0.00    -0.356 N 
ATOM      6  C   UNL     1       3.964   1.754   5.426  1.00  0.00     0.227 C 
ATOM      7  O   UNL     1       3.893   2.433   6.457  1.00  0.00    -0.274 OA
ATOM      8  H   UNL     1       5.918   2.075   5.351  1.00  0.00     0.163 HD
BRANCH   6   9
ATOM      9  C   UNL     1       2.700   1.115   4.844  1.00  0.00     0.103 C 
ATOM     10  C   UNL     1       1.893   0.253   2.687  1.00  0.00     0.107 C 
ATOM     11  C   UNL     1       2.307  -0.844   3.615  1.00  0.00    -0.006 C 
ATOM     12  C   UNL     1       2.333   1.536   3.416  1.00  0.00     0.047 C 
ATOM     13  C   UNL     1       2.755  -0.381   4.787  1.00  0.00    -0.016 C 
BRANCH  10  14
ATOM     14  N   UNL     1       2.606   0.073   1.451  1.00  0.00    -0.332 N 
ATOM     15  O   UNL     1       0.887   0.621   0.079  1.00  0.00    -0.248 OA
ATOM     16  C   UNL     1       2.063   0.298   0.232  1.00  0.00     0.319 C 
ATOM     17  N   UNL     1       2.892   0.288  -0.847  1.00  0.00    -0.303 N 
ATOM     18  H   UNL     1       2.457   0.597  -1.674  1.00  0.00     0.172 HD
ATOM     19  H   UNL     1       3.542  -0.231   1.494  1.00  0.00     0.165 HD
BRANCH  17  20
ATOM     20  C   UNL     1       4.245  -0.071  -1.030  1.00  0.00     0.115 A 
ATOM     21  C   UNL     1       4.983  -0.938  -0.218  1.00  0.00     0.152 A 
ATOM     22  C   UNL     1       4.896   0.484  -2.142  1.00  0.00     0.152 A 
ATOM     23  F   UNL     1       4.427  -1.553   0.834  1.00  0.00    -0.204 F 
ATOM     24  C   UNL     1       6.319  -1.213  -0.475  1.00  0.00     0.081 A 
ATOM     25  C   UNL     1       6.238   0.237  -2.406  1.00  0.00     0.081 A 
ATOM     26  F   UNL     1       4.224   1.321  -2.948  1.00  0.00    -0.204 F 
ATOM     27  C   UNL     1       6.932  -0.616  -1.563  1.00  0.00     0.129 A 
ATOM     28  F   UNL     1       8.222  -0.869  -1.788  1.00  0.00    -0.207 F 
ENDBRANCH  17  20
ENDBRANCH  10  14
ENDBRANCH   6   9
ENDBRANCH   4   5
ENDBRANCH   3   4
ENDBRANCH   2   3
ENDBRANCH   1   2
BRANCH   1  29
ATOM     29  C   UNL     1       9.011   0.291   2.336  1.00  0.00     0.021 C 
BRANCH  29  30
ATOM     30  C   UNL     1       9.497   0.866   1.006  1.00  0.00     0.116 C 
BRANCH  30  31
ATOM     31  N   UNL     1      10.812   1.478   1.115  1.00  0.00    -0.352 N 
ATOM     32  C   UNL     1      11.917   1.289   0.317  1.00  0.00     0.251 C 
ATOM     33  H   UNL     1      10.927   2.113   1.859  1.00  0.00     0.163 HD
ATOM     34  O   UNL     1      13.004   1.754   0.645  1.00  0.00    -0.269 OA
BRANCH  32  35
ATOM     35  C   UNL     1      11.790   0.504  -0.930  1.00  0.00     0.039 A 
ATOM     36  C   UNL     1      12.666  -0.558  -1.169  1.00  0.00     0.014 A 
ATOM     37  C   UNL     1      10.792   0.810  -1.855  1.00  0.00     0.014 A 
ATOM     38  C   UNL     1      12.487  -1.368  -2.297  1.00  0.00     0.010 A 
ATOM     39  C   UNL     1      10.590  -0.027  -2.952  1.00  0.00     0.010 A 
ATOM     40  C   UNL     1      11.417  -1.140  -3.177  1.00  0.00    -0.014 A 
BRANCH  40  41
ATOM     41  C   UNL     1      11.122  -2.046  -4.326  1.00  0.00     0.031 A 
ATOM     42  C   UNL     1      11.105  -1.497  -5.731  1.00  0.00     0.074 A 
ATOM     43  C   UNL     1      10.767  -3.331  -4.111  1.00  0.00     0.049 A 
ATOM     44  N   UNL     1      10.721  -2.074  -6.840  1.00  0.00    -0.248 NA
ATOM     45  C   UNL     1      11.545  -0.102  -5.905  1.00  0.00     0.031 C 
ATOM     46  C   UNL     1      10.697  -3.988  -2.803  1.00  0.00     0.029 A 
ATOM     47  N   UNL     1      10.378  -4.316  -4.990  1.00  0.00    -0.354 N 
ATOM     48  C   UNL     1      10.835  -1.107  -7.832  1.00  0.00     0.074 A 
ATOM     49  C   UNL     1      11.290   0.106  -7.189  1.00  0.00     0.031 C 
ATOM     50  C   UNL     1      10.313  -5.265  -2.968  1.00  0.00     0.029 A 
ATOM     51  C   UNL     1      10.059  -5.511  -4.384  1.00  0.00     0.049 A 
ATOM     52  H   UNL     1      10.333  -4.179  -5.964  1.00  0.00     0.167 HD
ATOM     53  C   UNL     1      10.599  -1.221  -9.160  1.00  0.00     0.037 A 
ATOM     54  C   UNL     1       9.596  -6.668  -4.903  1.00  0.00     0.037 A 
ATOM     55  C   UNL     1      10.214  -2.445  -9.812  1.00  0.00     0.049 A 
ATOM     56  C   UNL     1       9.354  -6.770  -6.389  1.00  0.00     0.074 A 
ATOM     57  C   UNL     1      10.048  -2.676 -11.167  1.00  0.00     0.029 A 
ATOM     58  N   UNL     1       9.943  -3.639  -9.165  1.00  0.00    -0.354 N 
ATOM     59  N   UNL     1       9.536  -5.862  -7.317  1.00  0.00    -0.248 NA
ATOM     60  C   UNL     1       8.841  -8.052  -6.899  1.00  0.00     0.031 C 
ATOM     61  C   UNL     1       9.630  -3.998 -11.336  1.00  0.00     0.029 A 
ATOM     62  C   UNL     1       9.587  -4.605 -10.091  1.00  0.00     0.049 A 
ATOM     63  H   UNL     1       9.995  -3.780  -8.192  1.00  0.00     0.167 HD
ATOM     64  C   UNL     1       9.206  -6.478  -8.521  1.00  0.00     0.074 A 
ATOM     65  C   UNL     1       8.807  -7.832  -8.206  1.00  0.00     0.031 C 
ATOM     66  C   UNL     1       9.237  -5.965  -9.774  1.00  0.00     0.037 A 
BRANCH  53  67
ATOM     67  C   UNL     1      10.757   0.003 -10.018  1.00  0.00     0.058 A 
ATOM     68  C   UNL     1      12.019   0.536 -10.321  1.00  0.00     0.135 A 
ATOM     69  C   UNL     1       9.633   0.598 -10.615  1.00  0.00     0.135 A 
ATOM     70  F   UNL     1      13.124   0.013  -9.767  1.00  0.00    -0.206 F 
ATOM     71  C   UNL     1      12.161   1.625 -11.174  1.00  0.00     0.059 A 
ATOM     72  C   UNL     1       9.753   1.670 -11.493  1.00  0.00     0.059 A 
ATOM     73  F   UNL     1       8.402   0.126 -10.358  1.00  0.00    -0.206 F 
ATOM     74  C   UNL     1      11.022   2.182 -11.760  1.00  0.00     0.060 A 
BRANCH  74  75
ATOM     75  S   UNL     1      11.229   3.571 -12.893  1.00  0.00     0.124 S 
ATOM     76  O   UNL     1      11.564   4.651 -11.969  1.00  0.00    -0.237 OA
ATOM     77  O   UNL     1      12.315   3.113 -13.753  1.00  0.00    -0.237 OA
ATOM     78  O   UNL     1       9.924   3.681 -13.538  1.00  0.00    -0.744 OA
ENDBRANCH  74  75
ENDBRANCH  53  67
BRANCH  54  79
ATOM     79  C   UNL     1       9.331  -7.841  -4.024  1.00  0.00     0.058 A 
ATOM     80  C   UNL     1      10.119  -8.999  -4.114  1.00  0.00     0.135 A 
ATOM     81  C   UNL     1       8.266  -7.848  -3.111  1.00  0.00     0.135 A 
ATOM     82  F   UNL     1      11.145  -9.046  -4.979  1.00  0.00    -0.206 F 
ATOM     83  C   UNL     1       9.841 -10.133  -3.359  1.00  0.00     0.059 A 
ATOM     84  C   UNL     1       7.984  -8.961  -2.323  1.00  0.00     0.059 A 
ATOM     85  F   UNL     1       7.490  -6.761  -2.972  1.00  0.00    -0.206 F 
ATOM     86  C   UNL     1       8.767 -10.106  -2.469  1.00  0.00     0.060 A 
BRANCH  86  87
ATOM     87  S   UNL     1       8.415 -11.581  -1.487  1.00  0.00     0.124 S 
ATOM     88  O   UNL     1       7.820 -12.461  -2.485  1.00  0.00    -0.237 OA
ATOM     89  O   UNL     1       9.743 -11.957  -1.011  1.00  0.00    -0.237 OA
ATOM     90  O   UNL     1       7.506 -11.086  -0.457  1.00  0.00    -0.744 OA
ENDBRANCH  86  87
ENDBRANCH  54  79
BRANCH  66  91
ATOM     91  C   UNL     1       8.904  -6.873 -10.924  1.00  0.00     0.058 A 
ATOM     92  C   UNL     1       7.584  -7.244 -11.218  1.00  0.00     0.135 A 
ATOM     93  C   UNL     1       9.914  -7.279 -11.813  1.00  0.00     0.135 A 
ATOM     94  F   UNL     1       6.583  -6.889 -10.396  1.00  0.00    -0.206 F 
ATOM     95  C   UNL     1       7.275  -7.982 -12.357  1.00  0.00     0.059 A 
ATOM     96  C   UNL     1       9.625  -7.995 -12.969  1.00  0.00     0.059 A 
ATOM     97  F   UNL     1      11.193  -6.943 -11.580  1.00  0.00    -0.206 F 
ATOM     98  C   UNL     1       8.301  -8.342 -13.233  1.00  0.00     0.060 A 
BRANCH  98  99
ATOM     99  S   UNL     1       7.875  -9.218 -14.753  1.00  0.00     0.124 S 
ATOM    100  O   UNL     1       7.560 -10.550 -14.248  1.00  0.00    -0.237 OA
ATOM    101  O   UNL     1       6.742  -8.445 -15.252  1.00  0.00    -0.237 OA
ATOM    102  O   UNL     1       9.092  -9.123 -15.554  1.00  0.00    -0.744 OA
ENDBRANCH  98  99
ENDBRANCH  66  91
ENDBRANCH  40  41
ENDBRANCH  32  35
ENDBRANCH  30  31
ENDBRANCH  29  30
ENDBRANCH   1  29
TORSDOF 18
