REMARK SMILES CS(=O)(=O)c1ccc(/C=C(/C(=O)NCCCCCCNC(=O)c2ccc(-c3c4nc(c(-c5c(F)cc(S(=O)(=O)[O-])cc5F)c5ccc([nH]5)c(-c5c(F)cc(S(=O)(=O)[O-])cc5F)c5nc(c(-c6c(F)cc(S(=O)(=O)[O-])cc6F)c6ccc3[nH]6)C=C5)C=C4)cc2)c2ccccc2)cc1
REMARK SMILES IDX 17 1 16 2 15 3 14 4 13 5 11 6 12 7 10 9 9 10 8 11 5 12 6 13
REMARK SMILES IDX 96 14 7 15 95 16 2 17 1 18 3 19 4 20 89 21 90 22 94 23 91 24
REMARK SMILES IDX 93 25 92 26 18 27 19 28 20 29 21 30 22 32 23 33 24 34 88 35
REMARK SMILES IDX 25 36 87 37 26 38 27 39 28 40 81 41 29 42 86 43 80 44 82 45
REMARK SMILES IDX 30 46 85 47 79 48 78 49 31 51 65 52 44 53 64 54 45 55 48 56
REMARK SMILES IDX 63 57 83 58 46 59 47 60 62 62 84 63 49 64 32 65 33 66 42 67
REMARK SMILES IDX 34 68 35 69 41 70 43 71 36 72 37 73 38 74 39 75 40 76 66 77
REMARK SMILES IDX 67 78 76 79 68 80 69 81 75 82 77 83 70 84 71 85 72 86 73 87
REMARK SMILES IDX 74 88 50 89 51 90 60 91 52 92 53 93 59 94 61 95 54 96 55 97
REMARK SMILES IDX 56 98 57 99 58 100
REMARK H PARENT 13 8 20 31 82 50 48 61
REMARK Flexibility Score: inf
ROOT
ATOM      1  C   UNL     1       4.002   2.195  11.887  1.00  0.00     0.002 C 
ENDROOT
BRANCH   1   2
ATOM      2  C   UNL     1       2.650   1.617  11.453  1.00  0.00     0.002 C 
BRANCH   2   3
ATOM      3  C   UNL     1       2.369   1.670   9.942  1.00  0.00     0.021 C 
BRANCH   3   4
ATOM      4  C   UNL     1       3.330   0.817   9.107  1.00  0.00     0.116 C 
BRANCH   4   5
ATOM      5  N   UNL     1       3.029  -0.590   9.294  1.00  0.00    -0.352 N 
ATOM      6  C   UNL     1       2.397  -1.532   8.546  1.00  0.00     0.251 C 
ATOM      7  O   UNL     1       2.255  -2.638   9.075  1.00  0.00    -0.269 OA
ATOM      8  H   UNL     1       3.354  -0.940  10.155  1.00  0.00     0.163 HD
BRANCH   6   9
ATOM      9  C   UNL     1       1.962  -1.311   7.116  1.00  0.00     0.047 C 
ATOM     10  C   UNL     1       1.480  -0.127   6.674  1.00  0.00     0.022 C 
BRANCH  10  11
ATOM     11  C   UNL     1       1.118   0.258   5.292  1.00  0.00    -0.025 A 
ATOM     12  C   UNL     1       0.619   1.038   2.643  1.00  0.00     0.067 A 
ATOM     13  C   UNL     1       0.036  -0.126   3.146  1.00  0.00     0.021 A 
ATOM     14  C   UNL     1       1.402   1.849   3.464  1.00  0.00     0.021 A 
ATOM     15  C   UNL     1       0.275  -0.503   4.471  1.00  0.00     0.009 A 
ATOM     16  C   UNL     1       1.650   1.454   4.783  1.00  0.00     0.009 A 
BRANCH  12  17
ATOM     17  S   UNL     1       0.331   1.488   0.949  1.00  0.00     0.175 S 
ATOM     18  C   UNL     1       1.208   0.250   0.029  1.00  0.00     0.163 C 
ATOM     19  O   UNL     1       0.984   2.756   0.705  1.00  0.00    -0.224 OA
ATOM     20  O   UNL     1      -1.089   1.313   0.697  1.00  0.00    -0.224 OA
ENDBRANCH  12  17
ENDBRANCH  10  11
BRANCH   9  21
ATOM     21  C   UNL     1       1.923  -2.512   6.243  1.00  0.00    -0.013 A 
ATOM     22  C   UNL     1       0.946  -3.493   6.488  1.00  0.00     0.009 A 
ATOM     23  C   UNL     1       2.776  -2.665   5.143  1.00  0.00     0.009 A 
ATOM     24  C   UNL     1       0.804  -4.589   5.638  1.00  0.00     0.001 A 
ATOM     25  C   UNL     1       2.629  -3.762   4.289  1.00  0.00     0.001 A 
ATOM     26  C   UNL     1       1.641  -4.718   4.533  1.00  0.00     0.000 A 
ENDBRANCH   9  21
ENDBRANCH   6   9
ENDBRANCH   4   5
ENDBRANCH   3   4
ENDBRANCH   2   3
ENDBRANCH   1   2
BRANCH   1  27
ATOM     27  C   UNL     1       4.273   3.633  11.434  1.00  0.00     0.021 C 
BRANCH  27  28
ATOM     28  C   UNL     1       3.262   4.662  11.933  1.00  0.00     0.116 C 
BRANCH  28  29
ATOM     29  N   UNL     1       3.322   4.829  13.376  1.00  0.00    -0.352 N 
ATOM     30  C   UNL     1       3.508   5.976  14.109  1.00  0.00     0.251 C 
ATOM     31  H   UNL     1       3.215   4.004  13.902  1.00  0.00     0.163 HD
ATOM     32  O   UNL     1       3.736   5.903  15.313  1.00  0.00    -0.269 OA
BRANCH  30  33
ATOM     33  C   UNL     1       3.451   7.295  13.443  1.00  0.00     0.039 A 
ATOM     34  C   UNL     1       4.444   8.238  13.721  1.00  0.00     0.014 A 
ATOM     35  C   UNL     1       2.414   7.607  12.558  1.00  0.00     0.014 A 
ATOM     36  C   UNL     1       4.432   9.472  13.066  1.00  0.00     0.010 A 
ATOM     37  C   UNL     1       2.434   8.815  11.865  1.00  0.00     0.010 A 
ATOM     38  C   UNL     1       3.442   9.759  12.111  1.00  0.00    -0.014 A 
BRANCH  38  39
ATOM     39  C   UNL     1       3.450  11.037  11.355  1.00  0.00     0.031 A 
ATOM     40  C   UNL     1       2.347  12.040  11.552  1.00  0.00     0.074 A 
ATOM     41  C   UNL     1       4.413  11.263  10.440  1.00  0.00     0.049 A 
ATOM     42  N   UNL     1       2.136  13.169  10.927  1.00  0.00    -0.248 NA
ATOM     43  C   UNL     1       1.334  11.718  12.570  1.00  0.00     0.031 C 
ATOM     44  C   UNL     1       5.513  10.348  10.127  1.00  0.00     0.029 A 
ATOM     45  N   UNL     1       4.615  12.325   9.595  1.00  0.00    -0.354 N 
ATOM     46  C   UNL     1       0.963  13.686  11.462  1.00  0.00     0.074 A 
ATOM     47  C   UNL     1       0.484  12.726  12.434  1.00  0.00     0.031 C 
ATOM     48  C   UNL     1       6.280  10.894   9.170  1.00  0.00     0.029 A 
ATOM     49  C   UNL     1       5.711  12.181   8.778  1.00  0.00     0.049 A 
ATOM     50  H   UNL     1       4.029  13.116   9.575  1.00  0.00     0.167 HD
ATOM     51  C   UNL     1       0.349  14.861  11.182  1.00  0.00     0.037 A 
ATOM     52  C   UNL     1       6.198  12.989   7.817  1.00  0.00     0.037 A 
ATOM     53  C   UNL     1       0.843  15.826  10.234  1.00  0.00     0.049 A 
ATOM     54  C   UNL     1       5.504  14.290   7.528  1.00  0.00     0.074 A 
ATOM     55  C   UNL     1       0.326  17.072   9.924  1.00  0.00     0.029 A 
ATOM     56  N   UNL     1       1.968  15.652   9.441  1.00  0.00    -0.354 N 
ATOM     57  N   UNL     1       4.424  14.788   8.082  1.00  0.00    -0.248 NA
ATOM     58  C   UNL     1       6.095  15.142   6.487  1.00  0.00     0.031 C 
ATOM     59  C   UNL     1       1.121  17.639   8.921  1.00  0.00     0.029 A 
ATOM     60  C   UNL     1       2.153  16.761   8.632  1.00  0.00     0.049 A 
ATOM     61  H   UNL     1       2.549  14.858   9.453  1.00  0.00     0.167 HD
ATOM     62  C   UNL     1       4.216  16.018   7.470  1.00  0.00     0.074 A 
ATOM     63  C   UNL     1       5.289  16.195   6.512  1.00  0.00     0.031 C 
ATOM     64  C   UNL     1       3.226  16.920   7.683  1.00  0.00     0.037 A 
BRANCH  51  65
ATOM     65  C   UNL     1      -0.925  15.168  11.919  1.00  0.00     0.058 A 
ATOM     66  C   UNL     1      -0.921  15.507  13.281  1.00  0.00     0.135 A 
ATOM     67  C   UNL     1      -2.160  15.143  11.253  1.00  0.00     0.135 A 
ATOM     68  F   UNL     1       0.232  15.531  13.969  1.00  0.00    -0.206 F 
ATOM     69  C   UNL     1      -2.101  15.776  13.967  1.00  0.00     0.059 A 
ATOM     70  C   UNL     1      -3.351  15.432  11.913  1.00  0.00     0.059 A 
ATOM     71  F   UNL     1      -2.220  14.826   9.950  1.00  0.00    -0.206 F 
ATOM     72  C   UNL     1      -3.312  15.730  13.275  1.00  0.00     0.060 A 
BRANCH  72  73
ATOM     73  S   UNL     1      -4.838  16.071  14.179  1.00  0.00     0.124 S 
ATOM     74  O   UNL     1      -5.026  14.822  14.911  1.00  0.00    -0.237 OA
ATOM     75  O   UNL     1      -4.473  17.230  14.987  1.00  0.00    -0.237 OA
ATOM     76  O   UNL     1      -5.808  16.331  13.120  1.00  0.00    -0.744 OA
ENDBRANCH  72  73
ENDBRANCH  51  65
BRANCH  52  77
ATOM     77  C   UNL     1       7.423  12.596   7.073  1.00  0.00     0.058 A 
ATOM     78  C   UNL     1       8.646  13.236   7.316  1.00  0.00     0.135 A 
ATOM     79  C   UNL     1       7.400  11.560   6.127  1.00  0.00     0.135 A 
ATOM     80  F   UNL     1       8.714  14.236   8.207  1.00  0.00    -0.206 F 
ATOM     81  C   UNL     1       9.806  12.869   6.641  1.00  0.00     0.059 A 
ATOM     82  C   UNL     1       8.551  11.162   5.454  1.00  0.00     0.059 A 
ATOM     83  F   UNL     1       6.256  10.906   5.872  1.00  0.00    -0.206 F 
ATOM     84  C   UNL     1       9.748  11.828   5.713  1.00  0.00     0.060 A 
BRANCH  84  85
ATOM     85  S   UNL     1      11.271  11.313   4.889  1.00  0.00     0.124 S 
ATOM     86  O   UNL     1      11.444  12.374   3.904  1.00  0.00    -0.237 OA
ATOM     87  O   UNL     1      12.229  11.301   5.990  1.00  0.00    -0.237 OA
ATOM     88  O   UNL     1      10.931   9.999   4.352  1.00  0.00    -0.744 OA
ENDBRANCH  84  85
ENDBRANCH  52  77
BRANCH  64  89
ATOM     89  C   UNL     1       3.267  18.188   6.878  1.00  0.00     0.058 A 
ATOM     90  C   UNL     1       2.902  18.209   5.524  1.00  0.00     0.135 A 
ATOM     91  C   UNL     1       3.632  19.402   7.480  1.00  0.00     0.135 A 
ATOM     92  F   UNL     1       2.553  17.072   4.901  1.00  0.00    -0.206 F 
ATOM     93  C   UNL     1       2.915  19.388   4.787  1.00  0.00     0.059 A 
ATOM     94  C   UNL     1       3.631  20.598   6.768  1.00  0.00     0.059 A 
ATOM     95  F   UNL     1       3.982  19.437   8.776  1.00  0.00    -0.206 F 
ATOM     96  C   UNL     1       3.281  20.578   5.418  1.00  0.00     0.060 A 
BRANCH  96  97
ATOM     97  S   UNL     1       3.263  22.110   4.463  1.00  0.00     0.124 S 
ATOM     98  O   UNL     1       4.493  21.986   3.687  1.00  0.00    -0.237 OA
ATOM     99  O   UNL     1       2.021  21.994   3.705  1.00  0.00    -0.237 OA
ATOM    100  O   UNL     1       3.269  23.149   5.488  1.00  0.00    -0.744 OA
ENDBRANCH  96  97
ENDBRANCH  64  89
ENDBRANCH  38  39
ENDBRANCH  30  33
ENDBRANCH  28  29
ENDBRANCH  27  28
ENDBRANCH   1  27
TORSDOF 19
