REMARK SMILES COc1ccc2c(c1)c(CC(=O)NCCCCCCNC(=O)c1ccc(-c3c4nc(c(-c5c(F)cc(S(=O)(=O)[O-])cc5F)c5ccc([nH]5)c(-c5c(F)cc(S(=O)(=O)[O-])cc5F)c5nc(c(-c6c(F)cc(S(=O)(=O)[O-])cc6F)c6ccc3[nH]6)C=C5)C=C4)cc1)c(C)n2Cc1ccc(Br)cc1
REMARK SMILES IDX 16 1 15 2 14 3 13 4 11 5 12 6 10 8 9 9 3 10 4 11 8 12 5 13
REMARK SMILES IDX 7 14 6 15 91 16 89 17 90 18 2 19 1 20 92 21 93 22 94 23
REMARK SMILES IDX 99 24 95 25 98 26 96 27 97 28 17 29 18 30 19 31 20 32 21 33
REMARK SMILES IDX 22 35 23 36 24 37 88 38 25 39 87 40 26 41 27 42 28 43 81 44
REMARK SMILES IDX 29 45 86 46 80 47 82 48 30 49 85 50 79 51 78 52 31 54 65 55
REMARK SMILES IDX 44 56 64 57 45 58 48 59 63 60 83 61 46 62 47 63 62 65 84 66
REMARK SMILES IDX 49 67 32 68 33 69 42 70 34 71 35 72 41 73 43 74 36 75 37 76
REMARK SMILES IDX 38 77 39 78 40 79 66 80 67 81 76 82 68 83 69 84 75 85 77 86
REMARK SMILES IDX 70 87 71 88 72 89 73 90 74 91 50 92 51 93 60 94 52 95 53 96
REMARK SMILES IDX 59 97 61 98 54 99 55 100 56 101 57 102 58 103
REMARK H PARENT 13 7 20 34 82 53 48 64
REMARK Flexibility Score: inf
ROOT
ATOM      1  C   UNL     1       0.419   2.177  -8.196  1.00  0.00     0.002 C 
ENDROOT
BRANCH   1   2
ATOM      2  C   UNL     1       0.472   3.248  -7.099  1.00  0.00     0.021 C 
BRANCH   2   3
ATOM      3  C   UNL     1      -0.856   3.979  -6.885  1.00  0.00     0.116 C 
BRANCH   3   4
ATOM      4  N   UNL     1      -1.838   3.118  -6.248  1.00  0.00    -0.356 N 
ATOM      5  C   UNL     1      -2.324   3.149  -4.972  1.00  0.00     0.224 C 
ATOM      6  O   UNL     1      -3.105   2.260  -4.621  1.00  0.00    -0.275 OA
ATOM      7  H   UNL     1      -2.207   2.407  -6.820  1.00  0.00     0.163 HD
BRANCH   5   8
ATOM      8  C   UNL     1      -1.978   4.298  -4.035  1.00  0.00     0.138 C 
BRANCH   8   9
ATOM      9  C   UNL     1      -0.520   4.378  -3.699  1.00  0.00    -0.010 A 
ATOM     10  C   UNL     1       0.999   1.311  -2.026  1.00  0.00     0.119 A 
ATOM     11  C   UNL     1       2.313   1.768  -2.027  1.00  0.00     0.048 A 
ATOM     12  C   UNL     1      -0.015   2.070  -2.609  1.00  0.00     0.057 A 
ATOM     13  C   UNL     1       2.639   3.018  -2.575  1.00  0.00     0.031 A 
ATOM     14  C   UNL     1       0.281   3.352  -3.120  1.00  0.00     0.007 A 
ATOM     15  C   UNL     1       1.602   3.812  -3.100  1.00  0.00     0.049 A 
ATOM     16  N   UNL     1       1.599   5.077  -3.678  1.00  0.00    -0.340 N 
ATOM     17  C   UNL     1       0.287   5.502  -3.814  1.00  0.00     0.020 A 
ATOM     18  C   UNL     1      -0.145   6.900  -4.095  1.00  0.00     0.065 C 
BRANCH  10  19
ATOM     19  O   UNL     1       0.646   0.087  -1.522  1.00  0.00    -0.497 OA
ATOM     20  C   UNL     1       0.973  -0.043  -0.140  1.00  0.00     0.278 C 
ENDBRANCH  10  19
BRANCH  16  21
ATOM     21  C   UNL     1       2.796   5.876  -3.955  1.00  0.00     0.157 C 
BRANCH  21  22
ATOM     22  C   UNL     1       3.148   5.989  -5.428  1.00  0.00    -0.028 A 
ATOM     23  C   UNL     1       2.430   6.832  -6.292  1.00  0.00     0.007 A 
ATOM     24  C   UNL     1       4.266   5.319  -5.951  1.00  0.00     0.007 A 
ATOM     25  C   UNL     1       2.806   7.007  -7.627  1.00  0.00     0.016 A 
ATOM     26  C   UNL     1       4.663   5.512  -7.282  1.00  0.00     0.016 A 
ATOM     27  C   UNL     1       3.936   6.364  -8.110  1.00  0.00     0.017 A 
ATOM     28  Br  UNL     1       4.514   6.698  -9.878  1.00  0.00    -0.051 Br
ENDBRANCH  21  22
ENDBRANCH  16  21
ENDBRANCH   8   9
ENDBRANCH   5   8
ENDBRANCH   3   4
ENDBRANCH   2   3
ENDBRANCH   1   2
BRANCH   1  29
ATOM     29  C   UNL     1       0.135   2.706  -9.607  1.00  0.00     0.002 C 
BRANCH  29  30
ATOM     30  C   UNL     1       1.141   3.735 -10.138  1.00  0.00     0.021 C 
BRANCH  30  31
ATOM     31  C   UNL     1       2.588   3.241 -10.160  1.00  0.00     0.116 C 
BRANCH  31  32
ATOM     32  N   UNL     1       2.786   2.054 -10.963  1.00  0.00    -0.352 N 
ATOM     33  C   UNL     1       3.072   1.822 -12.280  1.00  0.00     0.251 C 
ATOM     34  H   UNL     1       2.693   1.223 -10.443  1.00  0.00     0.163 HD
ATOM     35  O   UNL     1       3.312   0.648 -12.577  1.00  0.00    -0.269 OA
BRANCH  33  36
ATOM     36  C   UNL     1       3.059   2.848 -13.361  1.00  0.00     0.039 A 
ATOM     37  C   UNL     1       2.851   4.217 -13.191  1.00  0.00     0.014 A 
ATOM     38  C   UNL     1       3.206   2.355 -14.673  1.00  0.00     0.014 A 
ATOM     39  C   UNL     1       2.688   5.050 -14.294  1.00  0.00     0.010 A 
ATOM     40  C   UNL     1       3.063   3.185 -15.779  1.00  0.00     0.010 A 
ATOM     41  C   UNL     1       2.746   4.525 -15.587  1.00  0.00    -0.014 A 
BRANCH  41  42
ATOM     42  C   UNL     1       2.499   5.434 -16.703  1.00  0.00     0.031 A 
ATOM     43  C   UNL     1       3.437   6.588 -16.817  1.00  0.00     0.074 A 
ATOM     44  C   UNL     1       1.538   5.224 -17.625  1.00  0.00     0.049 A 
ATOM     45  N   UNL     1       3.171   7.849 -16.706  1.00  0.00    -0.248 NA
ATOM     46  C   UNL     1       4.870   6.294 -16.963  1.00  0.00     0.031 C 
ATOM     47  C   UNL     1       0.707   4.032 -17.815  1.00  0.00     0.029 A 
ATOM     48  N   UNL     1       1.167   6.022 -18.665  1.00  0.00    -0.354 N 
ATOM     49  C   UNL     1       4.365   8.525 -16.955  1.00  0.00     0.074 A 
ATOM     50  C   UNL     1       5.396   7.520 -16.968  1.00  0.00     0.031 C 
ATOM     51  C   UNL     1       0.112   4.093 -19.027  1.00  0.00     0.029 A 
ATOM     52  C   UNL     1       0.409   5.379 -19.635  1.00  0.00     0.049 A 
ATOM     53  H   UNL     1       1.415   6.973 -18.724  1.00  0.00     0.167 HD
ATOM     54  C   UNL     1       4.387   9.841 -17.314  1.00  0.00     0.037 A 
ATOM     55  C   UNL     1       0.114   5.842 -20.876  1.00  0.00     0.037 A 
ATOM     56  C   UNL     1       3.136  10.488 -17.011  1.00  0.00     0.049 A 
ATOM     57  C   UNL     1       0.251   7.322 -20.838  1.00  0.00     0.074 A 
ATOM     58  C   UNL     1       2.420  10.724 -15.854  1.00  0.00     0.029 A 
ATOM     59  N   UNL     1       2.261  10.723 -18.044  1.00  0.00    -0.354 N 
ATOM     60  N   UNL     1      -0.532   8.107 -20.146  1.00  0.00    -0.248 NA
ATOM     61  C   UNL     1       1.539   7.896 -21.200  1.00  0.00     0.031 C 
ATOM     62  C   UNL     1       1.053  10.595 -16.235  1.00  0.00     0.029 A 
ATOM     63  C   UNL     1       1.020  10.340 -17.607  1.00  0.00     0.049 A 
ATOM     64  H   UNL     1       2.483  11.096 -18.927  1.00  0.00     0.167 HD
ATOM     65  C   UNL     1       0.308   9.082 -19.626  1.00  0.00     0.074 A 
ATOM     66  C   UNL     1       1.552   8.952 -20.381  1.00  0.00     0.031 C 
ATOM     67  C   UNL     1       0.023   9.721 -18.453  1.00  0.00     0.037 A 
BRANCH  54  68
ATOM     68  C   UNL     1       5.397  10.473 -18.247  1.00  0.00     0.058 A 
ATOM     69  C   UNL     1       5.360  11.870 -18.457  1.00  0.00     0.135 A 
ATOM     70  C   UNL     1       6.176   9.742 -19.170  1.00  0.00     0.135 A 
ATOM     71  F   UNL     1       4.672  12.671 -17.627  1.00  0.00    -0.206 F 
ATOM     72  C   UNL     1       5.945  12.476 -19.569  1.00  0.00     0.059 A 
ATOM     73  C   UNL     1       6.811  10.334 -20.257  1.00  0.00     0.059 A 
ATOM     74  F   UNL     1       6.277   8.409 -19.124  1.00  0.00    -0.206 F 
ATOM     75  C   UNL     1       6.643  11.691 -20.481  1.00  0.00     0.060 A 
BRANCH  75  76
ATOM     76  S   UNL     1       7.247  12.437 -22.005  1.00  0.00     0.124 S 
ATOM     77  O   UNL     1       5.998  12.743 -22.692  1.00  0.00    -0.237 OA
ATOM     78  O   UNL     1       8.000  13.582 -21.503  1.00  0.00    -0.237 OA
ATOM     79  O   UNL     1       8.053  11.375 -22.601  1.00  0.00    -0.744 OA
ENDBRANCH  75  76
ENDBRANCH  54  68
BRANCH  55  80
ATOM     80  C   UNL     1       0.088   5.049 -22.136  1.00  0.00     0.058 A 
ATOM     81  C   UNL     1      -0.454   5.564 -23.327  1.00  0.00     0.135 A 
ATOM     82  C   UNL     1       0.827   3.853 -22.263  1.00  0.00     0.135 A 
ATOM     83  F   UNL     1      -1.142   6.716 -23.312  1.00  0.00    -0.206 F 
ATOM     84  C   UNL     1      -0.254   4.944 -24.569  1.00  0.00     0.059 A 
ATOM     85  C   UNL     1       1.027   3.212 -23.483  1.00  0.00     0.059 A 
ATOM     86  F   UNL     1       1.458   3.312 -21.211  1.00  0.00    -0.206 F 
ATOM     87  C   UNL     1       0.502   3.773 -24.638  1.00  0.00     0.060 A 
BRANCH  87  88
ATOM     88  S   UNL     1       0.882   3.042 -26.248  1.00  0.00     0.124 S 
ATOM     89  O   UNL     1      -0.437   2.624 -26.711  1.00  0.00    -0.237 OA
ATOM     90  O   UNL     1       1.483   4.163 -26.961  1.00  0.00    -0.237 OA
ATOM     91  O   UNL     1       1.799   1.953 -25.919  1.00  0.00    -0.744 OA
ENDBRANCH  87  88
ENDBRANCH  55  80
BRANCH  67  92
ATOM     92  C   UNL     1      -1.349   9.560 -17.851  1.00  0.00     0.058 A 
ATOM     93  C   UNL     1      -1.861   8.340 -17.375  1.00  0.00     0.135 A 
ATOM     94  C   UNL     1      -2.089  10.718 -17.567  1.00  0.00     0.135 A 
ATOM     95  F   UNL     1      -1.167   7.201 -17.509  1.00  0.00    -0.206 F 
ATOM     96  C   UNL     1      -3.065   8.271 -16.673  1.00  0.00     0.059 A 
ATOM     97  C   UNL     1      -3.277  10.678 -16.842  1.00  0.00     0.059 A 
ATOM     98  F   UNL     1      -1.622  11.922 -17.937  1.00  0.00    -0.206 F 
ATOM     99  C   UNL     1      -3.763   9.448 -16.402  1.00  0.00     0.060 A 
BRANCH  99 100
ATOM    100  S   UNL     1      -5.263   9.371 -15.399  1.00  0.00     0.124 S 
ATOM    101  O   UNL     1      -6.198   8.694 -16.297  1.00  0.00    -0.237 OA
ATOM    102  O   UNL     1      -4.826   8.591 -14.240  1.00  0.00    -0.237 OA
ATOM    103  O   UNL     1      -5.564  10.766 -15.121  1.00  0.00    -0.744 OA
ENDBRANCH  99 100
ENDBRANCH  67  92
ENDBRANCH  41  42
ENDBRANCH  33  36
ENDBRANCH  31  32
ENDBRANCH  30  31
ENDBRANCH  29  30
ENDBRANCH   1  29
TORSDOF 20
