REMARK SMILES O=C(/C=C/C(=O)NNC(=O)CSc1ccc2ccccc2n1)NCCCCCCNC(=O)c1ccc(-c2c3nc(c(-c4c(F)cc(S(=O)(=O)[O-])cc4F)c4ccc([nH]4)c(-c4c(F)cc(S(=O)(=O)[O-])cc4F)c4nc(c(-c5c(F)cc(S(=O)(=O)[O-])cc5F)c5ccc2[nH]5)C=C4)C=C3)cc1
REMARK SMILES IDX 25 1 24 2 23 3 1 4 2 5 3 7 4 8 5 9 6 10 7 11 8 13 9 14 10 16
REMARK SMILES IDX 11 17 12 18 13 19 14 20 22 21 15 22 21 23 16 24 20 25 17 26
REMARK SMILES IDX 19 27 18 28 26 29 27 30 28 31 29 32 30 33 31 34 32 36 33 37
REMARK SMILES IDX 34 38 98 39 35 40 97 41 36 42 37 43 38 44 91 45 39 46 96 47
REMARK SMILES IDX 90 48 92 49 40 50 95 51 89 52 88 53 41 55 75 56 54 57 74 58
REMARK SMILES IDX 55 59 58 60 73 61 93 62 56 63 57 64 72 66 94 67 59 68 42 69
REMARK SMILES IDX 43 70 52 71 44 72 45 73 51 74 53 75 46 76 47 77 48 78 49 79
REMARK SMILES IDX 50 80 76 81 77 82 86 83 78 84 79 85 85 86 87 87 80 88 81 89
REMARK SMILES IDX 82 90 83 91 84 92 60 93 61 94 70 95 62 96 63 97 69 98 71 99
REMARK SMILES IDX 64 100 65 101 66 102 67 103 68 104
REMARK H PARENT 23 6 7 12 8 15 30 35 92 54 58 65
REMARK Flexibility Score: inf
ROOT
ATOM      1  C   UNL     1       2.694   2.598  -2.188  1.00  0.00     0.021 C 
ENDROOT
BRANCH   1   2
ATOM      2  C   UNL     1       2.151   1.169  -2.191  1.00  0.00     0.116 C 
BRANCH   2   3
ATOM      3  N   UNL     1       2.779   0.344  -1.176  1.00  0.00    -0.353 N 
ATOM      4  O   UNL     1       0.888   0.009   0.098  1.00  0.00    -0.270 OA
ATOM      5  C   UNL     1       2.083  -0.153  -0.107  1.00  0.00     0.244 C 
ATOM      6  H   UNL     1       3.737   0.135  -1.258  1.00  0.00     0.163 HD
BRANCH   5   7
ATOM      7  C   UNL     1       2.863  -0.991   0.831  1.00  0.00     0.077 C 
ATOM      8  C   UNL     1       4.084  -0.639   1.253  1.00  0.00     0.078 C 
BRANCH   8   9
ATOM      9  C   UNL     1       4.884  -1.401   2.238  1.00  0.00     0.262 C 
ATOM     10  O   UNL     1       6.087  -1.550   2.028  1.00  0.00    -0.268 OA
ATOM     11  N   UNL     1       4.327  -1.858   3.403  1.00  0.00    -0.264 N 
ATOM     12  H   UNL     1       4.925  -2.328   4.027  1.00  0.00     0.191 HD
BRANCH  11  13
ATOM     13  N   UNL     1       2.998  -1.722   3.790  1.00  0.00    -0.267 N 
ATOM     14  C   UNL     1       2.354  -2.555   4.673  1.00  0.00     0.248 C 
ATOM     15  H   UNL     1       2.483  -0.977   3.405  1.00  0.00     0.191 HD
ATOM     16  O   UNL     1       1.133  -2.436   4.807  1.00  0.00    -0.272 OA
BRANCH  14  17
ATOM     17  C   UNL     1       3.129  -3.531   5.540  1.00  0.00     0.178 C 
BRANCH  17  18
ATOM     18  S   UNL     1       4.210  -4.675   4.642  1.00  0.00    -0.096 SA
BRANCH  18  19
ATOM     19  C   UNL     1       3.063  -5.866   3.989  1.00  0.00     0.097 A 
ATOM     20  C   UNL     1       1.980  -5.510   3.201  1.00  0.00     0.036 A 
ATOM     21  N   UNL     1       3.405  -7.154   4.214  1.00  0.00    -0.241 NA
ATOM     22  C   UNL     1       1.224  -6.518   2.609  1.00  0.00     0.013 A 
ATOM     23  C   UNL     1       2.692  -8.129   3.622  1.00  0.00     0.072 A 
ATOM     24  C   UNL     1       1.583  -7.855   2.797  1.00  0.00     0.000 A 
ATOM     25  C   UNL     1       3.062  -9.456   3.799  1.00  0.00     0.029 A 
ATOM     26  C   UNL     1       0.886  -8.901   2.169  1.00  0.00     0.010 A 
ATOM     27  C   UNL     1       2.377 -10.501   3.170  1.00  0.00     0.002 A 
ATOM     28  C   UNL     1       1.288 -10.222   2.351  1.00  0.00     0.001 A 
ENDBRANCH  18  19
ENDBRANCH  17  18
ENDBRANCH  14  17
ENDBRANCH  11  13
ENDBRANCH   8   9
ENDBRANCH   5   7
ENDBRANCH   2   3
ENDBRANCH   1   2
BRANCH   1  29
ATOM     29  C   UNL     1       4.195   2.717  -2.478  1.00  0.00     0.002 C 
BRANCH  29  30
ATOM     30  C   UNL     1       4.664   2.093  -3.796  1.00  0.00     0.002 C 
BRANCH  30  31
ATOM     31  C   UNL     1       3.966   2.615  -5.054  1.00  0.00     0.021 C 
BRANCH  31  32
ATOM     32  C   UNL     1       4.089   4.119  -5.281  1.00  0.00     0.116 C 
BRANCH  32  33
ATOM     33  N   UNL     1       5.467   4.538  -5.485  1.00  0.00    -0.352 N 
ATOM     34  C   UNL     1       6.016   5.257  -6.522  1.00  0.00     0.251 C 
ATOM     35  H   UNL     1       6.098   4.269  -4.779  1.00  0.00     0.163 HD
ATOM     36  O   UNL     1       7.232   5.365  -6.617  1.00  0.00    -0.269 OA
BRANCH  34  37
ATOM     37  C   UNL     1       5.131   5.875  -7.535  1.00  0.00     0.039 A 
ATOM     38  C   UNL     1       5.441   5.722  -8.888  1.00  0.00     0.014 A 
ATOM     39  C   UNL     1       3.992   6.588  -7.151  1.00  0.00     0.014 A 
ATOM     40  C   UNL     1       4.568   6.221  -9.858  1.00  0.00     0.010 A 
ATOM     41  C   UNL     1       3.087   7.018  -8.117  1.00  0.00     0.010 A 
ATOM     42  C   UNL     1       3.361   6.834  -9.480  1.00  0.00    -0.014 A 
BRANCH  42  43
ATOM     43  C   UNL     1       2.363   7.261 -10.495  1.00  0.00     0.031 A 
ATOM     44  C   UNL     1       1.988   8.712 -10.631  1.00  0.00     0.074 A 
ATOM     45  C   UNL     1       1.735   6.330 -11.241  1.00  0.00     0.049 A 
ATOM     46  N   UNL     1       1.085   9.263 -11.400  1.00  0.00    -0.248 NA
ATOM     47  C   UNL     1       2.705   9.664  -9.769  1.00  0.00     0.031 C 
ATOM     48  C   UNL     1       1.971   4.886 -11.163  1.00  0.00     0.029 A 
ATOM     49  N   UNL     1       0.758   6.454 -12.197  1.00  0.00    -0.354 N 
ATOM     50  C   UNL     1       1.118  10.622 -11.111  1.00  0.00     0.074 A 
ATOM     51  C   UNL     1       2.089  10.803 -10.053  1.00  0.00     0.031 C 
ATOM     52  C   UNL     1       1.170   4.261 -12.040  1.00  0.00     0.029 A 
ATOM     53  C   UNL     1       0.333   5.251 -12.711  1.00  0.00     0.049 A 
ATOM     54  H   UNL     1       0.395   7.322 -12.488  1.00  0.00     0.167 HD
ATOM     55  C   UNL     1       0.418  11.629 -11.688  1.00  0.00     0.037 A 
ATOM     56  C   UNL     1      -0.634   4.971 -13.607  1.00  0.00     0.037 A 
ATOM     57  C   UNL     1      -0.543  11.439 -12.744  1.00  0.00     0.049 A 
ATOM     58  C   UNL     1      -1.410   6.101 -14.226  1.00  0.00     0.074 A 
ATOM     59  C   UNL     1      -1.262  12.399 -13.435  1.00  0.00     0.029 A 
ATOM     60  N   UNL     1      -0.930  10.207 -13.254  1.00  0.00    -0.354 N 
ATOM     61  N   UNL     1      -1.311   7.389 -13.996  1.00  0.00    -0.248 NA
ATOM     62  C   UNL     1      -2.423   5.745 -15.228  1.00  0.00     0.031 C 
ATOM     63  C   UNL     1      -2.124  11.745 -14.322  1.00  0.00     0.029 A 
ATOM     64  C   UNL     1      -1.900  10.381 -14.229  1.00  0.00     0.049 A 
ATOM     65  H   UNL     1      -0.568   9.338 -12.966  1.00  0.00     0.167 HD
ATOM     66  C   UNL     1      -2.235   7.998 -14.839  1.00  0.00     0.074 A 
ATOM     67  C   UNL     1      -2.870   6.938 -15.595  1.00  0.00     0.031 C 
ATOM     68  C   UNL     1      -2.528   9.316 -14.974  1.00  0.00     0.037 A 
BRANCH  55  69
ATOM     69  C   UNL     1       0.663  13.026 -11.180  1.00  0.00     0.058 A 
ATOM     70  C   UNL     1       1.887  13.684 -11.389  1.00  0.00     0.135 A 
ATOM     71  C   UNL     1      -0.342  13.723 -10.491  1.00  0.00     0.135 A 
ATOM     72  F   UNL     1       2.889  13.063 -12.031  1.00  0.00    -0.206 F 
ATOM     73  C   UNL     1       2.119  14.964 -10.895  1.00  0.00     0.059 A 
ATOM     74  C   UNL     1      -0.143  15.017 -10.018  1.00  0.00     0.059 A 
ATOM     75  F   UNL     1      -1.533  13.147 -10.266  1.00  0.00    -0.206 F 
ATOM     76  C   UNL     1       1.099  15.621 -10.207  1.00  0.00     0.060 A 
BRANCH  76  77
ATOM     77  S   UNL     1       1.425  17.273  -9.557  1.00  0.00     0.124 S 
ATOM     78  O   UNL     1       2.328  16.976  -8.449  1.00  0.00    -0.237 OA
ATOM     79  O   UNL     1       2.027  17.946 -10.703  1.00  0.00    -0.237 OA
ATOM     80  O   UNL     1       0.102  17.756  -9.174  1.00  0.00    -0.744 OA
ENDBRANCH  76  77
ENDBRANCH  55  69
BRANCH  56  81
ATOM     81  C   UNL     1      -0.914   3.555 -13.969  1.00  0.00     0.058 A 
ATOM     82  C   UNL     1      -0.584   3.048 -15.234  1.00  0.00     0.135 A 
ATOM     83  C   UNL     1      -1.486   2.670 -13.040  1.00  0.00     0.135 A 
ATOM     84  F   UNL     1      -0.043   3.855 -16.159  1.00  0.00    -0.206 F 
ATOM     85  C   UNL     1      -0.816   1.718 -15.569  1.00  0.00     0.059 A 
ATOM     86  C   UNL     1      -1.702   1.329 -13.342  1.00  0.00     0.059 A 
ATOM     87  F   UNL     1      -1.805   3.100 -11.809  1.00  0.00    -0.206 F 
ATOM     88  C   UNL     1      -1.369   0.864 -14.613  1.00  0.00     0.060 A 
BRANCH  88  89
ATOM     89  S   UNL     1      -1.601  -0.877 -15.036  1.00  0.00     0.124 S 
ATOM     90  O   UNL     1      -2.716  -0.805 -15.973  1.00  0.00    -0.237 OA
ATOM     91  O   UNL     1      -0.305  -1.226 -15.610  1.00  0.00    -0.237 OA
ATOM     92  O   UNL     1      -1.896  -1.499 -13.749  1.00  0.00    -0.744 OA
ENDBRANCH  88  89
ENDBRANCH  56  81
BRANCH  68  93
ATOM     93  C   UNL     1      -3.569   9.696 -15.992  1.00  0.00     0.058 A 
ATOM     94  C   UNL     1      -4.933   9.430 -15.790  1.00  0.00     0.135 A 
ATOM     95  C   UNL     1      -3.204  10.392 -17.157  1.00  0.00     0.135 A 
ATOM     96  F   UNL     1      -5.336   8.760 -14.699  1.00  0.00    -0.206 F 
ATOM     97  C   UNL     1      -5.895   9.824 -16.715  1.00  0.00     0.059 A 
ATOM     98  C   UNL     1      -4.152  10.822 -18.079  1.00  0.00     0.059 A 
ATOM     99  F   UNL     1      -1.915  10.680 -17.396  1.00  0.00    -0.206 F 
ATOM    100  C   UNL     1      -5.495  10.525 -17.854  1.00  0.00     0.060 A 
BRANCH 100 101
ATOM    101  S   UNL     1      -6.760  11.070 -19.021  1.00  0.00     0.124 S 
ATOM    102  O   UNL     1      -7.155   9.809 -19.638  1.00  0.00    -0.237 OA
ATOM    103  O   UNL     1      -7.750  11.685 -18.143  1.00  0.00    -0.237 OA
ATOM    104  O   UNL     1      -6.043  11.997 -19.892  1.00  0.00    -0.744 OA
ENDBRANCH 100 101
ENDBRANCH  68  93
ENDBRANCH  42  43
ENDBRANCH  34  37
ENDBRANCH  32  33
ENDBRANCH  31  32
ENDBRANCH  30  31
ENDBRANCH  29  30
ENDBRANCH   1  29
TORSDOF 21
