REMARK SMILES COC(=O)[C@H]1CC[C@]2(C)[C@H](CC[C@]3(C)[C@H]2CC=C2[C@H]4CC(C)(C)CC[C@]4(C(=O)NCCCCCCNC(=O)c4ccc(-c5c6nc(c(-c7c(F)cc(S(=O)(=O)[O-])cc7F)c7ccc([nH]7)c(-c7c(F)cc(S(=O)(=O)[O-])cc7F)c7nc(c(-c8c(F)cc(S(=O)(=O)[O-])cc8F)c8ccc5[nH]8)C=C7)C=C6)cc4)CC[C@@]23C)C1(C)C
REMARK SMILES IDX 33 1 32 2 31 3 30 4 29 5 27 6 28 7 26 9 5 10 6 11 109 12
REMARK SMILES IDX 7 13 10 14 110 15 111 16 8 17 11 18 15 19 9 20 12 21 16 22
REMARK SMILES IDX 13 23 17 24 107 25 14 26 18 27 106 28 108 29 19 30 105 31
REMARK SMILES IDX 20 32 21 33 25 34 24 35 22 36 23 37 3 38 4 39 2 40 1 41
REMARK SMILES IDX 34 42 35 43 36 44 37 45 38 47 39 48 40 49 104 50 41 51
REMARK SMILES IDX 103 52 42 53 43 54 44 55 97 56 45 57 102 58 96 59 98 60
REMARK SMILES IDX 46 61 101 62 95 63 94 64 47 66 81 67 60 68 80 69 61 70 64 71
REMARK SMILES IDX 79 72 99 73 62 74 63 75 78 77 100 78 65 79 48 80 49 81 58 82
REMARK SMILES IDX 50 83 51 84 57 85 59 86 52 87 53 88 54 89 55 90 56 91 82 92
REMARK SMILES IDX 83 93 92 94 84 95 85 96 91 97 93 98 86 99 87 100 88 101
REMARK SMILES IDX 89 102 90 103 66 104 67 105 76 106 68 107 69 108 75 109
REMARK SMILES IDX 77 110 70 111 71 112 72 113 73 114 74 115
REMARK H PARENT 29 8 36 46 98 65 64 76
REMARK Flexibility Score: inf
ROOT
ATOM      1  C   UNL     1      -6.188  -5.019  -7.828  1.00  0.00     0.002 C 
ENDROOT
BRANCH   1   2
ATOM      2  C   UNL     1      -6.175  -6.398  -7.162  1.00  0.00     0.002 C 
BRANCH   2   3
ATOM      3  C   UNL     1      -5.157  -7.402  -7.712  1.00  0.00     0.021 C 
BRANCH   3   4
ATOM      4  C   UNL     1      -3.700  -6.977  -7.570  1.00  0.00     0.116 C 
BRANCH   4   5
ATOM      5  N   UNL     1      -3.179  -7.351  -6.285  1.00  0.00    -0.356 N 
ATOM      6  C   UNL     1      -1.880  -7.519  -5.945  1.00  0.00     0.226 C 
ATOM      7  O   UNL     1      -1.688  -8.455  -5.162  1.00  0.00    -0.274 OA
ATOM      8  H   UNL     1      -3.840  -7.502  -5.572  1.00  0.00     0.163 HD
BRANCH   6   9
ATOM      9  C   UNL     1      -0.755  -6.515  -6.328  1.00  0.00     0.056 C 
ATOM     10  C   UNL     1       1.265   0.867  -3.490  1.00  0.00     0.105 C 
ATOM     11  C   UNL     1      -0.257   1.199  -3.559  1.00  0.00     0.016 C 
ATOM     12  C   UNL     1       1.493  -0.684  -3.574  1.00  0.00    -0.019 C 
ATOM     13  C   UNL     1      -1.059   0.502  -4.680  1.00  0.00     0.008 C 
ATOM     14  C   UNL     1       0.750  -1.124  -4.948  1.00  0.00     0.002 C 
ATOM     15  C   UNL     1       1.048  -1.211  -2.165  1.00  0.00     0.012 C 
ATOM     16  C   UNL     1       2.968  -1.161  -3.584  1.00  0.00     0.012 C 
ATOM     17  C   UNL     1      -0.800  -1.032  -4.871  1.00  0.00    -0.026 C 
ATOM     18  C   UNL     1       1.203  -2.419  -5.588  1.00  0.00     0.005 C 
ATOM     19  C   UNL     1      -1.595  -1.488  -6.197  1.00  0.00     0.006 C 
ATOM     20  C   UNL     1      -1.304  -1.799  -3.623  1.00  0.00     0.012 C 
ATOM     21  C   UNL     1       0.676  -2.662  -7.001  1.00  0.00     0.008 C 
ATOM     22  C   UNL     1      -3.030  -2.065  -5.842  1.00  0.00     0.032 C 
ATOM     23  C   UNL     1      -0.828  -2.376  -7.320  1.00  0.00    -0.020 C 
ATOM     24  C   UNL     1      -2.960  -3.572  -5.551  1.00  0.00    -0.027 C 
ATOM     25  C   UNL     1      -1.673  -3.744  -7.618  1.00  0.00    -0.006 C 
ATOM     26  C   UNL     1      -0.765  -1.501  -8.620  1.00  0.00     0.012 C 
ATOM     27  C   UNL     1      -2.014  -4.265  -6.213  1.00  0.00    -0.064 C 
ATOM     28  C   UNL     1      -1.008  -4.883  -8.466  1.00  0.00     0.013 C 
ATOM     29  C   UNL     1      -2.954  -3.401  -8.507  1.00  0.00     0.017 C 
ATOM     30  C   UNL     1      -0.991  -5.220  -5.552  1.00  0.00     0.031 C 
ATOM     31  C   UNL     1      -0.529  -6.208  -7.831  1.00  0.00     0.018 C 
ATOM     32  C   UNL     1      -0.958  -5.466  -4.012  1.00  0.00     0.015 C 
ATOM     33  C   UNL     1       0.389  -6.098  -3.496  1.00  0.00    -0.035 C 
ATOM     34  C   UNL     1       0.607  -7.142  -5.843  1.00  0.00     0.018 C 
ATOM     35  C   UNL     1       0.798  -7.321  -4.334  1.00  0.00     0.007 C 
ATOM     36  C   UNL     1       0.229  -6.531  -2.024  1.00  0.00     0.011 C 
ATOM     37  C   UNL     1       1.567  -5.103  -3.508  1.00  0.00     0.011 C 
BRANCH  10  38
ATOM     38  C   UNL     1       2.044   1.651  -4.550  1.00  0.00     0.309 C 
ATOM     39  O   UNL     1       1.560   2.400  -5.373  1.00  0.00    -0.252 OA
BRANCH  38  40
ATOM     40  O   UNL     1       3.373   1.367  -4.448  1.00  0.00    -0.469 OA
ATOM     41  C   UNL     1       4.131   1.533  -5.646  1.00  0.00     0.282 C 
ENDBRANCH  38  40
ENDBRANCH  10  38
ENDBRANCH   6   9
ENDBRANCH   4   5
ENDBRANCH   3   4
ENDBRANCH   2   3
ENDBRANCH   1   2
BRANCH   1  42
ATOM     42  C   UNL     1      -6.133  -5.005  -9.357  1.00  0.00     0.021 C 
BRANCH  42  43
ATOM     43  C   UNL     1      -7.182  -5.857 -10.051  1.00  0.00     0.116 C 
BRANCH  43  44
ATOM     44  N   UNL     1      -8.540  -5.525  -9.673  1.00  0.00    -0.352 N 
ATOM     45  C   UNL     1      -9.676  -5.658 -10.433  1.00  0.00     0.251 C 
ATOM     46  H   UNL     1      -8.663  -5.163  -8.766  1.00  0.00     0.163 HD
ATOM     47  O   UNL     1     -10.755  -5.255 -10.017  1.00  0.00    -0.269 OA
BRANCH  45  48
ATOM     48  C   UNL     1      -9.562  -6.253 -11.781  1.00  0.00     0.039 A 
ATOM     49  C   UNL     1     -10.114  -5.566 -12.863  1.00  0.00     0.014 A 
ATOM     50  C   UNL     1      -8.866  -7.450 -11.981  1.00  0.00     0.014 A 
ATOM     51  C   UNL     1      -9.929  -6.060 -14.154  1.00  0.00     0.010 A 
ATOM     52  C   UNL     1      -8.608  -7.891 -13.273  1.00  0.00     0.010 A 
ATOM     53  C   UNL     1      -9.150  -7.209 -14.372  1.00  0.00    -0.014 A 
BRANCH  53  54
ATOM     54  C   UNL     1      -8.918  -7.723 -15.744  1.00  0.00     0.031 A 
ATOM     55  C   UNL     1      -9.438  -9.083 -16.129  1.00  0.00     0.074 A 
ATOM     56  C   UNL     1      -8.205  -6.987 -16.620  1.00  0.00     0.049 A 
ATOM     57  N   UNL     1      -9.312  -9.723 -17.262  1.00  0.00    -0.248 NA
ATOM     58  C   UNL     1     -10.175  -9.835 -15.098  1.00  0.00     0.031 C 
ATOM     59  C   UNL     1      -7.609  -5.678 -16.339  1.00  0.00     0.029 A 
ATOM     60  N   UNL     1      -7.857  -7.232 -17.925  1.00  0.00    -0.354 N 
ATOM     61  C   UNL     1      -9.931 -10.953 -17.073  1.00  0.00     0.074 A 
ATOM     62  C   UNL     1     -10.391 -10.993 -15.705  1.00  0.00     0.031 C 
ATOM     63  C   UNL     1      -6.999  -5.223 -17.446  1.00  0.00     0.029 A 
ATOM     64  C   UNL     1      -7.122  -6.222 -18.502  1.00  0.00     0.049 A 
ATOM     65  H   UNL     1      -8.110  -8.055 -18.403  1.00  0.00     0.167 HD
ATOM     66  C   UNL     1     -10.118 -11.948 -17.971  1.00  0.00     0.037 A 
ATOM     67  C   UNL     1      -6.604  -6.120 -19.741  1.00  0.00     0.037 A 
ATOM     68  C   UNL     1      -9.696 -11.876 -19.344  1.00  0.00     0.049 A 
ATOM     69  C   UNL     1      -6.835  -7.243 -20.719  1.00  0.00     0.074 A 
ATOM     70  C   UNL     1      -9.913 -12.793 -20.357  1.00  0.00     0.029 A 
ATOM     71  N   UNL     1      -8.970 -10.831 -19.896  1.00  0.00    -0.354 N 
ATOM     72  N   UNL     1      -7.501  -8.361 -20.548  1.00  0.00    -0.248 NA
ATOM     73  C   UNL     1      -6.251  -7.091 -22.058  1.00  0.00     0.031 C 
ATOM     74  C   UNL     1      -9.267 -12.330 -21.507  1.00  0.00     0.029 A 
ATOM     75  C   UNL     1      -8.703 -11.096 -21.228  1.00  0.00     0.049 A 
ATOM     76  H   UNL     1      -8.687 -10.021 -19.413  1.00  0.00     0.167 HD
ATOM     77  C   UNL     1      -7.447  -9.025 -21.769  1.00  0.00     0.074 A 
ATOM     78  C   UNL     1      -6.695  -8.178 -22.671  1.00  0.00     0.031 C 
ATOM     79  C   UNL     1      -7.970 -10.227 -22.115  1.00  0.00     0.037 A 
BRANCH  66  80
ATOM     80  C   UNL     1     -10.811 -13.201 -17.510  1.00  0.00     0.058 A 
ATOM     81  C   UNL     1     -12.184 -13.224 -17.216  1.00  0.00     0.135 A 
ATOM     82  C   UNL     1     -10.107 -14.414 -17.442  1.00  0.00     0.135 A 
ATOM     83  F   UNL     1     -12.902 -12.090 -17.246  1.00  0.00    -0.206 F 
ATOM     84  C   UNL     1     -12.832 -14.404 -16.864  1.00  0.00     0.059 A 
ATOM     85  C   UNL     1     -10.740 -15.611 -17.120  1.00  0.00     0.059 A 
ATOM     86  F   UNL     1      -8.791 -14.447 -17.705  1.00  0.00    -0.206 F 
ATOM     87  C   UNL     1     -12.103 -15.594 -16.829  1.00  0.00     0.060 A 
BRANCH  87  88
ATOM     88  S   UNL     1     -12.972 -17.124 -16.424  1.00  0.00     0.124 S 
ATOM     89  O   UNL     1     -13.248 -16.935 -15.003  1.00  0.00    -0.237 OA
ATOM     90  O   UNL     1     -14.132 -17.064 -17.308  1.00  0.00    -0.237 OA
ATOM     91  O   UNL     1     -11.998 -18.164 -16.741  1.00  0.00    -0.744 OA
ENDBRANCH  87  88
ENDBRANCH  66  80
BRANCH  67  92
ATOM     92  C   UNL     1      -5.826  -4.915 -20.142  1.00  0.00     0.058 A 
ATOM     93  C   UNL     1      -6.307  -4.037 -21.127  1.00  0.00     0.135 A 
ATOM     94  C   UNL     1      -4.572  -4.634 -19.578  1.00  0.00     0.135 A 
ATOM     95  F   UNL     1      -7.500  -4.261 -21.699  1.00  0.00    -0.206 F 
ATOM     96  C   UNL     1      -5.557  -2.953 -21.570  1.00  0.00     0.059 A 
ATOM     97  C   UNL     1      -3.816  -3.537 -19.981  1.00  0.00     0.059 A 
ATOM     98  F   UNL     1      -4.072  -5.427 -18.617  1.00  0.00    -0.206 F 
ATOM     99  C   UNL     1      -4.308  -2.715 -20.994  1.00  0.00     0.060 A 
BRANCH  99 100
ATOM    100  S   UNL     1      -3.338  -1.308 -21.578  1.00  0.00     0.124 S 
ATOM    101  O   UNL     1      -2.902  -1.777 -22.888  1.00  0.00    -0.237 OA
ATOM    102  O   UNL     1      -4.325  -0.233 -21.578  1.00  0.00    -0.237 OA
ATOM    103  O   UNL     1      -2.288  -1.184 -20.570  1.00  0.00    -0.744 OA
ENDBRANCH  99 100
ENDBRANCH  67  92
BRANCH  79 104
ATOM    104  C   UNL     1      -7.796 -10.677 -23.539  1.00  0.00     0.058 A 
ATOM    105  C   UNL     1      -6.551 -11.089 -24.039  1.00  0.00     0.135 A 
ATOM    106  C   UNL     1      -8.906 -10.751 -24.397  1.00  0.00     0.135 A 
ATOM    107  F   UNL     1      -5.458 -11.033 -23.261  1.00  0.00    -0.206 F 
ATOM    108  C   UNL     1      -6.407 -11.532 -25.349  1.00  0.00     0.059 A 
ATOM    109  C   UNL     1      -8.791 -11.223 -25.700  1.00  0.00     0.059 A 
ATOM    110  F   UNL     1     -10.122 -10.381 -23.964  1.00  0.00    -0.206 F 
ATOM    111  C   UNL     1      -7.534 -11.599 -26.171  1.00  0.00     0.060 A 
BRANCH 111 112
ATOM    112  S   UNL     1      -7.338 -12.210 -27.857  1.00  0.00     0.124 S 
ATOM    113  O   UNL     1      -6.655 -11.091 -28.497  1.00  0.00    -0.237 OA
ATOM    114  O   UNL     1      -6.537 -13.414 -27.661  1.00  0.00    -0.237 OA
ATOM    115  O   UNL     1      -8.711 -12.442 -28.297  1.00  0.00    -0.744 OA
ENDBRANCH 111 112
ENDBRANCH  79 104
ENDBRANCH  53  54
ENDBRANCH  45  48
ENDBRANCH  43  44
ENDBRANCH  42  43
ENDBRANCH   1  42
TORSDOF 18
