REMARK SMILES O=C(CCCCCC(F)(F)c1ccccc1)NCCCCCCNC(=O)c1ccc(-c2c3nc(c(-c4c(F)cc(S(=O)(=O)[O-])cc4F)c4ccc([nH]4)c(-c4c(F)cc(S(=O)(=O)[O-])cc4F)c4nc(c(-c5c(F)cc(S(=O)(=O)[O-])cc5F)c5ccc2[nH]5)C=C4)C=C3)cc1
REMARK SMILES IDX 19 1 18 2 17 3 1 4 2 5 3 7 4 8 5 9 6 10 7 11 8 12 9 13 10 14
REMARK SMILES IDX 11 15 12 16 16 17 13 18 15 19 14 20 20 21 21 22 22 23 23 24
REMARK SMILES IDX 24 25 25 26 26 28 27 29 28 30 92 31 29 32 91 33 30 34 31 35
REMARK SMILES IDX 32 36 85 37 33 38 90 39 84 40 86 41 34 42 89 43 83 44 82 45
REMARK SMILES IDX 35 47 69 48 48 49 68 50 49 51 52 52 67 53 87 54 50 55 51 56
REMARK SMILES IDX 66 58 88 59 53 60 36 61 37 62 46 63 38 64 39 65 45 66 47 67
REMARK SMILES IDX 40 68 41 69 42 70 43 71 44 72 70 73 71 74 80 75 72 76 73 77
REMARK SMILES IDX 79 78 81 79 74 80 75 81 76 82 77 83 78 84 54 85 55 86 64 87
REMARK SMILES IDX 56 88 57 89 63 90 65 91 58 92 59 93 60 94 61 95 62 96
REMARK H PARENT 17 6 24 27 86 46 52 57
REMARK Flexibility Score: inf
ROOT
ATOM      1  C   UNL     1       2.563   3.654   0.394  1.00  0.00     0.021 C 
ENDROOT
BRANCH   1   2
ATOM      2  C   UNL     1       1.912   2.442  -0.266  1.00  0.00     0.116 C 
BRANCH   2   3
ATOM      3  N   UNL     1       2.380   1.212   0.335  1.00  0.00    -0.356 N 
ATOM      4  O   UNL     1       0.698  -0.145  -0.455  1.00  0.00    -0.275 OA
ATOM      5  C   UNL     1       1.780  -0.003   0.102  1.00  0.00     0.219 C 
ATOM      6  H   UNL     1       3.159   1.246   0.935  1.00  0.00     0.163 HD
BRANCH   5   7
ATOM      7  C   UNL     1       2.649  -1.175   0.515  1.00  0.00     0.100 C 
BRANCH   7   8
ATOM      8  C   UNL     1       3.579  -1.576  -0.631  1.00  0.00     0.010 C 
BRANCH   8   9
ATOM      9  C   UNL     1       4.662  -0.546  -0.976  1.00  0.00     0.001 C 
BRANCH   9  10
ATOM     10  C   UNL     1       5.863  -0.477  -0.028  1.00  0.00     0.007 C 
BRANCH  10  11
ATOM     11  C   UNL     1       6.751  -1.727   0.078  1.00  0.00     0.082 C 
BRANCH  11  12
ATOM     12  C   UNL     1       7.688  -2.017  -1.111  1.00  0.00     0.273 C 
ATOM     13  F   UNL     1       8.480  -0.920  -1.300  1.00  0.00    -0.201 F 
ATOM     14  F   UNL     1       8.548  -3.001  -0.696  1.00  0.00    -0.201 F 
BRANCH  12  15
ATOM     15  C   UNL     1       6.955  -2.439  -2.365  1.00  0.00     0.021 A 
ATOM     16  C   UNL     1       6.765  -1.537  -3.424  1.00  0.00     0.010 A 
ATOM     17  C   UNL     1       6.370  -3.713  -2.446  1.00  0.00     0.010 A 
ATOM     18  C   UNL     1       5.904  -1.855  -4.475  1.00  0.00     0.001 A 
ATOM     19  C   UNL     1       5.534  -4.039  -3.514  1.00  0.00     0.001 A 
ATOM     20  C   UNL     1       5.277  -3.099  -4.511  1.00  0.00     0.000 A 
ENDBRANCH  12  15
ENDBRANCH  11  12
ENDBRANCH  10  11
ENDBRANCH   9  10
ENDBRANCH   8   9
ENDBRANCH   7   8
ENDBRANCH   5   7
ENDBRANCH   2   3
ENDBRANCH   1   2
BRANCH   1  21
ATOM     21  C   UNL     1       4.080   3.768   0.169  1.00  0.00     0.002 C 
BRANCH  21  22
ATOM     22  C   UNL     1       4.517   4.096  -1.262  1.00  0.00     0.002 C 
BRANCH  22  23
ATOM     23  C   UNL     1       3.914   5.370  -1.857  1.00  0.00     0.021 C 
BRANCH  23  24
ATOM     24  C   UNL     1       4.085   6.629  -1.011  1.00  0.00     0.116 C 
BRANCH  24  25
ATOM     25  N   UNL     1       5.477   7.025  -0.867  1.00  0.00    -0.352 N 
ATOM     26  C   UNL     1       6.049   8.264  -1.051  1.00  0.00     0.251 C 
ATOM     27  H   UNL     1       6.096   6.308  -0.601  1.00  0.00     0.163 HD
ATOM     28  O   UNL     1       7.267   8.386  -1.032  1.00  0.00    -0.269 OA
BRANCH  26  29
ATOM     29  C   UNL     1       5.186   9.441  -1.304  1.00  0.00     0.039 A 
ATOM     30  C   UNL     1       5.522  10.313  -2.342  1.00  0.00     0.014 A 
ATOM     31  C   UNL     1       4.042   9.675  -0.535  1.00  0.00     0.014 A 
ATOM     32  C   UNL     1       4.673  11.378  -2.655  1.00  0.00     0.010 A 
ATOM     33  C   UNL     1       3.159  10.690  -0.897  1.00  0.00     0.010 A 
ATOM     34  C   UNL     1       3.462  11.551  -1.963  1.00  0.00    -0.014 A 
BRANCH  34  35
ATOM     35  C   UNL     1       2.494  12.607  -2.360  1.00  0.00     0.031 A 
ATOM     36  C   UNL     1       2.134  13.713  -1.405  1.00  0.00     0.074 A 
ATOM     37  C   UNL     1       1.884  12.531  -3.559  1.00  0.00     0.049 A 
ATOM     38  N   UNL     1       1.274  14.688  -1.556  1.00  0.00    -0.248 NA
ATOM     39  C   UNL     1       2.809  13.706  -0.099  1.00  0.00     0.031 C 
ATOM     40  C   UNL     1       2.102  11.476  -4.551  1.00  0.00     0.029 A 
ATOM     41  N   UNL     1       0.947  13.346  -4.144  1.00  0.00    -0.354 N 
ATOM     42  C   UNL     1       1.299  15.405  -0.366  1.00  0.00     0.074 A 
ATOM     43  C   UNL     1       2.213  14.714   0.519  1.00  0.00     0.031 C 
ATOM     44  C   UNL     1       1.337  11.717  -5.626  1.00  0.00     0.029 A 
ATOM     45  C   UNL     1       0.542  12.918  -5.387  1.00  0.00     0.049 A 
ATOM     46  H   UNL     1       0.597  14.160  -3.715  1.00  0.00     0.167 HD
ATOM     47  C   UNL     1       0.641  16.546  -0.047  1.00  0.00     0.037 A 
ATOM     48  C   UNL     1      -0.374  13.425  -6.236  1.00  0.00     0.037 A 
ATOM     49  C   UNL     1      -0.267  17.227  -0.935  1.00  0.00     0.049 A 
ATOM     50  C   UNL     1      -1.104  14.685  -5.861  1.00  0.00     0.074 A 
ATOM     51  C   UNL     1      -0.942  18.417  -0.729  1.00  0.00     0.029 A 
ATOM     52  N   UNL     1      -0.640  16.771  -2.192  1.00  0.00    -0.354 N 
ATOM     53  N   UNL     1      -1.010  15.394  -4.761  1.00  0.00    -0.248 NA
ATOM     54  C   UNL     1      -2.058  15.218  -6.842  1.00  0.00     0.031 C 
ATOM     55  C   UNL     1      -1.765  18.652  -1.836  1.00  0.00     0.029 A 
ATOM     56  C   UNL     1      -1.559  17.640  -2.761  1.00  0.00     0.049 A 
ATOM     57  H   UNL     1      -0.302  15.951  -2.618  1.00  0.00     0.167 HD
ATOM     58  C   UNL     1      -1.880  16.467  -4.924  1.00  0.00     0.074 A 
ATOM     59  C   UNL     1      -2.477  16.322  -6.237  1.00  0.00     0.031 C 
ATOM     60  C   UNL     1      -2.157  17.480  -4.065  1.00  0.00     0.037 A 
BRANCH  47  61
ATOM     61  C   UNL     1       0.876  17.119   1.327  1.00  0.00     0.058 A 
ATOM     62  C   UNL     1       2.121  17.649   1.704  1.00  0.00     0.135 A 
ATOM     63  C   UNL     1      -0.155  17.137   2.281  1.00  0.00     0.135 A 
ATOM     64  F   UNL     1       3.147  17.650   0.838  1.00  0.00    -0.206 F 
ATOM     65  C   UNL     1       2.351  18.127   2.990  1.00  0.00     0.059 A 
ATOM     66  C   UNL     1       0.043  17.642   3.564  1.00  0.00     0.059 A 
ATOM     67  F   UNL     1      -1.368  16.650   1.977  1.00  0.00    -0.206 F 
ATOM     68  C   UNL     1       1.308  18.112   3.916  1.00  0.00     0.060 A 
BRANCH  68  69
ATOM     69  S   UNL     1       1.633  18.701   5.591  1.00  0.00     0.124 S 
ATOM     70  O   UNL     1       2.449  17.615   6.126  1.00  0.00    -0.237 OA
ATOM     71  O   UNL     1       2.333  19.958   5.350  1.00  0.00    -0.237 OA
ATOM     72  O   UNL     1       0.300  18.829   6.172  1.00  0.00    -0.744 OA
ENDBRANCH  68  69
ENDBRANCH  47  61
BRANCH  48  73
ATOM     73  C   UNL     1      -0.629  12.738  -7.530  1.00  0.00     0.058 A 
ATOM     74  C   UNL     1      -0.196  13.293  -8.743  1.00  0.00     0.135 A 
ATOM     75  C   UNL     1      -1.260  11.484  -7.572  1.00  0.00     0.135 A 
ATOM     76  F   UNL     1       0.403  14.493  -8.756  1.00  0.00    -0.206 F 
ATOM     77  C   UNL     1      -0.375  12.628  -9.952  1.00  0.00     0.059 A 
ATOM     78  C   UNL     1      -1.427  10.789  -8.765  1.00  0.00     0.059 A 
ATOM     79  F   UNL     1      -1.679  10.904  -6.437  1.00  0.00    -0.206 F 
ATOM     80  C   UNL     1      -0.982  11.371  -9.952  1.00  0.00     0.060 A 
BRANCH  80  81
ATOM     81  S   UNL     1      -1.126  10.479 -11.516  1.00  0.00     0.124 S 
ATOM     82  O   UNL     1      -2.156  11.249 -12.201  1.00  0.00    -0.237 OA
ATOM     83  O   UNL     1       0.225  10.594 -12.057  1.00  0.00    -0.237 OA
ATOM     84  O   UNL     1      -1.513   9.133 -11.101  1.00  0.00    -0.744 OA
ENDBRANCH  80  81
ENDBRANCH  48  73
BRANCH  60  85
ATOM     85  C   UNL     1      -3.140  18.526  -4.520  1.00  0.00     0.058 A 
ATOM     86  C   UNL     1      -4.513  18.251  -4.631  1.00  0.00     0.135 A 
ATOM     87  C   UNL     1      -2.710  19.834  -4.800  1.00  0.00     0.135 A 
ATOM     88  F   UNL     1      -4.977  17.017  -4.383  1.00  0.00    -0.206 F 
ATOM     89  C   UNL     1      -5.420  19.230  -5.026  1.00  0.00     0.059 A 
ATOM     90  C   UNL     1      -3.604  20.835  -5.166  1.00  0.00     0.059 A 
ATOM     91  F   UNL     1      -1.411  20.154  -4.701  1.00  0.00    -0.206 F 
ATOM     92  C   UNL     1      -4.957  20.520  -5.288  1.00  0.00     0.060 A 
BRANCH  92  93
ATOM     93  S   UNL     1      -6.151  21.787  -5.766  1.00  0.00     0.124 S 
ATOM     94  O   UNL     1      -6.490  21.375  -7.124  1.00  0.00    -0.237 OA
ATOM     95  O   UNL     1      -7.203  21.616  -4.769  1.00  0.00    -0.237 OA
ATOM     96  O   UNL     1      -5.391  23.029  -5.658  1.00  0.00    -0.744 OA
ENDBRANCH  92  93
ENDBRANCH  60  85
ENDBRANCH  34  35
ENDBRANCH  26  29
ENDBRANCH  24  25
ENDBRANCH  23  24
ENDBRANCH  22  23
ENDBRANCH  21  22
ENDBRANCH   1  21
TORSDOF 22
