REMARK SMILES NC(=O)C[C@@H](NC(=O)c1ccc(CO)cc1)C(=O)NCCCCCCNC(=O)c1ccc(-c2c3nc(c(-c4c(F)cc(S(=O)(=O)[O-])cc4F)c4ccc([nH]4)c(-c4c(F)cc(S(=O)(=O)[O-])cc4F)c4nc(c(-c5c(F)cc(S(=O)(=O)[O-])cc5F)c5ccc2[nH]5)C=C4)C=C3)cc1
REMARK SMILES IDX 22 1 21 2 20 3 19 4 17 5 18 6 5 8 4 9 2 10 1 11 3 14 6 15
REMARK SMILES IDX 7 16 8 18 9 19 10 20 16 21 11 22 15 23 12 24 13 25 14 26
REMARK SMILES IDX 23 28 24 29 25 30 26 31 27 32 28 34 29 35 30 36 94 37 31 38
REMARK SMILES IDX 93 39 32 40 33 41 34 42 87 43 35 44 92 45 86 46 88 47 36 48
REMARK SMILES IDX 91 49 85 50 84 51 37 53 71 54 50 55 70 56 51 57 54 58 69 59
REMARK SMILES IDX 89 60 52 61 53 62 68 64 90 65 55 66 38 67 39 68 48 69 40 70
REMARK SMILES IDX 41 71 47 72 49 73 42 74 43 75 44 76 45 77 46 78 72 79 73 80
REMARK SMILES IDX 82 81 74 82 75 83 81 84 83 85 76 86 77 87 78 88 79 89 80 90
REMARK SMILES IDX 56 91 57 92 66 93 58 94 59 95 65 96 67 97 60 98 61 99 62 100
REMARK SMILES IDX 63 101 64 102
REMARK H PARENT 19 7 1 12 1 13 6 17 14 27 26 33 88 52 54 63
REMARK Flexibility Score: inf
ROOT
ATOM      1  C   UNL     1       4.140  -4.157  -4.631  1.00  0.00     0.002 C 
ENDROOT
BRANCH   1   2
ATOM      2  C   UNL     1       3.180  -3.714  -3.520  1.00  0.00     0.021 C 
BRANCH   2   3
ATOM      3  C   UNL     1       3.308  -2.238  -3.168  1.00  0.00     0.116 C 
BRANCH   3   4
ATOM      4  N   UNL     1       2.779  -1.423  -4.245  1.00  0.00    -0.354 N 
ATOM      5  C   UNL     1       2.098  -0.247  -4.203  1.00  0.00     0.243 C 
ATOM      6  O   UNL     1       1.615   0.176  -5.258  1.00  0.00    -0.273 OA
ATOM      7  H   UNL     1       2.938  -1.777  -5.149  1.00  0.00     0.163 HD
BRANCH   5   8
ATOM      8  C   UNL     1       1.814   0.465  -2.873  1.00  0.00     0.180 C 
BRANCH   8   9
ATOM      9  C   UNL     1       0.635  -0.313  -2.259  1.00  0.00     0.134 C 
BRANCH   9  10
ATOM     10  C   UNL     1       0.084   0.305  -1.006  1.00  0.00     0.220 C 
ATOM     11  N   UNL     1       0.772   0.012   0.135  1.00  0.00    -0.370 N 
ATOM     12  H   UNL     1       0.473   0.379   0.998  1.00  0.00     0.159 HD
ATOM     13  H   UNL     1       1.566  -0.568   0.096  1.00  0.00     0.159 HD
ATOM     14  O   UNL     1      -0.914   1.013  -0.988  1.00  0.00    -0.275 OA
ENDBRANCH   9  10
ENDBRANCH   8   9
BRANCH   8  15
ATOM     15  N   UNL     1       2.961   0.615  -1.952  1.00  0.00    -0.340 N 
ATOM     16  C   UNL     1       4.235   1.102  -2.166  1.00  0.00     0.251 C 
ATOM     17  H   UNL     1       2.786   0.318  -1.029  1.00  0.00     0.164 HD
ATOM     18  O   UNL     1       4.888   1.507  -1.208  1.00  0.00    -0.269 OA
BRANCH  16  19
ATOM     19  C   UNL     1       4.899   0.964  -3.480  1.00  0.00     0.039 A 
ATOM     20  C   UNL     1       6.010   0.113  -3.548  1.00  0.00     0.014 A 
ATOM     21  C   UNL     1       4.410   1.560  -4.639  1.00  0.00     0.014 A 
ATOM     22  C   UNL     1       6.516  -0.276  -4.789  1.00  0.00     0.007 A 
ATOM     23  C   UNL     1       4.908   1.154  -5.884  1.00  0.00     0.007 A 
ATOM     24  C   UNL     1       5.921   0.188  -5.969  1.00  0.00    -0.023 A 
BRANCH  24  25
ATOM     25  C   UNL     1       6.322  -0.403  -7.297  1.00  0.00     0.191 C 
BRANCH  25  26
ATOM     26  O   UNL     1       7.670  -0.101  -7.619  1.00  0.00    -0.392 OA
ATOM     27  H   UNL     1       7.780   0.861  -7.682  1.00  0.00     0.211 HD
ENDBRANCH  25  26
ENDBRANCH  24  25
ENDBRANCH  16  19
ENDBRANCH   8  15
ENDBRANCH   5   8
ENDBRANCH   3   4
ENDBRANCH   2   3
ENDBRANCH   1   2
BRANCH   1  28
ATOM     28  C   UNL     1       5.625  -3.986  -4.298  1.00  0.00     0.002 C 
BRANCH  28  29
ATOM     29  C   UNL     1       6.077  -4.652  -2.998  1.00  0.00     0.021 C 
BRANCH  29  30
ATOM     30  C   UNL     1       5.739  -6.133  -2.909  1.00  0.00     0.116 C 
BRANCH  30  31
ATOM     31  N   UNL     1       6.345  -6.897  -3.988  1.00  0.00    -0.352 N 
ATOM     32  C   UNL     1       7.030  -8.082  -3.916  1.00  0.00     0.251 C 
ATOM     33  H   UNL     1       6.251  -6.511  -4.889  1.00  0.00     0.163 HD
ATOM     34  O   UNL     1       7.636  -8.508  -4.895  1.00  0.00    -0.269 OA
BRANCH  32  35
ATOM     35  C   UNL     1       7.047  -8.823  -2.640  1.00  0.00     0.039 A 
ATOM     36  C   UNL     1       8.265  -9.297  -2.149  1.00  0.00     0.014 A 
ATOM     37  C   UNL     1       5.865  -9.020  -1.919  1.00  0.00     0.014 A 
ATOM     38  C   UNL     1       8.304  -9.925  -0.904  1.00  0.00     0.010 A 
ATOM     39  C   UNL     1       5.919  -9.574  -0.646  1.00  0.00     0.010 A 
ATOM     40  C   UNL     1       7.137 -10.041  -0.130  1.00  0.00    -0.014 A 
BRANCH  40  41
ATOM     41  C   UNL     1       7.171 -10.654   1.221  1.00  0.00     0.031 A 
ATOM     42  C   UNL     1       6.396 -11.915   1.493  1.00  0.00     0.074 A 
ATOM     43  C   UNL     1       7.842 -10.039   2.215  1.00  0.00     0.049 A 
ATOM     44  N   UNL     1       6.248 -12.565   2.618  1.00  0.00    -0.248 NA
ATOM     45  C   UNL     1       5.668 -12.508   0.359  1.00  0.00     0.031 C 
ATOM     46  C   UNL     1       8.578  -8.778   2.085  1.00  0.00     0.029 A 
ATOM     47  N   UNL     1       8.004 -10.381   3.534  1.00  0.00    -0.354 N 
ATOM     48  C   UNL     1       5.397 -13.626   2.333  1.00  0.00     0.074 A 
ATOM     49  C   UNL     1       5.020 -13.506   0.942  1.00  0.00     0.031 C 
ATOM     50  C   UNL     1       9.126  -8.464   3.270  1.00  0.00     0.029 A 
ATOM     51  C   UNL     1       8.752  -9.478   4.252  1.00  0.00     0.049 A 
ATOM     52  H   UNL     1       7.620 -11.197   3.929  1.00  0.00     0.167 HD
ATOM     53  C   UNL     1       4.986 -14.623   3.152  1.00  0.00     0.037 A 
ATOM     54  C   UNL     1       9.089  -9.463   5.556  1.00  0.00     0.037 A 
ATOM     55  C   UNL     1       5.398 -14.755   4.524  1.00  0.00     0.049 A 
ATOM     56  C   UNL     1       8.641 -10.595   6.439  1.00  0.00     0.074 A 
ATOM     57  C   UNL     1       5.104 -15.772   5.415  1.00  0.00     0.029 A 
ATOM     58  N   UNL     1       6.190 -13.842   5.206  1.00  0.00    -0.354 N 
ATOM     59  N   UNL     1       7.903 -11.636   6.132  1.00  0.00    -0.248 NA
ATOM     60  C   UNL     1       9.076 -10.560   7.841  1.00  0.00     0.031 C 
ATOM     61  C   UNL     1       5.676 -15.449   6.649  1.00  0.00     0.029 A 
ATOM     62  C   UNL     1       6.373 -14.260   6.513  1.00  0.00     0.049 A 
ATOM     63  H   UNL     1       6.565 -13.019   4.817  1.00  0.00     0.167 HD
ATOM     64  C   UNL     1       7.809 -12.393   7.295  1.00  0.00     0.074 A 
ATOM     65  C   UNL     1       8.576 -11.697   8.307  1.00  0.00     0.031 C 
ATOM     66  C   UNL     1       7.149 -13.558   7.506  1.00  0.00     0.037 A 
BRANCH  53  67
ATOM     67  C   UNL     1       4.046 -15.654   2.589  1.00  0.00     0.058 A 
ATOM     68  C   UNL     1       4.466 -16.598   1.638  1.00  0.00     0.135 A 
ATOM     69  C   UNL     1       2.720 -15.732   3.047  1.00  0.00     0.135 A 
ATOM     70  F   UNL     1       5.717 -16.558   1.153  1.00  0.00    -0.206 F 
ATOM     71  C   UNL     1       3.600 -17.568   1.145  1.00  0.00     0.059 A 
ATOM     72  C   UNL     1       1.845 -16.713   2.589  1.00  0.00     0.059 A 
ATOM     73  F   UNL     1       2.265 -14.853   3.953  1.00  0.00    -0.206 F 
ATOM     74  C   UNL     1       2.292 -17.620   1.629  1.00  0.00     0.060 A 
BRANCH  74  75
ATOM     75  S   UNL     1       1.189 -18.900   0.996  1.00  0.00     0.124 S 
ATOM     76  O   UNL     1       0.927 -18.415  -0.356  1.00  0.00    -0.237 OA
ATOM     77  O   UNL     1       2.016 -20.099   1.089  1.00  0.00    -0.237 OA
ATOM     78  O   UNL     1       0.052 -18.854   1.910  1.00  0.00    -0.744 OA
ENDBRANCH  74  75
ENDBRANCH  53  67
BRANCH  54  79
ATOM     79  C   UNL     1       9.905  -8.344   6.101  1.00  0.00     0.058 A 
ATOM     80  C   UNL     1      11.232  -8.545   6.508  1.00  0.00     0.135 A 
ATOM     81  C   UNL     1       9.375  -7.050   6.220  1.00  0.00     0.135 A 
ATOM     82  F   UNL     1      11.784  -9.765   6.417  1.00  0.00    -0.206 F 
ATOM     83  C   UNL     1      11.998  -7.510   7.034  1.00  0.00     0.059 A 
ATOM     84  C   UNL     1      10.129  -5.992   6.717  1.00  0.00     0.059 A 
ATOM     85  F   UNL     1       8.116  -6.799   5.826  1.00  0.00    -0.206 F 
ATOM     86  C   UNL     1      11.437  -6.236   7.135  1.00  0.00     0.060 A 
BRANCH  86  87
ATOM     87  S   UNL     1      12.451  -4.890   7.785  1.00  0.00     0.124 S 
ATOM     88  O   UNL     1      12.496  -5.217   9.205  1.00  0.00    -0.237 OA
ATOM     89  O   UNL     1      13.699  -5.064   7.048  1.00  0.00    -0.237 OA
ATOM     90  O   UNL     1      11.687  -3.696   7.435  1.00  0.00    -0.744 OA
ENDBRANCH  86  87
ENDBRANCH  54  79
BRANCH  66  91
ATOM     91  C   UNL     1       7.255 -14.178   8.871  1.00  0.00     0.058 A 
ATOM     92  C   UNL     1       6.594 -13.634   9.983  1.00  0.00     0.135 A 
ATOM     93  C   UNL     1       7.980 -15.367   9.055  1.00  0.00     0.135 A 
ATOM     94  F   UNL     1       5.892 -12.496   9.863  1.00  0.00    -0.206 F 
ATOM     95  C   UNL     1       6.668 -14.234  11.236  1.00  0.00     0.059 A 
ATOM     96  C   UNL     1       8.043 -16.000  10.292  1.00  0.00     0.059 A 
ATOM     97  F   UNL     1       8.621 -15.935   8.021  1.00  0.00    -0.206 F 
ATOM     98  C   UNL     1       7.393 -15.418  11.380  1.00  0.00     0.060 A 
BRANCH  98  99
ATOM     99  S   UNL     1       7.451 -16.206  13.003  1.00  0.00     0.124 S 
ATOM    100  O   UNL     1       8.355 -15.319  13.727  1.00  0.00    -0.237 OA
ATOM    101  O   UNL     1       6.053 -16.165  13.420  1.00  0.00    -0.237 OA
ATOM    102  O   UNL     1       7.974 -17.538  12.716  1.00  0.00    -0.744 OA
ENDBRANCH  98  99
ENDBRANCH  66  91
ENDBRANCH  40  41
ENDBRANCH  32  35
ENDBRANCH  30  31
ENDBRANCH  29  30
ENDBRANCH  28  29
ENDBRANCH   1  28
TORSDOF 22
