REMARK SMILES [NH3+][C@]1(C(=O)NCCCCCCNC(=O)c2ccc(-c3c4nc(c(-c5c(F)cc(S(=O)(=O)[O-])cc5F)c5ccc([nH]5)c(-c5c(F)cc(S(=O)(=O)[O-])cc5F)c5nc(c(-c6c(F)cc(S(=O)(=O)[O-])cc6F)c6ccc3[nH]6)C=C5)C=C4)cc2)CC[C@@H](Sc2cc3ccccc3[nH]2)C1
REMARK SMILES IDX 9 1 8 2 7 3 6 4 5 5 3 6 4 7 2 9 81 10 94 11 82 12 83 13 1 14
REMARK SMILES IDX 84 18 85 19 86 20 93 21 87 22 92 23 88 25 91 26 89 27 90 28
REMARK SMILES IDX 10 29 11 30 12 31 13 32 14 34 15 35 16 36 80 37 17 38 79 39
REMARK SMILES IDX 18 40 19 41 20 42 73 43 21 44 78 45 72 46 74 47 22 48 77 49
REMARK SMILES IDX 71 50 70 51 23 53 57 54 36 55 56 56 37 57 40 58 55 59 75 60
REMARK SMILES IDX 38 61 39 62 54 64 76 65 41 66 24 67 25 68 34 69 26 70 27 71
REMARK SMILES IDX 33 72 35 73 28 74 29 75 30 76 31 77 32 78 58 79 59 80 68 81
REMARK SMILES IDX 60 82 61 83 67 84 69 85 62 86 63 87 64 88 65 89 66 90 42 91
REMARK SMILES IDX 43 92 52 93 44 94 45 95 51 96 53 97 46 98 47 99 48 100
REMARK SMILES IDX 49 101 50 102
REMARK H PARENT 5 8 1 15 1 16 1 17 93 24 12 33 74 52 40 63
REMARK Flexibility Score: inf
ROOT
ATOM      1  C   UNL     1       6.090  -0.178   1.090  1.00  0.00     0.002 C 
ENDROOT
BRANCH   1   2
ATOM      2  C   UNL     1       5.194   1.058   0.966  1.00  0.00     0.002 C 
BRANCH   2   3
ATOM      3  C   UNL     1       4.467   1.210  -0.372  1.00  0.00     0.021 C 
BRANCH   3   4
ATOM      4  C   UNL     1       3.677  -0.015  -0.815  1.00  0.00     0.116 C 
BRANCH   4   5
ATOM      5  N   UNL     1       2.566  -0.294   0.066  1.00  0.00    -0.351 N 
ATOM      6  C   UNL     1       1.247  -0.532  -0.149  1.00  0.00     0.281 C 
ATOM      7  O   UNL     1       0.592  -0.815   0.862  1.00  0.00    -0.268 OA
ATOM      8  H   UNL     1       2.817  -0.316   1.017  1.00  0.00     0.163 HD
BRANCH   6   9
ATOM      9  C   UNL     1       0.551  -0.346  -1.518  1.00  0.00     0.175 C 
ATOM     10  C   UNL     1      -0.746  -1.171  -1.589  1.00  0.00     0.080 C 
ATOM     11  C   UNL     1       0.038   1.092  -1.640  1.00  0.00     0.094 C 
ATOM     12  C   UNL     1      -1.558  -0.481  -2.675  1.00  0.00     0.022 C 
ATOM     13  C   UNL     1      -1.228   1.001  -2.503  1.00  0.00     0.060 C 
BRANCH   9  14
ATOM     14  N   UNL     1       1.346  -0.717  -2.703  1.00  0.00    -0.345 N 
ATOM     15  H   UNL     1       0.795  -0.556  -3.546  1.00  0.00     0.345 HD
ATOM     16  H   UNL     1       1.601  -1.703  -2.647  1.00  0.00     0.345 HD
ATOM     17  H   UNL     1       2.192  -0.149  -2.736  1.00  0.00     0.345 HD
ENDBRANCH   9  14
BRANCH  13  18
ATOM     18  S   UNL     1      -2.484   2.081  -1.799  1.00  0.00    -0.105 SA
BRANCH  18  19
ATOM     19  C   UNL     1      -3.512   1.111  -0.785  1.00  0.00     0.073 A 
ATOM     20  C   UNL     1      -3.853   1.317   0.538  1.00  0.00     0.043 A 
ATOM     21  N   UNL     1      -4.619   0.555  -1.378  1.00  0.00    -0.350 N 
ATOM     22  C   UNL     1      -5.259   1.599   0.469  1.00  0.00     0.001 A 
ATOM     23  C   UNL     1      -5.703   1.167  -0.782  1.00  0.00     0.046 A 
ATOM     24  H   UNL     1      -4.636  -0.135  -2.080  1.00  0.00     0.167 HD
ATOM     25  C   UNL     1      -6.137   2.347   1.273  1.00  0.00     0.010 A 
ATOM     26  C   UNL     1      -6.958   1.473  -1.308  1.00  0.00     0.027 A 
ATOM     27  C   UNL     1      -7.366   2.743   0.727  1.00  0.00     0.001 A 
ATOM     28  C   UNL     1      -7.760   2.323  -0.546  1.00  0.00     0.002 A 
ENDBRANCH  18  19
ENDBRANCH  13  18
ENDBRANCH   6   9
ENDBRANCH   4   5
ENDBRANCH   3   4
ENDBRANCH   2   3
ENDBRANCH   1   2
BRANCH   1  29
ATOM     29  C   UNL     1       7.087  -0.385  -0.053  1.00  0.00     0.021 C 
BRANCH  29  30
ATOM     30  C   UNL     1       8.018   0.793  -0.310  1.00  0.00     0.116 C 
BRANCH  30  31
ATOM     31  N   UNL     1       8.864   1.075   0.835  1.00  0.00    -0.352 N 
ATOM     32  C   UNL     1      10.233   1.154   0.900  1.00  0.00     0.251 C 
ATOM     33  H   UNL     1       8.390   1.230   1.684  1.00  0.00     0.163 HD
ATOM     34  O   UNL     1      10.794   1.187   1.989  1.00  0.00    -0.269 OA
BRANCH  32  35
ATOM     35  C   UNL     1      11.024   1.181  -0.350  1.00  0.00     0.039 A 
ATOM     36  C   UNL     1      12.169   0.388  -0.442  1.00  0.00     0.014 A 
ATOM     37  C   UNL     1      10.639   1.989  -1.425  1.00  0.00     0.014 A 
ATOM     38  C   UNL     1      12.900   0.367  -1.631  1.00  0.00     0.010 A 
ATOM     39  C   UNL     1      11.324   1.907  -2.633  1.00  0.00     0.010 A 
ATOM     40  C   UNL     1      12.467   1.102  -2.747  1.00  0.00    -0.014 A 
BRANCH  40  41
ATOM     41  C   UNL     1      13.199   1.041  -4.039  1.00  0.00     0.031 A 
ATOM     42  C   UNL     1      13.844   2.280  -4.601  1.00  0.00     0.074 A 
ATOM     43  C   UNL     1      13.230  -0.114  -4.732  1.00  0.00     0.049 A 
ATOM     44  N   UNL     1      14.474   2.439  -5.735  1.00  0.00    -0.248 NA
ATOM     45  C   UNL     1      13.745   3.508  -3.794  1.00  0.00     0.031 C 
ATOM     46  C   UNL     1      12.600  -1.370  -4.313  1.00  0.00     0.029 A 
ATOM     47  N   UNL     1      13.805  -0.422  -5.940  1.00  0.00    -0.354 N 
ATOM     48  C   UNL     1      14.829   3.783  -5.788  1.00  0.00     0.074 A 
ATOM     49  C   UNL     1      14.303   4.406  -4.594  1.00  0.00     0.031 C 
ATOM     50  C   UNL     1      12.844  -2.314  -5.236  1.00  0.00     0.029 A 
ATOM     51  C   UNL     1      13.608  -1.726  -6.331  1.00  0.00     0.049 A 
ATOM     52  H   UNL     1      14.311   0.231  -6.476  1.00  0.00     0.167 HD
ATOM     53  C   UNL     1      15.544   4.432  -6.738  1.00  0.00     0.037 A 
ATOM     54  C   UNL     1      13.990  -2.371  -7.450  1.00  0.00     0.037 A 
ATOM     55  C   UNL     1      16.092   3.795  -7.907  1.00  0.00     0.049 A 
ATOM     56  C   UNL     1      14.784  -1.625  -8.490  1.00  0.00     0.074 A 
ATOM     57  C   UNL     1      16.898   4.348  -8.887  1.00  0.00     0.029 A 
ATOM     58  N   UNL     1      15.887   2.469  -8.259  1.00  0.00    -0.354 N 
ATOM     59  N   UNL     1      15.181  -0.374  -8.483  1.00  0.00    -0.248 NA
ATOM     60  C   UNL     1      15.188  -2.377  -9.686  1.00  0.00     0.031 C 
ATOM     61  C   UNL     1      17.132   3.373  -9.861  1.00  0.00     0.029 A 
ATOM     62  C   UNL     1      16.524   2.195  -9.458  1.00  0.00     0.049 A 
ATOM     63  H   UNL     1      15.365   1.819  -7.735  1.00  0.00     0.167 HD
ATOM     64  C   UNL     1      15.909  -0.200  -9.656  1.00  0.00     0.074 A 
ATOM     65  C   UNL     1      15.906  -1.476 -10.341  1.00  0.00     0.031 C 
ATOM     66  C   UNL     1      16.524   0.915 -10.123  1.00  0.00     0.037 A 
BRANCH  53  67
ATOM     67  C   UNL     1      15.779   5.908  -6.560  1.00  0.00     0.058 A 
ATOM     68  C   UNL     1      16.632   6.409  -5.564  1.00  0.00     0.135 A 
ATOM     69  C   UNL     1      15.187   6.831  -7.439  1.00  0.00     0.135 A 
ATOM     70  F   UNL     1      17.212   5.575  -4.687  1.00  0.00    -0.206 F 
ATOM     71  C   UNL     1      16.873   7.773  -5.431  1.00  0.00     0.059 A 
ATOM     72  C   UNL     1      15.438   8.196  -7.343  1.00  0.00     0.059 A 
ATOM     73  F   UNL     1      14.361   6.407  -8.408  1.00  0.00    -0.206 F 
ATOM     74  C   UNL     1      16.274   8.659  -6.329  1.00  0.00     0.060 A 
BRANCH  74  75
ATOM     75  S   UNL     1      16.617  10.423  -6.157  1.00  0.00     0.124 S 
ATOM     76  O   UNL     1      15.877  10.746  -4.941  1.00  0.00    -0.237 OA
ATOM     77  O   UNL     1      18.071  10.447  -6.038  1.00  0.00    -0.237 OA
ATOM     78  O   UNL     1      16.081  10.996  -7.388  1.00  0.00    -0.744 OA
ENDBRANCH  74  75
ENDBRANCH  53  67
BRANCH  54  79
ATOM     79  C   UNL     1      13.640  -3.805  -7.646  1.00  0.00     0.058 A 
ATOM     80  C   UNL     1      14.632  -4.798  -7.643  1.00  0.00     0.135 A 
ATOM     81  C   UNL     1      12.313  -4.210  -7.853  1.00  0.00     0.135 A 
ATOM     82  F   UNL     1      15.917  -4.462  -7.454  1.00  0.00    -0.206 F 
ATOM     83  C   UNL     1      14.325  -6.136  -7.866  1.00  0.00     0.059 A 
ATOM     84  C   UNL     1      11.977  -5.546  -8.048  1.00  0.00     0.059 A 
ATOM     85  F   UNL     1      11.323  -3.304  -7.847  1.00  0.00    -0.206 F 
ATOM     86  C   UNL     1      12.993  -6.500  -8.069  1.00  0.00     0.060 A 
BRANCH  86  87
ATOM     87  S   UNL     1      12.602  -8.243  -8.335  1.00  0.00     0.124 S 
ATOM     88  O   UNL     1      13.109  -8.455  -9.685  1.00  0.00    -0.237 OA
ATOM     89  O   UNL     1      13.349  -8.892  -7.262  1.00  0.00    -0.237 OA
ATOM     90  O   UNL     1      11.150  -8.286  -8.191  1.00  0.00    -0.744 OA
ENDBRANCH  86  87
ENDBRANCH  54  79
BRANCH  66  91
ATOM     91  C   UNL     1      17.285   0.799 -11.415  1.00  0.00     0.058 A 
ATOM     92  C   UNL     1      16.632   0.657 -12.649  1.00  0.00     0.135 A 
ATOM     93  C   UNL     1      18.687   0.885 -11.421  1.00  0.00     0.135 A 
ATOM     94  F   UNL     1      15.294   0.563 -12.700  1.00  0.00    -0.206 F 
ATOM     95  C   UNL     1      17.344   0.580 -13.842  1.00  0.00     0.059 A 
ATOM     96  C   UNL     1      19.417   0.842 -12.604  1.00  0.00     0.059 A 
ATOM     97  F   UNL     1      19.361   1.032 -10.269  1.00  0.00    -0.206 F 
ATOM     98  C   UNL     1      18.736   0.676 -13.810  1.00  0.00     0.060 A 
BRANCH  98  99
ATOM     99  S   UNL     1      19.645   0.610 -15.368  1.00  0.00     0.124 S 
ATOM    100  O   UNL     1      19.524  -0.801 -15.719  1.00  0.00    -0.237 OA
ATOM    101  O   UNL     1      18.893   1.538 -16.207  1.00  0.00    -0.237 OA
ATOM    102  O   UNL     1      20.986   1.053 -15.000  1.00  0.00    -0.744 OA
ENDBRANCH  98  99
ENDBRANCH  66  91
ENDBRANCH  40  41
ENDBRANCH  32  35
ENDBRANCH  30  31
ENDBRANCH  29  30
ENDBRANCH   1  29
TORSDOF 19
