REMARK SMILES C[C@H](Sc1ccnc(C(=O)NCCCCCCNC(=O)c2ccc(-c3c4nc(c(-c5c(F)cc(S(=O)(=O)[O-])cc5F)c5ccc([nH]5)c(-c5c(F)cc(S(=O)(=O)[O-])cc5F)c5nc(c(-c6c(F)cc(S(=O)(=O)[O-])cc6F)c6ccc3[nH]6)C=C5)C=C4)cc2)c1)[C@@H](C)O
REMARK SMILES IDX 14 1 13 2 12 3 11 4 9 5 10 6 8 8 4 9 5 10 87 11 6 12 7 13
REMARK SMILES IDX 3 14 2 15 1 16 88 17 89 18 90 19 15 21 16 22 17 23 18 24
REMARK SMILES IDX 19 25 20 27 21 28 22 29 86 30 23 31 85 32 24 33 25 34 26 35
REMARK SMILES IDX 79 36 27 37 84 38 78 39 80 40 28 41 83 42 77 43 76 44 29 46
REMARK SMILES IDX 63 47 42 48 62 49 43 50 46 51 61 52 81 53 44 54 45 55 60 57
REMARK SMILES IDX 82 58 47 59 30 60 31 61 40 62 32 63 33 64 39 65 41 66 34 67
REMARK SMILES IDX 35 68 36 69 37 70 38 71 64 72 65 73 74 74 66 75 67 76 73 77
REMARK SMILES IDX 75 78 68 79 69 80 70 81 71 82 72 83 48 84 49 85 58 86 50 87
REMARK SMILES IDX 51 88 57 89 59 90 52 91 53 92 54 93 55 94 56 95
REMARK H PARENT 11 7 90 20 18 26 80 45 46 56
REMARK Flexibility Score: inf
ROOT
ATOM      1  C   UNL     1       1.062  -5.280   4.913  1.00  0.00     0.002 C 
ENDROOT
BRANCH   1   2
ATOM      2  C   UNL     1       0.586  -4.198   3.946  1.00  0.00     0.021 C 
BRANCH   2   3
ATOM      3  C   UNL     1       1.298  -4.142   2.600  1.00  0.00     0.116 C 
BRANCH   3   4
ATOM      4  N   UNL     1       1.034  -5.292   1.754  1.00  0.00    -0.351 N 
ATOM      5  C   UNL     1       0.631  -5.402   0.437  1.00  0.00     0.269 C 
ATOM      6  O   UNL     1       0.445  -6.541   0.004  1.00  0.00    -0.268 OA
ATOM      7  H   UNL     1       1.167  -6.157   2.204  1.00  0.00     0.163 HD
BRANCH   5   8
ATOM      8  C   UNL     1       0.387  -4.211  -0.451  1.00  0.00     0.129 A 
ATOM      9  C   UNL     1       0.649  -1.887  -1.031  1.00  0.00     0.011 A 
ATOM     10  C   UNL     1      -0.285  -2.077  -2.040  1.00  0.00     0.035 A 
ATOM     11  C   UNL     1       1.057  -3.007  -0.300  1.00  0.00     0.049 A 
ATOM     12  C   UNL     1      -0.836  -3.338  -2.204  1.00  0.00     0.113 A 
ATOM     13  N   UNL     1      -0.550  -4.391  -1.415  1.00  0.00    -0.251 NA
BRANCH   9  14
ATOM     14  S   UNL     1       1.376  -0.344  -0.495  1.00  0.00    -0.120 SA
BRANCH  14  15
ATOM     15  C   UNL     1       0.514   1.038  -1.363  1.00  0.00     0.077 C 
ATOM     16  C   UNL     1       1.018   1.118  -2.805  1.00  0.00     0.022 C 
BRANCH  15  17
ATOM     17  C   UNL     1      -1.023   1.129  -1.197  1.00  0.00     0.124 C 
ATOM     18  C   UNL     1      -1.476   1.384   0.239  1.00  0.00     0.039 C 
BRANCH  17  19
ATOM     19  O   UNL     1      -1.545   2.187  -2.012  1.00  0.00    -0.392 OA
ATOM     20  H   UNL     1      -1.183   3.035  -1.712  1.00  0.00     0.210 HD
ENDBRANCH  17  19
ENDBRANCH  15  17
ENDBRANCH  14  15
ENDBRANCH   9  14
ENDBRANCH   5   8
ENDBRANCH   3   4
ENDBRANCH   2   3
ENDBRANCH   1   2
BRANCH   1  21
ATOM     21  C   UNL     1       2.561  -5.290   5.225  1.00  0.00     0.002 C 
BRANCH  21  22
ATOM     22  C   UNL     1       3.163  -3.954   5.668  1.00  0.00     0.021 C 
BRANCH  22  23
ATOM     23  C   UNL     1       2.492  -3.300   6.871  1.00  0.00     0.116 C 
BRANCH  23  24
ATOM     24  N   UNL     1       2.562  -4.132   8.060  1.00  0.00    -0.352 N 
ATOM     25  C   UNL     1       3.063  -3.836   9.305  1.00  0.00     0.251 C 
ATOM     26  H   UNL     1       2.197  -5.041   7.959  1.00  0.00     0.163 HD
ATOM     27  O   UNL     1       3.218  -4.731  10.128  1.00  0.00    -0.269 OA
BRANCH  25  28
ATOM     28  C   UNL     1       3.429  -2.443   9.643  1.00  0.00     0.039 A 
ATOM     29  C   UNL     1       4.625  -2.205  10.325  1.00  0.00     0.014 A 
ATOM     30  C   UNL     1       2.590  -1.377   9.306  1.00  0.00     0.014 A 
ATOM     31  C   UNL     1       5.006  -0.894  10.619  1.00  0.00     0.010 A 
ATOM     32  C   UNL     1       3.007  -0.067   9.533  1.00  0.00     0.010 A 
ATOM     33  C   UNL     1       4.215   0.189  10.198  1.00  0.00    -0.014 A 
BRANCH  33  34
ATOM     34  C   UNL     1       4.637   1.592  10.444  1.00  0.00     0.031 A 
ATOM     35  C   UNL     1       3.808   2.490  11.322  1.00  0.00     0.074 A 
ATOM     36  C   UNL     1       5.735   2.074   9.827  1.00  0.00     0.049 A 
ATOM     37  N   UNL     1       3.983   3.754  11.610  1.00  0.00    -0.248 NA
ATOM     38  C   UNL     1       2.609   1.897  11.934  1.00  0.00     0.031 C 
ATOM     39  C   UNL     1       6.595   1.314   8.918  1.00  0.00     0.029 A 
ATOM     40  N   UNL     1       6.311   3.319   9.865  1.00  0.00    -0.354 N 
ATOM     41  C   UNL     1       2.913   4.110  12.423  1.00  0.00     0.074 A 
ATOM     42  C   UNL     1       2.065   2.944  12.536  1.00  0.00     0.031 C 
ATOM     43  C   UNL     1       7.603   2.099   8.506  1.00  0.00     0.029 A 
ATOM     44  C   UNL     1       7.440   3.429   9.086  1.00  0.00     0.049 A 
ATOM     45  H   UNL     1       5.951   4.063  10.399  1.00  0.00     0.167 HD
ATOM     46  C   UNL     1       2.672   5.294  13.037  1.00  0.00     0.037 A 
ATOM     47  C   UNL     1       8.248   4.482   8.859  1.00  0.00     0.037 A 
ATOM     48  C   UNL     1       3.534   6.444  12.932  1.00  0.00     0.049 A 
ATOM     49  C   UNL     1       7.955   5.790   9.543  1.00  0.00     0.074 A 
ATOM     50  C   UNL     1       3.413   7.669  13.563  1.00  0.00     0.029 A 
ATOM     51  N   UNL     1       4.671   6.514  12.140  1.00  0.00    -0.354 N 
ATOM     52  N   UNL     1       6.976   6.090  10.364  1.00  0.00    -0.248 NA
ATOM     53  C   UNL     1       8.877   6.902   9.275  1.00  0.00     0.031 C 
ATOM     54  C   UNL     1       4.444   8.498  13.110  1.00  0.00     0.029 A 
ATOM     55  C   UNL     1       5.245   7.771  12.244  1.00  0.00     0.049 A 
ATOM     56  H   UNL     1       5.020   5.778  11.587  1.00  0.00     0.167 HD
ATOM     57  C   UNL     1       7.182   7.415  10.733  1.00  0.00     0.074 A 
ATOM     58  C   UNL     1       8.384   7.854  10.054  1.00  0.00     0.031 C 
ATOM     59  C   UNL     1       6.444   8.195  11.562  1.00  0.00     0.037 A 
BRANCH  46  60
ATOM     60  C   UNL     1       1.421   5.407  13.868  1.00  0.00     0.058 A 
ATOM     61  C   UNL     1       1.265   4.701  15.073  1.00  0.00     0.135 A 
ATOM     62  C   UNL     1       0.372   6.250  13.467  1.00  0.00     0.135 A 
ATOM     63  F   UNL     1       2.230   3.870  15.500  1.00  0.00    -0.206 F 
ATOM     64  C   UNL     1       0.100   4.795  15.827  1.00  0.00     0.059 A 
ATOM     65  C   UNL     1      -0.789   6.385  14.223  1.00  0.00     0.059 A 
ATOM     66  F   UNL     1       0.466   6.951  12.326  1.00  0.00    -0.206 F 
ATOM     67  C   UNL     1      -0.923   5.638  15.392  1.00  0.00     0.060 A 
BRANCH  67  68
ATOM     68  S   UNL     1      -2.433   5.740  16.376  1.00  0.00     0.124 S 
ATOM     69  O   UNL     1      -3.046   4.443  16.103  1.00  0.00    -0.237 OA
ATOM     70  O   UNL     1      -1.913   5.922  17.727  1.00  0.00    -0.237 OA
ATOM     71  O   UNL     1      -3.130   6.893  15.814  1.00  0.00    -0.744 OA
ENDBRANCH  67  68
ENDBRANCH  46  60
BRANCH  47  72
ATOM     72  C   UNL     1       9.427   4.331   7.965  1.00  0.00     0.058 A 
ATOM     73  C   UNL     1      10.731   4.346   8.483  1.00  0.00     0.135 A 
ATOM     74  C   UNL     1       9.276   4.141   6.582  1.00  0.00     0.135 A 
ATOM     75  F   UNL     1      10.928   4.532   9.797  1.00  0.00    -0.206 F 
ATOM     76  C   UNL     1      11.843   4.188   7.663  1.00  0.00     0.059 A 
ATOM     77  C   UNL     1      10.372   3.954   5.745  1.00  0.00     0.059 A 
ATOM     78  F   UNL     1       8.049   4.103   6.039  1.00  0.00    -0.206 F 
ATOM     79  C   UNL     1      11.653   3.987   6.295  1.00  0.00     0.060 A 
BRANCH  79  80
ATOM     80  S   UNL     1      13.101   3.722   5.249  1.00  0.00     0.124 S 
ATOM     81  O   UNL     1      13.694   5.054   5.225  1.00  0.00    -0.237 OA
ATOM     82  O   UNL     1      13.837   2.708   5.998  1.00  0.00    -0.237 OA
ATOM     83  O   UNL     1      12.526   3.264   3.988  1.00  0.00    -0.744 OA
ENDBRANCH  79  80
ENDBRANCH  47  72
BRANCH  59  84
ATOM     84  C   UNL     1       6.931   9.597  11.811  1.00  0.00     0.058 A 
ATOM     85  C   UNL     1       6.855  10.594  10.826  1.00  0.00     0.135 A 
ATOM     86  C   UNL     1       7.431   9.960  13.073  1.00  0.00     0.135 A 
ATOM     87  F   UNL     1       6.392  10.299   9.600  1.00  0.00    -0.206 F 
ATOM     88  C   UNL     1       7.280  11.895  11.074  1.00  0.00     0.059 A 
ATOM     89  C   UNL     1       7.832  11.262  13.353  1.00  0.00     0.059 A 
ATOM     90  F   UNL     1       7.515   9.049  14.055  1.00  0.00    -0.206 F 
ATOM     91  C   UNL     1       7.764  12.220  12.343  1.00  0.00     0.060 A 
BRANCH  91  92
ATOM     92  S   UNL     1       8.278  13.921  12.662  1.00  0.00     0.124 S 
ATOM     93  O   UNL     1       9.528  13.996  11.912  1.00  0.00    -0.237 OA
ATOM     94  O   UNL     1       7.165  14.691  12.116  1.00  0.00    -0.237 OA
ATOM     95  O   UNL     1       8.414  13.969  14.114  1.00  0.00    -0.744 OA
ENDBRANCH  91  92
ENDBRANCH  59  84
ENDBRANCH  33  34
ENDBRANCH  25  28
ENDBRANCH  23  24
ENDBRANCH  22  23
ENDBRANCH  21  22
ENDBRANCH   1  21
TORSDOF 20
