REMARK SMILES Cn1cc(C(=O)NCCCCCCNC(=O)c2ccc(-c3c4nc(c(-c5c(F)cc(S(=O)(=O)[O-])cc5F)c5ccc([nH]5)c(-c5c(F)cc(S(=O)(=O)[O-])cc5F)c5nc(c(-c6c(F)cc(S(=O)(=O)[O-])cc6F)c6ccc3[nH]6)C=C5)C=C4)cc2)c(C(=O)Nc2ccc(-n3cncn3)cc2)n1
REMARK SMILES IDX 10 1 9 2 8 3 7 4 5 5 6 6 4 8 1 9 2 10 3 11 98 12 83 13 84 14
REMARK SMILES IDX 85 15 86 16 87 18 88 19 97 20 89 21 96 22 90 23 91 24 92 25
REMARK SMILES IDX 95 26 93 27 94 28 11 29 12 30 13 31 14 32 15 33 16 35 17 36
REMARK SMILES IDX 18 37 82 38 19 39 81 40 20 41 21 42 22 43 75 44 23 45 80 46
REMARK SMILES IDX 74 47 76 48 24 49 79 50 73 51 72 52 25 54 59 55 38 56 58 57
REMARK SMILES IDX 39 58 42 59 57 60 77 61 40 62 41 63 56 65 78 66 43 67 26 68
REMARK SMILES IDX 27 69 36 70 28 71 29 72 35 73 37 74 30 75 31 76 32 77 33 78
REMARK SMILES IDX 34 79 60 80 61 81 70 82 62 83 63 84 69 85 71 86 64 87 65 88
REMARK SMILES IDX 66 89 67 90 68 91 44 92 45 93 54 94 46 95 47 96 53 97 55 98
REMARK SMILES IDX 48 99 49 100 50 101 51 102 52 103
REMARK H PARENT 7 7 86 17 14 34 76 53 42 64
REMARK Flexibility Score: inf
ROOT
ATOM      1  C   UNL     1       2.041  -5.168  -0.167  1.00  0.00     0.002 C 
ENDROOT
BRANCH   1   2
ATOM      2  C   UNL     1       0.805  -4.273  -0.018  1.00  0.00     0.021 C 
BRANCH   2   3
ATOM      3  C   UNL     1       0.527  -3.775   1.399  1.00  0.00     0.116 C 
BRANCH   3   4
ATOM      4  N   UNL     1       1.481  -2.803   1.895  1.00  0.00    -0.352 N 
ATOM      5  C   UNL     1       1.660  -1.464   1.653  1.00  0.00     0.255 C 
ATOM      6  O   UNL     1       2.509  -0.888   2.334  1.00  0.00    -0.269 OA
ATOM      7  H   UNL     1       2.130  -3.179   2.533  1.00  0.00     0.163 HD
BRANCH   5   8
ATOM      8  C   UNL     1       0.915  -0.756   0.622  1.00  0.00     0.090 A 
ATOM      9  C   UNL     1      -1.854   0.225  -1.483  1.00  0.00     0.173 C 
ATOM     10  N   UNL     1      -0.619   0.007  -0.769  1.00  0.00    -0.274 N 
ATOM     11  C   UNL     1      -0.351  -0.993   0.117  1.00  0.00     0.123 A 
ATOM     12  N   UNL     1       0.388   0.873  -0.919  1.00  0.00    -0.167 NA
ATOM     13  C   UNL     1       1.325   0.456  -0.043  1.00  0.00     0.163 A 
BRANCH  13  14
ATOM     14  C   UNL     1       2.535   1.266   0.178  1.00  0.00     0.276 C 
ATOM     15  O   UNL     1       2.468   2.471   0.438  1.00  0.00    -0.267 OA
ATOM     16  N   UNL     1       3.788   0.692   0.174  1.00  0.00    -0.321 N 
ATOM     17  H   UNL     1       4.482   1.250   0.593  1.00  0.00     0.170 HD
BRANCH  16  18
ATOM     18  C   UNL     1       4.265  -0.533  -0.309  1.00  0.00     0.041 A 
ATOM     19  C   UNL     1       5.471  -0.993   0.228  1.00  0.00     0.028 A 
ATOM     20  C   UNL     1       3.631  -1.285  -1.298  1.00  0.00     0.028 A 
ATOM     21  C   UNL     1       5.999  -2.227  -0.158  1.00  0.00     0.030 A 
ATOM     22  C   UNL     1       4.163  -2.516  -1.704  1.00  0.00     0.030 A 
ATOM     23  C   UNL     1       5.338  -3.004  -1.116  1.00  0.00     0.067 A 
BRANCH  23  24
ATOM     24  N   UNL     1       5.859  -4.279  -1.452  1.00  0.00    -0.221 N 
ATOM     25  C   UNL     1       5.376  -5.206  -2.344  1.00  0.00     0.225 A 
ATOM     26  N   UNL     1       6.971  -4.780  -0.854  1.00  0.00    -0.155 NA
ATOM     27  N   UNL     1       6.118  -6.289  -2.332  1.00  0.00    -0.223 NA
ATOM     28  C   UNL     1       7.070  -5.988  -1.409  1.00  0.00     0.246 A 
ENDBRANCH  23  24
ENDBRANCH  16  18
ENDBRANCH  13  14
ENDBRANCH   5   8
ENDBRANCH   3   4
ENDBRANCH   2   3
ENDBRANCH   1   2
BRANCH   1  29
ATOM     29  C   UNL     1       2.072  -6.452   0.668  1.00  0.00     0.002 C 
BRANCH  29  30
ATOM     30  C   UNL     1       0.813  -7.325   0.631  1.00  0.00     0.021 C 
BRANCH  30  31
ATOM     31  C   UNL     1       0.383  -7.813  -0.752  1.00  0.00     0.116 C 
BRANCH  31  32
ATOM     32  N   UNL     1       1.298  -8.796  -1.306  1.00  0.00    -0.352 N 
ATOM     33  C   UNL     1       1.083 -10.115  -1.628  1.00  0.00     0.251 C 
ATOM     34  H   UNL     1       2.211  -8.468  -1.476  1.00  0.00     0.163 HD
ATOM     35  O   UNL     1       2.035 -10.830  -1.931  1.00  0.00    -0.269 OA
BRANCH  33  36
ATOM     36  C   UNL     1      -0.280 -10.694  -1.590  1.00  0.00     0.039 A 
ATOM     37  C   UNL     1      -0.469 -11.918  -0.938  1.00  0.00     0.014 A 
ATOM     38  C   UNL     1      -1.359 -10.068  -2.223  1.00  0.00     0.014 A 
ATOM     39  C   UNL     1      -1.748 -12.476  -0.855  1.00  0.00     0.010 A 
ATOM     40  C   UNL     1      -2.641 -10.611  -2.115  1.00  0.00     0.010 A 
ATOM     41  C   UNL     1      -2.849 -11.811  -1.418  1.00  0.00    -0.014 A 
BRANCH  41  42
ATOM     42  C   UNL     1      -4.226 -12.340  -1.262  1.00  0.00     0.031 A 
ATOM     43  C   UNL     1      -4.958 -12.923  -2.434  1.00  0.00     0.074 A 
ATOM     44  C   UNL     1      -4.849 -12.238  -0.072  1.00  0.00     0.049 A 
ATOM     45  N   UNL     1      -6.220 -13.255  -2.532  1.00  0.00    -0.248 NA
ATOM     46  C   UNL     1      -4.174 -13.145  -3.657  1.00  0.00     0.031 C 
ATOM     47  C   UNL     1      -4.264 -11.675   1.145  1.00  0.00     0.029 A 
ATOM     48  N   UNL     1      -6.120 -12.596   0.300  1.00  0.00    -0.354 N 
ATOM     49  C   UNL     1      -6.400 -13.664  -3.846  1.00  0.00     0.074 A 
ATOM     50  C   UNL     1      -5.106 -13.582  -4.494  1.00  0.00     0.031 C 
ATOM     51  C   UNL     1      -5.172 -11.736   2.134  1.00  0.00     0.029 A 
ATOM     52  C   UNL     1      -6.406 -12.318   1.613  1.00  0.00     0.049 A 
ATOM     53  H   UNL     1      -6.765 -13.012  -0.316  1.00  0.00     0.167 HD
ATOM     54  C   UNL     1      -7.544 -14.047  -4.463  1.00  0.00     0.037 A 
ATOM     55  C   UNL     1      -7.538 -12.499   2.318  1.00  0.00     0.037 A 
ATOM     56  C   UNL     1      -8.824 -14.171  -3.817  1.00  0.00     0.049 A 
ATOM     57  C   UNL     1      -8.752 -13.072   1.652  1.00  0.00     0.074 A 
ATOM     58  C   UNL     1     -10.051 -14.488  -4.375  1.00  0.00     0.029 A 
ATOM     59  N   UNL     1      -9.034 -14.015  -2.456  1.00  0.00    -0.354 N 
ATOM     60  N   UNL     1      -8.926 -13.378   0.390  1.00  0.00    -0.248 NA
ATOM     61  C   UNL     1      -9.922 -13.323   2.504  1.00  0.00     0.031 C 
ATOM     62  C   UNL     1     -11.000 -14.547  -3.344  1.00  0.00     0.029 A 
ATOM     63  C   UNL     1     -10.361 -14.263  -2.148  1.00  0.00     0.049 A 
ATOM     64  H   UNL     1      -8.341 -13.764  -1.804  1.00  0.00     0.167 HD
ATOM     65  C   UNL     1     -10.232 -13.837   0.289  1.00  0.00     0.074 A 
ATOM     66  C   UNL     1     -10.797 -13.794   1.624  1.00  0.00     0.031 C 
ATOM     67  C   UNL     1     -10.907 -14.237  -0.816  1.00  0.00     0.037 A 
BRANCH  54  68
ATOM     68  C   UNL     1      -7.449 -14.314  -5.932  1.00  0.00     0.058 A 
ATOM     69  C   UNL     1      -7.114 -15.583  -6.425  1.00  0.00     0.135 A 
ATOM     70  C   UNL     1      -7.653 -13.276  -6.854  1.00  0.00     0.135 A 
ATOM     71  F   UNL     1      -6.891 -16.599  -5.578  1.00  0.00    -0.206 F 
ATOM     72  C   UNL     1      -6.958 -15.810  -7.789  1.00  0.00     0.059 A 
ATOM     73  C   UNL     1      -7.505 -13.481  -8.220  1.00  0.00     0.059 A 
ATOM     74  F   UNL     1      -7.962 -12.042  -6.425  1.00  0.00    -0.206 F 
ATOM     75  C   UNL     1      -7.139 -14.748  -8.677  1.00  0.00     0.060 A 
BRANCH  75  76
ATOM     76  S   UNL     1      -6.887 -14.994 -10.448  1.00  0.00     0.124 S 
ATOM     77  O   UNL     1      -5.535 -14.472 -10.621  1.00  0.00    -0.237 OA
ATOM     78  O   UNL     1      -7.030 -16.438 -10.609  1.00  0.00    -0.237 OA
ATOM     79  O   UNL     1      -7.955 -14.194 -11.037  1.00  0.00    -0.744 OA
ENDBRANCH  75  76
ENDBRANCH  54  68
BRANCH  55  80
ATOM     80  C   UNL     1      -7.564 -12.118   3.748  1.00  0.00     0.058 A 
ATOM     81  C   UNL     1      -7.220 -13.046   4.740  1.00  0.00     0.135 A 
ATOM     82  C   UNL     1      -7.864 -10.807   4.138  1.00  0.00     0.135 A 
ATOM     83  F   UNL     1      -6.925 -14.311   4.403  1.00  0.00    -0.206 F 
ATOM     84  C   UNL     1      -7.158 -12.683   6.080  1.00  0.00     0.059 A 
ATOM     85  C   UNL     1      -7.806 -10.419   5.471  1.00  0.00     0.059 A 
ATOM     86  F   UNL     1      -8.187  -9.888   3.215  1.00  0.00    -0.206 F 
ATOM     87  C   UNL     1      -7.449 -11.364   6.435  1.00  0.00     0.060 A 
BRANCH  87  88
ATOM     88  S   UNL     1      -7.273 -10.838   8.155  1.00  0.00     0.124 S 
ATOM     89  O   UNL     1      -8.649 -10.927   8.629  1.00  0.00    -0.237 OA
ATOM     90  O   UNL     1      -6.345 -11.820   8.705  1.00  0.00    -0.237 OA
ATOM     91  O   UNL     1      -6.731  -9.489   8.016  1.00  0.00    -0.744 OA
ENDBRANCH  87  88
ENDBRANCH  55  80
BRANCH  67  92
ATOM     92  C   UNL     1     -12.331 -14.656  -0.623  1.00  0.00     0.058 A 
ATOM     93  C   UNL     1     -13.374 -13.723  -0.717  1.00  0.00     0.135 A 
ATOM     94  C   UNL     1     -12.659 -15.991  -0.348  1.00  0.00     0.135 A 
ATOM     95  F   UNL     1     -13.105 -12.434  -0.974  1.00  0.00    -0.206 F 
ATOM     96  C   UNL     1     -14.701 -14.099  -0.536  1.00  0.00     0.059 A 
ATOM     97  C   UNL     1     -13.979 -16.389  -0.162  1.00  0.00     0.059 A 
ATOM     98  F   UNL     1     -11.692 -16.916  -0.241  1.00  0.00    -0.206 F 
ATOM     99  C   UNL     1     -14.993 -15.433  -0.248  1.00  0.00     0.060 A 
BRANCH  99 100
ATOM    100  S   UNL     1     -16.712 -15.938  -0.018  1.00  0.00     0.124 S 
ATOM    101  O   UNL     1     -16.874 -15.775   1.422  1.00  0.00    -0.237 OA
ATOM    102  O   UNL     1     -17.447 -14.988  -0.848  1.00  0.00    -0.237 OA
ATOM    103  O   UNL     1     -16.716 -17.314  -0.504  1.00  0.00    -0.744 OA
ENDBRANCH  99 100
ENDBRANCH  67  92
ENDBRANCH  41  42
ENDBRANCH  33  36
ENDBRANCH  31  32
ENDBRANCH  30  31
ENDBRANCH  29  30
ENDBRANCH   1  29
TORSDOF 19
