REMARK SMILES C[C@@H](C(=O)NCCCCCCNC(=O)c1ccc(-c2c3nc(c(-c4c(F)cc(S(=O)(=O)[O-])cc4F)c4ccc([nH]4)c(-c4c(F)cc(S(=O)(=O)[O-])cc4F)c4nc(c(-c5c(F)cc(S(=O)(=O)[O-])cc5F)c5ccc2[nH]5)C=C4)C=C3)cc1)c1ccc(N[C@H]2CCC[C@@H]2O)cc1F
REMARK SMILES IDX 8 1 7 2 6 3 5 4 3 5 4 6 2 8 1 9 81 10 82 11 93 12 83 13
REMARK SMILES IDX 92 14 94 15 84 16 85 17 86 19 87 20 90 21 88 22 89 23 91 24
REMARK SMILES IDX 9 26 10 27 11 28 12 29 13 30 14 32 15 33 16 34 80 35 17 36
REMARK SMILES IDX 79 37 18 38 19 39 20 40 73 41 21 42 78 43 72 44 74 45 22 46
REMARK SMILES IDX 77 47 71 48 70 49 23 51 57 52 36 53 56 54 37 55 40 56 55 57
REMARK SMILES IDX 75 58 38 59 39 60 54 62 76 63 41 64 24 65 25 66 34 67 26 68
REMARK SMILES IDX 27 69 33 70 35 71 28 72 29 73 30 74 31 75 32 76 58 77 59 78
REMARK SMILES IDX 68 79 60 80 61 81 67 82 69 83 62 84 63 85 64 86 65 87 66 88
REMARK SMILES IDX 42 89 43 90 52 91 44 92 45 93 51 94 53 95 46 96 47 97 48 98
REMARK SMILES IDX 49 99 50 100
REMARK H PARENT 5 7 85 18 91 25 12 31 74 50 40 61
REMARK Flexibility Score: inf
ROOT
ATOM      1  C   UNL     1       5.070  -1.720  -2.293  1.00  0.00     0.002 C 
ENDROOT
BRANCH   1   2
ATOM      2  C   UNL     1       4.340  -0.824  -1.284  1.00  0.00     0.021 C 
BRANCH   2   3
ATOM      3  C   UNL     1       3.522   0.297  -1.926  1.00  0.00     0.116 C 
BRANCH   3   4
ATOM      4  N   UNL     1       2.443  -0.249  -2.721  1.00  0.00    -0.356 N 
ATOM      5  C   UNL     1       1.108  -0.325  -2.457  1.00  0.00     0.227 C 
ATOM      6  O   UNL     1       0.412  -0.885  -3.306  1.00  0.00    -0.274 OA
ATOM      7  H   UNL     1       2.717  -0.623  -3.590  1.00  0.00     0.163 HD
BRANCH   5   8
ATOM      8  C   UNL     1       0.542   0.349  -1.195  1.00  0.00     0.108 C 
ATOM      9  C   UNL     1       0.974  -0.309   0.117  1.00  0.00     0.023 C 
BRANCH   8  10
ATOM     10  C   UNL     1      -0.972   0.451  -1.223  1.00  0.00     0.000 A 
ATOM     11  C   UNL     1      -1.593   1.702  -1.204  1.00  0.00     0.009 A 
ATOM     12  C   UNL     1      -1.787  -0.682  -1.229  1.00  0.00     0.129 A 
ATOM     13  C   UNL     1      -2.989   1.799  -1.189  1.00  0.00     0.026 A 
ATOM     14  C   UNL     1      -3.176  -0.578  -1.237  1.00  0.00     0.065 A 
ATOM     15  F   UNL     1      -1.242  -1.907  -1.199  1.00  0.00    -0.207 F 
ATOM     16  C   UNL     1      -3.810   0.669  -1.229  1.00  0.00     0.037 A 
BRANCH  16  17
ATOM     17  N   UNL     1      -5.189   0.702  -1.201  1.00  0.00    -0.380 N 
ATOM     18  H   UNL     1      -5.633  -0.176  -1.222  1.00  0.00     0.160 HD
BRANCH  17  19
ATOM     19  C   UNL     1      -6.079   1.852  -1.144  1.00  0.00     0.107 C 
ATOM     20  C   UNL     1      -5.911   2.708   0.117  1.00  0.00     0.027 C 
ATOM     21  C   UNL     1      -5.979   2.814  -2.346  1.00  0.00     0.136 C 
ATOM     22  C   UNL     1      -5.890   4.159  -0.362  1.00  0.00     0.005 C 
ATOM     23  C   UNL     1      -6.476   4.132  -1.766  1.00  0.00     0.034 C 
BRANCH  21  24
ATOM     24  O   UNL     1      -6.779   2.421  -3.456  1.00  0.00    -0.391 OA
ATOM     25  H   UNL     1      -7.707   2.363  -3.182  1.00  0.00     0.211 HD
ENDBRANCH  21  24
ENDBRANCH  17  19
ENDBRANCH  16  17
ENDBRANCH   8  10
ENDBRANCH   5   8
ENDBRANCH   3   4
ENDBRANCH   2   3
ENDBRANCH   1   2
BRANCH   1  26
ATOM     26  C   UNL     1       5.997  -0.981  -3.262  1.00  0.00     0.002 C 
BRANCH  26  27
ATOM     27  C   UNL     1       7.036  -0.077  -2.596  1.00  0.00     0.021 C 
BRANCH  27  28
ATOM     28  C   UNL     1       7.969  -0.793  -1.627  1.00  0.00     0.116 C 
BRANCH  28  29
ATOM     29  N   UNL     1       8.785  -1.791  -2.297  1.00  0.00    -0.352 N 
ATOM     30  C   UNL     1      10.138  -1.990  -2.223  1.00  0.00     0.251 C 
ATOM     31  H   UNL     1       8.297  -2.411  -2.886  1.00  0.00     0.163 HD
ATOM     32  O   UNL     1      10.687  -2.751  -3.020  1.00  0.00    -0.269 OA
BRANCH  30  33
ATOM     33  C   UNL     1      10.939  -1.284  -1.200  1.00  0.00     0.039 A 
ATOM     34  C   UNL     1      12.183  -0.760  -1.560  1.00  0.00     0.014 A 
ATOM     35  C   UNL     1      10.484  -1.166   0.117  1.00  0.00     0.014 A 
ATOM     36  C   UNL     1      12.958  -0.098  -0.607  1.00  0.00     0.010 A 
ATOM     37  C   UNL     1      11.223  -0.441   1.047  1.00  0.00     0.010 A 
ATOM     38  C   UNL     1      12.479   0.079   0.702  1.00  0.00    -0.014 A 
BRANCH  38  39
ATOM     39  C   UNL     1      13.303   0.763   1.731  1.00  0.00     0.031 A 
ATOM     40  C   UNL     1      13.796  -0.005   2.930  1.00  0.00     0.074 A 
ATOM     41  C   UNL     1      13.576   2.076   1.608  1.00  0.00     0.049 A 
ATOM     42  N   UNL     1      14.504   0.415   3.946  1.00  0.00    -0.248 NA
ATOM     43  C   UNL     1      13.418  -1.426   3.012  1.00  0.00     0.031 C 
ATOM     44  C   UNL     1      13.114   2.938   0.517  1.00  0.00     0.029 A 
ATOM     45  N   UNL     1      14.306   2.918   2.409  1.00  0.00    -0.354 N 
ATOM     46  C   UNL     1      14.637  -0.679   4.795  1.00  0.00     0.074 A 
ATOM     47  C   UNL     1      13.892  -1.767   4.201  1.00  0.00     0.031 C 
ATOM     48  C   UNL     1      13.600   4.177   0.701  1.00  0.00     0.029 A 
ATOM     49  C   UNL     1      14.379   4.206   1.935  1.00  0.00     0.049 A 
ATOM     50  H   UNL     1      14.738   2.626   3.244  1.00  0.00     0.167 HD
ATOM     51  C   UNL     1      15.337  -0.777   5.950  1.00  0.00     0.037 A 
ATOM     52  C   UNL     1      15.009   5.286   2.436  1.00  0.00     0.037 A 
ATOM     53  C   UNL     1      16.110   0.299   6.514  1.00  0.00     0.049 A 
ATOM     54  C   UNL     1      15.802   5.147   3.708  1.00  0.00     0.074 A 
ATOM     55  C   UNL     1      16.912   0.284   7.641  1.00  0.00     0.029 A 
ATOM     56  N   UNL     1      16.180   1.582   5.990  1.00  0.00    -0.354 N 
ATOM     57  N   UNL     1      15.973   4.086   4.461  1.00  0.00    -0.248 NA
ATOM     58  C   UNL     1      16.497   6.347   4.191  1.00  0.00     0.031 C 
ATOM     59  C   UNL     1      17.434   1.569   7.823  1.00  0.00     0.029 A 
ATOM     60  C   UNL     1      16.998   2.372   6.781  1.00  0.00     0.049 A 
ATOM     61  H   UNL     1      15.717   1.886   5.177  1.00  0.00     0.167 HD
ATOM     62  C   UNL     1      16.825   4.482   5.487  1.00  0.00     0.074 A 
ATOM     63  C   UNL     1      17.138   5.878   5.252  1.00  0.00     0.031 C 
ATOM     64  C   UNL     1      17.309   3.756   6.525  1.00  0.00     0.037 A 
BRANCH  51  65
ATOM     65  C   UNL     1      15.299  -2.092   6.680  1.00  0.00     0.058 A 
ATOM     66  C   UNL     1      15.932  -3.239   6.174  1.00  0.00     0.135 A 
ATOM     67  C   UNL     1      14.640  -2.202   7.915  1.00  0.00     0.135 A 
ATOM     68  F   UNL     1      16.564  -3.196   4.990  1.00  0.00    -0.206 F 
ATOM     69  C   UNL     1      15.883  -4.456   6.847  1.00  0.00     0.059 A 
ATOM     70  C   UNL     1      14.604  -3.402   8.621  1.00  0.00     0.059 A 
ATOM     71  F   UNL     1      14.018  -1.138   8.447  1.00  0.00    -0.206 F 
ATOM     72  C   UNL     1      15.214  -4.528   8.069  1.00  0.00     0.060 A 
BRANCH  72  73
ATOM     73  S   UNL     1      15.155  -6.114   8.930  1.00  0.00     0.124 S 
ATOM     74  O   UNL     1      14.188  -6.848   8.120  1.00  0.00    -0.237 OA
ATOM     75  O   UNL     1      16.538  -6.572   8.835  1.00  0.00    -0.237 OA
ATOM     76  O   UNL     1      14.707  -5.756  10.272  1.00  0.00    -0.744 OA
ENDBRANCH  72  73
ENDBRANCH  51  65
BRANCH  52  77
ATOM     77  C   UNL     1      14.955   6.583   1.709  1.00  0.00     0.058 A 
ATOM     78  C   UNL     1      16.090   7.089   1.058  1.00  0.00     0.135 A 
ATOM     79  C   UNL     1      13.772   7.335   1.642  1.00  0.00     0.135 A 
ATOM     80  F   UNL     1      17.245   6.408   1.098  1.00  0.00    -0.206 F 
ATOM     81  C   UNL     1      16.061   8.304   0.382  1.00  0.00     0.059 A 
ATOM     82  C   UNL     1      13.712   8.541   0.950  1.00  0.00     0.059 A 
ATOM     83  F   UNL     1      12.654   6.886   2.232  1.00  0.00    -0.206 F 
ATOM     84  C   UNL     1      14.866   9.023   0.332  1.00  0.00     0.060 A 
BRANCH  84  85
ATOM     85  S   UNL     1      14.828  10.578  -0.586  1.00  0.00     0.124 S 
ATOM     86  O   UNL     1      15.566  11.464   0.306  1.00  0.00    -0.237 OA
ATOM     87  O   UNL     1      15.501  10.216  -1.829  1.00  0.00    -0.237 OA
ATOM     88  O   UNL     1      13.400  10.856  -0.713  1.00  0.00    -0.744 OA
ENDBRANCH  84  85
ENDBRANCH  52  77
BRANCH  64  89
ATOM     89  C   UNL     1      18.267   4.442   7.460  1.00  0.00     0.058 A 
ATOM     90  C   UNL     1      17.841   5.419   8.372  1.00  0.00     0.135 A 
ATOM     91  C   UNL     1      19.625   4.086   7.465  1.00  0.00     0.135 A 
ATOM     92  F   UNL     1      16.554   5.799   8.405  1.00  0.00    -0.206 F 
ATOM     93  C   UNL     1      18.735   6.043   9.237  1.00  0.00     0.059 A 
ATOM     94  C   UNL     1      20.531   4.676   8.341  1.00  0.00     0.059 A 
ATOM     95  F   UNL     1      20.082   3.147   6.621  1.00  0.00    -0.206 F 
ATOM     96  C   UNL     1      20.079   5.665   9.212  1.00  0.00     0.060 A 
BRANCH  96  97
ATOM     97  S   UNL     1      21.227   6.468  10.351  1.00  0.00     0.124 S 
ATOM     98  O   UNL     1      21.401   7.772   9.720  1.00  0.00    -0.237 OA
ATOM     99  O   UNL     1      20.479   6.466  11.604  1.00  0.00    -0.237 OA
ATOM    100  O   UNL     1      22.396   5.596  10.325  1.00  0.00    -0.744 OA
ENDBRANCH  96  97
ENDBRANCH  64  89
ENDBRANCH  38  39
ENDBRANCH  30  33
ENDBRANCH  28  29
ENDBRANCH  27  28
ENDBRANCH  26  27
ENDBRANCH   1  26
TORSDOF 20
