REMARK SMILES CCOc1c(CNC(=O)[C@H]2CCCC[C@@H]2C(=O)NCCCCCCNC(=O)c2ccc(-c3c4nc(c(-c5c(F)cc(S(=O)(=O)[O-])cc5F)c5ccc([nH]5)c(-c5c(F)cc(S(=O)(=O)[O-])cc5F)c5nc(c(-c6c(F)cc(S(=O)(=O)[O-])cc6F)c6ccc3[nH]6)C=C5)C=C4)cc2)cccc1OC
REMARK SMILES IDX 20 1 19 2 18 3 16 4 17 5 15 7 10 8 11 9 12 10 14 11 13 12
REMARK SMILES IDX 8 13 7 14 9 16 6 17 5 18 4 19 97 20 94 21 96 22 95 23 3 24
REMARK SMILES IDX 2 25 1 26 98 27 99 28 21 29 22 30 23 31 24 32 25 33 26 34
REMARK SMILES IDX 27 36 28 37 29 38 93 39 30 40 92 41 31 42 32 43 33 44 86 45
REMARK SMILES IDX 34 46 91 47 85 48 87 49 35 50 90 51 84 52 83 53 36 55 70 56
REMARK SMILES IDX 49 57 69 58 50 59 53 60 68 61 88 62 51 63 52 64 67 66 89 67
REMARK SMILES IDX 54 68 37 69 38 70 47 71 39 72 40 73 46 74 48 75 41 76 42 77
REMARK SMILES IDX 43 78 44 79 45 80 71 81 72 82 81 83 73 84 74 85 80 86 82 87
REMARK SMILES IDX 75 88 76 89 77 90 78 91 79 92 55 93 56 94 65 95 57 96 58 97
REMARK SMILES IDX 64 98 66 99 59 100 60 101 61 102 62 103 63 104
REMARK H PARENT 18 6 7 15 25 35 87 54 53 65
REMARK Flexibility Score: inf
ROOT
ATOM      1  C   UNL     1       7.503  -1.581  -5.419  1.00  0.00     0.021 C 
ENDROOT
BRANCH   1   2
ATOM      2  C   UNL     1       6.609  -2.763  -5.785  1.00  0.00     0.116 C 
BRANCH   2   3
ATOM      3  N   UNL     1       5.315  -2.605  -5.145  1.00  0.00    -0.356 N 
ATOM      4  C   UNL     1       4.102  -2.350  -5.707  1.00  0.00     0.223 C 
ATOM      5  O   UNL     1       3.202  -1.927  -4.983  1.00  0.00    -0.275 OA
ATOM      6  H   UNL     1       5.316  -2.696  -4.165  1.00  0.00     0.163 HD
BRANCH   4   7
ATOM      7  C   UNL     1       3.890  -2.737  -7.167  1.00  0.00     0.091 C 
ATOM      8  C   UNL     1       2.914  -1.820  -7.891  1.00  0.00     0.091 C 
ATOM      9  C   UNL     1       1.446  -2.102  -7.515  1.00  0.00     0.014 C 
ATOM     10  C   UNL     1       1.082  -3.577  -7.609  1.00  0.00     0.001 C 
ATOM     11  C   UNL     1       3.493  -4.218  -7.182  1.00  0.00     0.014 C 
ATOM     12  C   UNL     1       2.034  -4.456  -6.809  1.00  0.00     0.001 C 
BRANCH   8  13
ATOM     13  C   UNL     1       3.052  -1.637  -9.415  1.00  0.00     0.224 C 
ATOM     14  N   UNL     1       3.897  -2.255 -10.268  1.00  0.00    -0.352 N 
ATOM     15  H   UNL     1       3.812  -1.873 -11.172  1.00  0.00     0.163 HD
ATOM     16  O   UNL     1       2.311  -0.808  -9.968  1.00  0.00    -0.275 OA
BRANCH  14  17
ATOM     17  C   UNL     1       4.904  -3.321 -10.258  1.00  0.00     0.155 C 
BRANCH  17  18
ATOM     18  C   UNL     1       4.391  -4.684 -10.701  1.00  0.00     0.017 A 
ATOM     19  C   UNL     1       5.257  -5.803 -10.850  1.00  0.00     0.166 A 
ATOM     20  C   UNL     1       4.705  -7.100 -10.931  1.00  0.00     0.161 A 
ATOM     21  C   UNL     1       2.999  -4.897 -10.798  1.00  0.00     0.010 A 
ATOM     22  C   UNL     1       3.317  -7.269 -10.961  1.00  0.00     0.050 A 
ATOM     23  C   UNL     1       2.466  -6.175 -10.925  1.00  0.00     0.004 A 
BRANCH  19  24
ATOM     24  O   UNL     1       6.622  -5.681 -10.746  1.00  0.00    -0.490 OA
BRANCH  24  25
ATOM     25  C   UNL     1       7.241  -4.874 -11.760  1.00  0.00     0.226 C 
ATOM     26  C   UNL     1       8.222  -5.688 -12.590  1.00  0.00     0.049 C 
ENDBRANCH  24  25
ENDBRANCH  19  24
BRANCH  20  27
ATOM     27  O   UNL     1       5.361  -8.302 -10.863  1.00  0.00    -0.493 OA
ATOM     28  C   UNL     1       6.600  -8.410 -11.541  1.00  0.00     0.278 C 
ENDBRANCH  20  27
ENDBRANCH  17  18
ENDBRANCH  14  17
ENDBRANCH   8  13
ENDBRANCH   4   7
ENDBRANCH   2   3
ENDBRANCH   1   2
BRANCH   1  29
ATOM     29  C   UNL     1       7.881  -1.554  -3.933  1.00  0.00     0.002 C 
BRANCH  29  30
ATOM     30  C   UNL     1       8.578  -2.826  -3.441  1.00  0.00     0.002 C 
BRANCH  30  31
ATOM     31  C   UNL     1       9.844  -3.189  -4.220  1.00  0.00     0.021 C 
BRANCH  31  32
ATOM     32  C   UNL     1      10.908  -2.098  -4.205  1.00  0.00     0.116 C 
BRANCH  32  33
ATOM     33  N   UNL     1      11.367  -1.816  -2.855  1.00  0.00    -0.352 N 
ATOM     34  C   UNL     1      12.651  -1.802  -2.367  1.00  0.00     0.251 C 
ATOM     35  H   UNL     1      10.662  -1.605  -2.201  1.00  0.00     0.163 HD
ATOM     36  O   UNL     1      12.853  -1.767  -1.160  1.00  0.00    -0.269 OA
BRANCH  34  37
ATOM     37  C   UNL     1      13.780  -1.848  -3.318  1.00  0.00     0.039 A 
ATOM     38  C   UNL     1      14.839  -2.723  -3.072  1.00  0.00     0.014 A 
ATOM     39  C   UNL     1      13.778  -1.040  -4.459  1.00  0.00     0.014 A 
ATOM     40  C   UNL     1      15.873  -2.828  -4.003  1.00  0.00     0.010 A 
ATOM     41  C   UNL     1      14.767  -1.205  -5.422  1.00  0.00     0.010 A 
ATOM     42  C   UNL     1      15.828  -2.095  -5.201  1.00  0.00    -0.014 A 
BRANCH  42  43
ATOM     43  C   UNL     1      16.885  -2.238  -6.234  1.00  0.00     0.031 A 
ATOM     44  C   UNL     1      17.741  -1.056  -6.602  1.00  0.00     0.074 A 
ATOM     45  C   UNL     1      17.033  -3.412  -6.880  1.00  0.00     0.049 A 
ATOM     46  N   UNL     1      18.656  -0.957  -7.530  1.00  0.00    -0.248 NA
ATOM     47  C   UNL     1      17.519   0.186  -5.843  1.00  0.00     0.031 C 
ATOM     48  C   UNL     1      16.237  -4.618  -6.639  1.00  0.00     0.029 A 
ATOM     49  N   UNL     1      17.898  -3.782  -7.879  1.00  0.00    -0.354 N 
ATOM     50  C   UNL     1      19.116   0.354  -7.470  1.00  0.00     0.074 A 
ATOM     51  C   UNL     1      18.332   1.030  -6.460  1.00  0.00     0.031 C 
ATOM     52  C   UNL     1      16.666  -5.599  -7.449  1.00  0.00     0.029 A 
ATOM     53  C   UNL     1      17.734  -5.082  -8.299  1.00  0.00     0.049 A 
ATOM     54  H   UNL     1      18.572  -3.175  -8.260  1.00  0.00     0.167 HD
ATOM     55  C   UNL     1      20.120   0.932  -8.171  1.00  0.00     0.037 A 
ATOM     56  C   UNL     1      18.364  -5.774  -9.268  1.00  0.00     0.037 A 
ATOM     57  C   UNL     1      20.904   0.247  -9.165  1.00  0.00     0.049 A 
ATOM     58  C   UNL     1      19.454  -5.098 -10.059  1.00  0.00     0.074 A 
ATOM     59  C   UNL     1      21.965   0.733  -9.908  1.00  0.00     0.029 A 
ATOM     60  N   UNL     1      20.714  -1.071  -9.555  1.00  0.00    -0.354 N 
ATOM     61  N   UNL     1      19.910  -3.872  -9.953  1.00  0.00    -0.248 NA
ATOM     62  C   UNL     1      20.118  -5.899 -11.096  1.00  0.00     0.031 C 
ATOM     63  C   UNL     1      22.384  -0.274 -10.783  1.00  0.00     0.029 A 
ATOM     64  C   UNL     1      21.625  -1.408 -10.543  1.00  0.00     0.049 A 
ATOM     65  H   UNL     1      20.032  -1.677  -9.185  1.00  0.00     0.167 HD
ATOM     66  C   UNL     1      20.938  -3.768 -10.884  1.00  0.00     0.074 A 
ATOM     67  C   UNL     1      21.042  -5.056 -11.536  1.00  0.00     0.031 C 
ATOM     68  C   UNL     1      21.726  -2.702 -11.172  1.00  0.00     0.037 A 
BRANCH  55  69
ATOM     69  C   UNL     1      20.432   2.376  -7.881  1.00  0.00     0.058 A 
ATOM     70  C   UNL     1      21.000   2.775  -6.660  1.00  0.00     0.135 A 
ATOM     71  C   UNL     1      20.197   3.368  -8.847  1.00  0.00     0.135 A 
ATOM     72  F   UNL     1      21.231   1.872  -5.694  1.00  0.00    -0.206 F 
ATOM     73  C   UNL     1      21.295   4.108  -6.395  1.00  0.00     0.059 A 
ATOM     74  C   UNL     1      20.515   4.704  -8.616  1.00  0.00     0.059 A 
ATOM     75  F   UNL     1      19.655   3.045 -10.032  1.00  0.00    -0.206 F 
ATOM     76  C   UNL     1      21.051   5.066  -7.381  1.00  0.00     0.060 A 
BRANCH  76  77
ATOM     77  S   UNL     1      21.449   6.789  -7.022  1.00  0.00     0.124 S 
ATOM     78  O   UNL     1      20.413   7.130  -6.051  1.00  0.00    -0.237 OA
ATOM     79  O   UNL     1      22.805   6.691  -6.493  1.00  0.00    -0.237 OA
ATOM     80  O   UNL     1      21.330   7.444  -8.320  1.00  0.00    -0.744 OA
ENDBRANCH  76  77
ENDBRANCH  55  69
BRANCH  56  81
ATOM     81  C   UNL     1      17.992  -7.189  -9.541  1.00  0.00     0.058 A 
ATOM     82  C   UNL     1      18.883  -8.237  -9.265  1.00  0.00     0.135 A 
ATOM     83  C   UNL     1      16.744  -7.522 -10.091  1.00  0.00     0.135 A 
ATOM     84  F   UNL     1      20.091  -7.971  -8.744  1.00  0.00    -0.206 F 
ATOM     85  C   UNL     1      18.564  -9.561  -9.551  1.00  0.00     0.059 A 
ATOM     86  C   UNL     1      16.390  -8.841 -10.357  1.00  0.00     0.059 A 
ATOM     87  F   UNL     1      15.847  -6.561 -10.357  1.00  0.00    -0.206 F 
ATOM     88  C   UNL     1      17.314  -9.853 -10.098  1.00  0.00     0.060 A 
BRANCH  88  89
ATOM     89  S   UNL     1      16.900 -11.576 -10.443  1.00  0.00     0.124 S 
ATOM     90  O   UNL     1      17.746 -11.855 -11.597  1.00  0.00    -0.237 OA
ATOM     91  O   UNL     1      17.278 -12.236  -9.198  1.00  0.00    -0.237 OA
ATOM     92  O   UNL     1      15.465 -11.529 -10.709  1.00  0.00    -0.744 OA
ENDBRANCH  88  89
ENDBRANCH  56  81
BRANCH  68  93
ATOM     93  C   UNL     1      22.805  -2.892 -12.203  1.00  0.00     0.058 A 
ATOM     94  C   UNL     1      22.511  -3.023 -13.569  1.00  0.00     0.135 A 
ATOM     95  C   UNL     1      24.157  -2.883 -11.822  1.00  0.00     0.135 A 
ATOM     96  F   UNL     1      21.236  -3.045 -13.987  1.00  0.00    -0.206 F 
ATOM     97  C   UNL     1      23.519  -3.160 -14.518  1.00  0.00     0.059 A 
ATOM     98  C   UNL     1      25.182  -2.986 -12.757  1.00  0.00     0.059 A 
ATOM     99  F   UNL     1      24.494  -2.751 -10.529  1.00  0.00    -0.206 F 
ATOM    100  C   UNL     1      24.852  -3.135 -14.103  1.00  0.00     0.060 A 
BRANCH 100 101
ATOM    101  S   UNL     1      26.148  -3.270 -15.351  1.00  0.00     0.124 S 
ATOM    102  O   UNL     1      26.042  -4.673 -15.736  1.00  0.00    -0.237 OA
ATOM    103  O   UNL     1      25.716  -2.302 -16.355  1.00  0.00    -0.237 OA
ATOM    104  O   UNL     1      27.361  -2.909 -14.623  1.00  0.00    -0.744 OA
ENDBRANCH 100 101
ENDBRANCH  68  93
ENDBRANCH  42  43
ENDBRANCH  34  37
ENDBRANCH  32  33
ENDBRANCH  31  32
ENDBRANCH  30  31
ENDBRANCH  29  30
ENDBRANCH   1  29
TORSDOF 22
