REMARK SMILES Cc1ccc(C)c(N2C(=O)C[C@@H](SCC(=O)NCCCCCCNC(=O)c3ccc(-c4c5nc(c(-c6c(F)cc(S(=O)(=O)[O-])cc6F)c6ccc([nH]6)c(-c6c(F)cc(S(=O)(=O)[O-])cc6F)c6nc(c(-c7c(F)cc(S(=O)(=O)[O-])cc7F)c7ccc4[nH]7)C=C6)C=C5)cc3)C2=O)c1
REMARK SMILES IDX 20 1 19 2 18 3 17 4 15 5 16 6 14 8 13 9 12 10 8 11 9 12
REMARK SMILES IDX 93 13 10 14 11 15 94 16 7 17 1 18 2 19 3 20 95 21 4 22 5 23
REMARK SMILES IDX 6 24 21 25 22 26 23 27 24 28 25 29 26 31 27 32 28 33 92 34
REMARK SMILES IDX 29 35 91 36 30 37 31 38 32 39 85 40 33 41 90 42 84 43 86 44
REMARK SMILES IDX 34 45 89 46 83 47 82 48 35 50 69 51 48 52 68 53 49 54 52 55
REMARK SMILES IDX 67 56 87 57 50 58 51 59 66 61 88 62 53 63 36 64 37 65 46 66
REMARK SMILES IDX 38 67 39 68 45 69 47 70 40 71 41 72 42 73 43 74 44 75 70 76
REMARK SMILES IDX 71 77 80 78 72 79 73 80 79 81 81 82 74 83 75 84 76 85 77 86
REMARK SMILES IDX 78 87 54 88 55 89 64 90 56 91 57 92 63 93 65 94 58 95 59 96
REMARK SMILES IDX 60 97 61 98 62 99
REMARK H PARENT 17 7 24 30 86 49 52 60
REMARK Flexibility Score: inf
ROOT
ATOM      1  C   UNL     1      -5.890   5.921   4.641  1.00  0.00     0.002 C 
ENDROOT
BRANCH   1   2
ATOM      2  C   UNL     1      -5.922   4.897   3.496  1.00  0.00     0.021 C 
BRANCH   2   3
ATOM      3  C   UNL     1      -6.596   5.405   2.220  1.00  0.00     0.116 C 
BRANCH   3   4
ATOM      4  N   UNL     1      -5.857   6.523   1.657  1.00  0.00    -0.355 N 
ATOM      5  C   UNL     1      -5.359   6.702   0.405  1.00  0.00     0.230 C 
ATOM      6  O   UNL     1      -4.623   7.673   0.208  1.00  0.00    -0.274 OA
ATOM      7  H   UNL     1      -5.692   7.267   2.280  1.00  0.00     0.163 HD
BRANCH   5   8
ATOM      8  C   UNL     1      -5.730   5.773  -0.728  1.00  0.00     0.170 C 
BRANCH   8   9
ATOM      9  S   UNL     1      -5.030   4.120  -0.634  1.00  0.00    -0.138 SA
BRANCH   9  10
ATOM     10  C   UNL     1      -3.354   4.473   0.018  1.00  0.00     0.146 C 
ATOM     11  N   UNL     1      -1.804   2.805  -0.491  1.00  0.00    -0.249 N 
ATOM     12  C   UNL     1      -1.400   3.895  -1.217  1.00  0.00     0.235 C 
ATOM     13  C   UNL     1      -2.792   3.139   0.393  1.00  0.00     0.247 C 
ATOM     14  O   UNL     1      -0.408   4.062  -1.914  1.00  0.00    -0.274 OA
ATOM     15  C   UNL     1      -2.370   5.019  -0.986  1.00  0.00     0.125 C 
ATOM     16  O   UNL     1      -3.197   2.566   1.397  1.00  0.00    -0.273 OA
BRANCH  11  17
ATOM     17  C   UNL     1      -1.135   1.561  -0.496  1.00  0.00     0.055 A 
ATOM     18  C   UNL     1       3.066   0.001  -0.870  1.00  0.00     0.044 C 
ATOM     19  C   UNL     1       1.590   0.004  -0.576  1.00  0.00    -0.049 A 
ATOM     20  C   UNL     1       0.721  -1.548  -0.236  1.00  0.00     0.004 A 
ATOM     21  C   UNL     1       0.659   1.563  -0.633  1.00  0.00     0.030 A 
ATOM     22  C   UNL     1      -1.078  -1.564  -0.050  1.00  0.00     0.006 A 
ATOM     23  C   UNL     1      -2.023  -0.044  -0.281  1.00  0.00    -0.027 A 
ATOM     24  C   UNL     1      -3.527  -0.157  -0.282  1.00  0.00     0.046 C 
ENDBRANCH  11  17
ENDBRANCH   9  10
ENDBRANCH   8   9
ENDBRANCH   5   8
ENDBRANCH   3   4
ENDBRANCH   2   3
ENDBRANCH   1   2
BRANCH   1  25
ATOM     25  C   UNL     1      -7.234   6.590   4.993  1.00  0.00     0.002 C 
BRANCH  25  26
ATOM     26  C   UNL     1      -8.419   5.661   5.303  1.00  0.00     0.021 C 
BRANCH  26  27
ATOM     27  C   UNL     1      -8.176   4.773   6.502  1.00  0.00     0.116 C 
BRANCH  27  28
ATOM     28  N   UNL     1      -8.059   5.496   7.781  1.00  0.00    -0.352 N 
ATOM     29  C   UNL     1      -7.705   5.032   9.044  1.00  0.00     0.251 C 
ATOM     30  H   UNL     1      -8.264   6.458   7.734  1.00  0.00     0.163 HD
ATOM     31  O   UNL     1      -7.967   5.689  10.046  1.00  0.00    -0.269 OA
BRANCH  29  32
ATOM     32  C   UNL     1      -6.932   3.776   9.159  1.00  0.00     0.039 A 
ATOM     33  C   UNL     1      -6.266   3.356  10.316  1.00  0.00     0.014 A 
ATOM     34  C   UNL     1      -6.452   3.264   7.973  1.00  0.00     0.014 A 
ATOM     35  C   UNL     1      -5.101   2.584  10.129  1.00  0.00     0.010 A 
ATOM     36  C   UNL     1      -5.885   2.051   7.995  1.00  0.00     0.010 A 
ATOM     37  C   UNL     1      -4.817   2.142   8.832  1.00  0.00    -0.014 A 
BRANCH  37  38
ATOM     38  C   UNL     1      -3.661   1.415   8.360  1.00  0.00     0.031 A 
ATOM     39  C   UNL     1      -3.787  -0.001   8.766  1.00  0.00     0.074 A 
ATOM     40  C   UNL     1      -2.756   1.872   7.461  1.00  0.00     0.049 A 
ATOM     41  N   UNL     1      -3.321  -0.487   9.867  1.00  0.00    -0.248 NA
ATOM     42  C   UNL     1      -4.814  -0.857   8.132  1.00  0.00     0.031 C 
ATOM     43  C   UNL     1      -2.670   3.145   6.733  1.00  0.00     0.029 A 
ATOM     44  N   UNL     1      -1.654   1.205   7.001  1.00  0.00    -0.354 N 
ATOM     45  C   UNL     1      -3.741  -1.804   9.873  1.00  0.00     0.074 A 
ATOM     46  C   UNL     1      -4.893  -1.852   9.020  1.00  0.00     0.031 C 
ATOM     47  C   UNL     1      -1.685   3.078   5.796  1.00  0.00     0.029 A 
ATOM     48  C   UNL     1      -0.979   1.812   5.931  1.00  0.00     0.049 A 
ATOM     49  H   UNL     1      -1.354   0.354   7.395  1.00  0.00     0.167 HD
ATOM     50  C   UNL     1      -2.895  -2.787  10.279  1.00  0.00     0.037 A 
ATOM     51  C   UNL     1       0.026   1.229   5.203  1.00  0.00     0.037 A 
ATOM     52  C   UNL     1      -1.726  -2.211  10.911  1.00  0.00     0.049 A 
ATOM     53  C   UNL     1       0.572   0.115   6.004  1.00  0.00     0.074 A 
ATOM     54  C   UNL     1      -1.523  -1.376  11.996  1.00  0.00     0.029 A 
ATOM     55  N   UNL     1      -0.602  -2.087  10.128  1.00  0.00    -0.354 N 
ATOM     56  N   UNL     1       1.286   0.330   7.066  1.00  0.00    -0.248 NA
ATOM     57  C   UNL     1      -0.138  -1.158   5.941  1.00  0.00     0.031 C 
ATOM     58  C   UNL     1      -0.528  -0.444  11.574  1.00  0.00     0.029 A 
ATOM     59  C   UNL     1      -0.091  -0.825  10.311  1.00  0.00     0.049 A 
ATOM     60  H   UNL     1      -0.229  -2.783   9.539  1.00  0.00     0.167 HD
ATOM     61  C   UNL     1       0.727  -0.516   8.000  1.00  0.00     0.074 A 
ATOM     62  C   UNL     1      -0.114  -1.452   7.244  1.00  0.00     0.031 C 
ATOM     63  C   UNL     1       0.697  -0.156   9.313  1.00  0.00     0.037 A 
BRANCH  50  64
ATOM     64  C   UNL     1      -2.907  -4.194   9.739  1.00  0.00     0.058 A 
ATOM     65  C   UNL     1      -2.104  -5.157  10.378  1.00  0.00     0.135 A 
ATOM     66  C   UNL     1      -3.466  -4.590   8.501  1.00  0.00     0.135 A 
ATOM     67  F   UNL     1      -1.518  -4.884  11.555  1.00  0.00    -0.206 F 
ATOM     68  C   UNL     1      -1.828  -6.396   9.805  1.00  0.00     0.059 A 
ATOM     69  C   UNL     1      -3.248  -5.840   7.938  1.00  0.00     0.059 A 
ATOM     70  F   UNL     1      -4.178  -3.764   7.727  1.00  0.00    -0.206 F 
ATOM     71  C   UNL     1      -2.403  -6.726   8.582  1.00  0.00     0.060 A 
BRANCH  71  72
ATOM     72  S   UNL     1      -2.013  -8.310   7.827  1.00  0.00     0.124 S 
ATOM     73  O   UNL     1      -0.593  -8.153   7.533  1.00  0.00    -0.237 OA
ATOM     74  O   UNL     1      -2.347  -9.239   8.902  1.00  0.00    -0.237 OA
ATOM     75  O   UNL     1      -2.897  -8.357   6.667  1.00  0.00    -0.744 OA
ENDBRANCH  71  72
ENDBRANCH  50  64
BRANCH  51  76
ATOM     76  C   UNL     1       0.100   1.095   3.732  1.00  0.00     0.058 A 
ATOM     77  C   UNL     1       1.168   0.549   3.026  1.00  0.00     0.135 A 
ATOM     78  C   UNL     1      -1.081   1.043   3.051  1.00  0.00     0.135 A 
ATOM     79  F   UNL     1       2.340   0.343   3.651  1.00  0.00    -0.206 F 
ATOM     80  C   UNL     1       1.074   0.083   1.661  1.00  0.00     0.059 A 
ATOM     81  C   UNL     1      -1.183   0.580   1.727  1.00  0.00     0.059 A 
ATOM     82  F   UNL     1      -2.243   1.317   3.665  1.00  0.00    -0.206 F 
ATOM     83  C   UNL     1      -0.129   0.149   0.705  1.00  0.00     0.060 A 
BRANCH  83  84
ATOM     84  S   UNL     1      -0.340  -0.201  -1.830  1.00  0.00     0.124 S 
ATOM     85  O   UNL     1       0.792   0.374  -2.616  1.00  0.00    -0.237 OA
ATOM     86  O   UNL     1      -0.442  -1.641  -2.217  1.00  0.00    -0.237 OA
ATOM     87  O   UNL     1      -1.550   0.470  -2.408  1.00  0.00    -0.744 OA
ENDBRANCH  83  84
ENDBRANCH  51  76
BRANCH  63  88
ATOM     88  C   UNL     1       1.404   1.125   9.681  1.00  0.00     0.058 A 
ATOM     89  C   UNL     1       0.979   2.419   9.312  1.00  0.00     0.135 A 
ATOM     90  C   UNL     1       2.523   1.042  10.507  1.00  0.00     0.135 A 
ATOM     91  F   UNL     1      -0.146   2.602   8.616  1.00  0.00    -0.206 F 
ATOM     92  C   UNL     1       1.663   3.571   9.700  1.00  0.00     0.059 A 
ATOM     93  C   UNL     1       3.203   2.177  10.939  1.00  0.00     0.059 A 
ATOM     94  F   UNL     1       2.946  -0.157  10.937  1.00  0.00    -0.206 F 
ATOM     95  C   UNL     1       2.778   3.437  10.519  1.00  0.00     0.060 A 
BRANCH  95  96
ATOM     96  S   UNL     1       3.624   4.922  11.099  1.00  0.00     0.124 S 
ATOM     97  O   UNL     1       4.291   5.389   9.889  1.00  0.00    -0.237 OA
ATOM     98  O   UNL     1       2.518   5.751  11.572  1.00  0.00    -0.237 OA
ATOM     99  O   UNL     1       4.507   4.419  12.148  1.00  0.00    -0.744 OA
ENDBRANCH  95  96
ENDBRANCH  63  88
ENDBRANCH  37  38
ENDBRANCH  29  32
ENDBRANCH  27  28
ENDBRANCH  26  27
ENDBRANCH  25  26
ENDBRANCH   1  25
TORSDOF 19
