REMARK SMILES O=C(NCCCCCCNC(=O)c1ccc(CN2CC(=O)N3CCCC[C@@H]3C2=O)o1)c1ccc(-c2c3nc(c(-c4c(F)cc(S(=O)(=O)[O-])cc4F)c4ccc([nH]4)c(-c4c(F)cc(S(=O)(=O)[O-])cc4F)c4nc(c(-c5c(F)cc(S(=O)(=O)[O-])cc5F)c5ccc2[nH]5)C=C4)C=C3)cc1
REMARK SMILES IDX 6 1 5 2 4 3 3 4 1 5 2 6 31 8 32 9 96 10 33 11 95 12 34 13
REMARK SMILES IDX 35 14 36 15 89 16 37 17 94 18 88 19 90 20 38 21 93 22 87 23
REMARK SMILES IDX 86 24 39 26 73 27 52 28 72 29 53 30 56 31 71 32 91 33 54 34
REMARK SMILES IDX 55 35 70 37 92 38 57 39 40 40 41 41 50 42 42 43 43 44 49 45
REMARK SMILES IDX 51 46 44 47 45 48 46 49 47 50 48 51 74 52 75 53 84 54 76 55
REMARK SMILES IDX 77 56 83 57 85 58 78 59 79 60 80 61 81 62 82 63 58 64 59 65
REMARK SMILES IDX 68 66 60 67 61 68 67 69 69 70 62 71 63 72 64 73 65 74 66 75
REMARK SMILES IDX 7 76 8 77 9 78 10 79 11 80 12 82 13 83 14 84 30 85 15 86
REMARK SMILES IDX 16 87 17 88 18 89 19 90 28 91 20 92 27 93 29 94 21 95 22 96
REMARK SMILES IDX 26 97 23 98 25 99 24 100
REMARK H PARENT 3 7 90 25 56 36 10 81
REMARK Flexibility Score: inf
ROOT
ATOM      1  C   UNL     1       4.268  -3.073   2.336  1.00  0.00     0.002 C 
ENDROOT
BRANCH   1   2
ATOM      2  C   UNL     1       4.733  -1.636   2.094  1.00  0.00     0.021 C 
BRANCH   2   3
ATOM      3  C   UNL     1       4.485  -1.109   0.686  1.00  0.00     0.116 C 
BRANCH   3   4
ATOM      4  N   UNL     1       3.069  -1.023   0.368  1.00  0.00    -0.352 N 
ATOM      5  O   UNL     1       1.109  -0.008  -0.086  1.00  0.00    -0.269 OA
ATOM      6  C   UNL     1       2.333   0.066  -0.033  1.00  0.00     0.251 C 
ATOM      7  H   UNL     1       2.566  -1.865   0.452  1.00  0.00     0.163 HD
BRANCH   6   8
ATOM      8  C   UNL     1       3.020   1.330  -0.378  1.00  0.00     0.039 A 
ATOM      9  C   UNL     1       4.162   1.327  -1.183  1.00  0.00     0.014 A 
ATOM     10  C   UNL     1       2.506   2.537   0.105  1.00  0.00     0.014 A 
ATOM     11  C   UNL     1       4.865   2.509  -1.392  1.00  0.00     0.010 A 
ATOM     12  C   UNL     1       3.169   3.735  -0.175  1.00  0.00     0.010 A 
ATOM     13  C   UNL     1       4.370   3.728  -0.902  1.00  0.00    -0.014 A 
BRANCH  13  14
ATOM     14  C   UNL     1       5.089   4.991  -1.207  1.00  0.00     0.031 A 
ATOM     15  C   UNL     1       5.703   5.819  -0.112  1.00  0.00     0.074 A 
ATOM     16  C   UNL     1       5.187   5.387  -2.491  1.00  0.00     0.049 A 
ATOM     17  N   UNL     1       6.341   6.958  -0.200  1.00  0.00    -0.248 NA
ATOM     18  C   UNL     1       5.578   5.307   1.262  1.00  0.00     0.031 C 
ATOM     19  C   UNL     1       4.624   4.669  -3.638  1.00  0.00     0.029 A 
ATOM     20  N   UNL     1       5.793   6.482  -3.051  1.00  0.00    -0.354 N 
ATOM     21  C   UNL     1       6.678   7.311   1.102  1.00  0.00     0.074 A 
ATOM     22  C   UNL     1       6.150   6.276   1.965  1.00  0.00     0.031 C 
ATOM     23  C   UNL     1       4.935   5.326  -4.765  1.00  0.00     0.029 A 
ATOM     24  C   UNL     1       5.663   6.542  -4.419  1.00  0.00     0.049 A 
ATOM     25  H   UNL     1       6.274   7.161  -2.525  1.00  0.00     0.167 HD
ATOM     26  C   UNL     1       7.369   8.395   1.533  1.00  0.00     0.037 A 
ATOM     27  C   UNL     1       6.061   7.481  -5.297  1.00  0.00     0.037 A 
ATOM     28  C   UNL     1       7.895   9.416   0.661  1.00  0.00     0.049 A 
ATOM     29  C   UNL     1       6.797   8.687  -4.792  1.00  0.00     0.074 A 
ATOM     30  C   UNL     1       8.636  10.536   0.998  1.00  0.00     0.029 A 
ATOM     31  N   UNL     1       7.728   9.449  -0.716  1.00  0.00    -0.354 N 
ATOM     32  N   UNL     1       7.134   8.989  -3.561  1.00  0.00    -0.248 NA
ATOM     33  C   UNL     1       7.207   9.682  -5.792  1.00  0.00     0.031 C 
ATOM     34  C   UNL     1       8.875  11.271  -0.169  1.00  0.00     0.029 A 
ATOM     35  C   UNL     1       8.332  10.581  -1.242  1.00  0.00     0.049 A 
ATOM     36  H   UNL     1       7.251   8.768  -1.243  1.00  0.00     0.167 HD
ATOM     37  C   UNL     1       7.816  10.197  -3.639  1.00  0.00     0.074 A 
ATOM     38  C   UNL     1       7.852  10.564  -5.041  1.00  0.00     0.031 C 
ATOM     39  C   UNL     1       8.364  10.933  -2.641  1.00  0.00     0.037 A 
BRANCH  26  40
ATOM     40  C   UNL     1       7.578   8.546   3.017  1.00  0.00     0.058 A 
ATOM     41  C   UNL     1       8.444   7.705   3.734  1.00  0.00     0.135 A 
ATOM     42  C   UNL     1       6.927   9.568   3.727  1.00  0.00     0.135 A 
ATOM     43  F   UNL     1       9.085   6.703   3.110  1.00  0.00    -0.206 F 
ATOM     44  C   UNL     1       8.630   7.849   5.105  1.00  0.00     0.059 A 
ATOM     45  C   UNL     1       7.119   9.748   5.095  1.00  0.00     0.059 A 
ATOM     46  F   UNL     1       6.090  10.405   3.093  1.00  0.00    -0.206 F 
ATOM     47  C   UNL     1       7.959   8.872   5.778  1.00  0.00     0.060 A 
BRANCH  47  48
ATOM     48  S   UNL     1       8.198   9.034   7.561  1.00  0.00     0.124 S 
ATOM     49  O   UNL     1       7.445   7.887   8.059  1.00  0.00    -0.237 OA
ATOM     50  O   UNL     1       9.649   8.942   7.691  1.00  0.00    -0.237 OA
ATOM     51  O   UNL     1       7.625  10.341   7.864  1.00  0.00    -0.744 OA
ENDBRANCH  47  48
ENDBRANCH  26  40
BRANCH  27  52
ATOM     52  C   UNL     1       5.760   7.304  -6.742  1.00  0.00     0.058 A 
ATOM     53  C   UNL     1       6.777   7.019  -7.663  1.00  0.00     0.135 A 
ATOM     54  C   UNL     1       4.441   7.371  -7.221  1.00  0.00     0.135 A 
ATOM     55  F   UNL     1       8.053   6.949  -7.253  1.00  0.00    -0.206 F 
ATOM     56  C   UNL     1       6.501   6.810  -9.010  1.00  0.00     0.059 A 
ATOM     57  C   UNL     1       4.137   7.138  -8.558  1.00  0.00     0.059 A 
ATOM     58  F   UNL     1       3.430   7.623  -6.375  1.00  0.00    -0.206 F 
ATOM     59  C   UNL     1       5.176   6.865  -9.446  1.00  0.00     0.060 A 
BRANCH  59  60
ATOM     60  S   UNL     1       4.822   6.526 -11.184  1.00  0.00     0.124 S 
ATOM     61  O   UNL     1       5.313   7.740 -11.825  1.00  0.00    -0.237 OA
ATOM     62  O   UNL     1       5.602   5.316 -11.424  1.00  0.00    -0.237 OA
ATOM     63  O   UNL     1       3.374   6.342 -11.202  1.00  0.00    -0.744 OA
ENDBRANCH  59  60
ENDBRANCH  27  52
BRANCH  39  64
ATOM     64  C   UNL     1       9.085  12.194  -3.029  1.00  0.00     0.058 A 
ATOM     65  C   UNL     1       8.395  13.340  -3.453  1.00  0.00     0.135 A 
ATOM     66  C   UNL     1      10.483  12.269  -2.929  1.00  0.00     0.135 A 
ATOM     67  F   UNL     1       7.058  13.319  -3.575  1.00  0.00    -0.206 F 
ATOM     68  C   UNL     1       9.069  14.512  -3.783  1.00  0.00     0.059 A 
ATOM     69  C   UNL     1      11.175  13.438  -3.227  1.00  0.00     0.059 A 
ATOM     70  F   UNL     1      11.191  11.203  -2.522  1.00  0.00    -0.206 F 
ATOM     71  C   UNL     1      10.459  14.552  -3.664  1.00  0.00     0.060 A 
BRANCH  71  72
ATOM     72  S   UNL     1      11.319  16.090  -4.058  1.00  0.00     0.124 S 
ATOM     73  O   UNL     1      11.238  16.106  -5.515  1.00  0.00    -0.237 OA
ATOM     74  O   UNL     1      10.508  17.087  -3.367  1.00  0.00    -0.237 OA
ATOM     75  O   UNL     1      12.654  15.884  -3.505  1.00  0.00    -0.744 OA
ENDBRANCH  71  72
ENDBRANCH  39  64
ENDBRANCH  13  14
ENDBRANCH   6   8
ENDBRANCH   3   4
ENDBRANCH   2   3
ENDBRANCH   1   2
BRANCH   1  76
ATOM     76  C   UNL     1       4.845  -4.120   1.378  1.00  0.00     0.002 C 
BRANCH  76  77
ATOM     77  C   UNL     1       6.372  -4.132   1.257  1.00  0.00     0.021 C 
BRANCH  77  78
ATOM     78  C   UNL     1       7.121  -4.309   2.577  1.00  0.00     0.116 C 
BRANCH  78  79
ATOM     79  N   UNL     1       6.883  -5.617   3.159  1.00  0.00    -0.349 N 
ATOM     80  C   UNL     1       7.801  -6.588   3.478  1.00  0.00     0.286 C 
ATOM     81  H   UNL     1       5.942  -5.836   3.349  1.00  0.00     0.163 HD
ATOM     82  O   UNL     1       7.373  -7.705   3.786  1.00  0.00    -0.266 OA
BRANCH  80  83
ATOM     83  C   UNL     1       9.204  -6.253   3.445  1.00  0.00     0.191 A 
ATOM     84  C   UNL     1       9.938  -5.223   4.006  1.00  0.00     0.056 A 
ATOM     85  O   UNL     1      10.043  -7.077   2.757  1.00  0.00    -0.454 OA
ATOM     86  C   UNL     1      11.289  -5.424   3.622  1.00  0.00     0.048 A 
ATOM     87  C   UNL     1      11.307  -6.572   2.858  1.00  0.00     0.124 A 
BRANCH  87  88
ATOM     88  C   UNL     1      12.381  -7.377   2.207  1.00  0.00     0.195 C 
BRANCH  88  89
ATOM     89  N   UNL     1      12.592  -8.545   3.042  1.00  0.00    -0.324 N 
ATOM     90  C   UNL     1      13.832  -8.707   3.771  1.00  0.00     0.220 C 
ATOM     91  C   UNL     1      11.726  -9.627   2.948  1.00  0.00     0.246 C 
ATOM     92  C   UNL     1      13.729  -9.510   5.071  1.00  0.00     0.242 C 
ATOM     93  C   UNL     1      11.471 -10.242   4.338  1.00  0.00     0.174 C 
ATOM     94  O   UNL     1      11.027  -9.848   1.964  1.00  0.00    -0.272 OA
ATOM     95  O   UNL     1      14.633  -9.457   5.907  1.00  0.00    -0.273 OA
ATOM     96  N   UNL     1      12.689 -10.438   5.142  1.00  0.00    -0.329 N 
ATOM     97  C   UNL     1      10.646 -11.524   4.205  1.00  0.00     0.035 C 
ATOM     98  C   UNL     1      12.548 -11.175   6.394  1.00  0.00     0.120 C 
ATOM     99  C   UNL     1      10.382 -12.150   5.568  1.00  0.00     0.004 C 
ATOM    100  C   UNL     1      11.703 -12.436   6.267  1.00  0.00     0.022 C 
ENDBRANCH  88  89
ENDBRANCH  87  88
ENDBRANCH  80  83
ENDBRANCH  78  79
ENDBRANCH  77  78
ENDBRANCH  76  77
ENDBRANCH   1  76
TORSDOF 18
