REMARK SMILES O=C(CCC/[NH+]=C1/CCCc2ccccc2N1)NCCCCCCNC(=O)c1ccc(-c2c3nc(c(-c4c(F)cc(S(=O)(=O)[O-])cc4F)c4ccc([nH]4)c(-c4c(F)cc(S(=O)(=O)[O-])cc4F)c4nc(c(-c5c(F)cc(S(=O)(=O)[O-])cc5F)c5ccc2[nH]5)C=C4)C=C3)cc1
REMARK SMILES IDX 20 1 19 2 18 3 1 4 2 5 3 7 4 8 5 9 6 10 7 11 17 13 8 15 9 16
REMARK SMILES IDX 16 18 11 19 15 20 12 21 14 22 13 23 10 24 21 26 22 27 23 28
REMARK SMILES IDX 24 29 25 30 26 31 27 33 28 34 29 35 93 36 30 37 92 38 31 39
REMARK SMILES IDX 32 40 33 41 86 42 34 43 91 44 85 45 87 46 35 47 90 48 84 49
REMARK SMILES IDX 83 50 36 52 70 53 49 54 69 55 50 56 53 57 68 58 88 59 51 60
REMARK SMILES IDX 52 61 67 63 89 64 54 65 37 66 38 67 47 68 39 69 40 70 46 71
REMARK SMILES IDX 48 72 41 73 42 74 43 75 44 76 45 77 71 78 72 79 81 80 73 81
REMARK SMILES IDX 74 82 80 83 82 84 75 85 76 86 77 87 78 88 79 89 55 90 56 91
REMARK SMILES IDX 65 92 57 93 58 94 64 95 66 96 59 97 60 98 61 99 62 100
REMARK SMILES IDX 63 101
REMARK H PARENT 18 6 6 12 17 14 25 32 87 51 53 62
REMARK Flexibility Score: 90.00
ROOT
ATOM      1  C   UNL     1       2.819   1.398   3.216  1.00  0.00     0.021 C 
ENDROOT
BRANCH   1   2
ATOM      2  C   UNL     1       2.145   1.793   1.906  1.00  0.00     0.116 C 
BRANCH   2   3
ATOM      3  N   UNL     1       2.502   0.887   0.832  1.00  0.00    -0.356 N 
ATOM      4  O   UNL     1       0.595   1.109  -0.401  1.00  0.00    -0.275 OA
ATOM      5  C   UNL     1       1.751   0.709  -0.299  1.00  0.00     0.220 C 
ATOM      6  H   UNL     1       3.335   0.368   0.922  1.00  0.00     0.163 HD
BRANCH   5   7
ATOM      7  C   UNL     1       2.400  -0.112  -1.408  1.00  0.00     0.104 C 
BRANCH   7   8
ATOM      8  C   UNL     1       3.790   0.324  -1.855  1.00  0.00     0.056 C 
BRANCH   8   9
ATOM      9  C   UNL     1       4.911   0.428  -0.833  1.00  0.00     0.234 C 
BRANCH   9  10
ATOM     10  N   UNL     1       5.395  -0.784  -0.218  1.00  0.00    -0.278 N 
ATOM     11  C   UNL     1       4.979  -1.659   0.612  1.00  0.00     0.247 C 
ATOM     12  H   UNL     1       6.305  -0.997  -0.527  1.00  0.00     0.304 HD
ATOM     13  N   UNL     1       3.718  -1.850   1.124  1.00  0.00    -0.245 N 
ATOM     14  H   UNL     1       2.996  -1.731   0.465  1.00  0.00     0.312 HD
BRANCH  11  15
ATOM     15  C   UNL     1       6.087  -2.615   1.023  1.00  0.00     0.128 C 
BRANCH  15  16
ATOM     16  C   UNL     1       6.401  -2.525   2.503  1.00  0.00     0.018 CG0
ATOM     17  G   UNL     1       5.387  -3.308   3.309  1.00  0.00     0.000 G0
ENDBRANCH  15  16
ENDBRANCH  11  15
BRANCH  13  18
ATOM     18  C   UNL     1       3.263  -2.186   2.423  1.00  0.00     0.127 A 
ATOM     19  C   UNL     1       4.062  -2.620   3.489  1.00  0.00    -0.001 A 
ATOM     20  C   UNL     1       1.901  -1.914   2.704  1.00  0.00     0.052 A 
ATOM     21  C   UNL     1       3.564  -2.534   4.809  1.00  0.00     0.008 A 
ATOM     22  C   UNL     1       1.407  -1.870   4.013  1.00  0.00     0.004 A 
ATOM     23  C   UNL     1       2.262  -2.122   5.073  1.00  0.00     0.001 A 
BRANCH  19  24
ATOM     24  C   UNL     1       5.387  -3.308   3.309  1.00  0.00     0.040 CG0
ATOM     25  G   UNL     1       6.401  -2.525   2.503  1.00  0.00     0.000 G0
ENDBRANCH  19  24
ENDBRANCH  13  18
ENDBRANCH   9  10
ENDBRANCH   8   9
ENDBRANCH   7   8
ENDBRANCH   5   7
ENDBRANCH   2   3
ENDBRANCH   1   2
BRANCH   1  26
ATOM     26  C   UNL     1       4.341   1.579   3.275  1.00  0.00     0.002 C 
BRANCH  26  27
ATOM     27  C   UNL     1       4.800   2.970   3.711  1.00  0.00     0.002 C 
BRANCH  27  28
ATOM     28  C   UNL     1       4.142   3.496   4.989  1.00  0.00     0.021 C 
BRANCH  28  29
ATOM     29  C   UNL     1       4.162   2.524   6.165  1.00  0.00     0.116 C 
BRANCH  29  30
ATOM     30  N   UNL     1       5.491   2.380   6.740  1.00  0.00    -0.352 N 
ATOM     31  C   UNL     1       5.973   2.848   7.942  1.00  0.00     0.251 C 
ATOM     32  H   UNL     1       6.137   1.877   6.192  1.00  0.00     0.163 HD
ATOM     33  O   UNL     1       7.172   2.818   8.183  1.00  0.00    -0.269 OA
BRANCH  31  34
ATOM     34  C   UNL     1       5.025   3.416   8.928  1.00  0.00     0.039 A 
ATOM     35  C   UNL     1       3.839   2.746   9.230  1.00  0.00     0.014 A 
ATOM     36  C   UNL     1       5.310   4.644   9.529  1.00  0.00     0.014 A 
ATOM     37  C   UNL     1       2.860   3.387   9.980  1.00  0.00     0.010 A 
ATOM     38  C   UNL     1       4.363   5.240  10.370  1.00  0.00     0.010 A 
ATOM     39  C   UNL     1       3.108   4.642  10.562  1.00  0.00    -0.014 A 
BRANCH  39  40
ATOM     40  C   UNL     1       2.039   5.295  11.367  1.00  0.00     0.031 A 
ATOM     41  C   UNL     1       1.443   6.613  10.944  1.00  0.00     0.074 A 
ATOM     42  C   UNL     1       1.560   4.659  12.456  1.00  0.00     0.049 A 
ATOM     43  N   UNL     1       0.479   7.298  11.506  1.00  0.00    -0.248 NA
ATOM     44  C   UNL     1       1.999   7.249   9.739  1.00  0.00     0.031 C 
ATOM     45  C   UNL     1       2.052   3.375  12.963  1.00  0.00     0.029 A 
ATOM     46  N   UNL     1       0.541   4.984  13.315  1.00  0.00    -0.354 N 
ATOM     47  C   UNL     1       0.320   8.444  10.735  1.00  0.00     0.074 A 
ATOM     48  C   UNL     1       1.315   8.384   9.687  1.00  0.00     0.031 C 
ATOM     49  C   UNL     1       1.296   2.993  14.002  1.00  0.00     0.029 A 
ATOM     50  C   UNL     1       0.313   4.034  14.283  1.00  0.00     0.049 A 
ATOM     51  H   UNL     1       0.022   5.818  13.245  1.00  0.00     0.167 HD
ATOM     52  C   UNL     1      -0.584   9.444  10.877  1.00  0.00     0.037 A 
ATOM     53  C   UNL     1      -0.576   4.003  15.294  1.00  0.00     0.037 A 
ATOM     54  C   UNL     1      -1.583   9.489  11.915  1.00  0.00     0.049 A 
ATOM     55  C   UNL     1      -1.530   5.152  15.463  1.00  0.00     0.074 A 
ATOM     56  C   UNL     1      -2.555  10.450  12.129  1.00  0.00     0.029 A 
ATOM     57  N   UNL     1      -1.739   8.536  12.912  1.00  0.00    -0.354 N 
ATOM     58  N   UNL     1      -1.675   6.217  14.713  1.00  0.00    -0.248 NA
ATOM     59  C   UNL     1      -2.436   5.101  16.619  1.00  0.00     0.031 C 
ATOM     60  C   UNL     1      -3.262  10.109  13.285  1.00  0.00     0.029 A 
ATOM     61  C   UNL     1      -2.773   8.902  13.758  1.00  0.00     0.049 A 
ATOM     62  H   UNL     1      -1.195   7.720  13.003  1.00  0.00     0.167 HD
ATOM     63  C   UNL     1      -2.699   6.955  15.294  1.00  0.00     0.074 A 
ATOM     64  C   UNL     1      -3.149   6.206  16.450  1.00  0.00     0.031 C 
ATOM     65  C   UNL     1      -3.216   8.146  14.905  1.00  0.00     0.037 A 
BRANCH  52  66
ATOM     66  C   UNL     1      -0.540  10.582   9.891  1.00  0.00     0.058 A 
ATOM     67  C   UNL     1      -0.938  10.417   8.555  1.00  0.00     0.135 A 
ATOM     68  C   UNL     1      -0.160  11.871  10.303  1.00  0.00     0.135 A 
ATOM     69  F   UNL     1      -1.300   9.206   8.101  1.00  0.00    -0.206 F 
ATOM     70  C   UNL     1      -0.939  11.481   7.658  1.00  0.00     0.059 A 
ATOM     71  C   UNL     1      -0.181  12.956   9.431  1.00  0.00     0.059 A 
ATOM     72  F   UNL     1       0.227  12.088  11.570  1.00  0.00    -0.206 F 
ATOM     73  C   UNL     1      -0.562  12.748   8.106  1.00  0.00     0.060 A 
BRANCH  73  74
ATOM     74  S   UNL     1      -0.579  14.116   6.928  1.00  0.00     0.124 S 
ATOM     75  O   UNL     1       0.516  13.747   6.037  1.00  0.00    -0.237 OA
ATOM     76  O   UNL     1      -1.919  14.018   6.359  1.00  0.00    -0.237 OA
ATOM     77  O   UNL     1      -0.338  15.290   7.762  1.00  0.00    -0.744 OA
ENDBRANCH  73  74
ENDBRANCH  52  66
BRANCH  53  78
ATOM     78  C   UNL     1      -0.601   2.836  16.216  1.00  0.00     0.058 A 
ATOM     79  C   UNL     1      -1.679   1.940  16.217  1.00  0.00     0.135 A 
ATOM     80  C   UNL     1       0.472   2.569  17.082  1.00  0.00     0.135 A 
ATOM     81  F   UNL     1      -2.732   2.155  15.414  1.00  0.00    -0.206 F 
ATOM     82  C   UNL     1      -1.694   0.821  17.044  1.00  0.00     0.059 A 
ATOM     83  C   UNL     1       0.493   1.441  17.896  1.00  0.00     0.059 A 
ATOM     84  F   UNL     1       1.535   3.388  17.109  1.00  0.00    -0.206 F 
ATOM     85  C   UNL     1      -0.598   0.575  17.873  1.00  0.00     0.060 A 
BRANCH  85  86
ATOM     86  S   UNL     1      -0.603  -0.915  18.892  1.00  0.00     0.124 S 
ATOM     87  O   UNL     1      -1.650  -0.608  19.858  1.00  0.00    -0.237 OA
ATOM     88  O   UNL     1      -0.921  -1.950  17.912  1.00  0.00    -0.237 OA
ATOM     89  O   UNL     1       0.755  -0.964  19.426  1.00  0.00    -0.744 OA
ENDBRANCH  85  86
ENDBRANCH  53  78
BRANCH  65  90
ATOM     90  C   UNL     1      -4.346   8.718  15.717  1.00  0.00     0.058 A 
ATOM     91  C   UNL     1      -4.130   9.272  16.988  1.00  0.00     0.135 A 
ATOM     92  C   UNL     1      -5.641   8.795  15.178  1.00  0.00     0.135 A 
ATOM     93  F   UNL     1      -2.913   9.216  17.552  1.00  0.00    -0.206 F 
ATOM     94  C   UNL     1      -5.161   9.877  17.700  1.00  0.00     0.059 A 
ATOM     95  C   UNL     1      -6.680   9.421  15.860  1.00  0.00     0.059 A 
ATOM     96  F   UNL     1      -5.899   8.287  13.963  1.00  0.00    -0.206 F 
ATOM     97  C   UNL     1      -6.430   9.956  17.123  1.00  0.00     0.060 A 
BRANCH  97  98
ATOM     98  S   UNL     1      -7.739  10.802  18.035  1.00  0.00     0.124 S 
ATOM     99  O   UNL     1      -7.969   9.880  19.143  1.00  0.00    -0.237 OA
ATOM    100  O   UNL     1      -7.103  12.068  18.385  1.00  0.00    -0.237 OA
ATOM    101  O   UNL     1      -8.825  10.898  17.064  1.00  0.00    -0.744 OA
ENDBRANCH  97  98
ENDBRANCH  65  90
ENDBRANCH  39  40
ENDBRANCH  31  34
ENDBRANCH  29  30
ENDBRANCH  28  29
ENDBRANCH  27  28
ENDBRANCH  26  27
ENDBRANCH   1  26
TORSDOF 19
