REMARK SMILES Nc1ccc(C(=O)NCCCCCCNC(=O)c2ccc(-c3c4nc(c(-c5c(F)cc(S(=O)(=O)[O-])cc5F)c5ccc([nH]5)c(-c5c(F)cc(S(=O)(=O)[O-])cc5F)c5nc(c(-c6c(F)cc(S(=O)(=O)[O-])cc6F)c6ccc3[nH]6)C=C5)C=C4)cc2)cc1O[C@@H]1CCOC2(CCC2)C1
REMARK SMILES IDX 12 1 11 2 10 3 9 4 8 5 6 6 7 7 5 9 2 10 3 11 85 12 4 13
REMARK SMILES IDX 84 14 1 15 86 18 87 19 88 20 95 21 89 22 91 23 90 24 92 25
REMARK SMILES IDX 94 26 93 27 13 28 14 29 15 30 16 31 17 33 18 34 19 35 83 36
REMARK SMILES IDX 20 37 82 38 21 39 22 40 23 41 76 42 24 43 81 44 75 45 77 46
REMARK SMILES IDX 25 47 80 48 74 49 73 50 26 52 60 53 39 54 59 55 40 56 43 57
REMARK SMILES IDX 58 58 78 59 41 60 42 61 57 63 79 64 44 65 27 66 28 67 37 68
REMARK SMILES IDX 29 69 30 70 36 71 38 72 31 73 32 74 33 75 34 76 35 77 61 78
REMARK SMILES IDX 62 79 71 80 63 81 64 82 70 83 72 84 65 85 66 86 67 87 68 88
REMARK SMILES IDX 69 89 45 90 46 91 55 92 47 93 48 94 54 95 56 96 49 97 50 98
REMARK SMILES IDX 51 99 52 100 53 101
REMARK H PARENT 8 8 1 16 1 17 15 32 77 51 43 62
REMARK Flexibility Score: inf
ROOT
ATOM      1  C   UNL     1      -6.215   4.483  -0.036  1.00  0.00     0.002 C 
ENDROOT
BRANCH   1   2
ATOM      2  C   UNL     1      -5.676   3.610  -1.177  1.00  0.00     0.002 C 
BRANCH   2   3
ATOM      3  C   UNL     1      -4.172   3.318  -1.094  1.00  0.00     0.021 C 
BRANCH   3   4
ATOM      4  C   UNL     1      -3.757   2.783   0.272  1.00  0.00     0.116 C 
BRANCH   4   5
ATOM      5  N   UNL     1      -4.206   1.420   0.452  1.00  0.00    -0.352 N 
ATOM      6  C   UNL     1      -3.691   0.189   0.164  1.00  0.00     0.251 C 
ATOM      7  O   UNL     1      -4.465  -0.764   0.302  1.00  0.00    -0.269 OA
ATOM      8  H   UNL     1      -5.090   1.368   0.883  1.00  0.00     0.163 HD
BRANCH   6   9
ATOM      9  C   UNL     1      -2.290  -0.087  -0.259  1.00  0.00     0.043 A 
ATOM     10  C   UNL     1       0.389  -0.855  -0.783  1.00  0.00     0.074 A 
ATOM     11  C   UNL     1      -0.678  -1.775  -0.857  1.00  0.00     0.030 A 
ATOM     12  C   UNL     1       0.112   0.489  -0.507  1.00  0.00     0.143 A 
ATOM     13  C   UNL     1      -1.989  -1.406  -0.582  1.00  0.00     0.016 A 
ATOM     14  C   UNL     1      -1.237   0.827  -0.270  1.00  0.00     0.062 A 
BRANCH  10  15
ATOM     15  N   UNL     1       1.640  -1.403  -1.014  1.00  0.00    -0.396 N 
ATOM     16  H   UNL     1       1.729  -2.366  -1.201  1.00  0.00     0.156 HD
ATOM     17  H   UNL     1       2.441  -0.830  -0.991  1.00  0.00     0.156 HD
ENDBRANCH  10  15
BRANCH  12  18
ATOM     18  O   UNL     1       0.841   1.621  -0.364  1.00  0.00    -0.488 OA
BRANCH  18  19
ATOM     19  C   UNL     1       2.175   2.067  -0.174  1.00  0.00     0.178 C 
ATOM     20  C   UNL     1       3.193   1.677  -1.213  1.00  0.00     0.074 C 
ATOM     21  C   UNL     1       2.770   1.936   1.228  1.00  0.00     0.080 C 
ATOM     22  C   UNL     1       3.966   0.432  -0.820  1.00  0.00     0.165 C 
ATOM     23  C   UNL     1       3.006   0.471   1.528  1.00  0.00     0.072 C 
ATOM     24  O   UNL     1       3.471  -0.251   0.347  1.00  0.00    -0.375 OA
ATOM     25  C   UNL     1       3.782   0.038   2.821  1.00  0.00     0.036 C 
ATOM     26  C   UNL     1       1.746  -0.094   2.282  1.00  0.00     0.036 C 
ATOM     27  C   UNL     1       2.684  -1.032   3.032  1.00  0.00     0.006 C 
ENDBRANCH  18  19
ENDBRANCH  12  18
ENDBRANCH   6   9
ENDBRANCH   4   5
ENDBRANCH   3   4
ENDBRANCH   2   3
ENDBRANCH   1   2
BRANCH   1  28
ATOM     28  C   UNL     1      -5.428   5.776   0.203  1.00  0.00     0.021 C 
BRANCH  28  29
ATOM     29  C   UNL     1      -5.383   6.698  -1.007  1.00  0.00     0.116 C 
BRANCH  29  30
ATOM     30  N   UNL     1      -6.720   7.129  -1.384  1.00  0.00    -0.352 N 
ATOM     31  C   UNL     1      -7.221   8.398  -1.441  1.00  0.00     0.251 C 
ATOM     32  H   UNL     1      -7.347   6.411  -1.630  1.00  0.00     0.163 HD
ATOM     33  O   UNL     1      -8.443   8.579  -1.493  1.00  0.00    -0.269 OA
BRANCH  31  34
ATOM     34  C   UNL     1      -6.297   9.547  -1.437  1.00  0.00     0.039 A 
ATOM     35  C   UNL     1      -6.593  10.658  -0.647  1.00  0.00     0.014 A 
ATOM     36  C   UNL     1      -5.139   9.523  -2.223  1.00  0.00     0.014 A 
ATOM     37  C   UNL     1      -5.704  11.732  -0.614  1.00  0.00     0.010 A 
ATOM     38  C   UNL     1      -4.218  10.559  -2.128  1.00  0.00     0.010 A 
ATOM     39  C   UNL     1      -4.498  11.680  -1.333  1.00  0.00    -0.014 A 
BRANCH  39  40
ATOM     40  C   UNL     1      -3.523  12.797  -1.278  1.00  0.00     0.031 A 
ATOM     41  C   UNL     1      -3.203  13.578  -2.524  1.00  0.00     0.074 A 
ATOM     42  C   UNL     1      -2.892  13.071  -0.119  1.00  0.00     0.049 A 
ATOM     43  N   UNL     1      -2.337  14.543  -2.692  1.00  0.00    -0.248 NA
ATOM     44  C   UNL     1      -3.931  13.207  -3.749  1.00  0.00     0.031 C 
ATOM     45  C   UNL     1      -3.088  12.350   1.142  1.00  0.00     0.029 A 
ATOM     46  N   UNL     1      -1.952  14.021   0.187  1.00  0.00    -0.354 N 
ATOM     47  C   UNL     1      -2.411  14.889  -4.036  1.00  0.00     0.074 A 
ATOM     48  C   UNL     1      -3.362  13.992  -4.653  1.00  0.00     0.031 C 
ATOM     49  C   UNL     1      -2.310  12.899   2.088  1.00  0.00     0.029 A 
ATOM     50  C   UNL     1      -1.530  13.981   1.496  1.00  0.00     0.049 A 
ATOM     51  H   UNL     1      -1.611  14.672  -0.469  1.00  0.00     0.167 HD
ATOM     52  C   UNL     1      -1.765  15.883  -4.690  1.00  0.00     0.037 A 
ATOM     53  C   UNL     1      -0.611  14.725   2.141  1.00  0.00     0.037 A 
ATOM     54  C   UNL     1      -0.837  16.787  -4.061  1.00  0.00     0.049 A 
ATOM     55  C   UNL     1       0.102  15.816   1.387  1.00  0.00     0.074 A 
ATOM     56  C   UNL     1      -0.167  17.859  -4.623  1.00  0.00     0.029 A 
ATOM     57  N   UNL     1      -0.449  16.726  -2.730  1.00  0.00    -0.354 N 
ATOM     58  N   UNL     1      -0.026  16.169   0.130  1.00  0.00    -0.248 NA
ATOM     59  C   UNL     1       1.079  16.614   2.139  1.00  0.00     0.031 C 
ATOM     60  C   UNL     1       0.664  18.416  -3.645  1.00  0.00     0.029 A 
ATOM     61  C   UNL     1       0.468  17.727  -2.459  1.00  0.00     0.049 A 
ATOM     62  H   UNL     1      -0.777  16.067  -2.076  1.00  0.00     0.167 HD
ATOM     63  C   UNL     1       0.831  17.249  -0.051  1.00  0.00     0.074 A 
ATOM     64  C   UNL     1       1.460  17.500   1.229  1.00  0.00     0.031 C 
ATOM     65  C   UNL     1       1.076  17.968  -1.174  1.00  0.00     0.037 A 
BRANCH  52  66
ATOM     66  C   UNL     1      -2.044  16.056  -6.158  1.00  0.00     0.058 A 
ATOM     67  C   UNL     1      -3.280  16.535  -6.621  1.00  0.00     0.135 A 
ATOM     68  C   UNL     1      -1.046  15.796  -7.112  1.00  0.00     0.135 A 
ATOM     69  F   UNL     1      -4.277  16.783  -5.756  1.00  0.00    -0.206 F 
ATOM     70  C   UNL     1      -3.524  16.730  -7.977  1.00  0.00     0.059 A 
ATOM     71  C   UNL     1      -1.258  16.012  -8.470  1.00  0.00     0.059 A 
ATOM     72  F   UNL     1       0.154  15.334  -6.725  1.00  0.00    -0.206 F 
ATOM     73  C   UNL     1      -2.505  16.471  -8.894  1.00  0.00     0.060 A 
BRANCH  73  74
ATOM     74  S   UNL     1      -2.830  16.757 -10.646  1.00  0.00     0.124 S 
ATOM     75  O   UNL     1      -3.747  15.664 -10.954  1.00  0.00    -0.237 OA
ATOM     76  O   UNL     1      -3.418  18.093 -10.638  1.00  0.00    -0.237 OA
ATOM     77  O   UNL     1      -1.510  16.659 -11.259  1.00  0.00    -0.744 OA
ENDBRANCH  73  74
ENDBRANCH  52  66
BRANCH  53  78
ATOM     78  C   UNL     1      -0.318  14.472   3.577  1.00  0.00     0.058 A 
ATOM     79  C   UNL     1      -0.666  15.407   4.563  1.00  0.00     0.135 A 
ATOM     80  C   UNL     1       0.323  13.294   3.993  1.00  0.00     0.135 A 
ATOM     81  F   UNL     1      -1.277  16.550   4.217  1.00  0.00    -0.206 F 
ATOM     82  C   UNL     1      -0.364  15.199   5.905  1.00  0.00     0.059 A 
ATOM     83  C   UNL     1       0.609  13.049   5.332  1.00  0.00     0.059 A 
ATOM     84  F   UNL     1       0.660  12.357   3.093  1.00  0.00    -0.206 F 
ATOM     85  C   UNL     1       0.276  14.016   6.279  1.00  0.00     0.060 A 
BRANCH  85  86
ATOM     86  S   UNL     1       0.644  13.745   8.026  1.00  0.00     0.124 S 
ATOM     87  O   UNL     1       1.742  14.678   8.243  1.00  0.00    -0.237 OA
ATOM     88  O   UNL     1      -0.624  14.089   8.663  1.00  0.00    -0.237 OA
ATOM     89  O   UNL     1       0.998  12.329   8.078  1.00  0.00    -0.744 OA
ENDBRANCH  85  86
ENDBRANCH  53  78
BRANCH  65  90
ATOM     90  C   UNL     1       2.037  19.120  -1.063  1.00  0.00     0.058 A 
ATOM     91  C   UNL     1       3.417  18.920  -0.906  1.00  0.00     0.135 A 
ATOM     92  C   UNL     1       1.573  20.442  -1.167  1.00  0.00     0.135 A 
ATOM     93  F   UNL     1       3.911  17.677  -0.794  1.00  0.00    -0.206 F 
ATOM     94  C   UNL     1       4.302  19.991  -0.832  1.00  0.00     0.059 A 
ATOM     95  C   UNL     1       2.443  21.527  -1.127  1.00  0.00     0.059 A 
ATOM     96  F   UNL     1       0.264  20.689  -1.329  1.00  0.00    -0.206 F 
ATOM     97  C   UNL     1       3.805  21.291  -0.947  1.00  0.00     0.060 A 
BRANCH  97  98
ATOM     98  S   UNL     1       4.970  22.669  -0.883  1.00  0.00     0.124 S 
ATOM     99  O   UNL     1       5.327  22.686   0.531  1.00  0.00    -0.237 OA
ATOM    100  O   UNL     1       6.020  22.231  -1.797  1.00  0.00    -0.237 OA
ATOM    101  O   UNL     1       4.178  23.805  -1.345  1.00  0.00    -0.744 OA
ENDBRANCH  97  98
ENDBRANCH  65  90
ENDBRANCH  39  40
ENDBRANCH  31  34
ENDBRANCH  29  30
ENDBRANCH  28  29
ENDBRANCH   1  28
TORSDOF 19
