REMARK SMILES CCC(CC)(NC(=O)NC1CCC(C)(C)CC1)C(=O)NCCCCCCNC(=O)c1ccc(-c2c3nc(c(-c4c(F)cc(S(=O)(=O)[O-])cc4F)c4ccc([nH]4)c(-c4c(F)cc(S(=O)(=O)[O-])cc4F)c4nc(c(-c5c(F)cc(S(=O)(=O)[O-])cc5F)c5ccc2[nH]5)C=C4)C=C3)cc1
REMARK SMILES IDX 24 1 23 2 22 3 21 4 20 5 18 6 19 7 3 9 2 10 1 11 4 12 5 13
REMARK SMILES IDX 6 14 7 15 8 17 9 18 10 20 11 21 17 22 12 23 16 24 13 25
REMARK SMILES IDX 14 26 15 27 25 28 26 29 27 30 28 31 29 33 30 34 31 35 95 36
REMARK SMILES IDX 32 37 94 38 33 39 34 40 35 41 88 42 36 43 93 44 87 45 89 46
REMARK SMILES IDX 37 47 92 48 86 49 85 50 38 52 72 53 51 54 71 55 52 56 55 57
REMARK SMILES IDX 70 58 90 59 53 60 54 61 69 63 91 64 56 65 39 66 40 67 49 68
REMARK SMILES IDX 41 69 42 70 48 71 50 72 43 73 44 74 45 75 46 76 47 77 73 78
REMARK SMILES IDX 74 79 83 80 75 81 76 82 82 83 84 84 77 85 78 86 79 87 80 88
REMARK SMILES IDX 81 89 57 90 58 91 67 92 59 93 60 94 66 95 68 96 61 97 62 98
REMARK SMILES IDX 63 99 64 100 65 101
REMARK H PARENT 20 8 6 16 9 19 27 32 89 51 55 62
REMARK Flexibility Score: inf
ROOT
ATOM      1  C   UNL     1       4.454  -3.014   6.262  1.00  0.00     0.002 C 
ENDROOT
BRANCH   1   2
ATOM      2  C   UNL     1       3.709  -4.037   5.407  1.00  0.00     0.002 C 
BRANCH   2   3
ATOM      3  C   UNL     1       2.181  -3.982   5.346  1.00  0.00     0.021 C 
BRANCH   3   4
ATOM      4  C   UNL     1       1.442  -2.665   5.064  1.00  0.00     0.116 C 
BRANCH   4   5
ATOM      5  N   UNL     1       1.901  -1.805   3.978  1.00  0.00    -0.354 N 
ATOM      6  C   UNL     1       1.323  -1.315   2.820  1.00  0.00     0.245 C 
ATOM      7  O   UNL     1       1.586  -0.179   2.427  1.00  0.00    -0.272 OA
ATOM      8  H   UNL     1       2.832  -1.506   4.096  1.00  0.00     0.163 HD
BRANCH   6   9
ATOM      9  C   UNL     1       0.258  -2.080   2.082  1.00  0.00     0.120 C 
BRANCH   9  10
ATOM     10  C   UNL     1      -0.018  -1.789   0.581  1.00  0.00     0.035 C 
ATOM     11  C   UNL     1      -0.004  -0.348   0.096  1.00  0.00     0.007 C 
ENDBRANCH   9  10
BRANCH   9  12
ATOM     12  C   UNL     1      -0.987  -1.762   2.998  1.00  0.00     0.035 C 
ATOM     13  C   UNL     1      -2.375  -1.515   2.419  1.00  0.00     0.007 C 
ENDBRANCH   9  12
BRANCH   9  14
ATOM     14  N   UNL     1       0.903  -3.398   2.143  1.00  0.00    -0.324 N 
ATOM     15  C   UNL     1       2.148  -3.782   1.782  1.00  0.00     0.315 C 
ATOM     16  H   UNL     1       0.337  -4.119   2.503  1.00  0.00     0.166 HD
ATOM     17  O   UNL     1       2.277  -4.998   1.574  1.00  0.00    -0.249 OA
ATOM     18  N   UNL     1       3.283  -3.073   1.652  1.00  0.00    -0.335 N 
ATOM     19  H   UNL     1       3.908  -3.747   1.300  1.00  0.00     0.165 HD
BRANCH  18  20
ATOM     20  C   UNL     1       4.177  -1.811   1.734  1.00  0.00     0.083 C 
ATOM     21  C   UNL     1       3.928  -0.508   0.970  1.00  0.00     0.025 C 
ATOM     22  C   UNL     1       5.077  -1.570   2.962  1.00  0.00     0.025 C 
ATOM     23  C   UNL     1       3.938   0.852   1.732  1.00  0.00     0.008 C 
ATOM     24  C   UNL     1       4.848  -0.344   3.856  1.00  0.00     0.008 C 
ATOM     25  C   UNL     1       4.257   0.940   3.255  1.00  0.00    -0.035 C 
ATOM     26  C   UNL     1       3.042   1.425   4.119  1.00  0.00     0.011 C 
ATOM     27  C   UNL     1       5.279   2.083   3.485  1.00  0.00     0.011 C 
ENDBRANCH  18  20
ENDBRANCH   9  14
ENDBRANCH   6   9
ENDBRANCH   4   5
ENDBRANCH   3   4
ENDBRANCH   2   3
ENDBRANCH   1   2
BRANCH   1  28
ATOM     28  C   UNL     1       4.045  -2.871   7.716  1.00  0.00     0.021 C 
BRANCH  28  29
ATOM     29  C   UNL     1       4.342  -4.091   8.559  1.00  0.00     0.116 C 
BRANCH  29  30
ATOM     30  N   UNL     1       5.769  -4.324   8.745  1.00  0.00    -0.352 N 
ATOM     31  C   UNL     1       6.414  -4.717   9.897  1.00  0.00     0.251 C 
ATOM     32  H   UNL     1       6.338  -4.184   7.955  1.00  0.00     0.163 HD
ATOM     33  O   UNL     1       7.638  -4.757   9.951  1.00  0.00    -0.269 OA
BRANCH  31  34
ATOM     34  C   UNL     1       5.593  -5.049  11.080  1.00  0.00     0.039 A 
ATOM     35  C   UNL     1       5.889  -4.456  12.308  1.00  0.00     0.014 A 
ATOM     36  C   UNL     1       4.470  -5.867  10.937  1.00  0.00     0.014 A 
ATOM     37  C   UNL     1       5.010  -4.628  13.379  1.00  0.00     0.010 A 
ATOM     38  C   UNL     1       3.545  -5.946  11.967  1.00  0.00     0.010 A 
ATOM     39  C   UNL     1       3.812  -5.341  13.203  1.00  0.00    -0.014 A 
BRANCH  39  40
ATOM     40  C   UNL     1       2.832  -5.497  14.305  1.00  0.00     0.031 A 
ATOM     41  C   UNL     1       2.501  -6.877  14.809  1.00  0.00     0.074 A 
ATOM     42  C   UNL     1       2.189  -4.417  14.792  1.00  0.00     0.049 A 
ATOM     43  N   UNL     1       1.619  -7.240  15.703  1.00  0.00    -0.248 NA
ATOM     44  C   UNL     1       3.229  -8.001  14.196  1.00  0.00     0.031 C 
ATOM     45  C   UNL     1       2.377  -3.039  14.332  1.00  0.00     0.029 A 
ATOM     46  N   UNL     1       1.240  -4.309  15.777  1.00  0.00    -0.354 N 
ATOM     47  C   UNL     1       1.671  -8.628  15.740  1.00  0.00     0.074 A 
ATOM     48  C   UNL     1       2.622  -9.046  14.736  1.00  0.00     0.031 C 
ATOM     49  C   UNL     1       1.591  -2.223  15.053  1.00  0.00     0.029 A 
ATOM     50  C   UNL     1       0.819  -3.020  16.001  1.00  0.00     0.049 A 
ATOM     51  H   UNL     1       0.892  -5.083  16.276  1.00  0.00     0.167 HD
ATOM     52  C   UNL     1       1.009  -9.477  16.560  1.00  0.00     0.037 A 
ATOM     53  C   UNL     1      -0.087  -2.537  16.873  1.00  0.00     0.037 A 
ATOM     54  C   UNL     1       0.101  -9.045  17.588  1.00  0.00     0.049 A 
ATOM     55  C   UNL     1      -0.782  -3.495  17.802  1.00  0.00     0.074 A 
ATOM     56  C   UNL     1      -0.564  -9.814  18.527  1.00  0.00     0.029 A 
ATOM     57  N   UNL     1      -0.266  -7.726  17.815  1.00  0.00    -0.354 N 
ATOM     58  N   UNL     1      -0.667  -4.801  17.875  1.00  0.00    -0.248 NA
ATOM     59  C   UNL     1      -1.720  -2.918  18.774  1.00  0.00     0.031 C 
ATOM     60  C   UNL     1      -1.365  -8.963  19.295  1.00  0.00     0.029 A 
ATOM     61  C   UNL     1      -1.161  -7.660  18.868  1.00  0.00     0.049 A 
ATOM     62  H   UNL     1       0.063  -6.952  17.303  1.00  0.00     0.167 HD
ATOM     63  C   UNL     1      -1.498  -5.199  18.916  1.00  0.00     0.074 A 
ATOM     64  C   UNL     1      -2.099  -3.994  19.451  1.00  0.00     0.031 C 
ATOM     65  C   UNL     1      -1.742  -6.447  19.388  1.00  0.00     0.037 A 
BRANCH  52  66
ATOM     66  C   UNL     1       1.254 -10.951  16.385  1.00  0.00     0.058 A 
ATOM     67  C   UNL     1       2.485 -11.540  16.718  1.00  0.00     0.135 A 
ATOM     68  C   UNL     1       0.237 -11.790  15.903  1.00  0.00     0.135 A 
ATOM     69  F   UNL     1       3.499 -10.781  17.165  1.00  0.00    -0.206 F 
ATOM     70  C   UNL     1       2.709 -12.902  16.552  1.00  0.00     0.059 A 
ATOM     71  C   UNL     1       0.429 -13.161  15.757  1.00  0.00     0.059 A 
ATOM     72  F   UNL     1      -0.957 -11.280  15.565  1.00  0.00    -0.206 F 
ATOM     73  C   UNL     1       1.674 -13.705  16.071  1.00  0.00     0.060 A 
BRANCH  73  74
ATOM     74  S   UNL     1       1.977 -15.474  15.875  1.00  0.00     0.124 S 
ATOM     75  O   UNL     1       2.839 -15.492  14.697  1.00  0.00    -0.237 OA
ATOM     76  O   UNL     1       2.621 -15.822  17.137  1.00  0.00    -0.237 OA
ATOM     77  O   UNL     1       0.641 -16.028  15.683  1.00  0.00    -0.744 OA
ENDBRANCH  73  74
ENDBRANCH  52  66
BRANCH  53  78
ATOM     78  C   UNL     1      -0.358  -1.075  16.931  1.00  0.00     0.058 A 
ATOM     79  C   UNL     1       0.078  -0.304  18.019  1.00  0.00     0.135 A 
ATOM     80  C   UNL     1      -1.031  -0.415  15.892  1.00  0.00     0.135 A 
ATOM     81  F   UNL     1       0.722  -0.889  19.041  1.00  0.00    -0.206 F 
ATOM     82  C   UNL     1      -0.155   1.066  18.083  1.00  0.00     0.059 A 
ATOM     83  C   UNL     1      -1.255   0.958  15.921  1.00  0.00     0.059 A 
ATOM     84  F   UNL     1      -1.452  -1.104  14.819  1.00  0.00    -0.206 F 
ATOM     85  C   UNL     1      -0.820   1.690  17.025  1.00  0.00     0.060 A 
BRANCH  85  86
ATOM     86  S   UNL     1      -1.066   3.478  17.090  1.00  0.00     0.124 S 
ATOM     87  O   UNL     1      -2.111   3.594  18.101  1.00  0.00    -0.237 OA
ATOM     88  O   UNL     1       0.257   3.955  17.481  1.00  0.00    -0.237 OA
ATOM     89  O   UNL     1      -1.466   3.811  15.726  1.00  0.00    -0.744 OA
ENDBRANCH  85  86
ENDBRANCH  53  78
BRANCH  65  90
ATOM     90  C   UNL     1      -2.674  -6.572  20.560  1.00  0.00     0.058 A 
ATOM     91  C   UNL     1      -4.058  -6.390  20.424  1.00  0.00     0.135 A 
ATOM     92  C   UNL     1      -2.178  -6.938  21.822  1.00  0.00     0.135 A 
ATOM     93  F   UNL     1      -4.580  -6.035  19.239  1.00  0.00    -0.206 F 
ATOM     94  C   UNL     1      -4.918  -6.542  21.506  1.00  0.00     0.059 A 
ATOM     95  C   UNL     1      -3.023  -7.123  22.911  1.00  0.00     0.059 A 
ATOM     96  F   UNL     1      -0.863  -7.137  22.001  1.00  0.00    -0.206 F 
ATOM     97  C   UNL     1      -4.391  -6.910  22.746  1.00  0.00     0.060 A 
BRANCH  97  98
ATOM     98  S   UNL     1      -5.522  -7.136  24.134  1.00  0.00     0.124 S 
ATOM     99  O   UNL     1      -5.856  -5.755  24.467  1.00  0.00    -0.237 OA
ATOM    100  O   UNL     1      -6.597  -7.922  23.537  1.00  0.00    -0.237 OA
ATOM    101  O   UNL     1      -4.711  -7.842  25.121  1.00  0.00    -0.744 OA
ENDBRANCH  97  98
ENDBRANCH  65  90
ENDBRANCH  39  40
ENDBRANCH  31  34
ENDBRANCH  29  30
ENDBRANCH  28  29
ENDBRANCH   1  28
TORSDOF 20
