REMARK SMILES COc1ccc([C@@H](CC(=O)NCCCCCCNC(=O)c2ccc(-c3c4nc(c(-c5c(F)cc(S(=O)(=O)[O-])cc5F)c5ccc([nH]5)c(-c5c(F)cc(S(=O)(=O)[O-])cc5F)c5nc(c(-c6c(F)cc(S(=O)(=O)[O-])cc6F)c6ccc3[nH]6)C=C5)C=C4)cc2)NC(=O)c2ccc(Cl)c([N+](=O)[O-])c2)cc1
REMARK SMILES IDX 14 1 13 2 12 3 11 4 9 5 10 6 8 8 7 9 6 10 3 11 4 12 101 13
REMARK SMILES IDX 5 14 100 15 2 16 1 17 87 18 88 19 89 21 90 22 91 23 99 24
REMARK SMILES IDX 92 25 95 26 93 27 94 28 96 29 97 30 98 31 15 32 16 33 17 34
REMARK SMILES IDX 18 35 19 36 20 38 21 39 22 40 86 41 23 42 85 43 24 44 25 45
REMARK SMILES IDX 26 46 79 47 27 48 84 49 78 50 80 51 28 52 83 53 77 54 76 55
REMARK SMILES IDX 29 57 63 58 42 59 62 60 43 61 46 62 61 63 81 64 44 65 45 66
REMARK SMILES IDX 60 68 82 69 47 70 30 71 31 72 40 73 32 74 33 75 39 76 41 77
REMARK SMILES IDX 34 78 35 79 36 80 37 81 38 82 64 83 65 84 74 85 66 86 67 87
REMARK SMILES IDX 73 88 75 89 68 90 69 91 70 92 71 93 72 94 48 95 49 96 58 97
REMARK SMILES IDX 50 98 51 99 57 100 59 101 52 102 53 103 54 104 55 105 56 106
REMARK H PARENT 11 7 87 20 18 37 80 56 46 67
REMARK Flexibility Score: inf
ROOT
ATOM      1  C   UNL     1      -2.222  -2.059   3.933  1.00  0.00     0.002 C 
ENDROOT
BRANCH   1   2
ATOM      2  C   UNL     1      -0.913  -2.764   3.583  1.00  0.00     0.021 C 
BRANCH   2   3
ATOM      3  C   UNL     1      -0.084  -3.226   4.780  1.00  0.00     0.116 C 
BRANCH   3   4
ATOM      4  N   UNL     1      -0.389  -4.614   5.077  1.00  0.00    -0.356 N 
ATOM      5  C   UNL     1       0.284  -5.739   4.713  1.00  0.00     0.222 C 
ATOM      6  O   UNL     1      -0.309  -6.819   4.780  1.00  0.00    -0.275 OA
ATOM      7  H   UNL     1      -1.198  -4.763   5.619  1.00  0.00     0.163 HD
BRANCH   5   8
ATOM      8  C   UNL     1       1.736  -5.681   4.289  1.00  0.00     0.129 C 
BRANCH   8   9
ATOM      9  C   UNL     1       1.987  -5.895   2.787  1.00  0.00     0.122 C 
BRANCH   9  10
ATOM     10  C   UNL     1       1.726  -4.657   1.940  1.00  0.00    -0.025 A 
ATOM     11  C   UNL     1       1.218  -2.235   0.589  1.00  0.00     0.118 A 
ATOM     12  C   UNL     1       0.366  -3.326   0.425  1.00  0.00     0.047 A 
ATOM     13  C   UNL     1       2.350  -2.356   1.389  1.00  0.00     0.047 A 
ATOM     14  C   UNL     1       0.621  -4.534   1.086  1.00  0.00     0.010 A 
ATOM     15  C   UNL     1       2.608  -3.563   2.047  1.00  0.00     0.010 A 
BRANCH  11  16
ATOM     16  O   UNL     1       0.786  -1.039   0.089  1.00  0.00    -0.497 OA
ATOM     17  C   UNL     1       1.740  -0.348  -0.714  1.00  0.00     0.278 C 
ENDBRANCH  11  16
ENDBRANCH   9  10
BRANCH   9  18
ATOM     18  N   UNL     1       1.329  -7.100   2.275  1.00  0.00    -0.345 N 
ATOM     19  C   UNL     1       1.822  -8.086   1.462  1.00  0.00     0.252 C 
ATOM     20  H   UNL     1       0.393  -7.218   2.558  1.00  0.00     0.164 HD
ATOM     21  O   UNL     1       1.084  -8.897   0.915  1.00  0.00    -0.269 OA
BRANCH  19  22
ATOM     22  C   UNL     1       3.279  -8.188   1.254  1.00  0.00     0.046 A 
ATOM     23  C   UNL     1       3.791  -8.198  -0.045  1.00  0.00     0.016 A 
ATOM     24  C   UNL     1       4.134  -8.285   2.353  1.00  0.00     0.101 A 
ATOM     25  C   UNL     1       5.176  -8.229  -0.244  1.00  0.00     0.028 A 
ATOM     26  C   UNL     1       5.517  -8.290   2.139  1.00  0.00     0.288 A 
ATOM     27  C   UNL     1       6.053  -8.251   0.850  1.00  0.00     0.118 A 
ATOM     28  Cl  UNL     1       7.742  -8.170   0.512  1.00  0.00    -0.077 Cl
BRANCH  26  29
ATOM     29  N   UNL     1       6.364  -8.272   3.315  1.00  0.00     0.064 N 
ATOM     30  O   UNL     1       7.249  -9.131   3.405  1.00  0.00    -0.258 OA
ATOM     31  O   UNL     1       6.088  -7.429   4.182  1.00  0.00    -0.258 OA
ENDBRANCH  26  29
ENDBRANCH  19  22
ENDBRANCH   9  18
ENDBRANCH   8   9
ENDBRANCH   5   8
ENDBRANCH   3   4
ENDBRANCH   2   3
ENDBRANCH   1   2
BRANCH   1  32
ATOM     32  C   UNL     1      -2.061  -0.638   4.483  1.00  0.00     0.002 C 
BRANCH  32  33
ATOM     33  C   UNL     1      -1.183   0.308   3.653  1.00  0.00     0.021 C 
BRANCH  33  34
ATOM     34  C   UNL     1      -1.556   0.430   2.175  1.00  0.00     0.116 C 
BRANCH  34  35
ATOM     35  N   UNL     1      -2.858   1.049   1.989  1.00  0.00    -0.352 N 
ATOM     36  C   UNL     1      -3.184   2.267   1.445  1.00  0.00     0.251 C 
ATOM     37  H   UNL     1      -3.623   0.513   2.300  1.00  0.00     0.163 HD
ATOM     38  O   UNL     1      -4.330   2.695   1.556  1.00  0.00    -0.269 OA
BRANCH  36  39
ATOM     39  C   UNL     1      -2.162   3.077   0.743  1.00  0.00     0.039 A 
ATOM     40  C   UNL     1      -2.076   4.444   1.025  1.00  0.00     0.014 A 
ATOM     41  C   UNL     1      -1.322   2.511  -0.219  1.00  0.00     0.014 A 
ATOM     42  C   UNL     1      -1.110   5.230   0.388  1.00  0.00     0.010 A 
ATOM     43  C   UNL     1      -0.325   3.285  -0.815  1.00  0.00     0.010 A 
ATOM     44  C   UNL     1      -0.206   4.652  -0.517  1.00  0.00    -0.014 A 
BRANCH  44  45
ATOM     45  C   UNL     1       0.867   5.456  -1.162  1.00  0.00     0.031 A 
ATOM     46  C   UNL     1       0.866   5.664  -2.653  1.00  0.00     0.074 A 
ATOM     47  C   UNL     1       1.880   5.944  -0.418  1.00  0.00     0.049 A 
ATOM     48  N   UNL     1       1.765   6.244  -3.407  1.00  0.00    -0.248 NA
ATOM     49  C   UNL     1      -0.284   5.127  -3.397  1.00  0.00     0.031 C 
ATOM     50  C   UNL     1       2.020   5.784   1.031  1.00  0.00     0.029 A 
ATOM     51  N   UNL     1       2.993   6.662  -0.780  1.00  0.00    -0.354 N 
ATOM     52  C   UNL     1       1.302   6.125  -4.712  1.00  0.00     0.074 A 
ATOM     53  C   UNL     1       0.061   5.382  -4.651  1.00  0.00     0.031 C 
ATOM     54  C   UNL     1       3.146   6.395   1.435  1.00  0.00     0.029 A 
ATOM     55  C   UNL     1       3.827   6.959   0.273  1.00  0.00     0.049 A 
ATOM     56  H   UNL     1       3.177   6.939  -1.707  1.00  0.00     0.167 HD
ATOM     57  C   UNL     1       1.849   6.606  -5.854  1.00  0.00     0.037 A 
ATOM     58  C   UNL     1       5.011   7.603   0.301  1.00  0.00     0.037 A 
ATOM     59  C   UNL     1       3.063   7.378  -5.910  1.00  0.00     0.049 A 
ATOM     60  C   UNL     1       5.594   8.138  -0.980  1.00  0.00     0.074 A 
ATOM     61  C   UNL     1       3.666   7.953  -7.016  1.00  0.00     0.029 A 
ATOM     62  N   UNL     1       3.857   7.688  -4.816  1.00  0.00    -0.354 N 
ATOM     63  N   UNL     1       5.117   8.054  -2.199  1.00  0.00    -0.248 NA
ATOM     64  C   UNL     1       6.871   8.858  -0.882  1.00  0.00     0.031 C 
ATOM     65  C   UNL     1       4.842   8.584  -6.595  1.00  0.00     0.029 A 
ATOM     66  C   UNL     1       4.950   8.436  -5.222  1.00  0.00     0.049 A 
ATOM     67  H   UNL     1       3.672   7.416  -3.889  1.00  0.00     0.167 HD
ATOM     68  C   UNL     1       6.019   8.738  -3.007  1.00  0.00     0.074 A 
ATOM     69  C   UNL     1       7.068   9.231  -2.140  1.00  0.00     0.031 C 
ATOM     70  C   UNL     1       5.978   8.939  -4.346  1.00  0.00     0.037 A 
BRANCH  57  71
ATOM     71  C   UNL     1       1.135   6.317  -7.145  1.00  0.00     0.058 A 
ATOM     72  C   UNL     1      -0.073   6.952  -7.476  1.00  0.00     0.135 A 
ATOM     73  C   UNL     1       1.684   5.426  -8.081  1.00  0.00     0.135 A 
ATOM     74  F   UNL     1      -0.648   7.803  -6.611  1.00  0.00    -0.206 F 
ATOM     75  C   UNL     1      -0.726   6.692  -8.676  1.00  0.00     0.059 A 
ATOM     76  C   UNL     1       1.062   5.170  -9.299  1.00  0.00     0.059 A 
ATOM     77  F   UNL     1       2.838   4.793  -7.815  1.00  0.00    -0.206 F 
ATOM     78  C   UNL     1      -0.151   5.798  -9.581  1.00  0.00     0.060 A 
BRANCH  78  79
ATOM     79  S   UNL     1      -1.009   5.471 -11.135  1.00  0.00     0.124 S 
ATOM     80  O   UNL     1      -2.098   4.607 -10.689  1.00  0.00    -0.237 OA
ATOM     81  O   UNL     1      -1.398   6.810 -11.566  1.00  0.00    -0.237 OA
ATOM     82  O   UNL     1       0.010   4.824 -11.956  1.00  0.00    -0.744 OA
ENDBRANCH  78  79
ENDBRANCH  57  71
BRANCH  58  83
ATOM     83  C   UNL     1       5.723   7.792   1.592  1.00  0.00     0.058 A 
ATOM     84  C   UNL     1       5.803   9.058   2.192  1.00  0.00     0.135 A 
ATOM     85  C   UNL     1       6.330   6.714   2.255  1.00  0.00     0.135 A 
ATOM     86  F   UNL     1       5.243  10.120   1.592  1.00  0.00    -0.206 F 
ATOM     87  C   UNL     1       6.475   9.254   3.393  1.00  0.00     0.059 A 
ATOM     88  C   UNL     1       6.988   6.881   3.469  1.00  0.00     0.059 A 
ATOM     89  F   UNL     1       6.266   5.480   1.730  1.00  0.00    -0.206 F 
ATOM     90  C   UNL     1       7.064   8.157   4.025  1.00  0.00     0.060 A 
BRANCH  90  91
ATOM     91  S   UNL     1       7.897   8.411   5.608  1.00  0.00     0.124 S 
ATOM     92  O   UNL     1       9.141   9.043   5.186  1.00  0.00    -0.237 OA
ATOM     93  O   UNL     1       6.953   9.267   6.319  1.00  0.00    -0.237 OA
ATOM     94  O   UNL     1       8.023   7.056   6.138  1.00  0.00    -0.744 OA
ENDBRANCH  90  91
ENDBRANCH  58  83
BRANCH  70  95
ATOM     95  C   UNL     1       7.072   9.766  -4.962  1.00  0.00     0.058 A 
ATOM     96  C   UNL     1       8.362   9.251  -5.161  1.00  0.00     0.135 A 
ATOM     97  C   UNL     1       6.804  11.065  -5.423  1.00  0.00     0.135 A 
ATOM     98  F   UNL     1       8.671   8.017  -4.731  1.00  0.00    -0.206 F 
ATOM     99  C   UNL     1       9.352  10.000  -5.789  1.00  0.00     0.059 A 
ATOM    100  C   UNL     1       7.772  11.822  -6.074  1.00  0.00     0.059 A 
ATOM    101  F   UNL     1       5.583  11.600  -5.264  1.00  0.00    -0.206 F 
ATOM    102  C   UNL     1       9.046  11.284  -6.246  1.00  0.00     0.060 A 
BRANCH 102 103
ATOM    103  S   UNL     1      10.324  12.225  -7.109  1.00  0.00     0.124 S 
ATOM    104  O   UNL     1      11.177  12.645  -6.002  1.00  0.00    -0.237 OA
ATOM    105  O   UNL     1      10.896  11.226  -8.007  1.00  0.00    -0.237 OA
ATOM    106  O   UNL     1       9.574  13.291  -7.764  1.00  0.00    -0.744 OA
ENDBRANCH 102 103
ENDBRANCH  70  95
ENDBRANCH  44  45
ENDBRANCH  36  39
ENDBRANCH  34  35
ENDBRANCH  33  34
ENDBRANCH  32  33
ENDBRANCH   1  32
TORSDOF 22
