REMARK SMILES Cc1c(C(=O)NCCCCCCNC(=O)c2ccc(-c3c4nc(c(-c5c(F)cc(S(=O)(=O)[O-])cc5F)c5ccc([nH]5)c(-c5c(F)cc(S(=O)(=O)[O-])cc5F)c5nc(c(-c6c(F)cc(S(=O)(=O)[O-])cc6F)c6ccc3[nH]6)C=C5)C=C4)cc2)sc2c1=C(CSc1nncn1-c1ccccc1)CC(=O)N=2
REMARK SMILES IDX 9 1 8 2 7 3 6 4 4 5 5 6 3 8 1 9 2 10 84 11 82 12 83 13 85 14
REMARK SMILES IDX 102 15 99 16 100 17 101 18 86 19 87 20 88 21 89 22 92 23
REMARK SMILES IDX 90 24 91 25 93 26 94 27 98 28 95 29 97 30 96 31 10 32 11 33
REMARK SMILES IDX 12 34 13 35 14 36 15 38 16 39 17 40 81 41 18 42 80 43 19 44
REMARK SMILES IDX 20 45 21 46 74 47 22 48 79 49 73 50 75 51 23 52 78 53 72 54
REMARK SMILES IDX 71 55 24 57 58 58 37 59 57 60 38 61 41 62 56 63 76 64 39 65
REMARK SMILES IDX 40 66 55 68 77 69 42 70 25 71 26 72 35 73 27 74 28 75 34 76
REMARK SMILES IDX 36 77 29 78 30 79 31 80 32 81 33 82 59 83 60 84 69 85 61 86
REMARK SMILES IDX 62 87 68 88 70 89 63 90 64 91 65 92 66 93 67 94 43 95 44 96
REMARK SMILES IDX 53 97 45 98 46 99 52 100 54 101 47 102 48 103 49 104 50 105
REMARK SMILES IDX 51 106
REMARK H PARENT 6 7 13 37 75 56 41 67
REMARK Flexibility Score: inf
ROOT
ATOM      1  C   UNL     1       4.852  -0.396   3.634  1.00  0.00     0.002 C 
ENDROOT
BRANCH   1   2
ATOM      2  C   UNL     1       3.563  -1.006   3.064  1.00  0.00     0.021 C 
BRANCH   2   3
ATOM      3  C   UNL     1       3.689  -1.903   1.803  1.00  0.00     0.116 C 
BRANCH   3   4
ATOM      4  N   UNL     1       2.593  -2.901   1.705  1.00  0.00    -0.351 N 
ATOM      5  C   UNL     1       1.609  -3.499   0.993  1.00  0.00     0.261 C 
ATOM      6  O   UNL     1       1.254  -4.537   1.585  1.00  0.00    -0.268 OA
ATOM      7  H   UNL     1       2.572  -3.341   2.586  1.00  0.00     0.163 HD
BRANCH   5   8
ATOM      8  C   UNL     1       0.925  -3.227  -0.358  1.00  0.00     0.098 A 
ATOM      9  C   UNL     1      -0.456  -1.067  -0.218  1.00  0.00     0.047 C 
ATOM     10  C   UNL     1       0.177  -2.230  -0.912  1.00  0.00    -0.018 A 
ATOM     11  C   UNL     1      -0.662  -2.644  -2.042  1.00  0.00     0.016 A 
ATOM     12  S   UNL     1       0.345  -4.807  -1.115  1.00  0.00    -0.110 S 
ATOM     13  C   UNL     1      -1.046  -4.052  -1.877  1.00  0.00     0.128 A 
ATOM     14  C   UNL     1      -1.385  -1.958  -2.948  1.00  0.00    -0.040 C 
ATOM     15  N   UNL     1      -2.131  -4.644  -2.222  1.00  0.00    -0.202 NA
ATOM     16  C   UNL     1      -2.849  -2.365  -2.994  1.00  0.00     0.135 C 
ATOM     17  C   UNL     1      -3.104  -3.863  -2.819  1.00  0.00     0.251 C 
ATOM     18  O   UNL     1      -4.186  -4.323  -3.177  1.00  0.00    -0.272 OA
BRANCH  14  19
ATOM     19  C   UNL     1      -1.088  -0.746  -3.804  1.00  0.00     0.110 C 
BRANCH  19  20
ATOM     20  S   UNL     1       0.618  -0.173  -3.820  1.00  0.00    -0.081 SA
BRANCH  20  21
ATOM     21  C   UNL     1       0.385   1.560  -3.818  1.00  0.00     0.195 A 
ATOM     22  N   UNL     1      -0.269   2.222  -4.746  1.00  0.00    -0.123 NA
ATOM     23  N   UNL     1       0.672   2.408  -2.757  1.00  0.00    -0.277 N 
ATOM     24  N   UNL     1      -0.454   3.509  -4.292  1.00  0.00    -0.138 NA
ATOM     25  C   UNL     1       0.074   3.592  -3.092  1.00  0.00     0.231 A 
BRANCH  23  26
ATOM     26  C   UNL     1       1.272   2.093  -1.524  1.00  0.00     0.049 A 
ATOM     27  C   UNL     1       2.271   1.126  -1.518  1.00  0.00     0.027 A 
ATOM     28  C   UNL     1       0.660   2.524  -0.335  1.00  0.00     0.027 A 
ATOM     29  C   UNL     1       2.434   0.374  -0.382  1.00  0.00     0.002 A 
ATOM     30  C   UNL     1       0.898   1.812   0.832  1.00  0.00     0.002 A 
ATOM     31  C   UNL     1       1.720   0.695   0.771  1.00  0.00     0.000 A 
ENDBRANCH  23  26
ENDBRANCH  20  21
ENDBRANCH  19  20
ENDBRANCH  14  19
ENDBRANCH   5   8
ENDBRANCH   3   4
ENDBRANCH   2   3
ENDBRANCH   1   2
BRANCH   1  32
ATOM     32  C   UNL     1       5.744   0.418   2.687  1.00  0.00     0.002 C 
BRANCH  32  33
ATOM     33  C   UNL     1       5.204   1.746   2.136  1.00  0.00     0.021 C 
BRANCH  33  34
ATOM     34  C   UNL     1       4.849   2.803   3.176  1.00  0.00     0.116 C 
BRANCH  34  35
ATOM     35  N   UNL     1       5.978   3.182   4.022  1.00  0.00    -0.352 N 
ATOM     36  C   UNL     1       6.025   4.089   5.069  1.00  0.00     0.251 C 
ATOM     37  H   UNL     1       6.827   2.727   3.820  1.00  0.00     0.163 HD
ATOM     38  O   UNL     1       7.092   4.534   5.447  1.00  0.00    -0.269 OA
BRANCH  36  39
ATOM     39  C   UNL     1       4.764   4.514   5.715  1.00  0.00     0.039 A 
ATOM     40  C   UNL     1       4.597   5.828   6.165  1.00  0.00     0.014 A 
ATOM     41  C   UNL     1       3.744   3.581   5.873  1.00  0.00     0.014 A 
ATOM     42  C   UNL     1       3.365   6.208   6.695  1.00  0.00     0.010 A 
ATOM     43  C   UNL     1       2.490   3.989   6.252  1.00  0.00     0.010 A 
ATOM     44  C   UNL     1       2.306   5.287   6.712  1.00  0.00    -0.014 A 
BRANCH  44  45
ATOM     45  C   UNL     1       0.956   5.709   7.073  1.00  0.00     0.031 A 
ATOM     46  C   UNL     1       0.452   6.856   6.270  1.00  0.00     0.074 A 
ATOM     47  C   UNL     1       0.148   4.993   7.887  1.00  0.00     0.049 A 
ATOM     48  N   UNL     1       0.244   8.065   6.672  1.00  0.00    -0.248 NA
ATOM     49  C   UNL     1       0.335   6.690   4.811  1.00  0.00     0.031 C 
ATOM     50  C   UNL     1       0.411   3.686   8.499  1.00  0.00     0.029 A 
ATOM     51  N   UNL     1      -1.140   5.234   8.255  1.00  0.00    -0.354 N 
ATOM     52  C   UNL     1      -0.286   8.741   5.577  1.00  0.00     0.074 A 
ATOM     53  C   UNL     1       0.011   7.928   4.428  1.00  0.00     0.031 C 
ATOM     54  C   UNL     1      -0.746   3.152   8.948  1.00  0.00     0.029 A 
ATOM     55  C   UNL     1      -1.800   4.140   8.810  1.00  0.00     0.049 A 
ATOM     56  H   UNL     1      -1.571   6.112   8.138  1.00  0.00     0.167 HD
ATOM     57  C   UNL     1      -1.168   9.765   5.751  1.00  0.00     0.037 A 
ATOM     58  C   UNL     1      -3.122   4.046   9.111  1.00  0.00     0.037 A 
ATOM     59  C   UNL     1      -1.141  10.236   7.116  1.00  0.00     0.049 A 
ATOM     60  C   UNL     1      -3.630   5.437   9.232  1.00  0.00     0.074 A 
ATOM     61  C   UNL     1      -0.162  10.734   7.955  1.00  0.00     0.029 A 
ATOM     62  N   UNL     1      -2.177   9.854   7.936  1.00  0.00    -0.354 N 
ATOM     63  N   UNL     1      -3.257   6.266  10.168  1.00  0.00    -0.248 NA
ATOM     64  C   UNL     1      -4.201   6.057   8.046  1.00  0.00     0.031 C 
ATOM     65  C   UNL     1      -0.456  10.179   9.236  1.00  0.00     0.029 A 
ATOM     66  C   UNL     1      -1.639   9.446   9.129  1.00  0.00     0.049 A 
ATOM     67  H   UNL     1      -3.134   9.870   7.706  1.00  0.00     0.167 HD
ATOM     68  C   UNL     1      -3.121   7.486   9.525  1.00  0.00     0.074 A 
ATOM     69  C   UNL     1      -3.811   7.319   8.247  1.00  0.00     0.031 C 
ATOM     70  C   UNL     1      -2.218   8.414   9.962  1.00  0.00     0.037 A 
BRANCH  57  71
ATOM     71  C   UNL     1      -2.333  10.062   4.828  1.00  0.00     0.058 A 
ATOM     72  C   UNL     1      -3.123  11.206   5.075  1.00  0.00     0.135 A 
ATOM     73  C   UNL     1      -2.882   9.137   3.911  1.00  0.00     0.135 A 
ATOM     74  F   UNL     1      -2.704  12.156   5.926  1.00  0.00    -0.206 F 
ATOM     75  C   UNL     1      -4.397  11.369   4.531  1.00  0.00     0.059 A 
ATOM     76  C   UNL     1      -4.125   9.308   3.315  1.00  0.00     0.059 A 
ATOM     77  F   UNL     1      -2.292   7.974   3.615  1.00  0.00    -0.206 F 
ATOM     78  C   UNL     1      -4.896  10.403   3.664  1.00  0.00     0.060 A 
BRANCH  78  79
ATOM     79  S   UNL     1      -6.576  10.556   3.037  1.00  0.00     0.124 S 
ATOM     80  O   UNL     1      -7.356  10.324   4.246  1.00  0.00    -0.237 OA
ATOM     81  O   UNL     1      -6.580  11.920   2.521  1.00  0.00    -0.237 OA
ATOM     82  O   UNL     1      -6.649   9.507   2.024  1.00  0.00    -0.744 OA
ENDBRANCH  78  79
ENDBRANCH  57  71
BRANCH  58  83
ATOM     83  C   UNL     1      -4.029   2.873   8.964  1.00  0.00     0.058 A 
ATOM     84  C   UNL     1      -5.351   2.916   9.449  1.00  0.00     0.135 A 
ATOM     85  C   UNL     1      -3.730   1.812   8.086  1.00  0.00     0.135 A 
ATOM     86  F   UNL     1      -5.730   3.892  10.287  1.00  0.00    -0.206 F 
ATOM     87  C   UNL     1      -6.335   2.014   9.025  1.00  0.00     0.059 A 
ATOM     88  C   UNL     1      -4.690   0.893   7.661  1.00  0.00     0.059 A 
ATOM     89  F   UNL     1      -2.515   1.690   7.530  1.00  0.00    -0.206 F 
ATOM     90  C   UNL     1      -6.000   1.022   8.106  1.00  0.00     0.060 A 
BRANCH  90  91
ATOM     91  S   UNL     1      -7.303  -0.000   7.378  1.00  0.00     0.124 S 
ATOM     92  O   UNL     1      -7.660  -0.872   8.491  1.00  0.00    -0.237 OA
ATOM     93  O   UNL     1      -8.301   0.994   6.999  1.00  0.00    -0.237 OA
ATOM     94  O   UNL     1      -6.629  -0.656   6.260  1.00  0.00    -0.744 OA
ENDBRANCH  90  91
ENDBRANCH  58  83
BRANCH  70  95
ATOM     95  C   UNL     1      -1.623   8.241  11.337  1.00  0.00     0.058 A 
ATOM     96  C   UNL     1      -0.812   7.165  11.740  1.00  0.00     0.135 A 
ATOM     97  C   UNL     1      -1.777   9.299  12.247  1.00  0.00     0.135 A 
ATOM     98  F   UNL     1      -0.526   6.161  10.899  1.00  0.00    -0.206 F 
ATOM     99  C   UNL     1      -0.219   7.123  13.004  1.00  0.00     0.059 A 
ATOM    100  C   UNL     1      -1.169   9.294  13.498  1.00  0.00     0.059 A 
ATOM    101  F   UNL     1      -2.490  10.383  11.902  1.00  0.00    -0.206 F 
ATOM    102  C   UNL     1      -0.404   8.194  13.878  1.00  0.00     0.060 A 
BRANCH 102 103
ATOM    103  S   UNL     1       0.409   8.171  15.490  1.00  0.00     0.124 S 
ATOM    104  O   UNL     1      -0.343   7.140  16.198  1.00  0.00    -0.237 OA
ATOM    105  O   UNL     1       1.786   7.829  15.147  1.00  0.00    -0.237 OA
ATOM    106  O   UNL     1       0.221   9.532  15.987  1.00  0.00    -0.744 OA
ENDBRANCH 102 103
ENDBRANCH  70  95
ENDBRANCH  44  45
ENDBRANCH  36  39
ENDBRANCH  34  35
ENDBRANCH  33  34
ENDBRANCH  32  33
ENDBRANCH   1  32
TORSDOF 20
