REMARK SMILES Cc1nn(Cc2ccc(Cl)cc2Cl)c(C)c1NC(=O)c1c(C(=O)NCCCCCCNC(=O)c2ccc(-c3c4nc(c(-c5c(F)cc(S(=O)(=O)[O-])cc5F)c5ccc([nH]5)c(-c5c(F)cc(S(=O)(=O)[O-])cc5F)c5nc(c(-c6c(F)cc(S(=O)(=O)[O-])cc6F)c6ccc3[nH]6)C=C5)C=C4)cc2)cnn1C
REMARK SMILES IDX 27 1 26 2 25 3 24 4 22 5 23 6 21 8 20 9 102 10 100 11 101 12
REMARK SMILES IDX 103 13 18 14 17 15 19 17 16 18 1 19 2 20 3 21 4 22 14 23
REMARK SMILES IDX 15 24 5 25 6 26 7 27 12 28 8 29 11 30 13 31 9 32 10 33 28 34
REMARK SMILES IDX 29 35 30 36 31 37 32 38 33 40 34 41 35 42 99 43 36 44 98 45
REMARK SMILES IDX 37 46 38 47 39 48 92 49 40 50 97 51 91 52 93 53 41 54 96 55
REMARK SMILES IDX 90 56 89 57 42 59 76 60 55 61 75 62 56 63 59 64 74 65 94 66
REMARK SMILES IDX 57 67 58 68 73 70 95 71 60 72 43 73 44 74 53 75 45 76 46 77
REMARK SMILES IDX 52 78 54 79 47 80 48 81 49 82 50 83 51 84 77 85 78 86 87 87
REMARK SMILES IDX 79 88 80 89 86 90 88 91 81 92 82 93 83 94 84 95 85 96 61 97
REMARK SMILES IDX 62 98 71 99 63 100 64 101 70 102 72 103 65 104 66 105 67 106
REMARK SMILES IDX 68 107 69 108
REMARK H PARENT 24 7 17 16 31 39 93 58 59 69
REMARK Flexibility Score: inf
ROOT
ATOM      1  C   UNL     1       1.267   4.107   6.620  1.00  0.00     0.002 C 
ENDROOT
BRANCH   1   2
ATOM      2  C   UNL     1       0.818   5.250   5.712  1.00  0.00     0.021 C 
BRANCH   2   3
ATOM      3  C   UNL     1       1.758   5.667   4.574  1.00  0.00     0.116 C 
BRANCH   3   4
ATOM      4  N   UNL     1       2.334   4.584   3.791  1.00  0.00    -0.352 N 
ATOM      5  C   UNL     1       2.751   4.534   2.475  1.00  0.00     0.255 C 
ATOM      6  O   UNL     1       3.375   3.536   2.116  1.00  0.00    -0.269 OA
ATOM      7  H   UNL     1       2.446   3.740   4.285  1.00  0.00     0.163 HD
BRANCH   5   8
ATOM      8  C   UNL     1       2.438   5.609   1.545  1.00  0.00     0.090 A 
ATOM      9  C   UNL     1       2.210   5.481   0.169  1.00  0.00     0.138 A 
ATOM     10  N   UNL     1       1.917   6.752  -0.271  1.00  0.00    -0.262 N 
ATOM     11  C   UNL     1       2.367   7.003   1.767  1.00  0.00     0.149 A 
ATOM     12  N   UNL     1       2.028   7.694   0.681  1.00  0.00    -0.180 NA
ATOM     13  C   UNL     1       1.394   7.151  -1.560  1.00  0.00     0.174 C 
BRANCH   9  14
ATOM     14  C   UNL     1       2.292   4.352  -0.731  1.00  0.00     0.274 C 
ATOM     15  N   UNL     1       1.674   3.151  -0.483  1.00  0.00    -0.317 N 
ATOM     16  H   UNL     1       1.947   2.425  -1.089  1.00  0.00     0.170 HD
ATOM     17  O   UNL     1       2.957   4.422  -1.769  1.00  0.00    -0.267 OA
BRANCH  15  18
ATOM     18  C   UNL     1       0.741   2.776   0.459  1.00  0.00     0.085 A 
ATOM     19  C   UNL     1       1.058   0.180   0.348  1.00  0.00     0.071 C 
ATOM     20  C   UNL     1       0.496   1.440   0.890  1.00  0.00     0.083 A 
ATOM     21  N   UNL     1      -0.316   1.407   1.953  1.00  0.00    -0.175 NA
ATOM     22  N   UNL     1      -0.629   2.703   2.149  1.00  0.00    -0.263 N 
ATOM     23  C   UNL     1      -0.203   3.523   1.128  1.00  0.00     0.060 A 
ATOM     24  C   UNL     1      -0.761   4.883   0.933  1.00  0.00     0.069 C 
BRANCH  22  25
ATOM     25  C   UNL     1      -1.049   3.147   3.474  1.00  0.00     0.181 C 
BRANCH  25  26
ATOM     26  C   UNL     1      -2.535   3.142   3.666  1.00  0.00    -0.008 A 
ATOM     27  C   UNL     1      -3.181   1.903   3.817  1.00  0.00     0.009 A 
ATOM     28  C   UNL     1      -3.308   4.314   3.715  1.00  0.00     0.047 A 
ATOM     29  C   UNL     1      -4.563   1.836   3.968  1.00  0.00     0.021 A 
ATOM     30  C   UNL     1      -4.694   4.241   3.830  1.00  0.00     0.041 A 
ATOM     31  Cl  UNL     1      -2.607   5.896   3.688  1.00  0.00    -0.084 Cl
ATOM     32  C   UNL     1      -5.317   3.004   3.953  1.00  0.00     0.042 A 
ATOM     33  Cl  UNL     1      -7.024   2.891   4.097  1.00  0.00    -0.084 Cl
ENDBRANCH  25  26
ENDBRANCH  22  25
ENDBRANCH  15  18
ENDBRANCH   9  14
ENDBRANCH   5   8
ENDBRANCH   3   4
ENDBRANCH   2   3
ENDBRANCH   1   2
BRANCH   1  34
ATOM     34  C   UNL     1       2.525   4.376   7.451  1.00  0.00     0.002 C 
BRANCH  34  35
ATOM     35  C   UNL     1       2.544   5.681   8.259  1.00  0.00     0.021 C 
BRANCH  35  36
ATOM     36  C   UNL     1       1.385   5.848   9.233  1.00  0.00     0.116 C 
BRANCH  36  37
ATOM     37  N   UNL     1       1.429   4.898  10.341  1.00  0.00    -0.352 N 
ATOM     38  C   UNL     1       0.545   4.780  11.402  1.00  0.00     0.251 C 
ATOM     39  H   UNL     1       2.180   4.262  10.334  1.00  0.00     0.163 HD
ATOM     40  O   UNL     1       0.898   4.253  12.445  1.00  0.00    -0.269 OA
BRANCH  38  41
ATOM     41  C   UNL     1      -0.834   5.289  11.245  1.00  0.00     0.039 A 
ATOM     42  C   UNL     1      -1.542   5.846  12.315  1.00  0.00     0.014 A 
ATOM     43  C   UNL     1      -1.430   5.180   9.991  1.00  0.00     0.014 A 
ATOM     44  C   UNL     1      -2.828   6.335  12.088  1.00  0.00     0.010 A 
ATOM     45  C   UNL     1      -2.608   5.823   9.727  1.00  0.00     0.010 A 
ATOM     46  C   UNL     1      -3.350   6.324  10.785  1.00  0.00    -0.014 A 
BRANCH  46  47
ATOM     47  C   UNL     1      -4.649   6.900  10.473  1.00  0.00     0.031 A 
ATOM     48  C   UNL     1      -4.760   8.346  10.793  1.00  0.00     0.074 A 
ATOM     49  C   UNL     1      -5.582   6.254   9.737  1.00  0.00     0.049 A 
ATOM     50  N   UNL     1      -5.413   8.887  11.766  1.00  0.00    -0.248 NA
ATOM     51  C   UNL     1      -3.902   9.292  10.059  1.00  0.00     0.031 C 
ATOM     52  C   UNL     1      -5.471   4.963   9.043  1.00  0.00     0.029 A 
ATOM     53  N   UNL     1      -6.817   6.678   9.362  1.00  0.00    -0.354 N 
ATOM     54  C   UNL     1      -5.254  10.261  11.613  1.00  0.00     0.074 A 
ATOM     55  C   UNL     1      -4.149  10.432  10.708  1.00  0.00     0.031 C 
ATOM     56  C   UNL     1      -6.482   4.837   8.153  1.00  0.00     0.029 A 
ATOM     57  C   UNL     1      -7.404   5.944   8.336  1.00  0.00     0.049 A 
ATOM     58  H   UNL     1      -7.263   7.448   9.784  1.00  0.00     0.167 HD
ATOM     59  C   UNL     1      -6.211  11.132  12.044  1.00  0.00     0.037 A 
ATOM     60  C   UNL     1      -8.545   6.260   7.667  1.00  0.00     0.037 A 
ATOM     61  C   UNL     1      -7.175  10.456  12.881  1.00  0.00     0.049 A 
ATOM     62  C   UNL     1      -9.288   7.234   8.508  1.00  0.00     0.074 A 
ATOM     63  C   UNL     1      -7.106   9.744  14.063  1.00  0.00     0.029 A 
ATOM     64  N   UNL     1      -8.375  10.112  12.305  1.00  0.00    -0.354 N 
ATOM     65  N   UNL     1      -9.814   6.938   9.665  1.00  0.00    -0.248 NA
ATOM     66  C   UNL     1      -9.020   8.648   8.289  1.00  0.00     0.031 C 
ATOM     67  C   UNL     1      -8.013   8.658  13.891  1.00  0.00     0.029 A 
ATOM     68  C   UNL     1      -8.647   8.815  12.658  1.00  0.00     0.049 A 
ATOM     69  H   UNL     1      -8.937  10.691  11.741  1.00  0.00     0.167 HD
ATOM     70  C   UNL     1      -9.533   8.032  10.471  1.00  0.00     0.074 A 
ATOM     71  C   UNL     1      -9.114   9.086   9.547  1.00  0.00     0.031 C 
ATOM     72  C   UNL     1      -9.381   7.892  11.821  1.00  0.00     0.037 A 
BRANCH  59  73
ATOM     73  C   UNL     1      -6.508  12.481  11.431  1.00  0.00     0.058 A 
ATOM     74  C   UNL     1      -7.429  13.335  12.077  1.00  0.00     0.135 A 
ATOM     75  C   UNL     1      -6.151  12.858  10.118  1.00  0.00     0.135 A 
ATOM     76  F   UNL     1      -7.839  13.077  13.329  1.00  0.00    -0.206 F 
ATOM     77  C   UNL     1      -8.013  14.428  11.438  1.00  0.00     0.059 A 
ATOM     78  C   UNL     1      -6.679  13.977   9.482  1.00  0.00     0.059 A 
ATOM     79  F   UNL     1      -5.351  12.112   9.348  1.00  0.00    -0.206 F 
ATOM     80  C   UNL     1      -7.641  14.731  10.133  1.00  0.00     0.060 A 
BRANCH  80  81
ATOM     81  S   UNL     1      -8.462  16.083   9.273  1.00  0.00     0.124 S 
ATOM     82  O   UNL     1      -9.806  15.545   9.102  1.00  0.00    -0.237 OA
ATOM     83  O   UNL     1      -8.325  17.175  10.231  1.00  0.00    -0.237 OA
ATOM     84  O   UNL     1      -7.677  16.227   8.051  1.00  0.00    -0.744 OA
ENDBRANCH  80  81
ENDBRANCH  59  73
BRANCH  60  85
ATOM     85  C   UNL     1      -8.839   6.094   6.218  1.00  0.00     0.058 A 
ATOM     86  C   UNL     1     -10.144   6.213   5.707  1.00  0.00     0.135 A 
ATOM     87  C   UNL     1      -7.801   6.127   5.271  1.00  0.00     0.135 A 
ATOM     88  F   UNL     1     -11.193   6.237   6.543  1.00  0.00    -0.206 F 
ATOM     89  C   UNL     1     -10.401   6.385   4.339  1.00  0.00     0.059 A 
ATOM     90  C   UNL     1      -8.032   6.292   3.906  1.00  0.00     0.059 A 
ATOM     91  F   UNL     1      -6.517   6.089   5.658  1.00  0.00    -0.206 F 
ATOM     92  C   UNL     1      -9.333   6.440   3.446  1.00  0.00     0.060 A 
BRANCH  92  93
ATOM     93  S   UNL     1      -9.629   6.819   1.702  1.00  0.00     0.124 S 
ATOM     94  O   UNL     1     -10.401   5.663   1.262  1.00  0.00    -0.237 OA
ATOM     95  O   UNL     1     -10.356   8.081   1.783  1.00  0.00    -0.237 OA
ATOM     96  O   UNL     1      -8.281   6.915   1.144  1.00  0.00    -0.744 OA
ENDBRANCH  92  93
ENDBRANCH  60  85
BRANCH  72  97
ATOM     97  C   UNL     1      -9.837   6.606  12.463  1.00  0.00     0.058 A 
ATOM     98  C   UNL     1      -9.316   5.329  12.183  1.00  0.00     0.135 A 
ATOM     99  C   UNL     1     -10.767   6.699  13.508  1.00  0.00     0.135 A 
ATOM    100  F   UNL     1      -8.342   5.162  11.278  1.00  0.00    -0.206 F 
ATOM    101  C   UNL     1      -9.747   4.192  12.873  1.00  0.00     0.059 A 
ATOM    102  C   UNL     1     -11.184   5.588  14.232  1.00  0.00     0.059 A 
ATOM    103  F   UNL     1     -11.256   7.898  13.868  1.00  0.00    -0.206 F 
ATOM    104  C   UNL     1     -10.687   4.332  13.894  1.00  0.00     0.060 A 
BRANCH 104 105
ATOM    105  S   UNL     1     -11.227   2.872  14.808  1.00  0.00     0.124 S 
ATOM    106  O   UNL     1     -12.020   2.162  13.810  1.00  0.00    -0.237 OA
ATOM    107  O   UNL     1      -9.962   2.243  15.178  1.00  0.00    -0.237 OA
ATOM    108  O   UNL     1     -11.986   3.430  15.925  1.00  0.00    -0.744 OA
ENDBRANCH 104 105
ENDBRANCH  72  97
ENDBRANCH  46  47
ENDBRANCH  38  41
ENDBRANCH  36  37
ENDBRANCH  35  36
ENDBRANCH  34  35
ENDBRANCH   1  34
TORSDOF 20
