REMARK SMILES O=C(Cn1nc(-c2ccc(Br)cc2)ccc1=O)N[C@H](C(=O)NCCCCCCNC(=O)c1ccc(-c2c3nc(c(-c4c(F)cc(S(=O)(=O)[O-])cc4F)c4ccc([nH]4)c(-c4c(F)cc(S(=O)(=O)[O-])cc4F)c4nc(c(-c5c(F)cc(S(=O)(=O)[O-])cc5F)c5ccc2[nH]5)C=C4)C=C3)cc1)c1ccccc1
REMARK SMILES IDX 25 1 24 2 23 3 22 4 20 5 21 6 19 8 18 9 1 10 2 11 3 13 4 14
REMARK SMILES IDX 5 15 16 16 6 17 15 18 17 19 14 20 7 21 8 22 13 23 9 24 12 25
REMARK SMILES IDX 10 26 11 27 98 28 99 29 103 30 100 31 102 32 101 33 26 34
REMARK SMILES IDX 27 35 28 36 29 37 30 38 31 40 32 41 33 42 97 43 34 44 96 45
REMARK SMILES IDX 35 46 36 47 37 48 90 49 38 50 95 51 89 52 91 53 39 54 94 55
REMARK SMILES IDX 88 56 87 57 40 59 74 60 53 61 73 62 54 63 57 64 72 65 92 66
REMARK SMILES IDX 55 67 56 68 71 70 93 71 58 72 41 73 42 74 51 75 43 76 44 77
REMARK SMILES IDX 50 78 52 79 45 80 46 81 47 82 48 83 49 84 75 85 76 86 85 87
REMARK SMILES IDX 77 88 78 89 84 90 86 91 79 92 80 93 81 94 82 95 83 96 59 97
REMARK SMILES IDX 60 98 69 99 61 100 62 101 68 102 70 103 63 104 64 105 65 106
REMARK SMILES IDX 66 107 67 108
REMARK H PARENT 22 7 18 12 29 39 91 58 57 69
REMARK Flexibility Score: inf
ROOT
ATOM      1  C   UNL     1       0.842   0.640   2.229  1.00  0.00     0.002 C 
ENDROOT
BRANCH   1   2
ATOM      2  C   UNL     1       0.283   0.577   0.800  1.00  0.00     0.021 C 
BRANCH   2   3
ATOM      3  C   UNL     1       1.103   1.328  -0.253  1.00  0.00     0.116 C 
BRANCH   3   4
ATOM      4  N   UNL     1       2.431   0.763  -0.393  1.00  0.00    -0.354 N 
ATOM      5  C   UNL     1       3.051   0.146  -1.448  1.00  0.00     0.247 C 
ATOM      6  O   UNL     1       4.195  -0.262  -1.229  1.00  0.00    -0.272 OA
ATOM      7  H   UNL     1       2.989   0.838   0.415  1.00  0.00     0.163 HD
BRANCH   5   8
ATOM      8  C   UNL     1       2.352   0.070  -2.834  1.00  0.00     0.202 C 
BRANCH   8   9
ATOM      9  N   UNL     1       2.768   1.214  -3.649  1.00  0.00    -0.339 N 
ATOM     10  O   UNL     1       4.934   0.551  -4.051  1.00  0.00    -0.273 OA
ATOM     11  C   UNL     1       4.002   1.325  -4.253  1.00  0.00     0.242 C 
ATOM     12  H   UNL     1       2.127   1.950  -3.773  1.00  0.00     0.164 HD
BRANCH  11  13
ATOM     13  C   UNL     1       4.182   2.539  -5.165  1.00  0.00     0.248 C 
BRANCH  13  14
ATOM     14  N   UNL     1       2.932   3.205  -5.524  1.00  0.00    -0.220 N 
ATOM     15  N   UNL     1       2.653   4.378  -4.862  1.00  0.00    -0.169 NA
ATOM     16  C   UNL     1       2.154   2.691  -6.552  1.00  0.00     0.267 A 
ATOM     17  C   UNL     1       1.588   5.029  -5.211  1.00  0.00     0.091 A 
ATOM     18  C   UNL     1       0.931   3.454  -6.883  1.00  0.00     0.075 A 
ATOM     19  O   UNL     1       2.400   1.660  -7.171  1.00  0.00    -0.268 OA
ATOM     20  C   UNL     1       0.632   4.586  -6.245  1.00  0.00     0.036 A 
BRANCH  17  21
ATOM     21  C   UNL     1       1.308   6.335  -4.579  1.00  0.00     0.002 A 
ATOM     22  C   UNL     1       2.291   7.329  -4.653  1.00  0.00     0.011 A 
ATOM     23  C   UNL     1       0.107   6.569  -3.902  1.00  0.00     0.011 A 
ATOM     24  C   UNL     1       2.068   8.569  -4.055  1.00  0.00     0.016 A 
ATOM     25  C   UNL     1      -0.106   7.809  -3.294  1.00  0.00     0.016 A 
ATOM     26  C   UNL     1       0.873   8.802  -3.375  1.00  0.00     0.018 A 
ATOM     27  Br  UNL     1       0.589  10.473  -2.542  1.00  0.00    -0.051 Br
ENDBRANCH  17  21
ENDBRANCH  13  14
ENDBRANCH  11  13
ENDBRANCH   8   9
BRANCH   8  28
ATOM     28  C   UNL     1       2.437  -1.278  -3.553  1.00  0.00    -0.016 A 
ATOM     29  C   UNL     1       2.256  -1.363  -4.947  1.00  0.00     0.006 A 
ATOM     30  C   UNL     1       2.600  -2.480  -2.844  1.00  0.00     0.006 A 
ATOM     31  C   UNL     1       2.300  -2.590  -5.612  1.00  0.00     0.000 A 
ATOM     32  C   UNL     1       2.635  -3.710  -3.509  1.00  0.00     0.000 A 
ATOM     33  C   UNL     1       2.493  -3.764  -4.893  1.00  0.00     0.000 A 
ENDBRANCH   8  28
ENDBRANCH   5   8
ENDBRANCH   3   4
ENDBRANCH   2   3
ENDBRANCH   1   2
BRANCH   1  34
ATOM     34  C   UNL     1       1.042   2.044   2.812  1.00  0.00     0.002 C 
BRANCH  34  35
ATOM     35  C   UNL     1      -0.189   2.952   2.791  1.00  0.00     0.021 C 
BRANCH  35  36
ATOM     36  C   UNL     1      -1.409   2.418   3.534  1.00  0.00     0.116 C 
BRANCH  36  37
ATOM     37  N   UNL     1      -1.214   2.336   4.974  1.00  0.00    -0.352 N 
ATOM     38  C   UNL     1      -2.047   2.757   5.990  1.00  0.00     0.251 C 
ATOM     39  H   UNL     1      -0.370   1.922   5.264  1.00  0.00     0.163 HD
ATOM     40  O   UNL     1      -1.669   2.713   7.153  1.00  0.00    -0.269 OA
BRANCH  38  41
ATOM     41  C   UNL     1      -3.385   3.302   5.661  1.00  0.00     0.039 A 
ATOM     42  C   UNL     1      -4.218   2.653   4.749  1.00  0.00     0.014 A 
ATOM     43  C   UNL     1      -3.794   4.503   6.249  1.00  0.00     0.014 A 
ATOM     44  C   UNL     1      -5.369   3.288   4.293  1.00  0.00     0.010 A 
ATOM     45  C   UNL     1      -4.992   5.103   5.846  1.00  0.00     0.010 A 
ATOM     46  C   UNL     1      -5.761   4.530   4.821  1.00  0.00    -0.014 A 
BRANCH  46  47
ATOM     47  C   UNL     1      -6.954   5.218   4.258  1.00  0.00     0.031 A 
ATOM     48  C   UNL     1      -6.807   6.514   3.501  1.00  0.00     0.074 A 
ATOM     49  C   UNL     1      -8.165   4.635   4.358  1.00  0.00     0.049 A 
ATOM     50  N   UNL     1      -7.725   7.219   2.889  1.00  0.00    -0.248 NA
ATOM     51  C   UNL     1      -5.457   7.095   3.419  1.00  0.00     0.031 C 
ATOM     52  C   UNL     1      -8.436   3.377   5.056  1.00  0.00     0.029 A 
ATOM     53  N   UNL     1      -9.384   5.001   3.848  1.00  0.00    -0.354 N 
ATOM     54  C   UNL     1      -7.071   8.327   2.363  1.00  0.00     0.074 A 
ATOM     55  C   UNL     1      -5.682   8.220   2.753  1.00  0.00     0.031 C 
ATOM     56  C   UNL     1      -9.725   3.046   4.880  1.00  0.00     0.029 A 
ATOM     57  C   UNL     1     -10.383   4.092   4.103  1.00  0.00     0.049 A 
ATOM     58  H   UNL     1      -9.530   5.836   3.346  1.00  0.00     0.167 HD
ATOM     59  C   UNL     1      -7.577   9.333   1.610  1.00  0.00     0.037 A 
ATOM     60  C   UNL     1     -11.684   4.097   3.755  1.00  0.00     0.037 A 
ATOM     61  C   UNL     1      -8.954   9.430   1.202  1.00  0.00     0.049 A 
ATOM     62  C   UNL     1     -12.230   5.245   2.955  1.00  0.00     0.074 A 
ATOM     63  C   UNL     1      -9.552  10.401   0.417  1.00  0.00     0.029 A 
ATOM     64  N   UNL     1      -9.947   8.524   1.543  1.00  0.00    -0.354 N 
ATOM     65  N   UNL     1     -11.592   6.279   2.461  1.00  0.00    -0.248 NA
ATOM     66  C   UNL     1     -13.673   5.237   2.678  1.00  0.00     0.031 C 
ATOM     67  C   UNL     1     -10.915  10.101   0.312  1.00  0.00     0.029 A 
ATOM     68  C   UNL     1     -11.158   8.925   1.002  1.00  0.00     0.049 A 
ATOM     69  H   UNL     1      -9.812   7.717   2.089  1.00  0.00     0.167 HD
ATOM     70  C   UNL     1     -12.555   7.044   1.814  1.00  0.00     0.074 A 
ATOM     71  C   UNL     1     -13.814   6.344   1.960  1.00  0.00     0.031 C 
ATOM     72  C   UNL     1     -12.407   8.223   1.163  1.00  0.00     0.037 A 
BRANCH  59  73
ATOM     73  C   UNL     1      -6.635  10.420   1.172  1.00  0.00     0.058 A 
ATOM     74  C   UNL     1      -5.696  10.209   0.150  1.00  0.00     0.135 A 
ATOM     75  C   UNL     1      -6.708  11.702   1.741  1.00  0.00     0.135 A 
ATOM     76  F   UNL     1      -5.573   8.998  -0.417  1.00  0.00    -0.206 F 
ATOM     77  C   UNL     1      -4.850  11.225  -0.280  1.00  0.00     0.059 A 
ATOM     78  C   UNL     1      -5.885  12.740   1.312  1.00  0.00     0.059 A 
ATOM     79  F   UNL     1      -7.588  11.956   2.722  1.00  0.00    -0.206 F 
ATOM     80  C   UNL     1      -4.952  12.488   0.307  1.00  0.00     0.060 A 
BRANCH  80  81
ATOM     81  S   UNL     1      -3.852  13.797  -0.272  1.00  0.00     0.124 S 
ATOM     82  O   UNL     1      -2.578  13.380   0.306  1.00  0.00    -0.237 OA
ATOM     83  O   UNL     1      -3.959  13.673  -1.723  1.00  0.00    -0.237 OA
ATOM     84  O   UNL     1      -4.435  15.008   0.296  1.00  0.00    -0.744 OA
ENDBRANCH  80  81
ENDBRANCH  59  73
BRANCH  60  85
ATOM     85  C   UNL     1     -12.556   2.966   4.163  1.00  0.00     0.058 A 
ATOM     86  C   UNL     1     -13.006   2.029   3.222  1.00  0.00     0.135 A 
ATOM     87  C   UNL     1     -12.919   2.775   5.505  1.00  0.00     0.135 A 
ATOM     88  F   UNL     1     -12.691   2.176   1.926  1.00  0.00    -0.206 F 
ATOM     89  C   UNL     1     -13.783   0.939   3.597  1.00  0.00     0.059 A 
ATOM     90  C   UNL     1     -13.676   1.681   5.908  1.00  0.00     0.059 A 
ATOM     91  F   UNL     1     -12.501   3.639   6.444  1.00  0.00    -0.206 F 
ATOM     92  C   UNL     1     -14.107   0.769   4.945  1.00  0.00     0.060 A 
BRANCH  92  93
ATOM     93  S   UNL     1     -15.050  -0.692   5.433  1.00  0.00     0.124 S 
ATOM     94  O   UNL     1     -16.386  -0.349   4.960  1.00  0.00    -0.237 OA
ATOM     95  O   UNL     1     -14.367  -1.755   4.702  1.00  0.00    -0.237 OA
ATOM     96  O   UNL     1     -14.882  -0.730   6.882  1.00  0.00    -0.744 OA
ENDBRANCH  92  93
ENDBRANCH  60  85
BRANCH  72  97
ATOM     97  C   UNL     1     -13.635   8.843   0.563  1.00  0.00     0.058 A 
ATOM     98  C   UNL     1     -14.578   9.506   1.362  1.00  0.00     0.135 A 
ATOM     99  C   UNL     1     -13.832   8.841  -0.827  1.00  0.00     0.135 A 
ATOM    100  F   UNL     1     -14.438   9.527   2.696  1.00  0.00    -0.206 F 
ATOM    101  C   UNL     1     -15.680  10.146   0.803  1.00  0.00     0.059 A 
ATOM    102  C   UNL     1     -14.916   9.491  -1.409  1.00  0.00     0.059 A 
ATOM    103  F   UNL     1     -12.953   8.225  -1.634  1.00  0.00    -0.206 F 
ATOM    104  C   UNL     1     -15.837  10.138  -0.585  1.00  0.00     0.060 A 
BRANCH 104 105
ATOM    105  S   UNL     1     -17.239  11.022  -1.300  1.00  0.00     0.124 S 
ATOM    106  O   UNL     1     -18.348  10.136  -0.963  1.00  0.00    -0.237 OA
ATOM    107  O   UNL     1     -17.203  12.294  -0.585  1.00  0.00    -0.237 OA
ATOM    108  O   UNL     1     -16.904  11.098  -2.719  1.00  0.00    -0.744 OA
ENDBRANCH 104 105
ENDBRANCH  72  97
ENDBRANCH  46  47
ENDBRANCH  38  41
ENDBRANCH  36  37
ENDBRANCH  35  36
ENDBRANCH  34  35
ENDBRANCH   1  34
TORSDOF 21
