REMARK SMILES Cc1cc(N2CCC[C@H](C(=O)NCCCCCCNC(=O)c3ccc(-c4c5nc(c(-c6c(F)cc(S(=O)(=O)[O-])cc6F)c6ccc([nH]6)c(-c6c(F)cc(S(=O)(=O)[O-])cc6F)c6nc(c(-c7c(F)cc(S(=O)(=O)[O-])cc7F)c7ccc4[nH]7)C=C6)C=C5)cc3)C2)nc(C(C)C)n1
REMARK SMILES IDX 16 1 15 2 14 3 13 4 12 5 10 6 11 7 9 9 5 10 6 11 88 12 7 13
REMARK SMILES IDX 8 14 4 15 1 16 2 17 3 18 94 19 90 20 89 21 91 22 92 23 93 24
REMARK SMILES IDX 17 25 18 26 19 27 20 28 21 30 22 31 23 32 87 33 24 34 86 35
REMARK SMILES IDX 25 36 26 37 27 38 80 39 28 40 85 41 79 42 81 43 29 44 84 45
REMARK SMILES IDX 78 46 77 47 30 49 64 50 43 51 63 52 44 53 47 54 62 55 82 56
REMARK SMILES IDX 45 57 46 58 61 60 83 61 48 62 31 63 32 64 41 65 33 66 34 67
REMARK SMILES IDX 40 68 42 69 35 70 36 71 37 72 38 73 39 74 65 75 66 76 75 77
REMARK SMILES IDX 67 78 68 79 74 80 76 81 69 82 70 83 71 84 72 85 73 86 49 87
REMARK SMILES IDX 50 88 59 89 51 90 52 91 58 92 60 93 53 94 54 95 55 96 56 97
REMARK SMILES IDX 57 98
REMARK H PARENT 12 8 19 29 81 48 47 59
REMARK Flexibility Score: inf
ROOT
ATOM      1  C   UNL     1       5.367   1.737   0.728  1.00  0.00     0.002 C 
ENDROOT
BRANCH   1   2
ATOM      2  C   UNL     1       6.310   0.644   0.209  1.00  0.00     0.002 C 
BRANCH   2   3
ATOM      3  C   UNL     1       5.741  -0.777   0.210  1.00  0.00     0.021 C 
BRANCH   3   4
ATOM      4  C   UNL     1       4.442  -0.932  -0.579  1.00  0.00     0.116 C 
BRANCH   4   5
ATOM      5  N   UNL     1       4.638  -1.537  -1.877  1.00  0.00    -0.356 N 
ATOM      6  C   UNL     1       3.998  -2.576  -2.469  1.00  0.00     0.224 C 
ATOM      7  O   UNL     1       4.198  -2.724  -3.682  1.00  0.00    -0.275 OA
ATOM      8  H   UNL     1       5.351  -1.129  -2.420  1.00  0.00     0.163 HD
BRANCH   6   9
ATOM      9  C   UNL     1       3.066  -3.554  -1.746  1.00  0.00     0.098 C 
ATOM     10  N   UNL     1       1.625  -2.459  -0.089  1.00  0.00    -0.356 N 
ATOM     11  C   UNL     1       1.943  -3.347   1.013  1.00  0.00     0.118 C 
ATOM     12  C   UNL     1       1.691  -2.974  -1.444  1.00  0.00     0.131 C 
ATOM     13  C   UNL     1       3.349  -3.931   0.824  1.00  0.00     0.022 C 
ATOM     14  C   UNL     1       3.681  -4.374  -0.605  1.00  0.00     0.017 C 
BRANCH  10  15
ATOM     15  C   UNL     1       0.807  -1.366   0.099  1.00  0.00     0.132 A 
ATOM     16  C   UNL     1      -2.795  -0.334   0.138  1.00  0.00     0.067 C 
ATOM     17  C   UNL     1      -1.298  -0.314   0.159  1.00  0.00     0.043 A 
ATOM     18  C   UNL     1      -0.566  -1.486   0.157  1.00  0.00     0.070 A 
ATOM     19  N   UNL     1      -0.717   0.901   0.125  1.00  0.00    -0.238 NA
ATOM     20  C   UNL     1       0.625   0.928   0.092  1.00  0.00     0.133 A 
ATOM     21  N   UNL     1       1.405  -0.166   0.075  1.00  0.00    -0.216 NA
BRANCH  20  22
ATOM     22  C   UNL     1       1.321   2.265  -0.008  1.00  0.00     0.051 C 
ATOM     23  C   UNL     1       0.940   2.990  -1.297  1.00  0.00     0.016 C 
ATOM     24  C   UNL     1       1.056   3.129   1.222  1.00  0.00     0.016 C 
ENDBRANCH  20  22
ENDBRANCH  10  15
ENDBRANCH   6   9
ENDBRANCH   4   5
ENDBRANCH   3   4
ENDBRANCH   2   3
ENDBRANCH   1   2
BRANCH   1  25
ATOM     25  C   UNL     1       4.752   1.496   2.111  1.00  0.00     0.021 C 
BRANCH  25  26
ATOM     26  C   UNL     1       5.761   1.351   3.249  1.00  0.00     0.116 C 
BRANCH  26  27
ATOM     27  N   UNL     1       6.657   2.493   3.326  1.00  0.00    -0.352 N 
ATOM     28  C   UNL     1       6.979   3.300   4.383  1.00  0.00     0.251 C 
ATOM     29  H   UNL     1       7.106   2.724   2.480  1.00  0.00     0.163 HD
ATOM     30  O   UNL     1       7.589   4.349   4.171  1.00  0.00    -0.269 OA
BRANCH  28  31
ATOM     31  C   UNL     1       6.613   2.929   5.767  1.00  0.00     0.039 A 
ATOM     32  C   UNL     1       6.226   3.943   6.650  1.00  0.00     0.014 A 
ATOM     33  C   UNL     1       6.727   1.613   6.223  1.00  0.00     0.014 A 
ATOM     34  C   UNL     1       5.933   3.634   7.979  1.00  0.00     0.010 A 
ATOM     35  C   UNL     1       6.373   1.295   7.534  1.00  0.00     0.010 A 
ATOM     36  C   UNL     1       5.993   2.305   8.429  1.00  0.00    -0.014 A 
BRANCH  36  37
ATOM     37  C   UNL     1       5.692   1.969   9.843  1.00  0.00     0.031 A 
ATOM     38  C   UNL     1       6.781   1.451  10.745  1.00  0.00     0.074 A 
ATOM     39  C   UNL     1       4.432   2.096  10.302  1.00  0.00     0.049 A 
ATOM     40  N   UNL     1       6.709   1.079  11.997  1.00  0.00    -0.248 NA
ATOM     41  C   UNL     1       8.121   1.307  10.154  1.00  0.00     0.031 C 
ATOM     42  C   UNL     1       3.285   2.539   9.507  1.00  0.00     0.029 A 
ATOM     43  N   UNL     1       3.904   1.861  11.545  1.00  0.00    -0.354 N 
ATOM     44  C   UNL     1       7.985   0.646  12.339  1.00  0.00     0.074 A 
ATOM     45  C   UNL     1       8.799   0.753  11.148  1.00  0.00     0.031 C 
ATOM     46  C   UNL     1       2.193   2.567  10.289  1.00  0.00     0.029 A 
ATOM     47  C   UNL     1       2.557   2.120  11.630  1.00  0.00     0.049 A 
ATOM     48  H   UNL     1       4.440   1.538  12.306  1.00  0.00     0.167 HD
ATOM     49  C   UNL     1       8.441   0.220  13.541  1.00  0.00     0.037 A 
ATOM     50  C   UNL     1       1.712   2.012  12.673  1.00  0.00     0.037 A 
ATOM     51  C   UNL     1       7.631   0.147  14.729  1.00  0.00     0.049 A 
ATOM     52  C   UNL     1       2.249   1.570  14.006  1.00  0.00     0.074 A 
ATOM     53  C   UNL     1       8.009  -0.218  16.010  1.00  0.00     0.029 A 
ATOM     54  N   UNL     1       6.279   0.451  14.784  1.00  0.00    -0.354 N 
ATOM     55  N   UNL     1       3.472   1.218  14.326  1.00  0.00    -0.248 NA
ATOM     56  C   UNL     1       1.296   1.522  15.123  1.00  0.00     0.031 C 
ATOM     57  C   UNL     1       6.878  -0.164  16.832  1.00  0.00     0.029 A 
ATOM     58  C   UNL     1       5.804   0.273  16.073  1.00  0.00     0.049 A 
ATOM     59  H   UNL     1       5.736   0.750  14.019  1.00  0.00     0.167 HD
ATOM     60  C   UNL     1       3.441   0.931  15.686  1.00  0.00     0.074 A 
ATOM     61  C   UNL     1       2.082   1.163  16.129  1.00  0.00     0.031 C 
ATOM     62  C   UNL     1       4.447   0.513  16.494  1.00  0.00     0.037 A 
BRANCH  49  63
ATOM     63  C   UNL     1       9.886  -0.192  13.630  1.00  0.00     0.058 A 
ATOM     64  C   UNL     1      10.925   0.749  13.560  1.00  0.00     0.135 A 
ATOM     65  C   UNL     1      10.236  -1.540  13.810  1.00  0.00     0.135 A 
ATOM     66  F   UNL     1      10.648   2.050  13.373  1.00  0.00    -0.206 F 
ATOM     67  C   UNL     1      12.261   0.367  13.632  1.00  0.00     0.059 A 
ATOM     68  C   UNL     1      11.565  -1.943  13.911  1.00  0.00     0.059 A 
ATOM     69  F   UNL     1       9.284  -2.483  13.885  1.00  0.00    -0.206 F 
ATOM     70  C   UNL     1      12.571  -0.983  13.804  1.00  0.00     0.060 A 
BRANCH  70  71
ATOM     71  S   UNL     1      14.309  -1.466  13.892  1.00  0.00     0.124 S 
ATOM     72  O   UNL     1      14.710  -1.363  12.492  1.00  0.00    -0.237 OA
ATOM     73  O   UNL     1      14.870  -0.459  14.787  1.00  0.00    -0.237 OA
ATOM     74  O   UNL     1      14.258  -2.821  14.432  1.00  0.00    -0.744 OA
ENDBRANCH  70  71
ENDBRANCH  49  63
BRANCH  50  75
ATOM     75  C   UNL     1       0.279   2.368  12.504  1.00  0.00     0.058 A 
ATOM     76  C   UNL     1      -0.243   3.542  13.069  1.00  0.00     0.135 A 
ATOM     77  C   UNL     1      -0.591   1.556  11.760  1.00  0.00     0.135 A 
ATOM     78  F   UNL     1       0.550   4.348  13.791  1.00  0.00    -0.206 F 
ATOM     79  C   UNL     1      -1.580   3.891  12.916  1.00  0.00     0.059 A 
ATOM     80  C   UNL     1      -1.927   1.896  11.575  1.00  0.00     0.059 A 
ATOM     81  F   UNL     1      -0.135   0.433  11.184  1.00  0.00    -0.206 F 
ATOM     82  C   UNL     1      -2.415   3.061  12.166  1.00  0.00     0.060 A 
BRANCH  82  83
ATOM     83  S   UNL     1      -4.139   3.547  11.933  1.00  0.00     0.124 S 
ATOM     84  O   UNL     1      -4.712   3.229  13.235  1.00  0.00    -0.237 OA
ATOM     85  O   UNL     1      -4.019   4.967  11.617  1.00  0.00    -0.237 OA
ATOM     86  O   UNL     1      -4.577   2.702  10.826  1.00  0.00    -0.744 OA
ENDBRANCH  82  83
ENDBRANCH  50  75
BRANCH  62  87
ATOM     87  C   UNL     1       4.118   0.311  17.947  1.00  0.00     0.058 A 
ATOM     88  C   UNL     1       3.362  -0.787  18.384  1.00  0.00     0.135 A 
ATOM     89  C   UNL     1       4.594   1.210  18.915  1.00  0.00     0.135 A 
ATOM     90  F   UNL     1       2.880  -1.672  17.497  1.00  0.00    -0.206 F 
ATOM     91  C   UNL     1       3.063  -0.972  19.730  1.00  0.00     0.059 A 
ATOM     92  C   UNL     1       4.327   1.031  20.268  1.00  0.00     0.059 A 
ATOM     93  F   UNL     1       5.331   2.270  18.549  1.00  0.00    -0.206 F 
ATOM     94  C   UNL     1       3.548  -0.055  20.664  1.00  0.00     0.060 A 
BRANCH  94  95
ATOM     95  S   UNL     1       3.168  -0.312  22.410  1.00  0.00     0.124 S 
ATOM     96  O   UNL     1       1.782   0.137  22.478  1.00  0.00    -0.237 OA
ATOM     97  O   UNL     1       3.378  -1.748  22.570  1.00  0.00    -0.237 OA
ATOM     98  O   UNL     1       4.138   0.537  23.096  1.00  0.00    -0.744 OA
ENDBRANCH  94  95
ENDBRANCH  62  87
ENDBRANCH  36  37
ENDBRANCH  28  31
ENDBRANCH  26  27
ENDBRANCH  25  26
ENDBRANCH   1  25
TORSDOF 18
