REMARK SMILES O=C(NCCCCCCNC(=O)C1(Cc2ccncc2)Cc2ccccc2C1)c1ccc(-c2c3nc(c(-c4c(F)cc(S(=O)(=O)[O-])cc4F)c4ccc([nH]4)c(-c4c(F)cc(S(=O)(=O)[O-])cc4F)c4nc(c(-c5c(F)cc(S(=O)(=O)[O-])cc5F)c5ccc2[nH]5)C=C4)C=C3)cc1
REMARK SMILES IDX 6 1 5 2 4 3 3 4 1 5 2 6 29 8 30 9 94 10 31 11 93 12 32 13
REMARK SMILES IDX 33 14 34 15 87 16 35 17 92 18 86 19 88 20 36 21 91 22 85 23
REMARK SMILES IDX 84 24 37 26 71 27 50 28 70 29 51 30 54 31 69 32 89 33 52 34
REMARK SMILES IDX 53 35 68 37 90 38 55 39 38 40 39 41 48 42 40 43 41 44 47 45
REMARK SMILES IDX 49 46 42 47 43 48 44 49 45 50 46 51 72 52 73 53 82 54 74 55
REMARK SMILES IDX 75 56 81 57 83 58 76 59 77 60 78 61 79 62 80 63 56 64 57 65
REMARK SMILES IDX 66 66 58 67 59 68 65 69 67 70 60 71 61 72 62 73 63 74 64 75
REMARK SMILES IDX 7 76 8 77 9 78 10 79 11 80 12 82 13 83 21 84 28 85 22 86
REMARK SMILES IDX 27 87 23 88 26 89 24 90 25 91 14 92 15 93 16 94 20 95 17 96
REMARK SMILES IDX 19 97 18 98
REMARK H PARENT 3 7 88 25 54 36 10 81
REMARK Flexibility Score: inf
ROOT
ATOM      1  C   UNL     1       3.999  -3.378  -1.672  1.00  0.00     0.002 C 
ENDROOT
BRANCH   1   2
ATOM      2  C   UNL     1       4.321  -2.552  -0.428  1.00  0.00     0.021 C 
BRANCH   2   3
ATOM      3  C   UNL     1       4.230  -1.045  -0.631  1.00  0.00     0.116 C 
BRANCH   3   4
ATOM      4  N   UNL     1       2.856  -0.591  -0.785  1.00  0.00    -0.352 N 
ATOM      5  O   UNL     1       0.959   0.477  -0.183  1.00  0.00    -0.269 OA
ATOM      6  C   UNL     1       2.171   0.341  -0.042  1.00  0.00     0.251 C 
ATOM      7  H   UNL     1       2.350  -1.007  -1.520  1.00  0.00     0.163 HD
BRANCH   6   8
ATOM      8  C   UNL     1       2.905   1.161   0.948  1.00  0.00     0.039 A 
ATOM      9  C   UNL     1       4.122   1.754   0.607  1.00  0.00     0.014 A 
ATOM     10  C   UNL     1       2.384   1.315   2.236  1.00  0.00     0.014 A 
ATOM     11  C   UNL     1       4.891   2.362   1.592  1.00  0.00     0.010 A 
ATOM     12  C   UNL     1       3.120   2.008   3.203  1.00  0.00     0.010 A 
ATOM     13  C   UNL     1       4.398   2.504   2.900  1.00  0.00    -0.014 A 
BRANCH  13  14
ATOM     14  C   UNL     1       5.229   3.206   3.914  1.00  0.00     0.031 A 
ATOM     15  C   UNL     1       5.750   2.488   5.130  1.00  0.00     0.074 A 
ATOM     16  C   UNL     1       5.551   4.497   3.701  1.00  0.00     0.049 A 
ATOM     17  N   UNL     1       6.529   2.940   6.081  1.00  0.00    -0.248 NA
ATOM     18  C   UNL     1       5.341   1.087   5.311  1.00  0.00     0.031 C 
ATOM     19  C   UNL     1       5.091   5.303   2.567  1.00  0.00     0.029 A 
ATOM     20  N   UNL     1       6.358   5.352   4.407  1.00  0.00    -0.354 N 
ATOM     21  C   UNL     1       6.681   1.894   6.984  1.00  0.00     0.074 A 
ATOM     22  C   UNL     1       5.896   0.788   6.478  1.00  0.00     0.031 C 
ATOM     23  C   UNL     1       5.668   6.512   2.621  1.00  0.00     0.029 A 
ATOM     24  C   UNL     1       6.490   6.590   3.823  1.00  0.00     0.049 A 
ATOM     25  H   UNL     1       6.799   5.104   5.251  1.00  0.00     0.167 HD
ATOM     26  C   UNL     1       7.411   1.859   8.126  1.00  0.00     0.037 A 
ATOM     27  C   UNL     1       7.190   7.672   4.212  1.00  0.00     0.037 A 
ATOM     28  C   UNL     1       8.211   2.956   8.609  1.00  0.00     0.049 A 
ATOM     29  C   UNL     1       8.000   7.601   5.473  1.00  0.00     0.074 A 
ATOM     30  C   UNL     1       9.018   3.005   9.733  1.00  0.00     0.029 A 
ATOM     31  N   UNL     1       8.305   4.199   7.998  1.00  0.00    -0.354 N 
ATOM     32  N   UNL     1       8.154   6.592   6.297  1.00  0.00    -0.248 NA
ATOM     33  C   UNL     1       8.730   8.815   5.860  1.00  0.00     0.031 C 
ATOM     34  C   UNL     1       9.570   4.288   9.822  1.00  0.00     0.029 A 
ATOM     35  C   UNL     1       9.144   5.025   8.729  1.00  0.00     0.049 A 
ATOM     36  H   UNL     1       7.844   4.456   7.168  1.00  0.00     0.167 HD
ATOM     37  C   UNL     1       9.017   7.042   7.289  1.00  0.00     0.074 A 
ATOM     38  C   UNL     1       9.362   8.409   6.953  1.00  0.00     0.031 C 
ATOM     39  C   UNL     1       9.481   6.382   8.379  1.00  0.00     0.037 A 
BRANCH  26  40
ATOM     40  C   UNL     1       7.367   0.598   8.948  1.00  0.00     0.058 A 
ATOM     41  C   UNL     1       8.008  -0.580   8.536  1.00  0.00     0.135 A 
ATOM     42  C   UNL     1       6.705   0.582  10.188  1.00  0.00     0.135 A 
ATOM     43  F   UNL     1       8.644  -0.626   7.354  1.00  0.00    -0.206 F 
ATOM     44  C   UNL     1       7.973  -1.738   9.309  1.00  0.00     0.059 A 
ATOM     45  C   UNL     1       6.677  -0.557  10.988  1.00  0.00     0.059 A 
ATOM     46  F   UNL     1       6.077   1.681  10.632  1.00  0.00    -0.206 F 
ATOM     47  C   UNL     1       7.301  -1.717  10.533  1.00  0.00     0.060 A 
BRANCH  47  48
ATOM     48  S   UNL     1       7.260  -3.227  11.523  1.00  0.00     0.124 S 
ATOM     49  O   UNL     1       6.296  -4.034  10.780  1.00  0.00    -0.237 OA
ATOM     50  O   UNL     1       8.645  -3.680  11.461  1.00  0.00    -0.237 OA
ATOM     51  O   UNL     1       6.813  -2.763  12.832  1.00  0.00    -0.744 OA
ENDBRANCH  47  48
ENDBRANCH  26  40
BRANCH  27  52
ATOM     52  C   UNL     1       7.163   8.905   3.382  1.00  0.00     0.058 A 
ATOM     53  C   UNL     1       8.292   9.312   2.658  1.00  0.00     0.135 A 
ATOM     54  C   UNL     1       5.998   9.681   3.274  1.00  0.00     0.135 A 
ATOM     55  F   UNL     1       9.429   8.604   2.732  1.00  0.00    -0.206 F 
ATOM     56  C   UNL     1       8.273  10.454   1.864  1.00  0.00     0.059 A 
ATOM     57  C   UNL     1       5.947  10.810   2.465  1.00  0.00     0.059 A 
ATOM     58  F   UNL     1       4.886   9.320   3.932  1.00  0.00    -0.206 F 
ATOM     59  C   UNL     1       7.093  11.195   1.771  1.00  0.00     0.060 A 
BRANCH  59  60
ATOM     60  S   UNL     1       7.060  12.643   0.694  1.00  0.00     0.124 S 
ATOM     61  O   UNL     1       7.801  13.616   1.489  1.00  0.00    -0.237 OA
ATOM     62  O   UNL     1       7.733  12.152  -0.504  1.00  0.00    -0.237 OA
ATOM     63  O   UNL     1       5.633  12.910   0.537  1.00  0.00    -0.744 OA
ENDBRANCH  59  60
ENDBRANCH  27  52
BRANCH  39  64
ATOM     64  C   UNL     1      10.444   7.122   9.264  1.00  0.00     0.058 A 
ATOM     65  C   UNL     1      10.023   8.161  10.109  1.00  0.00     0.135 A 
ATOM     66  C   UNL     1      11.803   6.772   9.280  1.00  0.00     0.135 A 
ATOM     67  F   UNL     1       8.735   8.539  10.124  1.00  0.00    -0.206 F 
ATOM     68  C   UNL     1      10.923   8.851  10.915  1.00  0.00     0.059 A 
ATOM     69  C   UNL     1      12.716   7.430  10.098  1.00  0.00     0.059 A 
ATOM     70  F   UNL     1      12.255   5.778   8.499  1.00  0.00    -0.206 F 
ATOM     71  C   UNL     1      12.269   8.480  10.899  1.00  0.00     0.060 A 
BRANCH  71  72
ATOM     72  S   UNL     1      13.428   9.373  11.955  1.00  0.00     0.124 S 
ATOM     73  O   UNL     1      13.612  10.612  11.206  1.00  0.00    -0.237 OA
ATOM     74  O   UNL     1      12.687   9.493  13.207  1.00  0.00    -0.237 OA
ATOM     75  O   UNL     1      14.590   8.491  12.004  1.00  0.00    -0.744 OA
ENDBRANCH  71  72
ENDBRANCH  39  64
ENDBRANCH  13  14
ENDBRANCH   6   8
ENDBRANCH   3   4
ENDBRANCH   2   3
ENDBRANCH   1   2
BRANCH   1  76
ATOM     76  C   UNL     1       4.889  -3.094  -2.886  1.00  0.00     0.002 C 
BRANCH  76  77
ATOM     77  C   UNL     1       6.405  -3.125  -2.621  1.00  0.00     0.021 C 
BRANCH  77  78
ATOM     78  C   UNL     1       6.924  -4.451  -2.047  1.00  0.00     0.116 C 
BRANCH  78  79
ATOM     79  N   UNL     1       6.723  -5.516  -3.007  1.00  0.00    -0.356 N 
ATOM     80  C   UNL     1       7.439  -5.979  -4.057  1.00  0.00     0.227 C 
ATOM     81  H   UNL     1       5.883  -6.009  -2.865  1.00  0.00     0.163 HD
ATOM     82  O   UNL     1       6.761  -6.668  -4.827  1.00  0.00    -0.274 OA
BRANCH  80  83
ATOM     83  C   UNL     1       8.970  -5.843  -4.233  1.00  0.00     0.061 C 
ATOM     84  C   UNL     1       9.578  -4.445  -3.881  1.00  0.00     0.053 C 
ATOM     85  C   UNL     1       9.625  -6.867  -3.258  1.00  0.00     0.053 C 
ATOM     86  C   UNL     1      10.721  -4.765  -2.969  1.00  0.00    -0.044 A 
ATOM     87  C   UNL     1      10.769  -6.119  -2.655  1.00  0.00    -0.044 A 
ATOM     88  C   UNL     1      11.655  -3.882  -2.446  1.00  0.00     0.004 A 
ATOM     89  C   UNL     1      11.756  -6.628  -1.824  1.00  0.00     0.004 A 
ATOM     90  C   UNL     1      12.654  -4.384  -1.607  1.00  0.00     0.000 A 
ATOM     91  C   UNL     1      12.708  -5.751  -1.303  1.00  0.00     0.000 A 
BRANCH  83  92
ATOM     92  C   UNL     1       9.369  -6.088  -5.736  1.00  0.00     0.053 C 
BRANCH  92  93
ATOM     93  C   UNL     1       9.282  -7.459  -6.371  1.00  0.00    -0.044 A 
ATOM     94  C   UNL     1       8.113  -7.898  -6.998  1.00  0.00     0.024 A 
ATOM     95  C   UNL     1      10.400  -8.295  -6.424  1.00  0.00     0.024 A 
ATOM     96  C   UNL     1       8.093  -9.149  -7.595  1.00  0.00     0.111 A 
ATOM     97  C   UNL     1      10.291  -9.521  -7.067  1.00  0.00     0.111 A 
ATOM     98  N   UNL     1       9.160  -9.973  -7.649  1.00  0.00    -0.265 NA
ENDBRANCH  92  93
ENDBRANCH  83  92
ENDBRANCH  80  83
ENDBRANCH  78  79
ENDBRANCH  77  78
ENDBRANCH  76  77
ENDBRANCH   1  76
TORSDOF 18
