REMARK SMILES Cc1cscc1-c1nnnn1CCC(=O)NCCCCCCNC(=O)c1ccc(-c2c3nc(c(-c4c(F)cc(S(=O)(=O)[O-])cc4F)c4ccc([nH]4)c(-c4c(F)cc(S(=O)(=O)[O-])cc4F)c4nc(c(-c5c(F)cc(S(=O)(=O)[O-])cc5F)c5ccc2[nH]5)C=C4)C=C3)cc1
REMARK SMILES IDX 19 1 18 2 17 3 16 4 14 5 15 6 13 8 12 9 11 10 7 11 8 12 9 13
REMARK SMILES IDX 10 14 6 15 1 16 2 17 3 18 4 19 5 20 20 21 21 22 22 23 23 24
REMARK SMILES IDX 24 25 25 27 26 28 27 29 91 30 28 31 90 32 29 33 30 34 31 35
REMARK SMILES IDX 84 36 32 37 89 38 83 39 85 40 33 41 88 42 82 43 81 44 34 46
REMARK SMILES IDX 68 47 47 48 67 49 48 50 51 51 66 52 86 53 49 54 50 55 65 57
REMARK SMILES IDX 87 58 52 59 35 60 36 61 45 62 37 63 38 64 44 65 46 66 39 67
REMARK SMILES IDX 40 68 41 69 42 70 43 71 69 72 70 73 79 74 71 75 72 76 78 77
REMARK SMILES IDX 80 78 73 79 74 80 75 81 76 82 77 83 53 84 54 85 63 86 55 87
REMARK SMILES IDX 56 88 62 89 64 90 57 91 58 92 59 93 60 94 61 95
REMARK H PARENT 16 7 23 26 85 45 51 56
REMARK Flexibility Score: inf
ROOT
ATOM      1  C   UNL     1       3.369   7.231  -0.087  1.00  0.00     0.002 C 
ENDROOT
BRANCH   1   2
ATOM      2  C   UNL     1       2.922   5.792  -0.311  1.00  0.00     0.021 C 
BRANCH   2   3
ATOM      3  C   UNL     1       2.077   5.532  -1.555  1.00  0.00     0.116 C 
BRANCH   3   4
ATOM      4  N   UNL     1       2.920   5.248  -2.701  1.00  0.00    -0.356 N 
ATOM      5  C   UNL     1       3.126   4.074  -3.357  1.00  0.00     0.221 C 
ATOM      6  O   UNL     1       3.998   4.029  -4.227  1.00  0.00    -0.275 OA
ATOM      7  H   UNL     1       3.417   6.020  -3.058  1.00  0.00     0.163 HD
BRANCH   5   8
ATOM      8  C   UNL     1       2.262   2.863  -3.070  1.00  0.00     0.124 C 
BRANCH   8   9
ATOM      9  C   UNL     1       2.908   1.869  -2.107  1.00  0.00     0.158 C 
BRANCH   9  10
ATOM     10  N   UNL     1       2.679   2.159  -0.710  1.00  0.00    -0.225 N 
ATOM     11  C   UNL     1       1.571   1.927   0.061  1.00  0.00     0.183 A 
ATOM     12  N   UNL     1       1.673   2.668   1.144  1.00  0.00    -0.108 NA
ATOM     13  N   UNL     1       2.966   3.131   1.147  1.00  0.00    -0.023 NA
ATOM     14  N   UNL     1       3.587   2.822   0.016  1.00  0.00    -0.045 NA
BRANCH  11  15
ATOM     15  C   UNL     1       0.608   0.810  -0.078  1.00  0.00     0.034 A 
ATOM     16  C   UNL     1       2.433  -1.036   0.093  1.00  0.00     0.046 C 
ATOM     17  C   UNL     1       1.018  -0.566  -0.081  1.00  0.00    -0.029 A 
ATOM     18  C   UNL     1      -0.084  -1.397  -0.142  1.00  0.00     0.069 A 
ATOM     19  S   UNL     1      -1.564  -0.537  -0.158  1.00  0.00    -0.151 S 
ATOM     20  C   UNL     1      -0.757   0.968  -0.027  1.00  0.00     0.077 A 
ENDBRANCH  11  15
ENDBRANCH   9  10
ENDBRANCH   8   9
ENDBRANCH   5   8
ENDBRANCH   3   4
ENDBRANCH   2   3
ENDBRANCH   1   2
BRANCH   1  21
ATOM     21  C   UNL     1       2.240   8.252   0.078  1.00  0.00     0.002 C 
BRANCH  21  22
ATOM     22  C   UNL     1       1.137   7.899   1.088  1.00  0.00     0.021 C 
BRANCH  22  23
ATOM     23  C   UNL     1       1.641   7.713   2.511  1.00  0.00     0.116 C 
BRANCH  23  24
ATOM     24  N   UNL     1       2.213   8.940   3.067  1.00  0.00    -0.352 N 
ATOM     25  C   UNL     1       2.686   9.169   4.341  1.00  0.00     0.251 C 
ATOM     26  H   UNL     1       2.268   9.704   2.447  1.00  0.00     0.163 HD
ATOM     27  O   UNL     1       2.837  10.320   4.751  1.00  0.00    -0.269 OA
BRANCH  25  28
ATOM     28  C   UNL     1       3.008   8.022   5.205  1.00  0.00     0.039 A 
ATOM     29  C   UNL     1       2.761   8.047   6.582  1.00  0.00     0.014 A 
ATOM     30  C   UNL     1       3.573   6.900   4.608  1.00  0.00     0.014 A 
ATOM     31  C   UNL     1       3.037   6.910   7.337  1.00  0.00     0.010 A 
ATOM     32  C   UNL     1       3.667   5.731   5.309  1.00  0.00     0.010 A 
ATOM     33  C   UNL     1       3.487   5.755   6.686  1.00  0.00    -0.014 A 
BRANCH  33  34
ATOM     34  C   UNL     1       3.737   4.514   7.405  1.00  0.00     0.031 A 
ATOM     35  C   UNL     1       2.547   3.921   8.069  1.00  0.00     0.074 A 
ATOM     36  C   UNL     1       4.885   3.828   7.217  1.00  0.00     0.049 A 
ATOM     37  N   UNL     1       2.354   3.747   9.335  1.00  0.00    -0.248 NA
ATOM     38  C   UNL     1       1.364   3.616   7.245  1.00  0.00     0.031 C 
ATOM     39  C   UNL     1       5.998   4.151   6.314  1.00  0.00     0.029 A 
ATOM     40  N   UNL     1       5.232   2.599   7.674  1.00  0.00    -0.354 N 
ATOM     41  C   UNL     1       1.131   3.089   9.448  1.00  0.00     0.074 A 
ATOM     42  C   UNL     1       0.482   3.236   8.172  1.00  0.00     0.031 C 
ATOM     43  C   UNL     1       6.732   3.041   6.089  1.00  0.00     0.029 A 
ATOM     44  C   UNL     1       6.241   1.979   6.945  1.00  0.00     0.049 A 
ATOM     45  H   UNL     1       4.804   2.180   8.456  1.00  0.00     0.167 HD
ATOM     46  C   UNL     1       0.864   2.264  10.500  1.00  0.00     0.037 A 
ATOM     47  C   UNL     1       6.570   0.662   6.994  1.00  0.00     0.037 A 
ATOM     48  C   UNL     1       1.839   2.432  11.552  1.00  0.00     0.049 A 
ATOM     49  C   UNL     1       6.042   0.147   8.293  1.00  0.00     0.074 A 
ATOM     50  C   UNL     1       2.281   3.512  12.293  1.00  0.00     0.029 A 
ATOM     51  N   UNL     1       2.812   1.467  11.685  1.00  0.00    -0.354 N 
ATOM     52  N   UNL     1       6.476   0.550   9.460  1.00  0.00    -0.248 NA
ATOM     53  C   UNL     1       4.704  -0.430   8.300  1.00  0.00     0.031 C 
ATOM     54  C   UNL     1       3.693   3.337  12.383  1.00  0.00     0.029 A 
ATOM     55  C   UNL     1       4.015   2.122  11.777  1.00  0.00     0.049 A 
ATOM     56  H   UNL     1       2.671   0.493  11.710  1.00  0.00     0.167 HD
ATOM     57  C   UNL     1       5.335   0.682  10.242  1.00  0.00     0.074 A 
ATOM     58  C   UNL     1       4.285  -0.014   9.499  1.00  0.00     0.031 C 
ATOM     59  C   UNL     1       5.261   1.596  11.259  1.00  0.00     0.037 A 
BRANCH  46  60
ATOM     60  C   UNL     1      -0.045   1.057  10.447  1.00  0.00     0.058 A 
ATOM     61  C   UNL     1      -0.377   0.393  11.647  1.00  0.00     0.135 A 
ATOM     62  C   UNL     1      -0.376   0.364   9.261  1.00  0.00     0.135 A 
ATOM     63  F   UNL     1      -0.109   0.956  12.837  1.00  0.00    -0.206 F 
ATOM     64  C   UNL     1      -0.916  -0.893  11.668  1.00  0.00     0.059 A 
ATOM     65  C   UNL     1      -0.968  -0.894   9.258  1.00  0.00     0.059 A 
ATOM     66  F   UNL     1      -0.049   0.824   8.048  1.00  0.00    -0.206 F 
ATOM     67  C   UNL     1      -1.191  -1.535  10.464  1.00  0.00     0.060 A 
BRANCH  67  68
ATOM     68  S   UNL     1      -1.776  -3.238  10.483  1.00  0.00     0.124 S 
ATOM     69  O   UNL     1      -0.587  -3.948  10.939  1.00  0.00    -0.237 OA
ATOM     70  O   UNL     1      -2.883  -3.168  11.432  1.00  0.00    -0.237 OA
ATOM     71  O   UNL     1      -2.162  -3.476   9.096  1.00  0.00    -0.744 OA
ENDBRANCH  67  68
ENDBRANCH  46  60
BRANCH  47  72
ATOM     72  C   UNL     1       6.919  -0.212   5.832  1.00  0.00     0.058 A 
ATOM     73  C   UNL     1       7.332  -1.544   6.022  1.00  0.00     0.135 A 
ATOM     74  C   UNL     1       6.610   0.145   4.501  1.00  0.00     0.135 A 
ATOM     75  F   UNL     1       7.641  -1.984   7.251  1.00  0.00    -0.206 F 
ATOM     76  C   UNL     1       7.368  -2.477   4.974  1.00  0.00     0.059 A 
ATOM     77  C   UNL     1       6.657  -0.759   3.441  1.00  0.00     0.059 A 
ATOM     78  F   UNL     1       6.158   1.367   4.188  1.00  0.00    -0.206 F 
ATOM     79  C   UNL     1       7.003  -2.079   3.688  1.00  0.00     0.060 A 
BRANCH  79  80
ATOM     80  S   UNL     1       6.829  -3.307   2.371  1.00  0.00     0.124 S 
ATOM     81  O   UNL     1       8.220  -3.619   2.060  1.00  0.00    -0.237 OA
ATOM     82  O   UNL     1       6.069  -4.364   3.028  1.00  0.00    -0.237 OA
ATOM     83  O   UNL     1       6.102  -2.588   1.326  1.00  0.00    -0.744 OA
ENDBRANCH  79  80
ENDBRANCH  47  72
BRANCH  59  84
ATOM     84  C   UNL     1       6.519   2.294  11.718  1.00  0.00     0.058 A 
ATOM     85  C   UNL     1       7.313   3.127  10.909  1.00  0.00     0.135 A 
ATOM     86  C   UNL     1       6.825   2.268  13.088  1.00  0.00     0.135 A 
ATOM     87  F   UNL     1       7.028   3.306   9.613  1.00  0.00    -0.206 F 
ATOM     88  C   UNL     1       8.383   3.861  11.425  1.00  0.00     0.059 A 
ATOM     89  C   UNL     1       7.865   3.018  13.632  1.00  0.00     0.059 A 
ATOM     90  F   UNL     1       6.068   1.549  13.933  1.00  0.00    -0.206 F 
ATOM     91  C   UNL     1       8.651   3.802  12.791  1.00  0.00     0.060 A 
BRANCH  91  92
ATOM     92  S   UNL     1       9.992   4.804  13.469  1.00  0.00     0.124 S 
ATOM     93  O   UNL     1      11.174   4.122  12.954  1.00  0.00    -0.237 OA
ATOM     94  O   UNL     1       9.723   6.122  12.903  1.00  0.00    -0.237 OA
ATOM     95  O   UNL     1       9.795   4.705  14.914  1.00  0.00    -0.744 OA
ENDBRANCH  91  92
ENDBRANCH  59  84
ENDBRANCH  33  34
ENDBRANCH  25  28
ENDBRANCH  23  24
ENDBRANCH  22  23
ENDBRANCH  21  22
ENDBRANCH   1  21
TORSDOF 19
