REMARK SMILES COc1ccc(C(=O)NCCCCCCNC(=O)c2ccc(-c3c4nc(c(-c5c(F)cc(S(=O)(=O)[O-])cc5F)c5ccc([nH]5)c(-c5c(F)cc(S(=O)(=O)[O-])cc5F)c5nc(c(-c6c(F)cc(S(=O)(=O)[O-])cc6F)c6ccc3[nH]6)C=C5)C=C4)cc2)cc1S(=O)(=O)N(C)Cc1cccc(F)c1
REMARK SMILES IDX 12 1 11 2 10 3 9 4 7 5 8 6 6 8 3 9 4 10 86 11 5 12 85 13
REMARK SMILES IDX 2 14 1 15 87 16 88 17 89 18 90 19 91 20 92 21 93 22 94 23
REMARK SMILES IDX 99 24 95 25 97 26 96 27 98 28 13 29 14 30 15 31 16 32 17 33
REMARK SMILES IDX 18 35 19 36 20 37 84 38 21 39 83 40 22 41 23 42 24 43 77 44
REMARK SMILES IDX 25 45 82 46 76 47 78 48 26 49 81 50 75 51 74 52 27 54 61 55
REMARK SMILES IDX 40 56 60 57 41 58 44 59 59 60 79 61 42 62 43 63 58 65 80 66
REMARK SMILES IDX 45 67 28 68 29 69 38 70 30 71 31 72 37 73 39 74 32 75 33 76
REMARK SMILES IDX 34 77 35 78 36 79 62 80 63 81 72 82 64 83 65 84 71 85 73 86
REMARK SMILES IDX 66 87 67 88 68 89 69 90 70 91 46 92 47 93 56 94 48 95 49 96
REMARK SMILES IDX 55 97 57 98 50 99 51 100 52 101 53 102 54 103
REMARK H PARENT 9 7 16 34 78 53 44 64
REMARK Flexibility Score: inf
ROOT
ATOM      1  C   UNL     1       6.144   1.666   7.321  1.00  0.00     0.002 C 
ENDROOT
BRANCH   1   2
ATOM      2  C   UNL     1       5.421   1.486   5.979  1.00  0.00     0.021 C 
BRANCH   2   3
ATOM      3  C   UNL     1       4.218   0.543   6.074  1.00  0.00     0.116 C 
BRANCH   3   4
ATOM      4  N   UNL     1       3.077   1.258   6.628  1.00  0.00    -0.352 N 
ATOM      5  C   UNL     1       1.909   1.722   6.083  1.00  0.00     0.251 C 
ATOM      6  O   UNL     1       1.124   2.320   6.820  1.00  0.00    -0.269 OA
ATOM      7  H   UNL     1       3.163   1.446   7.590  1.00  0.00     0.163 HD
BRANCH   5   8
ATOM      8  C   UNL     1       1.513   1.464   4.672  1.00  0.00     0.041 A 
ATOM      9  C   UNL     1       0.630   0.728   2.095  1.00  0.00     0.138 A 
ATOM     10  C   UNL     1      -0.291   0.990   3.113  1.00  0.00     0.049 A 
ATOM     11  C   UNL     1       1.986   0.930   2.341  1.00  0.00     0.125 A 
ATOM     12  C   UNL     1       0.147   1.333   4.396  1.00  0.00     0.018 A 
ATOM     13  C   UNL     1       2.413   1.347   3.618  1.00  0.00     0.039 A 
BRANCH   9  14
ATOM     14  O   UNL     1       0.101   0.402   0.881  1.00  0.00    -0.495 OA
ATOM     15  C   UNL     1       0.204  -0.993   0.596  1.00  0.00     0.278 C 
ENDBRANCH   9  14
BRANCH  11  16
ATOM     16  S   UNL     1       3.299   0.629   1.186  1.00  0.00     0.246 S 
ATOM     17  O   UNL     1       4.246   1.710   1.382  1.00  0.00    -0.207 OA
ATOM     18  O   UNL     1       3.692  -0.748   1.405  1.00  0.00    -0.207 OA
BRANCH  16  19
ATOM     19  N   UNL     1       2.698   0.756  -0.397  1.00  0.00    -0.196 NA
ATOM     20  C   UNL     1       2.110   2.059  -0.767  1.00  0.00     0.125 C 
BRANCH  19  21
ATOM     21  C   UNL     1       3.638   0.210  -1.431  1.00  0.00     0.137 C 
BRANCH  21  22
ATOM     22  C   UNL     1       4.959   0.938  -1.562  1.00  0.00    -0.030 A 
ATOM     23  C   UNL     1       6.151   0.351  -1.103  1.00  0.00     0.005 A 
ATOM     24  C   UNL     1       5.013   2.241  -2.076  1.00  0.00     0.044 A 
ATOM     25  C   UNL     1       7.350   1.073  -1.110  1.00  0.00     0.003 A 
ATOM     26  C   UNL     1       6.202   2.961  -2.044  1.00  0.00     0.123 A 
ATOM     27  C   UNL     1       7.370   2.391  -1.562  1.00  0.00     0.039 A 
ATOM     28  F   UNL     1       6.205   4.231  -2.469  1.00  0.00    -0.207 F 
ENDBRANCH  21  22
ENDBRANCH  19  21
ENDBRANCH  16  19
ENDBRANCH  11  16
ENDBRANCH   5   8
ENDBRANCH   3   4
ENDBRANCH   2   3
ENDBRANCH   1   2
BRANCH   1  29
ATOM     29  C   UNL     1       6.818   0.398   7.861  1.00  0.00     0.002 C 
BRANCH  29  30
ATOM     30  C   UNL     1       7.835  -0.246   6.915  1.00  0.00     0.021 C 
BRANCH  30  31
ATOM     31  C   UNL     1       9.019   0.650   6.564  1.00  0.00     0.116 C 
BRANCH  31  32
ATOM     32  N   UNL     1       9.837   0.939   7.733  1.00  0.00    -0.352 N 
ATOM     33  C   UNL     1      11.176   0.707   7.929  1.00  0.00     0.251 C 
ATOM     34  H   UNL     1       9.364   1.358   8.488  1.00  0.00     0.163 HD
ATOM     35  O   UNL     1      11.658   0.794   9.054  1.00  0.00    -0.269 OA
BRANCH  33  36
ATOM     36  C   UNL     1      12.028   0.341   6.779  1.00  0.00     0.039 A 
ATOM     37  C   UNL     1      12.924  -0.723   6.907  1.00  0.00     0.014 A 
ATOM     38  C   UNL     1      11.938   1.048   5.577  1.00  0.00     0.014 A 
ATOM     39  C   UNL     1      13.687  -1.118   5.805  1.00  0.00     0.010 A 
ATOM     40  C   UNL     1      12.650   0.612   4.463  1.00  0.00     0.010 A 
ATOM     41  C   UNL     1      13.530  -0.476   4.566  1.00  0.00    -0.014 A 
BRANCH  41  42
ATOM     42  C   UNL     1      14.267  -0.931   3.360  1.00  0.00     0.031 A 
ATOM     43  C   UNL     1      15.267  -0.023   2.699  1.00  0.00     0.074 A 
ATOM     44  C   UNL     1      13.977  -2.131   2.818  1.00  0.00     0.049 A 
ATOM     45  N   UNL     1      15.937  -0.201   1.590  1.00  0.00    -0.248 NA
ATOM     46  C   UNL     1      15.528   1.267   3.358  1.00  0.00     0.031 C 
ATOM     47  C   UNL     1      12.995  -3.082   3.345  1.00  0.00     0.029 A 
ATOM     48  N   UNL     1      14.468  -2.751   1.697  1.00  0.00    -0.354 N 
ATOM     49  C   UNL     1      16.688   0.955   1.412  1.00  0.00     0.074 A 
ATOM     50  C   UNL     1      16.354   1.848   2.500  1.00  0.00     0.031 C 
ATOM     51  C   UNL     1      12.969  -4.169   2.558  1.00  0.00     0.029 A 
ATOM     52  C   UNL     1      13.899  -3.978   1.449  1.00  0.00     0.049 A 
ATOM     53  H   UNL     1      15.163  -2.354   1.123  1.00  0.00     0.167 HD
ATOM     54  C   UNL     1      17.590   1.236   0.441  1.00  0.00     0.037 A 
ATOM     55  C   UNL     1      14.093  -4.845   0.436  1.00  0.00     0.037 A 
ATOM     56  C   UNL     1      17.933   0.331  -0.626  1.00  0.00     0.049 A 
ATOM     57  C   UNL     1      15.089  -4.504  -0.638  1.00  0.00     0.074 A 
ATOM     58  C   UNL     1      18.875   0.499  -1.625  1.00  0.00     0.029 A 
ATOM     59  N   UNL     1      17.345  -0.908  -0.834  1.00  0.00    -0.354 N 
ATOM     60  N   UNL     1      15.835  -3.431  -0.759  1.00  0.00    -0.248 NA
ATOM     61  C   UNL     1      15.272  -5.488  -1.714  1.00  0.00     0.031 C 
ATOM     62  C   UNL     1      18.825  -0.620  -2.464  1.00  0.00     0.029 A 
ATOM     63  C   UNL     1      17.887  -1.506  -1.960  1.00  0.00     0.049 A 
ATOM     64  H   UNL     1      16.646  -1.304  -0.266  1.00  0.00     0.167 HD
ATOM     65  C   UNL     1      16.593  -3.623  -1.909  1.00  0.00     0.074 A 
ATOM     66  C   UNL     1      16.223  -4.918  -2.442  1.00  0.00     0.031 C 
ATOM     67  C   UNL     1      17.511  -2.800  -2.474  1.00  0.00     0.037 A 
BRANCH  54  68
ATOM     68  C   UNL     1      18.274   2.575   0.490  1.00  0.00     0.058 A 
ATOM     69  C   UNL     1      19.222   2.881   1.480  1.00  0.00     0.135 A 
ATOM     70  C   UNL     1      18.007   3.551  -0.483  1.00  0.00     0.135 A 
ATOM     71  F   UNL     1      19.506   1.991   2.444  1.00  0.00    -0.206 F 
ATOM     72  C   UNL     1      19.858   4.118   1.521  1.00  0.00     0.059 A 
ATOM     73  C   UNL     1      18.653   4.784  -0.479  1.00  0.00     0.059 A 
ATOM     74  F   UNL     1      17.110   3.311  -1.453  1.00  0.00    -0.206 F 
ATOM     75  C   UNL     1      19.566   5.063   0.537  1.00  0.00     0.060 A 
BRANCH  75  76
ATOM     76  S   UNL     1      20.404   6.661   0.602  1.00  0.00     0.124 S 
ATOM     77  O   UNL     1      19.735   7.294   1.734  1.00  0.00    -0.237 OA
ATOM     78  O   UNL     1      21.795   6.275   0.823  1.00  0.00    -0.237 OA
ATOM     79  O   UNL     1      20.120   7.248  -0.704  1.00  0.00    -0.744 OA
ENDBRANCH  75  76
ENDBRANCH  54  68
BRANCH  55  80
ATOM     80  C   UNL     1      13.338  -6.125   0.400  1.00  0.00     0.058 A 
ATOM     81  C   UNL     1      13.984  -7.349   0.633  1.00  0.00     0.135 A 
ATOM     82  C   UNL     1      11.957  -6.152   0.149  1.00  0.00     0.135 A 
ATOM     83  F   UNL     1      15.304  -7.375   0.871  1.00  0.00    -0.206 F 
ATOM     84  C   UNL     1      13.292  -8.555   0.604  1.00  0.00     0.059 A 
ATOM     85  C   UNL     1      11.239  -7.344   0.140  1.00  0.00     0.059 A 
ATOM     86  F   UNL     1      11.290  -5.008  -0.064  1.00  0.00    -0.206 F 
ATOM     87  C   UNL     1      11.918  -8.542   0.359  1.00  0.00     0.060 A 
BRANCH  87  88
ATOM     88  S   UNL     1      11.021 -10.110   0.370  1.00  0.00     0.124 S 
ATOM     89  O   UNL     1      11.457 -10.706  -0.887  1.00  0.00    -0.237 OA
ATOM     90  O   UNL     1      11.523 -10.742   1.586  1.00  0.00    -0.237 OA
ATOM     91  O   UNL     1       9.622  -9.695   0.421  1.00  0.00    -0.744 OA
ENDBRANCH  87  88
ENDBRANCH  55  80
BRANCH  67  92
ATOM     92  C   UNL     1      18.204  -3.283  -3.717  1.00  0.00     0.058 A 
ATOM     93  C   UNL     1      17.547  -3.323  -4.957  1.00  0.00     0.135 A 
ATOM     94  C   UNL     1      19.560  -3.645  -3.680  1.00  0.00     0.135 A 
ATOM     95  F   UNL     1      16.249  -2.995  -5.045  1.00  0.00    -0.206 F 
ATOM     96  C   UNL     1      18.208  -3.720  -6.115  1.00  0.00     0.059 A 
ATOM     97  C   UNL     1      20.247  -4.020  -4.830  1.00  0.00     0.059 A 
ATOM     98  F   UNL     1      20.237  -3.616  -2.521  1.00  0.00    -0.206 F 
ATOM     99  C   UNL     1      19.560  -4.061  -6.043  1.00  0.00     0.060 A 
BRANCH  99 100
ATOM    100  S   UNL     1      20.417  -4.526  -7.562  1.00  0.00     0.124 S 
ATOM    101  O   UNL     1      19.878  -5.859  -7.808  1.00  0.00    -0.237 OA
ATOM    102  O   UNL     1      19.987  -3.487  -8.493  1.00  0.00    -0.237 OA
ATOM    103  O   UNL     1      21.826  -4.477  -7.186  1.00  0.00    -0.744 OA
ENDBRANCH  99 100
ENDBRANCH  67  92
ENDBRANCH  41  42
ENDBRANCH  33  36
ENDBRANCH  31  32
ENDBRANCH  30  31
ENDBRANCH  29  30
ENDBRANCH   1  29
TORSDOF 21
