REMARK SMILES C[C@H]1CCc2sc3ncn4nc(/C=C\C(=O)NCCCCCCNC(=O)c5ccc(-c6c7nc(c(-c8c(F)cc(S(=O)(=O)[O-])cc8F)c8ccc([nH]8)c(-c8c(F)cc(S(=O)(=O)[O-])cc8F)c8nc(c(-c9c(F)cc(S(=O)(=O)[O-])cc9F)c9ccc6[nH]9)C=C8)C=C7)cc5)nc4c3c2C1
REMARK SMILES IDX 21 1 20 2 19 3 18 4 17 5 15 6 16 7 14 9 13 10 12 11 1 12
REMARK SMILES IDX 2 13 3 14 97 15 4 16 96 17 5 18 95 19 6 20 7 21 94 22 8 23
REMARK SMILES IDX 10 24 93 25 9 26 11 27 22 28 23 29 24 30 25 31 26 33 27 34
REMARK SMILES IDX 28 35 92 36 29 37 91 38 30 39 31 40 32 41 85 42 33 43 90 44
REMARK SMILES IDX 84 45 86 46 34 47 89 48 83 49 82 50 35 52 69 53 48 54 68 55
REMARK SMILES IDX 49 56 52 57 67 58 87 59 50 60 51 61 66 63 88 64 53 65 36 66
REMARK SMILES IDX 37 67 46 68 38 69 39 70 45 71 47 72 40 73 41 74 42 75 43 76
REMARK SMILES IDX 44 77 70 78 71 79 80 80 72 81 73 82 79 83 81 84 74 85 75 86
REMARK SMILES IDX 76 87 77 88 78 89 54 90 55 91 64 92 56 93 57 94 63 95 65 96
REMARK SMILES IDX 58 97 59 98 60 99 61 100 62 101
REMARK H PARENT 17 8 24 32 86 51 52 62
REMARK Flexibility Score: inf
ROOT
ATOM      1  C   UNL     1      -2.655   0.348  -2.528  1.00  0.00     0.002 C 
ENDROOT
BRANCH   1   2
ATOM      2  C   UNL     1      -3.558  -0.325  -1.486  1.00  0.00     0.002 C 
BRANCH   2   3
ATOM      3  C   UNL     1      -3.904  -1.809  -1.676  1.00  0.00     0.021 C 
BRANCH   3   4
ATOM      4  C   UNL     1      -2.788  -2.732  -2.147  1.00  0.00     0.116 C 
BRANCH   4   5
ATOM      5  N   UNL     1      -1.972  -3.347  -1.121  1.00  0.00    -0.353 N 
ATOM      6  C   UNL     1      -1.390  -4.584  -1.140  1.00  0.00     0.244 C 
ATOM      7  O   UNL     1      -0.614  -4.916  -0.244  1.00  0.00    -0.270 OA
ATOM      8  H   UNL     1      -1.817  -2.808  -0.311  1.00  0.00     0.163 HD
BRANCH   6   9
ATOM      9  C   UNL     1      -1.810  -5.606  -2.133  1.00  0.00     0.075 C 
ATOM     10  C   UNL     1      -1.770  -5.571  -3.475  1.00  0.00     0.057 C 
BRANCH  10  11
ATOM     11  C   UNL     1      -1.324  -4.522  -4.330  1.00  0.00     0.175 A 
ATOM     12  C   UNL     1       3.010   0.517  -1.888  1.00  0.00     0.008 C 
ATOM     13  C   UNL     1       1.516   0.315  -1.631  1.00  0.00    -0.009 C 
ATOM     14  C   UNL     1       0.740   1.622  -1.904  1.00  0.00     0.009 C 
ATOM     15  C   UNL     1       0.960  -0.874  -2.454  1.00  0.00     0.041 C 
ATOM     16  C   UNL     1       0.725   2.030  -3.390  1.00  0.00     0.047 C 
ATOM     17  C   UNL     1       0.643  -0.492  -3.870  1.00  0.00    -0.020 A 
ATOM     18  C   UNL     1       0.586   0.831  -4.282  1.00  0.00     0.011 A 
ATOM     19  C   UNL     1       0.098  -1.318  -4.892  1.00  0.00     0.060 A 
ATOM     20  S   UNL     1       0.249   0.993  -5.954  1.00  0.00    -0.120 S 
ATOM     21  C   UNL     1      -0.249  -0.646  -6.058  1.00  0.00     0.129 A 
ATOM     22  C   UNL     1      -0.419  -2.700  -4.832  1.00  0.00     0.168 A 
ATOM     23  N   UNL     1      -1.035  -1.100  -7.093  1.00  0.00    -0.225 NA
ATOM     24  N   UNL     1      -1.259  -3.090  -5.833  1.00  0.00    -0.201 N 
ATOM     25  N   UNL     1      -0.404  -3.599  -3.880  1.00  0.00    -0.207 NA
ATOM     26  C   UNL     1      -1.569  -2.286  -6.931  1.00  0.00     0.227 A 
ATOM     27  N   UNL     1      -1.835  -4.272  -5.549  1.00  0.00    -0.145 NA
ENDBRANCH  10  11
ENDBRANCH   6   9
ENDBRANCH   4   5
ENDBRANCH   3   4
ENDBRANCH   2   3
ENDBRANCH   1   2
BRANCH   1  28
ATOM     28  C   UNL     1      -2.992   0.150  -4.007  1.00  0.00     0.021 C 
BRANCH  28  29
ATOM     29  C   UNL     1      -3.809   1.266  -4.612  1.00  0.00     0.116 C 
BRANCH  29  30
ATOM     30  N   UNL     1      -3.105   2.542  -4.856  1.00  0.00    -0.352 N 
ATOM     31  C   UNL     1      -3.639   3.698  -5.442  1.00  0.00     0.251 C 
ATOM     32  H   UNL     1      -2.162   2.585  -4.577  1.00  0.00     0.163 HD
ATOM     33  O   UNL     1      -2.919   4.596  -5.872  1.00  0.00    -0.269 OA
BRANCH  31  34
ATOM     34  C   UNL     1      -5.114   3.793  -5.532  1.00  0.00     0.039 A 
ATOM     35  C   UNL     1      -5.809   4.061  -6.710  1.00  0.00     0.014 A 
ATOM     36  C   UNL     1      -5.774   3.272  -4.443  1.00  0.00     0.014 A 
ATOM     37  C   UNL     1      -7.117   3.575  -6.816  1.00  0.00     0.010 A 
ATOM     38  C   UNL     1      -6.816   2.441  -4.736  1.00  0.00     0.010 A 
ATOM     39  C   UNL     1      -7.584   2.655  -5.856  1.00  0.00    -0.014 A 
BRANCH  39  40
ATOM     40  C   UNL     1      -8.788   1.831  -6.008  1.00  0.00     0.031 A 
ATOM     41  C   UNL     1      -9.127   1.524  -7.414  1.00  0.00     0.074 A 
ATOM     42  C   UNL     1      -9.538   1.309  -5.005  1.00  0.00     0.049 A 
ATOM     43  N   UNL     1      -9.835   2.276  -8.184  1.00  0.00    -0.248 NA
ATOM     44  C   UNL     1      -8.450   0.426  -8.112  1.00  0.00     0.031 C 
ATOM     45  C   UNL     1      -9.300   1.277  -3.550  1.00  0.00     0.029 A 
ATOM     46  N   UNL     1     -10.739   0.665  -5.104  1.00  0.00    -0.354 N 
ATOM     47  C   UNL     1      -9.928   1.607  -9.391  1.00  0.00     0.074 A 
ATOM     48  C   UNL     1      -8.883   0.615  -9.364  1.00  0.00     0.031 C 
ATOM     49  C   UNL     1     -10.219   0.505  -2.931  1.00  0.00     0.029 A 
ATOM     50  C   UNL     1     -11.235   0.165  -3.902  1.00  0.00     0.049 A 
ATOM     51  H   UNL     1     -11.217   0.562  -5.958  1.00  0.00     0.167 HD
ATOM     52  C   UNL     1     -11.033   1.771 -10.169  1.00  0.00     0.037 A 
ATOM     53  C   UNL     1     -12.470  -0.335  -3.652  1.00  0.00     0.037 A 
ATOM     54  C   UNL     1     -11.835   2.878  -9.684  1.00  0.00     0.049 A 
ATOM     55  C   UNL     1     -13.365   0.262  -4.668  1.00  0.00     0.074 A 
ATOM     56  C   UNL     1     -11.637   4.236  -9.530  1.00  0.00     0.029 A 
ATOM     57  N   UNL     1     -12.887   2.550  -8.860  1.00  0.00    -0.354 N 
ATOM     58  N   UNL     1     -13.673   1.529  -4.705  1.00  0.00    -0.248 NA
ATOM     59  C   UNL     1     -13.583  -0.471  -5.903  1.00  0.00     0.031 C 
ATOM     60  C   UNL     1     -12.301   4.580  -8.313  1.00  0.00     0.029 A 
ATOM     61  C   UNL     1     -12.931   3.438  -7.815  1.00  0.00     0.049 A 
ATOM     62  H   UNL     1     -13.508   1.799  -8.998  1.00  0.00     0.167 HD
ATOM     63  C   UNL     1     -13.706   1.845  -6.054  1.00  0.00     0.074 A 
ATOM     64  C   UNL     1     -13.762   0.555  -6.738  1.00  0.00     0.031 C 
ATOM     65  C   UNL     1     -13.419   3.107  -6.488  1.00  0.00     0.037 A 
BRANCH  52  66
ATOM     66  C   UNL     1     -11.615   0.709 -11.072  1.00  0.00     0.058 A 
ATOM     67  C   UNL     1     -12.707   1.047 -11.898  1.00  0.00     0.135 A 
ATOM     68  C   UNL     1     -11.344  -0.672 -10.956  1.00  0.00     0.135 A 
ATOM     69  F   UNL     1     -13.052   2.331 -12.087  1.00  0.00    -0.206 F 
ATOM     70  C   UNL     1     -13.523   0.083 -12.489  1.00  0.00     0.059 A 
ATOM     71  C   UNL     1     -12.113  -1.647 -11.578  1.00  0.00     0.059 A 
ATOM     72  F   UNL     1     -10.386  -1.155 -10.159  1.00  0.00    -0.206 F 
ATOM     73  C   UNL     1     -13.226  -1.264 -12.306  1.00  0.00     0.060 A 
BRANCH  73  74
ATOM     74  S   UNL     1     -14.338  -2.511 -12.972  1.00  0.00     0.124 S 
ATOM     75  O   UNL     1     -15.533  -2.295 -12.164  1.00  0.00    -0.237 OA
ATOM     76  O   UNL     1     -14.430  -2.113 -14.373  1.00  0.00    -0.237 OA
ATOM     77  O   UNL     1     -13.626  -3.761 -12.726  1.00  0.00    -0.744 OA
ENDBRANCH  73  74
ENDBRANCH  52  66
BRANCH  53  78
ATOM     78  C   UNL     1     -12.844  -1.533  -2.858  1.00  0.00     0.058 A 
ATOM     79  C   UNL     1     -14.198  -1.844  -2.633  1.00  0.00     0.135 A 
ATOM     80  C   UNL     1     -11.915  -2.557  -2.590  1.00  0.00     0.135 A 
ATOM     81  F   UNL     1     -15.148  -0.923  -2.855  1.00  0.00    -0.206 F 
ATOM     82  C   UNL     1     -14.618  -3.124  -2.262  1.00  0.00     0.059 A 
ATOM     83  C   UNL     1     -12.311  -3.842  -2.214  1.00  0.00     0.059 A 
ATOM     84  F   UNL     1     -10.602  -2.361  -2.781  1.00  0.00    -0.206 F 
ATOM     85  C   UNL     1     -13.667  -4.128  -2.089  1.00  0.00     0.060 A 
BRANCH  85  86
ATOM     86  S   UNL     1     -14.223  -5.829  -1.821  1.00  0.00     0.124 S 
ATOM     87  O   UNL     1     -14.835  -5.742  -0.499  1.00  0.00    -0.237 OA
ATOM     88  O   UNL     1     -15.140  -6.031  -2.937  1.00  0.00    -0.237 OA
ATOM     89  O   UNL     1     -12.986  -6.603  -1.886  1.00  0.00    -0.744 OA
ENDBRANCH  85  86
ENDBRANCH  53  78
BRANCH  65  90
ATOM     90  C   UNL     1     -13.454   4.223  -5.469  1.00  0.00     0.058 A 
ATOM     91  C   UNL     1     -12.570   4.359  -4.383  1.00  0.00     0.135 A 
ATOM     92  C   UNL     1     -14.365   5.269  -5.681  1.00  0.00     0.135 A 
ATOM     93  F   UNL     1     -11.616   3.446  -4.150  1.00  0.00    -0.206 F 
ATOM     94  C   UNL     1     -12.611   5.470  -3.534  1.00  0.00     0.059 A 
ATOM     95  C   UNL     1     -14.404   6.398  -4.867  1.00  0.00     0.059 A 
ATOM     96  F   UNL     1     -15.209   5.223  -6.726  1.00  0.00    -0.206 F 
ATOM     97  C   UNL     1     -13.530   6.488  -3.788  1.00  0.00     0.060 A 
BRANCH  97  98
ATOM     98  S   UNL     1     -13.533   7.958  -2.737  1.00  0.00     0.124 S 
ATOM     99  O   UNL     1     -14.033   7.433  -1.471  1.00  0.00    -0.237 OA
ATOM    100  O   UNL     1     -12.129   8.357  -2.746  1.00  0.00    -0.237 OA
ATOM    101  O   UNL     1     -14.436   8.874  -3.431  1.00  0.00    -0.744 OA
ENDBRANCH  97  98
ENDBRANCH  65  90
ENDBRANCH  39  40
ENDBRANCH  31  34
ENDBRANCH  29  30
ENDBRANCH  28  29
ENDBRANCH   1  28
TORSDOF 17
