REMARK SMILES O=C(N[C@]1(C(=O)NCCCCCCNC(=O)c2ccc(-c3c4nc(c(-c5c(F)cc(S(=O)(=O)[O-])cc5F)c5ccc([nH]5)c(-c5c(F)cc(S(=O)(=O)[O-])cc5F)c5nc(c(-c6c(F)cc(S(=O)(=O)[O-])cc6F)c6ccc3[nH]6)C=C5)C=C4)cc2)CC[C@H](c2ccccc2)CC1)OCC1c2ccccc2-c2ccccc21
REMARK SMILES IDX 10 1 9 2 8 3 7 4 5 5 6 6 4 8 83 9 93 10 84 11 92 12 85 13
REMARK SMILES IDX 3 14 1 15 2 16 94 18 95 19 96 20 97 21 108 22 98 23 102 24
REMARK SMILES IDX 103 25 107 26 99 27 101 28 104 29 106 30 100 31 105 32 86 33
REMARK SMILES IDX 87 34 91 35 88 36 90 37 89 38 11 39 12 40 13 41 14 42 15 43
REMARK SMILES IDX 16 45 17 46 18 47 82 48 19 49 81 50 20 51 21 52 22 53 75 54
REMARK SMILES IDX 23 55 80 56 74 57 76 58 24 59 79 60 73 61 72 62 25 64 59 65
REMARK SMILES IDX 38 66 58 67 39 68 42 69 57 70 77 71 40 72 41 73 56 75 78 76
REMARK SMILES IDX 43 77 26 78 27 79 36 80 28 81 29 82 35 83 37 84 30 85 31 86
REMARK SMILES IDX 32 87 33 88 34 89 60 90 61 91 70 92 62 93 63 94 69 95 71 96
REMARK SMILES IDX 64 97 65 98 66 99 67 100 68 101 44 102 45 103 54 104 46 105
REMARK SMILES IDX 47 106 53 107 55 108 48 109 49 110 50 111 51 112 52 113
REMARK H PARENT 7 7 3 17 14 44 76 63 42 74
REMARK Flexibility Score: inf
ROOT
ATOM      1  C   UNL     1       9.471   2.037  -1.651  1.00  0.00     0.002 C 
ENDROOT
BRANCH   1   2
ATOM      2  C   UNL     1       8.627   1.347  -0.577  1.00  0.00     0.021 C 
BRANCH   2   3
ATOM      3  C   UNL     1       7.628   2.277   0.107  1.00  0.00     0.116 C 
BRANCH   3   4
ATOM      4  N   UNL     1       6.264   2.062  -0.355  1.00  0.00    -0.354 N 
ATOM      5  C   UNL     1       5.127   2.278   0.375  1.00  0.00     0.245 C 
ATOM      6  O   UNL     1       4.471   3.286   0.088  1.00  0.00    -0.272 OA
ATOM      7  H   UNL     1       6.150   1.732  -1.276  1.00  0.00     0.163 HD
BRANCH   5   8
ATOM      8  C   UNL     1       4.615   1.266   1.472  1.00  0.00     0.122 C 
ATOM      9  C   UNL     1       4.749   1.992   2.837  1.00  0.00     0.039 C 
ATOM     10  C   UNL     1       5.199  -0.146   1.649  1.00  0.00     0.039 C 
ATOM     11  C   UNL     1       6.170   1.987   3.405  1.00  0.00     0.011 C 
ATOM     12  C   UNL     1       6.617  -0.213   2.180  1.00  0.00     0.011 C 
ATOM     13  C   UNL     1       6.829   0.588   3.482  1.00  0.00     0.019 C 
BRANCH   8  14
ATOM     14  N   UNL     1       3.145   1.083   1.221  1.00  0.00    -0.307 N 
ATOM     15  O   UNL     1       1.241   0.398   0.256  1.00  0.00    -0.225 OA
ATOM     16  C   UNL     1       2.420   0.699   0.126  1.00  0.00     0.408 C 
ATOM     17  H   UNL     1       2.587   1.281   2.008  1.00  0.00     0.168 HD
BRANCH  16  18
ATOM     18  O   UNL     1       2.979   0.842  -1.100  1.00  0.00    -0.449 OA
BRANCH  18  19
ATOM     19  C   UNL     1       3.940  -0.127  -1.521  1.00  0.00     0.248 C 
BRANCH  19  20
ATOM     20  C   UNL     1       4.373   0.052  -2.983  1.00  0.00     0.088 C 
ATOM     21  C   UNL     1       5.710  -0.668  -3.208  1.00  0.00    -0.029 A 
ATOM     22  C   UNL     1       4.743   1.486  -3.363  1.00  0.00    -0.029 A 
ATOM     23  C   UNL     1       6.069  -1.961  -2.848  1.00  0.00     0.005 A 
ATOM     24  C   UNL     1       6.666   0.230  -3.731  1.00  0.00    -0.014 A 
ATOM     25  C   UNL     1       6.075   1.548  -3.822  1.00  0.00    -0.014 A 
ATOM     26  C   UNL     1       3.978   2.638  -3.239  1.00  0.00     0.005 A 
ATOM     27  C   UNL     1       7.401  -2.350  -3.013  1.00  0.00     0.000 A 
ATOM     28  C   UNL     1       7.975  -0.175  -3.943  1.00  0.00     0.009 A 
ATOM     29  C   UNL     1       6.653   2.768  -4.145  1.00  0.00     0.009 A 
ATOM     30  C   UNL     1       4.573   3.867  -3.526  1.00  0.00     0.000 A 
ATOM     31  C   UNL     1       8.343  -1.469  -3.566  1.00  0.00     0.001 A 
ATOM     32  C   UNL     1       5.899   3.933  -3.976  1.00  0.00     0.001 A 
ENDBRANCH  19  20
ENDBRANCH  18  19
ENDBRANCH  16  18
ENDBRANCH   8  14
BRANCH  13  33
ATOM     33  C   UNL     1       6.462  -0.252   4.705  1.00  0.00    -0.045 A 
ATOM     34  C   UNL     1       5.601   0.194   5.717  1.00  0.00     0.004 A 
ATOM     35  C   UNL     1       7.055  -1.519   4.869  1.00  0.00     0.004 A 
ATOM     36  C   UNL     1       5.315  -0.607   6.826  1.00  0.00     0.000 A 
ATOM     37  C   UNL     1       6.753  -2.330   5.964  1.00  0.00     0.000 A 
ATOM     38  C   UNL     1       5.880  -1.872   6.943  1.00  0.00     0.000 A 
ENDBRANCH  13  33
ENDBRANCH   5   8
ENDBRANCH   3   4
ENDBRANCH   2   3
ENDBRANCH   1   2
BRANCH   1  39
ATOM     39  C   UNL     1      10.550   2.988  -1.126  1.00  0.00     0.002 C 
BRANCH  39  40
ATOM     40  C   UNL     1      11.579   2.369  -0.177  1.00  0.00     0.021 C 
BRANCH  40  41
ATOM     41  C   UNL     1      12.196   1.051  -0.635  1.00  0.00     0.116 C 
BRANCH  41  42
ATOM     42  N   UNL     1      12.879   1.157  -1.915  1.00  0.00    -0.352 N 
ATOM     43  C   UNL     1      14.175   0.837  -2.238  1.00  0.00     0.251 C 
ATOM     44  H   UNL     1      12.334   1.509  -2.656  1.00  0.00     0.163 HD
ATOM     45  O   UNL     1      14.618   1.101  -3.351  1.00  0.00    -0.269 OA
BRANCH  43  46
ATOM     46  C   UNL     1      15.042   0.206  -1.222  1.00  0.00     0.039 A 
ATOM     47  C   UNL     1      16.285   0.780  -0.950  1.00  0.00     0.014 A 
ATOM     48  C   UNL     1      14.613  -0.923  -0.516  1.00  0.00     0.014 A 
ATOM     49  C   UNL     1      17.070   0.263   0.082  1.00  0.00     0.010 A 
ATOM     50  C   UNL     1      15.368  -1.396   0.554  1.00  0.00     0.010 A 
ATOM     51  C   UNL     1      16.602  -0.805   0.865  1.00  0.00    -0.014 A 
BRANCH  51  52
ATOM     52  C   UNL     1      17.396  -1.303   2.017  1.00  0.00     0.031 A 
ATOM     53  C   UNL     1      17.983  -2.688   1.990  1.00  0.00     0.074 A 
ATOM     54  C   UNL     1      17.554  -0.520   3.102  1.00  0.00     0.049 A 
ATOM     55  N   UNL     1      18.691  -3.300   2.904  1.00  0.00    -0.248 NA
ATOM     56  C   UNL     1      17.716  -3.500   0.792  1.00  0.00     0.031 C 
ATOM     57  C   UNL     1      16.974   0.815   3.276  1.00  0.00     0.029 A 
ATOM     58  N   UNL     1      18.246  -0.733   4.268  1.00  0.00    -0.354 N 
ATOM     59  C   UNL     1      18.957  -4.564   2.392  1.00  0.00     0.074 A 
ATOM     60  C   UNL     1      18.280  -4.654   1.116  1.00  0.00     0.031 C 
ATOM     61  C   UNL     1      17.350   1.307   4.467  1.00  0.00     0.029 A 
ATOM     62  C   UNL     1      18.182   0.321   5.149  1.00  0.00     0.049 A 
ATOM     63  H   UNL     1      18.741  -1.562   4.456  1.00  0.00     0.167 HD
ATOM     64  C   UNL     1      19.721  -5.550   2.920  1.00  0.00     0.037 A 
ATOM     65  C   UNL     1      18.738   0.477   6.366  1.00  0.00     0.037 A 
ATOM     66  C   UNL     1      20.409  -5.450   4.181  1.00  0.00     0.049 A 
ATOM     67  C   UNL     1      19.615  -0.616   6.914  1.00  0.00     0.074 A 
ATOM     68  C   UNL     1      21.229  -6.382   4.793  1.00  0.00     0.029 A 
ATOM     69  N   UNL     1      20.364  -4.346   5.019  1.00  0.00    -0.354 N 
ATOM     70  N   UNL     1      19.900  -1.784   6.389  1.00  0.00    -0.248 NA
ATOM     71  C   UNL     1      20.262  -0.363   8.209  1.00  0.00     0.031 C 
ATOM     72  C   UNL     1      21.665  -5.848   6.011  1.00  0.00     0.029 A 
ATOM     73  C   UNL     1      21.142  -4.571   6.142  1.00  0.00     0.049 A 
ATOM     74  H   UNL     1      19.853  -3.523   4.842  1.00  0.00     0.167 HD
ATOM     75  C   UNL     1      20.772  -2.398   7.281  1.00  0.00     0.074 A 
ATOM     76  C   UNL     1      20.984  -1.464   8.368  1.00  0.00     0.031 C 
ATOM     77  C   UNL     1      21.344  -3.625   7.209  1.00  0.00     0.037 A 
BRANCH  64  78
ATOM     78  C   UNL     1      19.873  -6.811   2.117  1.00  0.00     0.058 A 
ATOM     79  C   UNL     1      20.644  -6.836   0.943  1.00  0.00     0.135 A 
ATOM     80  C   UNL     1      19.268  -8.008   2.529  1.00  0.00     0.135 A 
ATOM     81  F   UNL     1      21.229  -5.714   0.494  1.00  0.00    -0.206 F 
ATOM     82  C   UNL     1      20.785  -7.996   0.190  1.00  0.00     0.059 A 
ATOM     83  C   UNL     1      19.416  -9.188   1.804  1.00  0.00     0.059 A 
ATOM     84  F   UNL     1      18.519  -8.039   3.643  1.00  0.00    -0.206 F 
ATOM     85  C   UNL     1      20.165  -9.167   0.627  1.00  0.00     0.060 A 
BRANCH  85  86
ATOM     86  S   UNL     1      20.358 -10.666  -0.361  1.00  0.00     0.124 S 
ATOM     87  O   UNL     1      19.458 -10.395  -1.477  1.00  0.00    -0.237 OA
ATOM     88  O   UNL     1      21.783 -10.652  -0.678  1.00  0.00    -0.237 OA
ATOM     89  O   UNL     1      19.932 -11.727   0.546  1.00  0.00    -0.744 OA
ENDBRANCH  85  86
ENDBRANCH  64  78
BRANCH  65  90
ATOM     90  C   UNL     1      18.510   1.728   7.136  1.00  0.00     0.058 A 
ATOM     91  C   UNL     1      19.533   2.674   7.299  1.00  0.00     0.135 A 
ATOM     92  C   UNL     1      17.266   2.001   7.724  1.00  0.00     0.135 A 
ATOM     93  F   UNL     1      20.741   2.455   6.756  1.00  0.00    -0.206 F 
ATOM     94  C   UNL     1      19.340   3.836   8.038  1.00  0.00     0.059 A 
ATOM     95  C   UNL     1      17.042   3.166   8.450  1.00  0.00     0.059 A 
ATOM     96  F   UNL     1      16.250   1.137   7.580  1.00  0.00    -0.206 F 
ATOM     97  C   UNL     1      18.090   4.072   8.613  1.00  0.00     0.060 A 
BRANCH  97  98
ATOM     98  S   UNL     1      17.832   5.599   9.542  1.00  0.00     0.124 S 
ATOM     99  O   UNL     1      18.483   5.285  10.808  1.00  0.00    -0.237 OA
ATOM    100  O   UNL     1      18.505   6.588   8.705  1.00  0.00    -0.237 OA
ATOM    101  O   UNL     1      16.378   5.718   9.589  1.00  0.00    -0.744 OA
ENDBRANCH  97  98
ENDBRANCH  65  90
BRANCH  77 102
ATOM    102  C   UNL     1      22.270  -4.014   8.326  1.00  0.00     0.058 A 
ATOM    103  C   UNL     1      21.782  -4.370   9.592  1.00  0.00     0.135 A 
ATOM    104  C   UNL     1      23.657  -4.061   8.117  1.00  0.00     0.135 A 
ATOM    105  F   UNL     1      20.463  -4.337   9.842  1.00  0.00    -0.206 F 
ATOM    106  C   UNL     1      22.641  -4.733  10.624  1.00  0.00     0.059 A 
ATOM    107  C   UNL     1      24.533  -4.442   9.128  1.00  0.00     0.059 A 
ATOM    108  F   UNL     1      24.172  -3.740   6.920  1.00  0.00    -0.206 F 
ATOM    109  C   UNL     1      24.016  -4.762  10.383  1.00  0.00     0.060 A 
BRANCH 109 110
ATOM    110  S   UNL     1      25.122  -5.251  11.723  1.00  0.00     0.124 S 
ATOM    111  O   UNL     1      25.168  -4.032  12.524  1.00  0.00    -0.237 OA
ATOM    112  O   UNL     1      24.413  -6.377  12.324  1.00  0.00    -0.237 OA
ATOM    113  O   UNL     1      26.360  -5.596  11.031  1.00  0.00    -0.744 OA
ENDBRANCH 109 110
ENDBRANCH  77 102
ENDBRANCH  51  52
ENDBRANCH  43  46
ENDBRANCH  41  42
ENDBRANCH  40  41
ENDBRANCH  39  40
ENDBRANCH   1  39
TORSDOF 21
