REMARK SMILES O=C(NCCCCCCNC(=O)c1cc(Cl)ncc1-c1cccc(C(F)(F)F)c1)c1ccc(-c2c3nc(c(-c4c(F)cc(S(=O)(=O)[O-])cc4F)c4ccc([nH]4)c(-c4c(F)cc(S(=O)(=O)[O-])cc4F)c4nc(c(-c5c(F)cc(S(=O)(=O)[O-])cc5F)c5ccc2[nH]5)C=C4)C=C3)cc1
REMARK SMILES IDX 6 1 5 2 4 3 3 4 1 5 2 6 30 8 31 9 95 10 32 11 94 12 33 13
REMARK SMILES IDX 34 14 35 15 88 16 36 17 93 18 87 19 89 20 37 21 92 22 86 23
REMARK SMILES IDX 85 24 38 26 72 27 51 28 71 29 52 30 55 31 70 32 90 33 53 34
REMARK SMILES IDX 54 35 69 37 91 38 56 39 39 40 40 41 49 42 41 43 42 44 48 45
REMARK SMILES IDX 50 46 43 47 44 48 45 49 46 50 47 51 73 52 74 53 83 54 75 55
REMARK SMILES IDX 76 56 82 57 84 58 77 59 78 60 79 61 80 62 81 63 57 64 58 65
REMARK SMILES IDX 67 66 59 67 60 68 66 69 68 70 61 71 62 72 63 73 64 74 65 75
REMARK SMILES IDX 7 76 8 77 9 78 10 79 11 80 12 82 13 83 14 84 19 85 15 86
REMARK SMILES IDX 18 87 16 88 17 89 20 90 21 91 29 92 22 93 24 94 23 95 25 96
REMARK SMILES IDX 26 97 27 98 28 99
REMARK H PARENT 3 7 89 25 55 36 10 81
REMARK Flexibility Score: inf
ROOT
ATOM      1  C   UNL     1       4.278  -0.947  -3.747  1.00  0.00     0.002 C 
ENDROOT
BRANCH   1   2
ATOM      2  C   UNL     1       4.744  -1.213  -2.316  1.00  0.00     0.021 C 
BRANCH   2   3
ATOM      3  C   UNL     1       4.471  -0.084  -1.331  1.00  0.00     0.116 C 
BRANCH   3   4
ATOM      4  N   UNL     1       3.051   0.152  -1.132  1.00  0.00    -0.352 N 
ATOM      5  O   UNL     1       1.105   0.206   0.008  1.00  0.00    -0.269 OA
ATOM      6  C   UNL     1       2.330   0.155   0.039  1.00  0.00     0.251 C 
ATOM      7  H   UNL     1       2.533   0.335  -1.949  1.00  0.00     0.163 HD
BRANCH   6   8
ATOM      8  C   UNL     1       3.042   0.072   1.334  1.00  0.00     0.039 A 
ATOM      9  C   UNL     1       4.179   0.849   1.567  1.00  0.00     0.014 A 
ATOM     10  C   UNL     1       2.569  -0.795   2.322  1.00  0.00     0.014 A 
ATOM     11  C   UNL     1       4.923   0.654   2.724  1.00  0.00     0.010 A 
ATOM     12  C   UNL     1       3.268  -0.919   3.527  1.00  0.00     0.010 A 
ATOM     13  C   UNL     1       4.465  -0.215   3.728  1.00  0.00    -0.014 A 
BRANCH  13  14
ATOM     14  C   UNL     1       5.215  -0.305   5.008  1.00  0.00     0.031 A 
ATOM     15  C   UNL     1       5.861  -1.589   5.450  1.00  0.00     0.074 A 
ATOM     16  C   UNL     1       5.325   0.806   5.764  1.00  0.00     0.049 A 
ATOM     17  N   UNL     1       6.553  -1.830   6.534  1.00  0.00    -0.248 NA
ATOM     18  C   UNL     1       5.707  -2.756   4.567  1.00  0.00     0.031 C 
ATOM     19  C   UNL     1       4.729   2.106   5.439  1.00  0.00     0.029 A 
ATOM     20  N   UNL     1       5.981   1.031   6.946  1.00  0.00    -0.354 N 
ATOM     21  C   UNL     1       6.907  -3.173   6.475  1.00  0.00     0.074 A 
ATOM     22  C   UNL     1       6.326  -3.704   5.259  1.00  0.00     0.031 C 
ATOM     23  C   UNL     1       5.082   2.999   6.374  1.00  0.00     0.029 A 
ATOM     24  C   UNL     1       5.867   2.324   7.400  1.00  0.00     0.049 A 
ATOM     25  H   UNL     1       6.486   0.334   7.424  1.00  0.00     0.167 HD
ATOM     26  C   UNL     1       7.654  -3.890   7.349  1.00  0.00     0.037 A 
ATOM     27  C   UNL     1       6.319   2.901   8.529  1.00  0.00     0.037 A 
ATOM     28  C   UNL     1       8.227  -3.346   8.556  1.00  0.00     0.049 A 
ATOM     29  C   UNL     1       7.109   2.072   9.500  1.00  0.00     0.074 A 
ATOM     30  C   UNL     1       9.021  -3.984   9.495  1.00  0.00     0.029 A 
ATOM     31  N   UNL     1       8.065  -2.039   8.997  1.00  0.00    -0.354 N 
ATOM     32  N   UNL     1       7.462   0.811   9.409  1.00  0.00    -0.248 NA
ATOM     33  C   UNL     1       7.562   2.740  10.725  1.00  0.00     0.031 C 
ATOM     34  C   UNL     1       9.293  -3.079  10.527  1.00  0.00     0.029 A 
ATOM     35  C   UNL     1       8.721  -1.859  10.204  1.00  0.00     0.049 A 
ATOM     36  H   UNL     1       7.557  -1.343   8.521  1.00  0.00     0.167 HD
ATOM     37  C   UNL     1       8.197   0.541  10.557  1.00  0.00     0.074 A 
ATOM     38  C   UNL     1       8.253   1.775  11.316  1.00  0.00     0.031 C 
ATOM     39  C   UNL     1       8.771  -0.624  10.947  1.00  0.00     0.037 A 
BRANCH  26  40
ATOM     40  C   UNL     1       7.884  -5.348   7.049  1.00  0.00     0.058 A 
ATOM     41  C   UNL     1       8.714  -5.766   5.996  1.00  0.00     0.135 A 
ATOM     42  C   UNL     1       7.307  -6.343   7.857  1.00  0.00     0.135 A 
ATOM     43  F   UNL     1       9.282  -4.861   5.184  1.00  0.00    -0.206 F 
ATOM     44  C   UNL     1       8.943  -7.114   5.739  1.00  0.00     0.059 A 
ATOM     45  C   UNL     1       7.544  -7.697   7.635  1.00  0.00     0.059 A 
ATOM     46  F   UNL     1       6.507  -6.004   8.879  1.00  0.00    -0.206 F 
ATOM     47  C   UNL     1       8.353  -8.073   6.564  1.00  0.00     0.060 A 
BRANCH  47  48
ATOM     48  S   UNL     1       8.662  -9.818   6.215  1.00  0.00     0.124 S 
ATOM     49  O   UNL     1       7.891 -10.010   4.990  1.00  0.00    -0.237 OA
ATOM     50  O   UNL     1      10.113  -9.853   6.061  1.00  0.00    -0.237 OA
ATOM     51  O   UNL     1       8.143 -10.500   7.396  1.00  0.00    -0.744 OA
ENDBRANCH  47  48
ENDBRANCH  26  40
BRANCH  27  52
ATOM     52  C   UNL     1       6.020   4.332   8.799  1.00  0.00     0.058 A 
ATOM     53  C   UNL     1       7.035   5.298   8.792  1.00  0.00     0.135 A 
ATOM     54  C   UNL     1       4.706   4.763   9.046  1.00  0.00     0.135 A 
ATOM     55  F   UNL     1       8.306   4.935   8.563  1.00  0.00    -0.206 F 
ATOM     56  C   UNL     1       6.763   6.640   9.040  1.00  0.00     0.059 A 
ATOM     57  C   UNL     1       4.405   6.103   9.264  1.00  0.00     0.059 A 
ATOM     58  F   UNL     1       3.695   3.880   9.043  1.00  0.00    -0.206 F 
ATOM     59  C   UNL     1       5.443   7.032   9.272  1.00  0.00     0.060 A 
BRANCH  59  60
ATOM     60  S   UNL     1       5.096   8.781   9.552  1.00  0.00     0.124 S 
ATOM     61  O   UNL     1       5.631   8.975  10.894  1.00  0.00    -0.237 OA
ATOM     62  O   UNL     1       5.841   9.418   8.469  1.00  0.00    -0.237 OA
ATOM     63  O   UNL     1       3.643   8.859   9.432  1.00  0.00    -0.744 OA
ENDBRANCH  59  60
ENDBRANCH  27  52
BRANCH  39  64
ATOM     64  C   UNL     1       9.543  -0.609  12.238  1.00  0.00     0.058 A 
ATOM     65  C   UNL     1       8.902  -0.516  13.483  1.00  0.00     0.135 A 
ATOM     66  C   UNL     1      10.943  -0.726  12.229  1.00  0.00     0.135 A 
ATOM     67  F   UNL     1       7.566  -0.392  13.549  1.00  0.00    -0.206 F 
ATOM     68  C   UNL     1       9.622  -0.513  14.673  1.00  0.00     0.059 A 
ATOM     69  C   UNL     1      11.681  -0.757  13.408  1.00  0.00     0.059 A 
ATOM     70  F   UNL     1      11.605  -0.826  11.066  1.00  0.00    -0.206 F 
ATOM     71  C   UNL     1      11.012  -0.636  14.625  1.00  0.00     0.060 A 
BRANCH  71  72
ATOM     72  S   UNL     1      11.933  -0.662  16.177  1.00  0.00     0.124 S 
ATOM     73  O   UNL     1      11.848   0.734  16.593  1.00  0.00    -0.237 OA
ATOM     74  O   UNL     1      11.166  -1.610  16.979  1.00  0.00    -0.237 OA
ATOM     75  O   UNL     1      13.261  -1.118  15.778  1.00  0.00    -0.744 OA
ENDBRANCH  71  72
ENDBRANCH  39  64
ENDBRANCH  13  14
ENDBRANCH   6   8
ENDBRANCH   3   4
ENDBRANCH   2   3
ENDBRANCH   1   2
BRANCH   1  76
ATOM     76  C   UNL     1       4.822   0.332  -4.390  1.00  0.00     0.002 C 
BRANCH  76  77
ATOM     77  C   UNL     1       6.346   0.490  -4.372  1.00  0.00     0.021 C 
BRANCH  77  78
ATOM     78  C   UNL     1       7.128  -0.672  -4.977  1.00  0.00     0.116 C 
BRANCH  78  79
ATOM     79  N   UNL     1       6.811  -0.885  -6.380  1.00  0.00    -0.352 N 
ATOM     80  C   UNL     1       7.647  -0.962  -7.463  1.00  0.00     0.252 C 
ATOM     81  H   UNL     1       5.853  -0.991  -6.582  1.00  0.00     0.163 HD
ATOM     82  O   UNL     1       7.191  -1.116  -8.595  1.00  0.00    -0.269 OA
BRANCH  80  83
ATOM     83  C   UNL     1       9.107  -0.878  -7.260  1.00  0.00     0.052 A 
ATOM     84  C   UNL     1       9.703  -1.840  -6.438  1.00  0.00     0.055 A 
ATOM     85  C   UNL     1       9.880   0.099  -7.908  1.00  0.00     0.013 A 
ATOM     86  C   UNL     1      11.059  -1.746  -6.227  1.00  0.00     0.129 A 
ATOM     87  C   UNL     1      11.243   0.080  -7.607  1.00  0.00     0.122 A 
ATOM     88  Cl  UNL     1      11.869  -2.849  -5.199  1.00  0.00    -0.062 Cl
ATOM     89  N   UNL     1      11.846  -0.805  -6.779  1.00  0.00    -0.244 NA
BRANCH  85  90
ATOM     90  C   UNL     1       9.357   1.077  -8.873  1.00  0.00    -0.015 A 
ATOM     91  C   UNL     1       9.768   1.020 -10.216  1.00  0.00     0.009 A 
ATOM     92  C   UNL     1       8.452   2.083  -8.498  1.00  0.00     0.021 A 
ATOM     93  C   UNL     1       9.294   1.934 -11.157  1.00  0.00     0.001 A 
ATOM     94  C   UNL     1       7.962   3.009  -9.438  1.00  0.00     0.056 A 
ATOM     95  C   UNL     1       8.396   2.924 -10.770  1.00  0.00     0.013 A 
BRANCH  94  96
ATOM     96  C   UNL     1       6.979   4.083  -9.043  1.00  0.00     0.416 C 
ATOM     97  F   UNL     1       7.458   5.336  -9.286  1.00  0.00    -0.166 F 
ATOM     98  F   UNL     1       5.806   3.997  -9.731  1.00  0.00    -0.166 F 
ATOM     99  F   UNL     1       6.643   4.063  -7.724  1.00  0.00    -0.166 F 
ENDBRANCH  94  96
ENDBRANCH  85  90
ENDBRANCH  80  83
ENDBRANCH  78  79
ENDBRANCH  77  78
ENDBRANCH  76  77
ENDBRANCH   1  76
TORSDOF 18
