REMARK SMILES CC1=C(C(=O)Nc2ccccc2)[C@@H](c2ccc(C(=O)NCCCCCCNC(=O)c3ccc(-c4c5nc(c(-c6c(F)cc(S(=O)(=O)[O-])cc6F)c6ccc([nH]6)c(-c6c(F)cc(S(=O)(=O)[O-])cc6F)c6nc(c(-c7c(F)cc(S(=O)(=O)[O-])cc7F)c7ccc4[nH]7)C=C6)C=C5)cc3)cc2)n2ncnc2N1
REMARK SMILES IDX 23 1 22 2 21 3 20 4 18 5 19 6 17 8 14 9 15 10 97 11 16 12
REMARK SMILES IDX 96 13 13 14 1 15 2 16 3 17 103 18 102 19 98 21 101 22 99 23
REMARK SMILES IDX 100 24 4 25 5 26 6 27 7 29 8 30 12 31 9 32 11 33 10 34 24 35
REMARK SMILES IDX 25 36 26 37 27 38 28 39 29 41 30 42 31 43 95 44 32 45 94 46
REMARK SMILES IDX 33 47 34 48 35 49 88 50 36 51 93 52 87 53 89 54 37 55 92 56
REMARK SMILES IDX 86 57 85 58 38 60 72 61 51 62 71 63 52 64 55 65 70 66 90 67
REMARK SMILES IDX 53 68 54 69 69 71 91 72 56 73 39 74 40 75 49 76 41 77 42 78
REMARK SMILES IDX 48 79 50 80 43 81 44 82 45 83 46 84 47 85 73 86 74 87 83 88
REMARK SMILES IDX 75 89 76 90 82 91 84 92 77 93 78 94 79 95 80 96 81 97 57 98
REMARK SMILES IDX 58 99 67 100 59 101 60 102 66 103 68 104 61 105 62 106
REMARK SMILES IDX 63 107 64 108 65 109
REMARK H PARENT 20 7 103 20 6 28 27 40 89 59 55 70
REMARK Flexibility Score: inf
ROOT
ATOM      1  C   UNL     1      -6.574   5.813   6.033  1.00  0.00     0.002 C 
ENDROOT
BRANCH   1   2
ATOM      2  C   UNL     1      -5.367   4.927   5.698  1.00  0.00     0.021 C 
BRANCH   2   3
ATOM      3  C   UNL     1      -5.664   3.430   5.828  1.00  0.00     0.116 C 
BRANCH   3   4
ATOM      4  N   UNL     1      -6.366   2.950   4.651  1.00  0.00    -0.352 N 
ATOM      5  C   UNL     1      -5.955   2.216   3.565  1.00  0.00     0.251 C 
ATOM      6  O   UNL     1      -6.798   1.924   2.716  1.00  0.00    -0.269 OA
ATOM      7  H   UNL     1      -7.318   3.199   4.626  1.00  0.00     0.163 HD
BRANCH   5   8
ATOM      8  C   UNL     1      -4.565   1.706   3.415  1.00  0.00     0.039 A 
ATOM      9  C   UNL     1      -2.010   0.518   3.216  1.00  0.00    -0.019 A 
ATOM     10  C   UNL     1      -3.104  -0.062   2.567  1.00  0.00     0.007 A 
ATOM     11  C   UNL     1      -2.205   1.730   3.901  1.00  0.00     0.007 A 
ATOM     12  C   UNL     1      -4.374   0.521   2.684  1.00  0.00     0.014 A 
ATOM     13  C   UNL     1      -3.452   2.343   3.949  1.00  0.00     0.014 A 
BRANCH   9  14
ATOM     14  C   UNL     1      -0.607  -0.073   3.210  1.00  0.00     0.179 C 
ATOM     15  C   UNL     1       2.403  -0.460   0.767  1.00  0.00     0.065 C 
ATOM     16  C   UNL     1       1.180  -0.732   1.605  1.00  0.00     0.026 C 
ATOM     17  C   UNL     1       0.248   0.193   1.959  1.00  0.00     0.065 C 
ATOM     18  N   UNL     1       1.138  -2.017   2.138  1.00  0.00    -0.328 N 
ATOM     19  C   UNL     1       0.283  -2.402   3.098  1.00  0.00     0.226 A 
ATOM     20  H   UNL     1       1.774  -2.683   1.789  1.00  0.00     0.169 HD
ATOM     21  N   UNL     1      -0.602  -1.491   3.605  1.00  0.00    -0.219 N 
ATOM     22  N   UNL     1       0.165  -3.538   3.737  1.00  0.00    -0.200 NA
ATOM     23  N   UNL     1      -1.262  -2.003   4.670  1.00  0.00    -0.157 NA
ATOM     24  C   UNL     1      -0.774  -3.247   4.691  1.00  0.00     0.248 A 
BRANCH  17  25
ATOM     25  C   UNL     1       0.171   1.601   1.473  1.00  0.00     0.255 C 
ATOM     26  O   UNL     1       0.129   2.504   2.313  1.00  0.00    -0.269 OA
ATOM     27  N   UNL     1       0.151   1.967   0.158  1.00  0.00    -0.322 N 
ATOM     28  H   UNL     1      -0.143   2.892  -0.006  1.00  0.00     0.170 HD
BRANCH  27  29
ATOM     29  C   UNL     1       0.481   1.247  -0.995  1.00  0.00     0.041 A 
ATOM     30  C   UNL     1       1.489   1.809  -1.789  1.00  0.00     0.026 A 
ATOM     31  C   UNL     1      -0.036  -0.008  -1.314  1.00  0.00     0.026 A 
ATOM     32  C   UNL     1       2.090   1.058  -2.795  1.00  0.00     0.002 A 
ATOM     33  C   UNL     1       0.537  -0.741  -2.361  1.00  0.00     0.002 A 
ATOM     34  C   UNL     1       1.625  -0.225  -3.071  1.00  0.00     0.000 A 
ENDBRANCH  27  29
ENDBRANCH  17  25
ENDBRANCH   9  14
ENDBRANCH   5   8
ENDBRANCH   3   4
ENDBRANCH   2   3
ENDBRANCH   1   2
BRANCH   1  35
ATOM     35  C   UNL     1      -7.129   5.643   7.455  1.00  0.00     0.002 C 
BRANCH  35  36
ATOM     36  C   UNL     1      -6.099   5.774   8.587  1.00  0.00     0.021 C 
BRANCH  36  37
ATOM     37  C   UNL     1      -5.536   7.182   8.729  1.00  0.00     0.116 C 
BRANCH  37  38
ATOM     38  N   UNL     1      -6.564   8.114   9.175  1.00  0.00    -0.352 N 
ATOM     39  C   UNL     1      -6.479   9.474   9.368  1.00  0.00     0.251 C 
ATOM     40  H   UNL     1      -7.444   7.715   9.364  1.00  0.00     0.163 HD
ATOM     41  O   UNL     1      -7.291  10.041  10.084  1.00  0.00    -0.269 OA
BRANCH  39  42
ATOM     42  C   UNL     1      -5.395  10.234   8.717  1.00  0.00     0.039 A 
ATOM     43  C   UNL     1      -4.750  11.253   9.422  1.00  0.00     0.014 A 
ATOM     44  C   UNL     1      -5.032   9.939   7.402  1.00  0.00     0.014 A 
ATOM     45  C   UNL     1      -3.683  11.915   8.823  1.00  0.00     0.010 A 
ATOM     46  C   UNL     1      -3.916  10.531   6.843  1.00  0.00     0.010 A 
ATOM     47  C   UNL     1      -3.246  11.531   7.543  1.00  0.00    -0.014 A 
BRANCH  47  48
ATOM     48  C   UNL     1      -1.962  12.034   7.046  1.00  0.00     0.031 A 
ATOM     49  C   UNL     1      -0.843  11.805   8.003  1.00  0.00     0.074 A 
ATOM     50  C   UNL     1      -1.734  12.472   5.788  1.00  0.00     0.049 A 
ATOM     51  N   UNL     1      -0.220  12.687   8.711  1.00  0.00    -0.248 NA
ATOM     52  C   UNL     1      -0.500  10.415   8.357  1.00  0.00     0.031 C 
ATOM     53  C   UNL     1      -2.672  12.453   4.660  1.00  0.00     0.029 A 
ATOM     54  N   UNL     1      -0.582  12.931   5.211  1.00  0.00    -0.354 N 
ATOM     55  C   UNL     1       0.781  11.988   9.381  1.00  0.00     0.074 A 
ATOM     56  C   UNL     1       0.414  10.600   9.313  1.00  0.00     0.031 C 
ATOM     57  C   UNL     1      -1.998  12.654   3.506  1.00  0.00     0.029 A 
ATOM     58  C   UNL     1      -0.619  12.983   3.817  1.00  0.00     0.049 A 
ATOM     59  H   UNL     1       0.207  13.202   5.735  1.00  0.00     0.167 HD
ATOM     60  C   UNL     1       1.980  12.582   9.638  1.00  0.00     0.037 A 
ATOM     61  C   UNL     1       0.404  13.271   2.972  1.00  0.00     0.037 A 
ATOM     62  C   UNL     1       1.884  14.008   9.448  1.00  0.00     0.049 A 
ATOM     63  C   UNL     1       1.411  14.030   3.747  1.00  0.00     0.074 A 
ATOM     64  C   UNL     1       1.239  15.060  10.061  1.00  0.00     0.029 A 
ATOM     65  N   UNL     1       2.242  14.424   8.193  1.00  0.00    -0.354 N 
ATOM     66  N   UNL     1       1.211  15.233   4.206  1.00  0.00    -0.248 NA
ATOM     67  C   UNL     1       2.555  13.328   4.316  1.00  0.00     0.031 C 
ATOM     68  C   UNL     1       1.014  16.029   9.038  1.00  0.00     0.029 A 
ATOM     69  C   UNL     1       1.575  15.567   7.849  1.00  0.00     0.049 A 
ATOM     70  H   UNL     1       2.893  13.962   7.616  1.00  0.00     0.167 HD
ATOM     71  C   UNL     1       1.894  15.259   5.404  1.00  0.00     0.074 A 
ATOM     72  C   UNL     1       2.841  14.154   5.325  1.00  0.00     0.031 C 
ATOM     73  C   UNL     1       1.398  15.957   6.466  1.00  0.00     0.037 A 
BRANCH  60  74
ATOM     74  C   UNL     1       3.329  11.884   9.546  1.00  0.00     0.058 A 
ATOM     75  C   UNL     1       4.495  12.604   9.893  1.00  0.00     0.135 A 
ATOM     76  C   UNL     1       3.555  10.679   8.843  1.00  0.00     0.135 A 
ATOM     77  F   UNL     1       4.407  13.771  10.551  1.00  0.00    -0.206 F 
ATOM     78  C   UNL     1       5.775  12.194   9.509  1.00  0.00     0.059 A 
ATOM     79  C   UNL     1       4.824  10.228   8.496  1.00  0.00     0.059 A 
ATOM     80  F   UNL     1       2.560   9.924   8.367  1.00  0.00    -0.206 F 
ATOM     81  C   UNL     1       5.926  11.008   8.800  1.00  0.00     0.060 A 
BRANCH  81  82
ATOM     82  S   UNL     1       7.563  10.504   8.241  1.00  0.00     0.124 S 
ATOM     83  O   UNL     1       7.838  11.498   7.210  1.00  0.00    -0.237 OA
ATOM     84  O   UNL     1       8.347  10.614   9.466  1.00  0.00    -0.237 OA
ATOM     85  O   UNL     1       7.347   9.141   7.764  1.00  0.00    -0.744 OA
ENDBRANCH  81  82
ENDBRANCH  60  74
BRANCH  61  86
ATOM     86  C   UNL     1       0.680  12.805   1.587  1.00  0.00     0.058 A 
ATOM     87  C   UNL     1       1.654  13.434   0.788  1.00  0.00     0.135 A 
ATOM     88  C   UNL     1       0.225  11.551   1.135  1.00  0.00     0.135 A 
ATOM     89  F   UNL     1       2.147  14.632   1.140  1.00  0.00    -0.206 F 
ATOM     90  C   UNL     1       2.208  12.822  -0.341  1.00  0.00     0.059 A 
ATOM     91  C   UNL     1       0.756  10.925   0.005  1.00  0.00     0.059 A 
ATOM     92  F   UNL     1      -0.679  10.853   1.837  1.00  0.00    -0.206 F 
ATOM     93  C   UNL     1       1.773  11.550  -0.707  1.00  0.00     0.060 A 
BRANCH  93  94
ATOM     94  S   UNL     1       2.641  10.662  -2.024  1.00  0.00     0.124 S 
ATOM     95  O   UNL     1       2.222  11.396  -3.213  1.00  0.00    -0.237 OA
ATOM     96  O   UNL     1       4.039  10.820  -1.637  1.00  0.00    -0.237 OA
ATOM     97  O   UNL     1       2.120   9.301  -1.915  1.00  0.00    -0.744 OA
ENDBRANCH  93  94
ENDBRANCH  61  86
BRANCH  73  98
ATOM     98  C   UNL     1       0.509  17.129   6.168  1.00  0.00     0.058 A 
ATOM     99  C   UNL     1      -0.749  17.069   5.545  1.00  0.00     0.135 A 
ATOM    100  C   UNL     1       0.956  18.390   6.595  1.00  0.00     0.135 A 
ATOM    101  F   UNL     1      -1.290  15.894   5.189  1.00  0.00    -0.206 F 
ATOM    102  C   UNL     1      -1.499  18.222   5.306  1.00  0.00     0.059 A 
ATOM    103  C   UNL     1       0.210  19.544   6.401  1.00  0.00     0.059 A 
ATOM    104  F   UNL     1       2.130  18.505   7.239  1.00  0.00    -0.206 F 
ATOM    105  C   UNL     1      -1.008  19.456   5.734  1.00  0.00     0.060 A 
BRANCH 105 106
ATOM    106  S   UNL     1      -1.987  20.946   5.454  1.00  0.00     0.124 S 
ATOM    107  O   UNL     1      -1.868  21.124   4.011  1.00  0.00    -0.237 OA
ATOM    108  O   UNL     1      -3.307  20.555   5.940  1.00  0.00    -0.237 OA
ATOM    109  O   UNL     1      -1.310  21.957   6.264  1.00  0.00    -0.744 OA
ENDBRANCH 105 106
ENDBRANCH  73  98
ENDBRANCH  47  48
ENDBRANCH  39  42
ENDBRANCH  37  38
ENDBRANCH  36  37
ENDBRANCH  35  36
ENDBRANCH   1  35
TORSDOF 19
