REMARK SMILES CC(C)[C@@H]1CCCN1C(=O)N1CCO[C@H](CC(=O)NCCCCCCNC(=O)c2ccc(-c3c4nc(c(-c5c(F)cc(S(=O)(=O)[O-])cc5F)c5ccc([nH]5)c(-c5c(F)cc(S(=O)(=O)[O-])cc5F)c5nc(c(-c6c(F)cc(S(=O)(=O)[O-])cc6F)c6ccc3[nH]6)C=C5)C=C4)cc2)C1
REMARK SMILES IDX 22 1 21 2 20 3 19 4 17 5 18 6 16 8 15 9 11 10 12 11 95 12
REMARK SMILES IDX 13 13 14 14 9 15 10 16 8 17 4 18 5 19 6 20 7 21 2 22 1 23
REMARK SMILES IDX 3 24 23 25 24 26 25 27 26 28 27 29 28 31 29 32 30 33 94 34
REMARK SMILES IDX 31 35 93 36 32 37 33 38 34 39 87 40 35 41 92 42 86 43 88 44
REMARK SMILES IDX 36 45 91 46 85 47 84 48 37 50 71 51 50 52 70 53 51 54 54 55
REMARK SMILES IDX 69 56 89 57 52 58 53 59 68 61 90 62 55 63 38 64 39 65 48 66
REMARK SMILES IDX 40 67 41 68 47 69 49 70 42 71 43 72 44 73 45 74 46 75 72 76
REMARK SMILES IDX 73 77 82 78 74 79 75 80 81 81 83 82 76 83 77 84 78 85 79 86
REMARK SMILES IDX 80 87 56 88 57 89 66 90 58 91 59 92 65 93 67 94 60 95 61 96
REMARK SMILES IDX 62 97 63 98 64 99
REMARK H PARENT 19 7 26 30 88 49 54 60
REMARK Flexibility Score: inf
ROOT
ATOM      1  C   UNL     1       4.613   3.002  -1.664  1.00  0.00     0.002 C 
ENDROOT
BRANCH   1   2
ATOM      2  C   UNL     1       4.237   1.539  -1.938  1.00  0.00     0.021 C 
BRANCH   2   3
ATOM      3  C   UNL     1       2.885   1.371  -2.643  1.00  0.00     0.116 C 
BRANCH   3   4
ATOM      4  N   UNL     1       2.983   0.631  -3.888  1.00  0.00    -0.356 N 
ATOM      5  C   UNL     1       2.225  -0.319  -4.490  1.00  0.00     0.222 C 
ATOM      6  O   UNL     1       2.485  -0.528  -5.683  1.00  0.00    -0.275 OA
ATOM      7  H   UNL     1       3.778   0.875  -4.415  1.00  0.00     0.163 HD
BRANCH   5   8
ATOM      8  C   UNL     1       1.039  -1.032  -3.873  1.00  0.00     0.133 C 
BRANCH   8   9
ATOM      9  C   UNL     1       1.190  -2.153  -2.838  1.00  0.00     0.147 C 
ATOM     10  N   UNL     1      -0.115  -1.476  -0.801  1.00  0.00    -0.320 N 
ATOM     11  C   UNL     1       1.051  -1.831   0.011  1.00  0.00     0.150 C 
ATOM     12  C   UNL     1      -0.103  -2.314  -1.999  1.00  0.00     0.154 C 
ATOM     13  C   UNL     1       2.357  -1.638  -0.755  1.00  0.00     0.182 C 
ATOM     14  O   UNL     1       2.397  -2.184  -2.075  1.00  0.00    -0.374 OA
BRANCH  10  15
ATOM     15  C   UNL     1      -1.300  -1.486  -0.088  1.00  0.00     0.320 C 
ATOM     16  O   UNL     1      -1.700  -2.554   0.386  1.00  0.00    -0.248 OA
BRANCH  15  17
ATOM     17  N   UNL     1      -1.986  -0.306   0.116  1.00  0.00    -0.321 N 
ATOM     18  C   UNL     1      -1.970   1.049  -0.472  1.00  0.00     0.089 C 
ATOM     19  C   UNL     1      -2.860   1.849   0.499  1.00  0.00     0.027 C 
ATOM     20  C   UNL     1      -3.961   0.873   0.811  1.00  0.00     0.024 C 
ATOM     21  C   UNL     1      -3.211  -0.446   0.913  1.00  0.00     0.122 C 
BRANCH  18  22
ATOM     22  C   UNL     1      -0.726   1.912  -0.700  1.00  0.00     0.005 C 
ATOM     23  C   UNL     1       0.410   1.703   0.281  1.00  0.00     0.009 C 
ATOM     24  C   UNL     1      -0.288   1.826  -2.144  1.00  0.00     0.009 C 
ENDBRANCH  18  22
ENDBRANCH  15  17
ENDBRANCH  10  15
ENDBRANCH   8   9
ENDBRANCH   5   8
ENDBRANCH   3   4
ENDBRANCH   2   3
ENDBRANCH   1   2
BRANCH   1  25
ATOM     25  C   UNL     1       3.713   3.754  -0.677  1.00  0.00     0.002 C 
BRANCH  25  26
ATOM     26  C   UNL     1       3.689   3.210   0.752  1.00  0.00     0.021 C 
BRANCH  26  27
ATOM     27  C   UNL     1       5.043   3.020   1.417  1.00  0.00     0.116 C 
BRANCH  27  28
ATOM     28  N   UNL     1       5.858   4.221   1.394  1.00  0.00    -0.352 N 
ATOM     29  C   UNL     1       6.493   4.870   2.425  1.00  0.00     0.251 C 
ATOM     30  H   UNL     1       5.972   4.632   0.507  1.00  0.00     0.163 HD
ATOM     31  O   UNL     1       7.006   5.964   2.229  1.00  0.00    -0.269 OA
BRANCH  29  32
ATOM     32  C   UNL     1       6.533   4.256   3.771  1.00  0.00     0.039 A 
ATOM     33  C   UNL     1       6.322   5.069   4.886  1.00  0.00     0.014 A 
ATOM     34  C   UNL     1       6.784   2.891   3.935  1.00  0.00     0.014 A 
ATOM     35  C   UNL     1       6.316   4.503   6.162  1.00  0.00     0.010 A 
ATOM     36  C   UNL     1       6.683   2.314   5.196  1.00  0.00     0.010 A 
ATOM     37  C   UNL     1       6.469   3.117   6.325  1.00  0.00    -0.014 A 
BRANCH  37  38
ATOM     38  C   UNL     1       6.442   2.497   7.674  1.00  0.00     0.031 A 
ATOM     39  C   UNL     1       7.665   1.793   8.200  1.00  0.00     0.074 A 
ATOM     40  C   UNL     1       5.310   2.535   8.403  1.00  0.00     0.049 A 
ATOM     41  N   UNL     1       7.831   1.164   9.335  1.00  0.00    -0.248 NA
ATOM     42  C   UNL     1       8.849   1.768   7.324  1.00  0.00     0.031 C 
ATOM     43  C   UNL     1       4.049   3.147   7.976  1.00  0.00     0.029 A 
ATOM     44  N   UNL     1       5.034   2.049   9.655  1.00  0.00    -0.354 N 
ATOM     45  C   UNL     1       9.129   0.665   9.304  1.00  0.00     0.074 A 
ATOM     46  C   UNL     1       9.682   1.004   8.012  1.00  0.00     0.031 C 
ATOM     47  C   UNL     1       3.146   3.029   8.963  1.00  0.00     0.029 A 
ATOM     48  C   UNL     1       3.748   2.300  10.074  1.00  0.00     0.049 A 
ATOM     49  H   UNL     1       5.694   1.566  10.203  1.00  0.00     0.167 HD
ATOM     50  C   UNL     1       9.807   0.010  10.276  1.00  0.00     0.037 A 
ATOM     51  C   UNL     1       3.125   1.975  11.224  1.00  0.00     0.037 A 
ATOM     52  C   UNL     1       9.252  -0.304  11.566  1.00  0.00     0.049 A 
ATOM     53  C   UNL     1       3.897   1.237  12.285  1.00  0.00     0.074 A 
ATOM     54  C   UNL     1       9.867  -0.921  12.641  1.00  0.00     0.029 A 
ATOM     55  N   UNL     1       7.949  -0.027  11.956  1.00  0.00    -0.354 N 
ATOM     56  N   UNL     1       5.143   0.828  12.265  1.00  0.00    -0.248 NA
ATOM     57  C   UNL     1       3.181   0.924  13.529  1.00  0.00     0.031 C 
ATOM     58  C   UNL     1       8.921  -1.063  13.662  1.00  0.00     0.029 A 
ATOM     59  C   UNL     1       7.734  -0.481  13.247  1.00  0.00     0.049 A 
ATOM     60  H   UNL     1       7.277   0.426  11.398  1.00  0.00     0.167 HD
ATOM     61  C   UNL     1       5.370   0.237  13.503  1.00  0.00     0.074 A 
ATOM     62  C   UNL     1       4.135   0.354  14.251  1.00  0.00     0.031 C 
ATOM     63  C   UNL     1       6.498  -0.349  13.978  1.00  0.00     0.037 A 
BRANCH  50  64
ATOM     64  C   UNL     1      11.224  -0.405   9.980  1.00  0.00     0.058 A 
ATOM     65  C   UNL     1      12.255   0.538   9.830  1.00  0.00     0.135 A 
ATOM     66  C   UNL     1      11.563  -1.764   9.870  1.00  0.00     0.135 A 
ATOM     67  F   UNL     1      11.987   1.851   9.908  1.00  0.00    -0.206 F 
ATOM     68  C   UNL     1      13.561   0.152   9.548  1.00  0.00     0.059 A 
ATOM     69  C   UNL     1      12.870  -2.174   9.621  1.00  0.00     0.059 A 
ATOM     70  F   UNL     1      10.620  -2.709  10.002  1.00  0.00    -0.206 F 
ATOM     71  C   UNL     1      13.859  -1.207   9.446  1.00  0.00     0.060 A 
BRANCH  71  72
ATOM     72  S   UNL     1      15.560  -1.690   9.083  1.00  0.00     0.124 S 
ATOM     73  O   UNL     1      15.684  -1.291   7.684  1.00  0.00    -0.237 OA
ATOM     74  O   UNL     1      16.321  -0.891  10.039  1.00  0.00    -0.237 OA
ATOM     75  O   UNL     1      15.566  -3.129   9.327  1.00  0.00    -0.744 OA
ENDBRANCH  71  72
ENDBRANCH  50  64
BRANCH  51  76
ATOM     76  C   UNL     1       1.707   2.371  11.441  1.00  0.00     0.058 A 
ATOM     77  C   UNL     1       1.366   3.349  12.387  1.00  0.00     0.135 A 
ATOM     78  C   UNL     1       0.667   1.792  10.698  1.00  0.00     0.135 A 
ATOM     79  F   UNL     1       2.324   3.930  13.126  1.00  0.00    -0.206 F 
ATOM     80  C   UNL     1       0.045   3.726  12.604  1.00  0.00     0.059 A 
ATOM     81  C   UNL     1      -0.660   2.172  10.876  1.00  0.00     0.059 A 
ATOM     82  F   UNL     1       0.940   0.865   9.766  1.00  0.00    -0.206 F 
ATOM     83  C   UNL     1      -0.962   3.133  11.840  1.00  0.00     0.060 A 
BRANCH  83  84
ATOM     84  S   UNL     1      -2.669   3.663  12.098  1.00  0.00     0.124 S 
ATOM     85  O   UNL     1      -2.967   3.075  13.398  1.00  0.00    -0.237 OA
ATOM     86  O   UNL     1      -2.546   5.117  12.066  1.00  0.00    -0.237 OA
ATOM     87  O   UNL     1      -3.377   3.078  10.962  1.00  0.00    -0.744 OA
ENDBRANCH  83  84
ENDBRANCH  51  76
BRANCH  63  88
ATOM     88  C   UNL     1       6.463  -0.874  15.388  1.00  0.00     0.058 A 
ATOM     89  C   UNL     1       5.728  -2.018  15.735  1.00  0.00     0.135 A 
ATOM     90  C   UNL     1       7.216  -0.248  16.395  1.00  0.00     0.135 A 
ATOM     91  F   UNL     1       4.986  -2.651  14.812  1.00  0.00    -0.206 F 
ATOM     92  C   UNL     1       5.718  -2.507  17.037  1.00  0.00     0.059 A 
ATOM     93  C   UNL     1       7.247  -0.739  17.696  1.00  0.00     0.059 A 
ATOM     94  F   UNL     1       7.947   0.843  16.114  1.00  0.00    -0.206 F 
ATOM     95  C   UNL     1       6.483  -1.861  18.010  1.00  0.00     0.060 A 
BRANCH  95  96
ATOM     96  S   UNL     1       6.484  -2.524  19.689  1.00  0.00     0.124 S 
ATOM     97  O   UNL     1       5.153  -2.148  20.154  1.00  0.00    -0.237 OA
ATOM     98  O   UNL     1       6.697  -3.950  19.461  1.00  0.00    -0.237 OA
ATOM     99  O   UNL     1       7.594  -1.826  20.330  1.00  0.00    -0.744 OA
ENDBRANCH  95  96
ENDBRANCH  63  88
ENDBRANCH  37  38
ENDBRANCH  29  32
ENDBRANCH  27  28
ENDBRANCH  26  27
ENDBRANCH  25  26
ENDBRANCH   1  25
TORSDOF 20
