REMARK SMILES Cc1cc(=O)c(Oc2ccc(C(=O)NCCCCCCNC(=O)c3ccc(-c4c5nc(c(-c6c(F)cc(S(=O)(=O)[O-])cc6F)c6ccc([nH]6)c(-c6c(F)cc(S(=O)(=O)[O-])cc6F)c6nc(c(-c7c(F)cc(S(=O)(=O)[O-])cc7F)c7ccc4[nH]7)C=C6)C=C5)cc3)cc2)c(-c2ccc(S(C)(=O)=O)cc2)o1
REMARK SMILES IDX 17 1 16 2 15 3 14 4 12 5 13 6 11 8 8 9 9 10 91 11 10 12
REMARK SMILES IDX 90 13 7 14 6 15 1 16 2 17 3 18 103 19 4 20 92 21 5 22 93 23
REMARK SMILES IDX 94 24 102 25 95 26 101 27 96 28 97 29 98 30 99 31 100 32
REMARK SMILES IDX 18 33 19 34 20 35 21 36 22 37 23 39 24 40 25 41 89 42 26 43
REMARK SMILES IDX 88 44 27 45 28 46 29 47 82 48 30 49 87 50 81 51 83 52 31 53
REMARK SMILES IDX 86 54 80 55 79 56 32 58 66 59 45 60 65 61 46 62 49 63 64 64
REMARK SMILES IDX 84 65 47 66 48 67 63 69 85 70 50 71 33 72 34 73 43 74 35 75
REMARK SMILES IDX 36 76 42 77 44 78 37 79 38 80 39 81 40 82 41 83 67 84 68 85
REMARK SMILES IDX 77 86 69 87 70 88 76 89 78 90 71 91 72 92 73 93 74 94 75 95
REMARK SMILES IDX 51 96 52 97 61 98 53 99 54 100 60 101 62 102 55 103 56 104
REMARK SMILES IDX 57 105 58 106 59 107
REMARK H PARENT 14 7 21 38 83 57 49 68
REMARK Flexibility Score: inf
ROOT
ATOM      1  C   UNL     1      -7.720  -4.787  -7.424  1.00  0.00     0.002 C 
ENDROOT
BRANCH   1   2
ATOM      2  C   UNL     1      -6.756  -4.713  -6.240  1.00  0.00     0.021 C 
BRANCH   2   3
ATOM      3  C   UNL     1      -5.364  -5.311  -6.424  1.00  0.00     0.116 C 
BRANCH   3   4
ATOM      4  N   UNL     1      -4.608  -4.814  -7.556  1.00  0.00    -0.352 N 
ATOM      5  C   UNL     1      -3.248  -4.720  -7.758  1.00  0.00     0.251 C 
ATOM      6  O   UNL     1      -2.831  -4.363  -8.858  1.00  0.00    -0.269 OA
ATOM      7  H   UNL     1      -5.157  -4.490  -8.306  1.00  0.00     0.163 HD
BRANCH   5   8
ATOM      8  C   UNL     1      -2.275  -4.916  -6.647  1.00  0.00     0.040 A 
ATOM      9  C   UNL     1      -0.722  -4.722  -4.345  1.00  0.00     0.127 A 
ATOM     10  C   UNL     1      -0.343  -4.016  -5.480  1.00  0.00     0.048 A 
ATOM     11  C   UNL     1      -1.714  -5.697  -4.434  1.00  0.00     0.048 A 
ATOM     12  C   UNL     1      -1.147  -4.082  -6.621  1.00  0.00     0.017 A 
ATOM     13  C   UNL     1      -2.467  -5.820  -5.602  1.00  0.00     0.017 A 
BRANCH   9  14
ATOM     14  O   UNL     1      -0.115  -4.574  -3.135  1.00  0.00    -0.449 OA
BRANCH  14  15
ATOM     15  C   UNL     1      -0.046  -3.374  -2.438  1.00  0.00     0.217 A 
ATOM     16  C   UNL     1       0.740   0.146  -0.053  1.00  0.00     0.088 C 
ATOM     17  C   UNL     1       0.483  -1.138  -0.775  1.00  0.00     0.105 A 
ATOM     18  C   UNL     1       1.044  -2.289  -0.401  1.00  0.00     0.098 A 
ATOM     19  O   UNL     1      -0.362  -1.042  -1.859  1.00  0.00    -0.457 OA
ATOM     20  C   UNL     1       0.783  -3.496  -1.195  1.00  0.00     0.228 A 
ATOM     21  C   UNL     1      -0.610  -2.155  -2.662  1.00  0.00     0.180 A 
ATOM     22  O   UNL     1       1.264  -4.564  -0.826  1.00  0.00    -0.285 OA
BRANCH  21  23
ATOM     23  C   UNL     1      -1.517  -1.770  -3.762  1.00  0.00     0.021 A 
ATOM     24  C   UNL     1      -1.055  -0.895  -4.762  1.00  0.00     0.013 A 
ATOM     25  C   UNL     1      -2.833  -2.248  -3.832  1.00  0.00     0.013 A 
ATOM     26  C   UNL     1      -1.860  -0.576  -5.859  1.00  0.00     0.021 A 
ATOM     27  C   UNL     1      -3.649  -1.923  -4.923  1.00  0.00     0.021 A 
ATOM     28  C   UNL     1      -3.152  -1.101  -5.938  1.00  0.00     0.067 A 
BRANCH  28  29
ATOM     29  S   UNL     1      -4.117  -0.794  -7.401  1.00  0.00     0.175 S 
ATOM     30  C   UNL     1      -4.703   0.861  -7.179  1.00  0.00     0.163 C 
ATOM     31  O   UNL     1      -3.205  -0.785  -8.527  1.00  0.00    -0.224 OA
ATOM     32  O   UNL     1      -5.275  -1.668  -7.371  1.00  0.00    -0.224 OA
ENDBRANCH  28  29
ENDBRANCH  21  23
ENDBRANCH  14  15
ENDBRANCH   9  14
ENDBRANCH   5   8
ENDBRANCH   3   4
ENDBRANCH   2   3
ENDBRANCH   1   2
BRANCH   1  33
ATOM     33  C   UNL     1      -7.896  -6.152  -8.091  1.00  0.00     0.002 C 
BRANCH  33  34
ATOM     34  C   UNL     1      -8.238  -7.321  -7.171  1.00  0.00     0.021 C 
BRANCH  34  35
ATOM     35  C   UNL     1      -9.454  -7.130  -6.276  1.00  0.00     0.116 C 
BRANCH  35  36
ATOM     36  N   UNL     1     -10.707  -7.011  -7.007  1.00  0.00    -0.352 N 
ATOM     37  C   UNL     1     -11.894  -7.686  -6.816  1.00  0.00     0.251 C 
ATOM     38  H   UNL     1     -10.707  -6.356  -7.743  1.00  0.00     0.163 HD
ATOM     39  O   UNL     1     -12.825  -7.535  -7.601  1.00  0.00    -0.269 OA
BRANCH  37  40
ATOM     40  C   UNL     1     -12.023  -8.627  -5.679  1.00  0.00     0.039 A 
ATOM     41  C   UNL     1     -11.557  -8.274  -4.413  1.00  0.00     0.014 A 
ATOM     42  C   UNL     1     -12.563  -9.898  -5.894  1.00  0.00     0.014 A 
ATOM     43  C   UNL     1     -11.431  -9.250  -3.432  1.00  0.00     0.010 A 
ATOM     44  C   UNL     1     -12.538 -10.848  -4.866  1.00  0.00     0.010 A 
ATOM     45  C   UNL     1     -11.911 -10.554  -3.645  1.00  0.00    -0.014 A 
BRANCH  45  46
ATOM     46  C   UNL     1     -11.726 -11.572  -2.574  1.00  0.00     0.031 A 
ATOM     47  C   UNL     1     -10.895 -12.809  -2.806  1.00  0.00     0.074 A 
ATOM     48  C   UNL     1     -12.249 -11.338  -1.353  1.00  0.00     0.049 A 
ATOM     49  N   UNL     1     -10.552 -13.740  -1.951  1.00  0.00    -0.248 NA
ATOM     50  C   UNL     1     -10.388 -13.038  -4.168  1.00  0.00     0.031 C 
ATOM     51  C   UNL     1     -13.083 -10.185  -1.008  1.00  0.00     0.029 A 
ATOM     52  N   UNL     1     -12.133 -12.028  -0.172  1.00  0.00    -0.354 N 
ATOM     53  C   UNL     1      -9.812 -14.671  -2.672  1.00  0.00     0.074 A 
ATOM     54  C   UNL     1      -9.784 -14.211  -4.043  1.00  0.00     0.031 C 
ATOM     55  C   UNL     1     -13.343 -10.208   0.307  1.00  0.00     0.029 A 
ATOM     56  C   UNL     1     -12.758 -11.412   0.887  1.00  0.00     0.049 A 
ATOM     57  H   UNL     1     -11.648 -12.881  -0.091  1.00  0.00     0.167 HD
ATOM     58  C   UNL     1      -9.199 -15.796  -2.230  1.00  0.00     0.037 A 
ATOM     59  C   UNL     1     -12.863 -11.773   2.181  1.00  0.00     0.037 A 
ATOM     60  C   UNL     1      -9.211 -16.233  -0.858  1.00  0.00     0.049 A 
ATOM     61  C   UNL     1     -12.197 -13.035   2.647  1.00  0.00     0.074 A 
ATOM     62  C   UNL     1      -8.574 -17.329  -0.302  1.00  0.00     0.029 A 
ATOM     63  N   UNL     1      -9.902 -15.609   0.172  1.00  0.00    -0.354 N 
ATOM     64  N   UNL     1     -11.456 -13.871   1.960  1.00  0.00    -0.248 NA
ATOM     65  C   UNL     1     -12.383 -13.411   4.054  1.00  0.00     0.031 C 
ATOM     66  C   UNL     1      -8.931 -17.404   1.047  1.00  0.00     0.029 A 
ATOM     67  C   UNL     1      -9.739 -16.320   1.350  1.00  0.00     0.049 A 
ATOM     68  H   UNL     1     -10.430 -14.783   0.078  1.00  0.00     0.167 HD
ATOM     69  C   UNL     1     -11.082 -14.869   2.851  1.00  0.00     0.074 A 
ATOM     70  C   UNL     1     -11.664 -14.525   4.132  1.00  0.00     0.031 C 
ATOM     71  C   UNL     1     -10.325 -15.970   2.622  1.00  0.00     0.037 A 
BRANCH  58  72
ATOM     72  C   UNL     1      -8.477 -16.651  -3.239  1.00  0.00     0.058 A 
ATOM     73  C   UNL     1      -7.283 -16.234  -3.849  1.00  0.00     0.135 A 
ATOM     74  C   UNL     1      -8.964 -17.928  -3.566  1.00  0.00     0.135 A 
ATOM     75  F   UNL     1      -6.774 -15.020  -3.581  1.00  0.00    -0.206 F 
ATOM     76  C   UNL     1      -6.618 -17.036  -4.772  1.00  0.00     0.059 A 
ATOM     77  C   UNL     1      -8.299 -18.759  -4.463  1.00  0.00     0.059 A 
ATOM     78  F   UNL     1     -10.097 -18.382  -3.008  1.00  0.00    -0.206 F 
ATOM     79  C   UNL     1      -7.135 -18.297  -5.074  1.00  0.00     0.060 A 
BRANCH  79  80
ATOM     80  S   UNL     1      -6.267 -19.315  -6.285  1.00  0.00     0.124 S 
ATOM     81  O   UNL     1      -6.515 -18.574  -7.519  1.00  0.00    -0.237 OA
ATOM     82  O   UNL     1      -4.894 -19.281  -5.792  1.00  0.00    -0.237 OA
ATOM     83  O   UNL     1      -6.935 -20.609  -6.187  1.00  0.00    -0.744 OA
ENDBRANCH  79  80
ENDBRANCH  58  72
BRANCH  59  84
ATOM     84  C   UNL     1     -13.633 -10.904   3.110  1.00  0.00     0.058 A 
ATOM     85  C   UNL     1     -12.987 -10.127   4.081  1.00  0.00     0.135 A 
ATOM     86  C   UNL     1     -15.024 -10.757   2.973  1.00  0.00     0.135 A 
ATOM     87  F   UNL     1     -11.661 -10.238   4.255  1.00  0.00    -0.206 F 
ATOM     88  C   UNL     1     -13.687  -9.220   4.870  1.00  0.00     0.059 A 
ATOM     89  C   UNL     1     -15.741  -9.838   3.730  1.00  0.00     0.059 A 
ATOM     90  F   UNL     1     -15.687 -11.467   2.046  1.00  0.00    -0.206 F 
ATOM     91  C   UNL     1     -15.062  -9.070   4.674  1.00  0.00     0.060 A 
BRANCH  91  92
ATOM     92  S   UNL     1     -15.937  -7.809   5.625  1.00  0.00     0.124 S 
ATOM     93  O   UNL     1     -15.890  -8.368   6.971  1.00  0.00    -0.237 OA
ATOM     94  O   UNL     1     -15.110  -6.628   5.395  1.00  0.00    -0.237 OA
ATOM     95  O   UNL     1     -17.257  -7.772   5.003  1.00  0.00    -0.744 OA
ENDBRANCH  91  92
ENDBRANCH  59  84
BRANCH  71  96
ATOM     96  C   UNL     1     -10.067 -16.904   3.772  1.00  0.00     0.058 A 
ATOM     97  C   UNL     1     -11.059 -17.781   4.237  1.00  0.00     0.135 A 
ATOM     98  C   UNL     1      -8.779 -17.019   4.319  1.00  0.00     0.135 A 
ATOM     99  F   UNL     1     -12.309 -17.705   3.755  1.00  0.00    -0.206 F 
ATOM    100  C   UNL     1     -10.778 -18.750   5.195  1.00  0.00     0.059 A 
ATOM    101  C   UNL     1      -8.469 -17.996   5.260  1.00  0.00     0.059 A 
ATOM    102  F   UNL     1      -7.794 -16.206   3.904  1.00  0.00    -0.206 F 
ATOM    103  C   UNL     1      -9.476 -18.861   5.688  1.00  0.00     0.060 A 
BRANCH 103 104
ATOM    104  S   UNL     1      -9.108 -20.187   6.856  1.00  0.00     0.124 S 
ATOM    105  O   UNL     1      -9.845 -19.754   8.038  1.00  0.00    -0.237 OA
ATOM    106  O   UNL     1      -9.642 -21.360   6.170  1.00  0.00    -0.237 OA
ATOM    107  O   UNL     1      -7.653 -20.145   6.975  1.00  0.00    -0.744 OA
ENDBRANCH 103 104
ENDBRANCH  71  96
ENDBRANCH  45  46
ENDBRANCH  37  40
ENDBRANCH  35  36
ENDBRANCH  34  35
ENDBRANCH  33  34
ENDBRANCH   1  33
TORSDOF 20
