REMARK SMILES CCOc1cccc(C(=O)Nc2ccc(Cl)c(C(=O)NCCCCCCNC(=O)c3ccc(-c4c5nc(c(-c6c(F)cc(S(=O)(=O)[O-])cc6F)c6ccc([nH]6)c(-c6c(F)cc(S(=O)(=O)[O-])cc6F)c6nc(c(-c7c(F)cc(S(=O)(=O)[O-])cc7F)c7ccc4[nH]7)C=C6)C=C5)cc3)c2)c1
REMARK SMILES IDX 23 1 22 2 21 3 20 4 18 5 19 6 17 8 12 9 13 10 96 11 14 12
REMARK SMILES IDX 15 13 16 14 11 15 9 16 10 17 8 19 4 20 5 21 97 22 6 23 7 24
REMARK SMILES IDX 3 25 2 26 1 27 24 28 25 29 26 30 27 31 28 32 29 34 30 35
REMARK SMILES IDX 31 36 95 37 32 38 94 39 33 40 34 41 35 42 88 43 36 44 93 45
REMARK SMILES IDX 87 46 89 47 37 48 92 49 86 50 85 51 38 53 72 54 51 55 71 56
REMARK SMILES IDX 52 57 55 58 70 59 90 60 53 61 54 62 69 64 91 65 56 66 39 67
REMARK SMILES IDX 40 68 49 69 41 70 42 71 48 72 50 73 43 74 44 75 45 76 46 77
REMARK SMILES IDX 47 78 73 79 74 80 83 81 75 82 76 83 82 84 84 85 77 86 78 87
REMARK SMILES IDX 79 88 80 89 81 90 57 91 58 92 67 93 59 94 60 95 66 96 68 97
REMARK SMILES IDX 61 98 62 99 63 100 64 101 65 102
REMARK H PARENT 20 7 11 18 27 33 89 52 55 63
REMARK Flexibility Score: inf
ROOT
ATOM      1  C   UNL     1       1.308  -5.491   2.905  1.00  0.00     0.002 C 
ENDROOT
BRANCH   1   2
ATOM      2  C   UNL     1       2.035  -4.150   2.772  1.00  0.00     0.021 C 
BRANCH   2   3
ATOM      3  C   UNL     1       1.540  -3.351   1.568  1.00  0.00     0.116 C 
BRANCH   3   4
ATOM      4  N   UNL     1       0.402  -2.541   1.954  1.00  0.00    -0.352 N 
ATOM      5  C   UNL     1       0.245  -1.247   2.379  1.00  0.00     0.252 C 
ATOM      6  O   UNL     1      -0.850  -0.988   2.877  1.00  0.00    -0.269 OA
ATOM      7  H   UNL     1      -0.451  -3.031   1.900  1.00  0.00     0.163 HD
BRANCH   5   8
ATOM      8  C   UNL     1       1.280  -0.173   2.215  1.00  0.00     0.060 A 
ATOM      9  C   UNL     1       3.580   0.511   1.749  1.00  0.00     0.042 A 
ATOM     10  C   UNL     1       3.197   1.845   1.696  1.00  0.00     0.028 A 
ATOM     11  C   UNL     1       2.651  -0.464   2.129  1.00  0.00     0.041 A 
ATOM     12  C   UNL     1       1.857   2.176   1.865  1.00  0.00     0.023 A 
ATOM     13  C   UNL     1       0.894   1.178   2.083  1.00  0.00     0.053 A 
ATOM     14  Cl  UNL     1      -0.744   1.745   2.094  1.00  0.00    -0.083 Cl
BRANCH   9  15
ATOM     15  N   UNL     1       4.891   0.197   1.369  1.00  0.00    -0.322 N 
ATOM     16  C   UNL     1       5.404  -0.852   0.627  1.00  0.00     0.255 C 
ATOM     17  O   UNL     1       6.622  -1.033   0.663  1.00  0.00    -0.269 OA
ATOM     18  H   UNL     1       5.568   0.837   1.686  1.00  0.00     0.170 HD
BRANCH  16  19
ATOM     19  C   UNL     1       4.585  -1.699  -0.302  1.00  0.00     0.043 A 
ATOM     20  C   UNL     1       2.573  -2.214  -1.566  1.00  0.00     0.120 A 
ATOM     21  C   UNL     1       3.110  -3.445  -1.936  1.00  0.00     0.046 A 
ATOM     22  C   UNL     1       3.334  -1.320  -0.808  1.00  0.00     0.060 A 
ATOM     23  C   UNL     1       4.403  -3.785  -1.547  1.00  0.00     0.005 A 
ATOM     24  C   UNL     1       5.129  -2.926  -0.717  1.00  0.00     0.014 A 
BRANCH  20  25
ATOM     25  O   UNL     1       1.231  -2.054  -1.780  1.00  0.00    -0.494 OA
BRANCH  25  26
ATOM     26  C   UNL     1       0.816  -0.853  -2.429  1.00  0.00     0.226 C 
ATOM     27  C   UNL     1       0.413   0.232  -1.445  1.00  0.00     0.049 C 
ENDBRANCH  25  26
ENDBRANCH  20  25
ENDBRANCH  16  19
ENDBRANCH   9  15
ENDBRANCH   5   8
ENDBRANCH   3   4
ENDBRANCH   2   3
ENDBRANCH   1   2
BRANCH   1  28
ATOM     28  C   UNL     1       1.600  -6.476   1.766  1.00  0.00     0.002 C 
BRANCH  28  29
ATOM     29  C   UNL     1       3.084  -6.779   1.543  1.00  0.00     0.021 C 
BRANCH  29  30
ATOM     30  C   UNL     1       3.800  -7.326   2.773  1.00  0.00     0.116 C 
BRANCH  30  31
ATOM     31  N   UNL     1       3.205  -8.576   3.225  1.00  0.00    -0.352 N 
ATOM     32  C   UNL     1       3.803  -9.790   3.429  1.00  0.00     0.251 C 
ATOM     33  H   UNL     1       2.239  -8.543   3.410  1.00  0.00     0.163 HD
ATOM     34  O   UNL     1       3.113 -10.800   3.580  1.00  0.00    -0.269 OA
BRANCH  32  35
ATOM     35  C   UNL     1       5.275  -9.884   3.457  1.00  0.00     0.039 A 
ATOM     36  C   UNL     1       5.904 -10.923   2.767  1.00  0.00     0.014 A 
ATOM     37  C   UNL     1       6.032  -8.947   4.168  1.00  0.00     0.014 A 
ATOM     38  C   UNL     1       7.298 -10.992   2.750  1.00  0.00     0.010 A 
ATOM     39  C   UNL     1       7.420  -8.976   4.087  1.00  0.00     0.010 A 
ATOM     40  C   UNL     1       8.067 -10.003   3.385  1.00  0.00    -0.014 A 
BRANCH  40  41
ATOM     41  C   UNL     1       9.550 -10.029   3.328  1.00  0.00     0.031 A 
ATOM     42  C   UNL     1      10.350 -10.202   4.590  1.00  0.00     0.074 A 
ATOM     43  C   UNL     1      10.172  -9.834   2.149  1.00  0.00     0.049 A 
ATOM     44  N   UNL     1      11.648 -10.193   4.752  1.00  0.00    -0.248 NA
ATOM     45  C   UNL     1       9.592 -10.383   5.839  1.00  0.00     0.031 C 
ATOM     46  C   UNL     1       9.502  -9.608   0.866  1.00  0.00     0.029 A 
ATOM     47  N   UNL     1      11.507  -9.786   1.837  1.00  0.00    -0.354 N 
ATOM     48  C   UNL     1      11.861 -10.351   6.117  1.00  0.00     0.074 A 
ATOM     49  C   UNL     1      10.559 -10.400   6.744  1.00  0.00     0.031 C 
ATOM     50  C   UNL     1      10.428  -9.470  -0.096  1.00  0.00     0.029 A 
ATOM     51  C   UNL     1      11.755  -9.557   0.504  1.00  0.00     0.049 A 
ATOM     52  H   UNL     1      12.221  -9.905   2.505  1.00  0.00     0.167 HD
ATOM     53  C   UNL     1      13.036 -10.468   6.782  1.00  0.00     0.037 A 
ATOM     54  C   UNL     1      12.921  -9.425  -0.158  1.00  0.00     0.037 A 
ATOM     55  C   UNL     1      14.326 -10.440   6.143  1.00  0.00     0.049 A 
ATOM     56  C   UNL     1      14.212  -9.553   0.603  1.00  0.00     0.074 A 
ATOM     57  C   UNL     1      15.573 -10.612   6.717  1.00  0.00     0.029 A 
ATOM     58  N   UNL     1      14.537 -10.220   4.789  1.00  0.00    -0.354 N 
ATOM     59  N   UNL     1      14.396  -9.774   1.884  1.00  0.00    -0.248 NA
ATOM     60  C   UNL     1      15.455  -9.422  -0.169  1.00  0.00     0.031 C 
ATOM     61  C   UNL     1      16.540 -10.446   5.720  1.00  0.00     0.029 A 
ATOM     62  C   UNL     1      15.894 -10.227   4.513  1.00  0.00     0.049 A 
ATOM     63  H   UNL     1      13.826 -10.080   4.123  1.00  0.00     0.167 HD
ATOM     64  C   UNL     1      15.773  -9.836   2.065  1.00  0.00     0.074 A 
ATOM     65  C   UNL     1      16.374  -9.642   0.761  1.00  0.00     0.031 C 
ATOM     66  C   UNL     1      16.477 -10.038   3.207  1.00  0.00     0.037 A 
BRANCH  53  67
ATOM     67  C   UNL     1      12.978 -10.634   8.277  1.00  0.00     0.058 A 
ATOM     68  C   UNL     1      12.488 -11.807   8.873  1.00  0.00     0.135 A 
ATOM     69  C   UNL     1      13.450  -9.619   9.126  1.00  0.00     0.135 A 
ATOM     70  F   UNL     1      12.011 -12.805   8.111  1.00  0.00    -0.206 F 
ATOM     71  C   UNL     1      12.434 -11.955  10.255  1.00  0.00     0.059 A 
ATOM     72  C   UNL     1      13.435  -9.758  10.511  1.00  0.00     0.059 A 
ATOM     73  F   UNL     1      13.930  -8.476   8.612  1.00  0.00    -0.206 F 
ATOM     74  C   UNL     1      12.910 -10.924  11.066  1.00  0.00     0.060 A 
BRANCH  74  75
ATOM     75  S   UNL     1      12.835 -11.133  12.858  1.00  0.00     0.124 S 
ATOM     76  O   UNL     1      11.403 -10.999  13.106  1.00  0.00    -0.237 OA
ATOM     77  O   UNL     1      13.386 -12.472  13.039  1.00  0.00    -0.237 OA
ATOM     78  O   UNL     1      13.664 -10.043  13.363  1.00  0.00    -0.744 OA
ENDBRANCH  74  75
ENDBRANCH  53  67
BRANCH  54  79
ATOM     79  C   UNL     1      12.917  -9.183  -1.626  1.00  0.00     0.058 A 
ATOM     80  C   UNL     1      13.342 -10.176  -2.522  1.00  0.00     0.135 A 
ATOM     81  C   UNL     1      12.470  -7.966  -2.164  1.00  0.00     0.135 A 
ATOM     82  F   UNL     1      13.784 -11.354  -2.056  1.00  0.00    -0.206 F 
ATOM     83  C   UNL     1      13.339  -9.967  -3.897  1.00  0.00     0.059 A 
ATOM     84  C   UNL     1      12.432  -7.743  -3.537  1.00  0.00     0.059 A 
ATOM     85  F   UNL     1      12.035  -6.990  -1.352  1.00  0.00    -0.206 F 
ATOM     86  C   UNL     1      12.878  -8.748  -4.396  1.00  0.00     0.060 A 
BRANCH  86  87
ATOM     87  S   UNL     1      12.828  -8.508  -6.185  1.00  0.00     0.124 S 
ATOM     88  O   UNL     1      14.244  -8.372  -6.503  1.00  0.00    -0.237 OA
ATOM     89  O   UNL     1      12.186  -9.737  -6.640  1.00  0.00    -0.237 OA
ATOM     90  O   UNL     1      12.026  -7.298  -6.339  1.00  0.00    -0.744 OA
ENDBRANCH  86  87
ENDBRANCH  54  79
BRANCH  66  91
ATOM     91  C   UNL     1      17.976 -10.096   3.097  1.00  0.00     0.058 A 
ATOM     92  C   UNL     1      18.745  -8.949   2.848  1.00  0.00     0.135 A 
ATOM     93  C   UNL     1      18.654 -11.310   3.297  1.00  0.00     0.135 A 
ATOM     94  F   UNL     1      18.147  -7.765   2.643  1.00  0.00    -0.206 F 
ATOM     95  C   UNL     1      20.133  -9.007   2.778  1.00  0.00     0.059 A 
ATOM     96  C   UNL     1      20.043 -11.385   3.261  1.00  0.00     0.059 A 
ATOM     97  F   UNL     1      17.967 -12.435   3.548  1.00  0.00    -0.206 F 
ATOM     98  C   UNL     1      20.773 -10.230   2.989  1.00  0.00     0.060 A 
BRANCH  98  99
ATOM     99  S   UNL     1      22.577 -10.284   2.930  1.00  0.00     0.124 S 
ATOM    100  O   UNL     1      22.828 -10.149   1.499  1.00  0.00    -0.237 OA
ATOM    101  O   UNL     1      22.950  -9.137   3.751  1.00  0.00    -0.237 OA
ATOM    102  O   UNL     1      22.897 -11.588   3.503  1.00  0.00    -0.744 OA
ENDBRANCH  98  99
ENDBRANCH  66  91
ENDBRANCH  40  41
ENDBRANCH  32  35
ENDBRANCH  30  31
ENDBRANCH  29  30
ENDBRANCH  28  29
ENDBRANCH   1  28
TORSDOF 20
