REMARK SMILES Cc1c(CC(=O)N[C@H](CO)C(=O)NCCCCCCNC(=O)c2ccc(-c3c4nc(c(-c5c(F)cc(S(=O)(=O)[O-])cc5F)c5ccc([nH]5)c(-c5c(F)cc(S(=O)(=O)[O-])cc5F)c5nc(c(-c6c(F)cc(S(=O)(=O)[O-])cc6F)c6ccc3[nH]6)C=C5)C=C4)cc2)cc(-c2ccc(S(C)(=O)=O)cc2)n1-c1ccc(F)cc1
REMARK SMILES IDX 15 1 14 2 13 3 11 4 12 5 8 7 7 8 5 9 6 10 4 12 3 13 1 14
REMARK SMILES IDX 2 15 101 16 89 17 90 18 102 19 103 20 108 21 104 22 107 23
REMARK SMILES IDX 105 24 106 25 91 26 92 27 100 28 93 29 99 30 94 31 95 32
REMARK SMILES IDX 96 33 97 34 98 35 9 36 10 37 16 39 17 40 18 41 19 42 20 43
REMARK SMILES IDX 21 44 22 46 23 47 24 48 88 49 25 50 87 51 26 52 27 53 28 54
REMARK SMILES IDX 81 55 29 56 86 57 80 58 82 59 30 60 85 61 79 62 78 63 31 65
REMARK SMILES IDX 65 66 44 67 64 68 45 69 48 70 63 71 83 72 46 73 47 74 62 76
REMARK SMILES IDX 84 77 49 78 32 79 33 80 42 81 34 82 35 83 41 84 43 85 36 86
REMARK SMILES IDX 37 87 38 88 39 89 40 90 66 91 67 92 76 93 68 94 69 95 75 96
REMARK SMILES IDX 77 97 70 98 71 99 72 100 73 101 74 102 50 103 51 104 60 105
REMARK SMILES IDX 52 106 53 107 59 108 61 109 54 110 55 111 56 112 57 113
REMARK SMILES IDX 58 114
REMARK H PARENT 13 6 7 11 10 38 20 45 82 64 48 75
REMARK Flexibility Score: inf
ROOT
ATOM      1  C   UNL     1      -3.470  -5.143  -2.630  1.00  0.00     0.021 C 
ENDROOT
BRANCH   1   2
ATOM      2  C   UNL     1      -3.876  -4.728  -1.219  1.00  0.00     0.116 C 
BRANCH   2   3
ATOM      3  N   UNL     1      -3.143  -5.485  -0.217  1.00  0.00    -0.354 N 
ATOM      4  C   UNL     1      -2.094  -5.110   0.576  1.00  0.00     0.244 C 
ATOM      5  O   UNL     1      -1.500  -5.994   1.199  1.00  0.00    -0.273 OA
ATOM      6  H   UNL     1      -3.451  -6.411  -0.090  1.00  0.00     0.163 HD
BRANCH   4   7
ATOM      7  C   UNL     1      -1.611  -3.647   0.617  1.00  0.00     0.197 C 
BRANCH   7   8
ATOM      8  N   UNL     1      -2.762  -2.778   0.885  1.00  0.00    -0.342 N 
ATOM      9  C   UNL     1      -2.826  -1.445   1.139  1.00  0.00     0.225 C 
ATOM     10  O   UNL     1      -3.947  -0.960   1.322  1.00  0.00    -0.275 OA
ATOM     11  H   UNL     1      -3.633  -3.237   0.881  1.00  0.00     0.164 HD
BRANCH   9  12
ATOM     12  C   UNL     1      -1.572  -0.592   1.212  1.00  0.00     0.137 C 
BRANCH  12  13
ATOM     13  C   UNL     1      -0.694  -0.961   2.368  1.00  0.00    -0.017 A 
ATOM     14  C   UNL     1      -2.323  -0.545   4.334  1.00  0.00     0.065 C 
ATOM     15  C   UNL     1      -1.037  -0.995   3.714  1.00  0.00     0.024 A 
ATOM     16  N   UNL     1       0.068  -1.435   4.433  1.00  0.00    -0.314 N 
ATOM     17  C   UNL     1       0.679  -1.305   2.285  1.00  0.00     0.033 A 
ATOM     18  C   UNL     1       1.139  -1.602   3.555  1.00  0.00     0.053 A 
BRANCH  16  19
ATOM     19  C   UNL     1       0.108  -1.675   5.831  1.00  0.00     0.046 A 
ATOM     20  C   UNL     1       1.105  -1.073   6.609  1.00  0.00     0.029 A 
ATOM     21  C   UNL     1      -0.812  -2.563   6.403  1.00  0.00     0.029 A 
ATOM     22  C   UNL     1       1.180  -1.365   7.970  1.00  0.00     0.041 A 
ATOM     23  C   UNL     1      -0.719  -2.861   7.762  1.00  0.00     0.041 A 
ATOM     24  C   UNL     1       0.274  -2.259   8.531  1.00  0.00     0.123 A 
ATOM     25  F   UNL     1       0.364  -2.553   9.834  1.00  0.00    -0.207 F 
ENDBRANCH  16  19
BRANCH  18  26
ATOM     26  C   UNL     1       2.472  -2.088   3.927  1.00  0.00    -0.001 A 
ATOM     27  C   UNL     1       2.638  -3.323   4.573  1.00  0.00     0.011 A 
ATOM     28  C   UNL     1       3.602  -1.312   3.636  1.00  0.00     0.011 A 
ATOM     29  C   UNL     1       3.907  -3.756   4.966  1.00  0.00     0.021 A 
ATOM     30  C   UNL     1       4.874  -1.738   4.025  1.00  0.00     0.021 A 
ATOM     31  C   UNL     1       5.018  -2.950   4.702  1.00  0.00     0.067 A 
BRANCH  31  32
ATOM     32  S   UNL     1       6.626  -3.516   5.199  1.00  0.00     0.175 S 
ATOM     33  C   UNL     1       6.556  -3.528   6.971  1.00  0.00     0.163 C 
ATOM     34  O   UNL     1       6.771  -4.867   4.738  1.00  0.00    -0.224 OA
ATOM     35  O   UNL     1       7.592  -2.481   4.822  1.00  0.00    -0.224 OA
ENDBRANCH  31  32
ENDBRANCH  18  26
ENDBRANCH  12  13
ENDBRANCH   9  12
ENDBRANCH   7   8
BRANCH   7  36
ATOM     36  C   UNL     1      -0.793  -3.337  -0.654  1.00  0.00     0.191 C 
BRANCH  36  37
ATOM     37  O   UNL     1      -1.340  -2.298  -1.463  1.00  0.00    -0.394 OA
ATOM     38  H   UNL     1      -2.215  -2.566  -1.784  1.00  0.00     0.210 HD
ENDBRANCH  36  37
ENDBRANCH   7  36
ENDBRANCH   4   7
ENDBRANCH   2   3
ENDBRANCH   1   2
BRANCH   1  39
ATOM     39  C   UNL     1      -4.184  -6.398  -3.137  1.00  0.00     0.002 C 
BRANCH  39  40
ATOM     40  C   UNL     1      -5.692  -6.243  -3.374  1.00  0.00     0.002 C 
BRANCH  40  41
ATOM     41  C   UNL     1      -6.159  -4.981  -4.133  1.00  0.00     0.021 C 
BRANCH  41  42
ATOM     42  C   UNL     1      -5.358  -4.540  -5.384  1.00  0.00     0.116 C 
BRANCH  42  43
ATOM     43  N   UNL     1      -5.997  -4.837  -6.644  1.00  0.00    -0.352 N 
ATOM     44  C   UNL     1      -5.912  -4.181  -7.865  1.00  0.00     0.251 C 
ATOM     45  H   UNL     1      -6.585  -5.627  -6.636  1.00  0.00     0.163 HD
ATOM     46  O   UNL     1      -6.630  -4.627  -8.763  1.00  0.00    -0.269 OA
BRANCH  44  47
ATOM     47  C   UNL     1      -5.142  -2.885  -8.094  1.00  0.00     0.039 A 
ATOM     48  C   UNL     1      -5.901  -1.742  -8.241  1.00  0.00     0.014 A 
ATOM     49  C   UNL     1      -3.777  -2.715  -8.412  1.00  0.00     0.014 A 
ATOM     50  C   UNL     1      -5.300  -0.484  -8.591  1.00  0.00     0.010 A 
ATOM     51  C   UNL     1      -3.184  -1.419  -8.880  1.00  0.00     0.010 A 
ATOM     52  C   UNL     1      -3.926  -0.223  -8.996  1.00  0.00    -0.014 A 
BRANCH  52  53
ATOM     53  C   UNL     1      -3.654   1.235  -9.859  1.00  0.00     0.031 A 
ATOM     54  C   UNL     1      -4.934   1.301 -10.626  1.00  0.00     0.074 A 
ATOM     55  C   UNL     1      -2.757   2.263 -10.276  1.00  0.00     0.049 A 
ATOM     56  N   UNL     1      -5.220   0.286 -11.394  1.00  0.00    -0.248 NA
ATOM     57  C   UNL     1      -6.090   2.118 -10.248  1.00  0.00     0.031 C 
ATOM     58  C   UNL     1      -1.294   2.362 -10.077  1.00  0.00     0.029 A 
ATOM     59  N   UNL     1      -2.930   3.514 -11.033  1.00  0.00    -0.354 N 
ATOM     60  C   UNL     1      -6.494   0.471 -11.848  1.00  0.00     0.074 A 
ATOM     61  C   UNL     1      -7.046   1.469 -10.933  1.00  0.00     0.031 C 
ATOM     62  C   UNL     1      -0.770   3.567 -10.484  1.00  0.00     0.029 A 
ATOM     63  C   UNL     1      -1.782   4.451 -11.081  1.00  0.00     0.049 A 
ATOM     64  H   UNL     1      -3.777   3.721 -11.490  1.00  0.00     0.167 HD
ATOM     65  C   UNL     1      -6.611   0.398 -13.204  1.00  0.00     0.037 A 
ATOM     66  C   UNL     1      -1.613   5.746 -11.653  1.00  0.00     0.037 A 
ATOM     67  C   UNL     1      -6.548   1.708 -13.798  1.00  0.00     0.049 A 
ATOM     68  C   UNL     1      -2.485   5.720 -12.832  1.00  0.00     0.074 A 
ATOM     69  C   UNL     1      -7.073   2.929 -13.415  1.00  0.00     0.029 A 
ATOM     70  N   UNL     1      -5.468   1.977 -14.613  1.00  0.00    -0.354 N 
ATOM     71  N   UNL     1      -2.165   5.073 -13.910  1.00  0.00    -0.248 NA
ATOM     72  C   UNL     1      -3.710   6.506 -12.896  1.00  0.00     0.031 C 
ATOM     73  C   UNL     1      -5.976   3.806 -13.500  1.00  0.00     0.029 A 
ATOM     74  C   UNL     1      -5.035   3.258 -14.361  1.00  0.00     0.049 A 
ATOM     75  H   UNL     1      -5.073   1.355 -15.266  1.00  0.00     0.167 HD
ATOM     76  C   UNL     1      -3.364   4.932 -14.533  1.00  0.00     0.074 A 
ATOM     77  C   UNL     1      -4.193   6.022 -14.041  1.00  0.00     0.031 C 
ATOM     78  C   UNL     1      -3.732   3.659 -14.815  1.00  0.00     0.037 A 
BRANCH  65  79
ATOM     79  C   UNL     1      -5.963  -0.824 -13.812  1.00  0.00     0.058 A 
ATOM     80  C   UNL     1      -6.780  -1.795 -14.398  1.00  0.00     0.135 A 
ATOM     81  C   UNL     1      -4.573  -1.089 -13.775  1.00  0.00     0.135 A 
ATOM     82  F   UNL     1      -8.104  -1.589 -14.498  1.00  0.00    -0.206 F 
ATOM     83  C   UNL     1      -6.253  -2.983 -14.898  1.00  0.00     0.059 A 
ATOM     84  C   UNL     1      -4.033  -2.294 -14.213  1.00  0.00     0.059 A 
ATOM     85  F   UNL     1      -3.705  -0.159 -13.343  1.00  0.00    -0.206 F 
ATOM     86  C   UNL     1      -4.883  -3.232 -14.785  1.00  0.00     0.060 A 
BRANCH  86  87
ATOM     87  S   UNL     1      -4.233  -4.790 -15.422  1.00  0.00     0.124 S 
ATOM     88  O   UNL     1      -5.159  -5.768 -14.853  1.00  0.00    -0.237 OA
ATOM     89  O   UNL     1      -4.350  -4.588 -16.862  1.00  0.00    -0.237 OA
ATOM     90  O   UNL     1      -2.878  -4.848 -14.886  1.00  0.00    -0.744 OA
ENDBRANCH  86  87
ENDBRANCH  65  79
BRANCH  66  91
ATOM     91  C   UNL     1      -0.766   7.134 -11.768  1.00  0.00     0.058 A 
ATOM     92  C   UNL     1      -0.780   7.957 -12.969  1.00  0.00     0.135 A 
ATOM     93  C   UNL     1      -0.341   7.882 -10.654  1.00  0.00     0.135 A 
ATOM     94  F   UNL     1      -1.103   7.437 -14.163  1.00  0.00    -0.206 F 
ATOM     95  C   UNL     1      -0.547   9.359 -13.024  1.00  0.00     0.059 A 
ATOM     96  C   UNL     1      -0.070   9.297 -10.693  1.00  0.00     0.059 A 
ATOM     97  F   UNL     1      -0.251   7.288  -9.457  1.00  0.00    -0.206 F 
ATOM     98  C   UNL     1      -0.226  10.040 -11.866  1.00  0.00     0.060 A 
BRANCH  98  99
ATOM     99  S   UNL     1      -0.171  11.876 -11.889  1.00  0.00     0.124 S 
ATOM    100  O   UNL     1       0.996  12.160 -12.717  1.00  0.00    -0.237 OA
ATOM    101  O   UNL     1      -1.460  12.226 -12.483  1.00  0.00    -0.237 OA
ATOM    102  O   UNL     1      -0.034  12.228 -10.479  1.00  0.00    -0.744 OA
ENDBRANCH  98  99
ENDBRANCH  66  91
BRANCH  78 103
ATOM    103  C   UNL     1      -2.685   2.746 -15.416  1.00  0.00     0.058 A 
ATOM    104  C   UNL     1      -1.419   2.441 -14.868  1.00  0.00     0.135 A 
ATOM    105  C   UNL     1      -2.962   2.198 -16.678  1.00  0.00     0.135 A 
ATOM    106  F   UNL     1      -1.075   2.825 -13.630  1.00  0.00    -0.206 F 
ATOM    107  C   UNL     1      -0.460   1.711 -15.576  1.00  0.00     0.059 A 
ATOM    108  C   UNL     1      -2.039   1.427 -17.382  1.00  0.00     0.059 A 
ATOM    109  F   UNL     1      -4.161   2.411 -17.245  1.00  0.00    -0.206 F 
ATOM    110  C   UNL     1      -0.774   1.221 -16.840  1.00  0.00     0.060 A 
BRANCH 110 111
ATOM    111  S   UNL     1       0.480   0.306 -17.763  1.00  0.00     0.124 S 
ATOM    112  O   UNL     1       1.380   1.376 -18.188  1.00  0.00    -0.237 OA
ATOM    113  O   UNL     1       1.019  -0.603 -16.758  1.00  0.00    -0.237 OA
ATOM    114  O   UNL     1      -0.282  -0.320 -18.839  1.00  0.00    -0.744 OA
ENDBRANCH 110 111
ENDBRANCH  78 103
ENDBRANCH  52  53
ENDBRANCH  44  47
ENDBRANCH  42  43
ENDBRANCH  41  42
ENDBRANCH  40  41
ENDBRANCH  39  40
ENDBRANCH   1  39
TORSDOF 24
