REMARK SMILES C[C@H]1CC[C@@H]([C@H](C(=O)NCCCCCCNC(=O)c2ccc(-c3c4nc(c(-c5c(F)cc(S(=O)(=O)[O-])cc5F)c5ccc([nH]5)c(-c5c(F)cc(S(=O)(=O)[O-])cc5F)c5nc(c(-c6c(F)cc(S(=O)(=O)[O-])cc6F)c6ccc3[nH]6)C=C5)C=C4)cc2)[C@@H]2CCS(=O)(=O)C2)C[C@@H]1C
REMARK SMILES IDX 13 1 12 2 11 3 10 4 9 5 7 6 8 7 6 9 5 10 1 11 2 12 3 13
REMARK SMILES IDX 93 14 4 15 92 16 94 17 85 18 86 19 91 20 87 21 88 22 89 23
REMARK SMILES IDX 90 24 14 25 15 26 16 27 17 28 18 30 19 31 20 32 84 33 21 34
REMARK SMILES IDX 83 35 22 36 23 37 24 38 77 39 25 40 82 41 76 42 78 43 26 44
REMARK SMILES IDX 81 45 75 46 74 47 27 49 61 50 40 51 60 52 41 53 44 54 59 55
REMARK SMILES IDX 79 56 42 57 43 58 58 60 80 61 45 62 28 63 29 64 38 65 30 66
REMARK SMILES IDX 31 67 37 68 39 69 32 70 33 71 34 72 35 73 36 74 62 75 63 76
REMARK SMILES IDX 72 77 64 78 65 79 71 80 73 81 66 82 67 83 68 84 69 85 70 86
REMARK SMILES IDX 46 87 47 88 56 89 48 90 49 91 55 92 57 93 50 94 51 95 52 96
REMARK SMILES IDX 53 97 54 98
REMARK H PARENT 9 8 16 29 78 48 44 59
REMARK Flexibility Score: inf
ROOT
ATOM      1  C   UNL     1       3.916   1.907   3.552  1.00  0.00     0.002 C 
ENDROOT
BRANCH   1   2
ATOM      2  C   UNL     1       2.603   2.700   3.607  1.00  0.00     0.002 C 
BRANCH   2   3
ATOM      3  C   UNL     1       1.281   2.092   3.119  1.00  0.00     0.021 C 
BRANCH   3   4
ATOM      4  C   UNL     1       0.592   0.897   3.845  1.00  0.00     0.116 C 
BRANCH   4   5
ATOM      5  N   UNL     1      -0.897   1.038   3.862  1.00  0.00    -0.356 N 
ATOM      6  C   UNL     1      -2.059   0.588   3.329  1.00  0.00     0.223 C 
ATOM      7  O   UNL     1      -3.033   1.210   3.804  1.00  0.00    -0.275 OA
ATOM      8  H   UNL     1      -1.122   1.732   4.522  1.00  0.00     0.163 HD
BRANCH   6   9
ATOM      9  C   UNL     1      -2.424  -0.587   2.300  1.00  0.00     0.085 C 
BRANCH   9  10
ATOM     10  C   UNL     1      -2.434  -0.378   0.714  1.00  0.00     0.002 C 
ATOM     11  C   UNL     1       1.423  -0.533   0.890  1.00  0.00     0.008 C 
ATOM     12  C   UNL     1       0.399   0.065  -0.096  1.00  0.00    -0.011 C 
ATOM     13  C   UNL     1      -0.315  -1.175  -0.620  1.00  0.00     0.004 C 
ATOM     14  C   UNL     1      -0.514   1.177   0.512  1.00  0.00    -0.011 C 
ATOM     15  C   UNL     1      -1.801  -1.252  -0.387  1.00  0.00     0.005 C 
ATOM     16  C   UNL     1      -2.019   1.031   0.333  1.00  0.00     0.008 C 
ATOM     17  C   UNL     1      -0.154   2.623   0.155  1.00  0.00     0.008 C 
ENDBRANCH   9  10
BRANCH   9  18
ATOM     18  C   UNL     1      -2.421  -1.985   3.001  1.00  0.00     0.018 C 
ATOM     19  C   UNL     1      -1.973  -3.209   2.201  1.00  0.00     0.021 C 
ATOM     20  C   UNL     1      -3.818  -2.389   3.575  1.00  0.00     0.141 C 
ATOM     21  C   UNL     1      -3.155  -3.756   1.403  1.00  0.00     0.137 C 
ATOM     22  S   UNL     1      -4.591  -3.492   2.398  1.00  0.00     0.150 S 
ATOM     23  O   UNL     1      -5.557  -2.743   1.609  1.00  0.00    -0.229 OA
ATOM     24  O   UNL     1      -4.931  -4.731   3.051  1.00  0.00    -0.229 OA
ENDBRANCH   9  18
ENDBRANCH   6   9
ENDBRANCH   4   5
ENDBRANCH   3   4
ENDBRANCH   2   3
ENDBRANCH   1   2
BRANCH   1  25
ATOM     25  C   UNL     1       4.459   1.372   2.216  1.00  0.00     0.021 C 
BRANCH  25  26
ATOM     26  C   UNL     1       4.431   2.307   1.006  1.00  0.00     0.116 C 
BRANCH  26  27
ATOM     27  N   UNL     1       5.351   3.422   1.164  1.00  0.00    -0.352 N 
ATOM     28  C   UNL     1       6.648   3.555   0.724  1.00  0.00     0.251 C 
ATOM     29  H   UNL     1       4.994   4.194   1.658  1.00  0.00     0.163 HD
ATOM     30  O   UNL     1       7.374   4.406   1.233  1.00  0.00    -0.269 OA
BRANCH  28  31
ATOM     31  C   UNL     1       7.178   2.692  -0.358  1.00  0.00     0.039 A 
ATOM     32  C   UNL     1       8.465   2.158  -0.241  1.00  0.00     0.014 A 
ATOM     33  C   UNL     1       6.445   2.482  -1.529  1.00  0.00     0.014 A 
ATOM     34  C   UNL     1       8.998   1.382  -1.277  1.00  0.00     0.010 A 
ATOM     35  C   UNL     1       6.952   1.656  -2.534  1.00  0.00     0.010 A 
ATOM     36  C   UNL     1       8.240   1.109  -2.428  1.00  0.00    -0.014 A 
BRANCH  36  37
ATOM     37  C   UNL     1       8.788   0.275  -3.535  1.00  0.00     0.031 A 
ATOM     38  C   UNL     1       9.013   0.874  -4.899  1.00  0.00     0.074 A 
ATOM     39  C   UNL     1       9.039  -1.033  -3.328  1.00  0.00     0.049 A 
ATOM     40  N   UNL     1       9.444   0.301  -5.995  1.00  0.00    -0.248 NA
ATOM     41  C   UNL     1       8.685   2.299  -5.059  1.00  0.00     0.031 C 
ATOM     42  C   UNL     1       8.828  -1.742  -2.065  1.00  0.00     0.029 A 
ATOM     43  N   UNL     1       9.521  -2.001  -4.174  1.00  0.00    -0.354 N 
ATOM     44  C   UNL     1       9.426   1.290  -6.974  1.00  0.00     0.074 A 
ATOM     45  C   UNL     1       8.883   2.480  -6.356  1.00  0.00     0.031 C 
ATOM     46  C   UNL     1       9.206  -3.022  -2.210  1.00  0.00     0.029 A 
ATOM     47  C   UNL     1       9.649  -3.237  -3.585  1.00  0.00     0.049 A 
ATOM     48  H   UNL     1       9.754  -1.827  -5.115  1.00  0.00     0.167 HD
ATOM     49  C   UNL     1       9.846   1.221  -8.262  1.00  0.00     0.037 A 
ATOM     50  C   UNL     1      10.072  -4.412  -4.093  1.00  0.00     0.037 A 
ATOM     51  C   UNL     1      10.396   0.035  -8.866  1.00  0.00     0.049 A 
ATOM     52  C   UNL     1      10.516  -4.473  -5.529  1.00  0.00     0.074 A 
ATOM     53  C   UNL     1      10.900  -0.128 -10.145  1.00  0.00     0.029 A 
ATOM     54  N   UNL     1      10.507  -1.198  -8.236  1.00  0.00    -0.354 N 
ATOM     55  N   UNL     1      10.553  -3.513  -6.422  1.00  0.00    -0.248 NA
ATOM     56  C   UNL     1      10.980  -5.775  -6.026  1.00  0.00     0.031 C 
ATOM     57  C   UNL     1      11.262  -1.470 -10.306  1.00  0.00     0.029 A 
ATOM     58  C   UNL     1      11.043  -2.131  -9.108  1.00  0.00     0.049 A 
ATOM     59  H   UNL     1      10.244  -1.381  -7.305  1.00  0.00     0.167 HD
ATOM     60  C   UNL     1      11.072  -4.087  -7.578  1.00  0.00     0.074 A 
ATOM     61  C   UNL     1      11.342  -5.476  -7.266  1.00  0.00     0.031 C 
ATOM     62  C   UNL     1      11.307  -3.514  -8.785  1.00  0.00     0.037 A 
BRANCH  49  63
ATOM     63  C   UNL     1       9.711   2.465  -9.104  1.00  0.00     0.058 A 
ATOM     64  C   UNL     1      10.467   3.621  -8.846  1.00  0.00     0.135 A 
ATOM     65  C   UNL     1       8.813   2.505 -10.183  1.00  0.00     0.135 A 
ATOM     66  F   UNL     1      11.336   3.647  -7.822  1.00  0.00    -0.206 F 
ATOM     67  C   UNL     1      10.299   4.785  -9.589  1.00  0.00     0.059 A 
ATOM     68  C   UNL     1       8.654   3.648 -10.963  1.00  0.00     0.059 A 
ATOM     69  F   UNL     1       8.068   1.430 -10.484  1.00  0.00    -0.206 F 
ATOM     70  C   UNL     1       9.383   4.791 -10.642  1.00  0.00     0.060 A 
BRANCH  70  71
ATOM     71  S   UNL     1       9.150   6.320 -11.573  1.00  0.00     0.124 S 
ATOM     72  O   UNL     1       8.422   7.139 -10.608  1.00  0.00    -0.237 OA
ATOM     73  O   UNL     1      10.523   6.733 -11.845  1.00  0.00    -0.237 OA
ATOM     74  O   UNL     1       8.382   5.895 -12.739  1.00  0.00    -0.744 OA
ENDBRANCH  70  71
ENDBRANCH  49  63
BRANCH  50  75
ATOM     75  C   UNL     1      10.131  -5.614  -3.217  1.00  0.00     0.058 A 
ATOM     76  C   UNL     1      11.362  -6.142  -2.801  1.00  0.00     0.135 A 
ATOM     77  C   UNL     1       8.963  -6.232  -2.743  1.00  0.00     0.135 A 
ATOM     78  F   UNL     1      12.507  -5.593  -3.235  1.00  0.00    -0.206 F 
ATOM     79  C   UNL     1      11.436  -7.238  -1.948  1.00  0.00     0.059 A 
ATOM     80  C   UNL     1       9.010  -7.313  -1.868  1.00  0.00     0.059 A 
ATOM     81  F   UNL     1       7.759  -5.757  -3.099  1.00  0.00    -0.206 F 
ATOM     82  C   UNL     1      10.252  -7.811  -1.478  1.00  0.00     0.060 A 
BRANCH  82  83
ATOM     83  S   UNL     1      10.361  -9.180  -0.306  1.00  0.00     0.124 S 
ATOM     84  O   UNL     1      10.854 -10.258  -1.155  1.00  0.00    -0.237 OA
ATOM     85  O   UNL     1      11.303  -8.662   0.681  1.00  0.00    -0.237 OA
ATOM     86  O   UNL     1       8.988  -9.327   0.168  1.00  0.00    -0.744 OA
ENDBRANCH  82  83
ENDBRANCH  50  75
BRANCH  62  87
ATOM     87  C   UNL     1      11.916  -4.378  -9.857  1.00  0.00     0.058 A 
ATOM     88  C   UNL     1      11.188  -5.396 -10.492  1.00  0.00     0.135 A 
ATOM     89  C   UNL     1      13.231  -4.146 -10.292  1.00  0.00     0.135 A 
ATOM     90  F   UNL     1       9.929  -5.666 -10.111  1.00  0.00    -0.206 F 
ATOM     91  C   UNL     1      11.749  -6.169 -11.504  1.00  0.00     0.059 A 
ATOM     92  C   UNL     1      13.802  -4.885 -11.323  1.00  0.00     0.059 A 
ATOM     93  F   UNL     1      13.970  -3.178  -9.727  1.00  0.00    -0.206 F 
ATOM     94  C   UNL     1      13.057  -5.903 -11.915  1.00  0.00     0.060 A 
BRANCH  94  95
ATOM     95  S   UNL     1      13.760  -6.891 -13.253  1.00  0.00     0.124 S 
ATOM     96  O   UNL     1      13.974  -8.173 -12.591  1.00  0.00    -0.237 OA
ATOM     97  O   UNL     1      12.697  -6.862 -14.252  1.00  0.00    -0.237 OA
ATOM     98  O   UNL     1      14.972  -6.161 -13.614  1.00  0.00    -0.744 OA
ENDBRANCH  94  95
ENDBRANCH  62  87
ENDBRANCH  36  37
ENDBRANCH  28  31
ENDBRANCH  26  27
ENDBRANCH  25  26
ENDBRANCH   1  25
TORSDOF 18
