REMARK SMILES COc1cc([C@H]2[NH2+]CCC3=c4ccccc4=N[C@H]32)ccc1OCC(=O)NCCCCCCNC(=O)c1ccc(-c2c3nc(c(-c4c(F)cc(S(=O)(=O)[O-])cc4F)c4ccc([nH]4)c(-c4c(F)cc(S(=O)(=O)[O-])cc4F)c4nc(c(-c5c(F)cc(S(=O)(=O)[O-])cc5F)c5ccc2[nH]5)C=C4)C=C3)cc1
REMARK SMILES IDX 29 1 28 2 27 3 26 4 24 5 25 6 23 8 22 9 21 10 3 11 4 12 5 13
REMARK SMILES IDX 20 14 19 15 2 16 1 17 6 18 7 19 18 20 8 21 10 24 17 25 9 26
REMARK SMILES IDX 11 27 16 28 12 29 15 30 13 31 14 32 30 33 31 34 32 35 33 36
REMARK SMILES IDX 34 37 35 39 36 40 37 41 101 42 38 43 100 44 39 45 40 46
REMARK SMILES IDX 41 47 94 48 42 49 99 50 93 51 95 52 43 53 98 54 92 55 91 56
REMARK SMILES IDX 44 58 78 59 57 60 77 61 58 62 61 63 76 64 96 65 59 66 60 67
REMARK SMILES IDX 75 69 97 70 62 71 45 72 46 73 55 74 47 75 48 76 54 77 56 78
REMARK SMILES IDX 49 79 50 80 51 81 52 82 53 83 79 84 80 85 89 86 81 87 82 88
REMARK SMILES IDX 88 89 90 90 83 91 84 92 85 93 86 94 87 95 63 96 64 97 73 98
REMARK SMILES IDX 65 99 66 100 72 101 74 102 67 103 68 104 69 105 70 106
REMARK SMILES IDX 71 107
REMARK H PARENT 26 7 7 22 7 23 33 38 95 57 61 68
REMARK Flexibility Score: inf
ROOT
ATOM      1  C   UNL     1      -1.427 -12.995  -0.932  1.00  0.00     0.002 C 
ENDROOT
BRANCH   1   2
ATOM      2  C   UNL     1      -0.514 -12.544   0.216  1.00  0.00     0.021 C 
BRANCH   2   3
ATOM      3  C   UNL     1       0.969 -12.892   0.063  1.00  0.00     0.116 C 
BRANCH   3   4
ATOM      4  N   UNL     1       1.517 -12.437  -1.198  1.00  0.00    -0.353 N 
ATOM      5  C   UNL     1       2.639 -11.713  -1.454  1.00  0.00     0.257 C 
ATOM      6  O   UNL     1       3.013 -11.644  -2.629  1.00  0.00    -0.271 OA
ATOM      7  H   UNL     1       0.996 -12.691  -1.994  1.00  0.00     0.163 HD
BRANCH   5   8
ATOM      8  C   UNL     1       3.454 -11.071  -0.323  1.00  0.00     0.329 C 
BRANCH   8   9
ATOM      9  O   UNL     1       2.801 -10.478   0.774  1.00  0.00    -0.480 OA
BRANCH   9  10
ATOM     10  C   UNL     1       1.945  -9.435   0.593  1.00  0.00     0.161 A 
ATOM     11  C   UNL     1       2.023  -8.361  -0.293  1.00  0.00     0.161 A 
ATOM     12  C   UNL     1       1.121  -7.276  -0.172  1.00  0.00     0.060 A 
ATOM     13  C   UNL     1       0.091  -7.266   0.796  1.00  0.00     0.016 A 
ATOM     14  C   UNL     1       0.907  -9.449   1.515  1.00  0.00     0.051 A 
ATOM     15  C   UNL     1      -0.028  -8.419   1.571  1.00  0.00     0.014 A 
BRANCH  11  16
ATOM     16  O   UNL     1       3.066  -8.244  -1.172  1.00  0.00    -0.493 OA
ATOM     17  C   UNL     1       2.677  -8.597  -2.501  1.00  0.00     0.278 C 
ENDBRANCH  11  16
BRANCH  13  18
ATOM     18  C   UNL     1      -0.766  -6.002   1.030  1.00  0.00     0.243 C 
ATOM     19  N   UNL     1      -1.613  -5.692  -0.162  1.00  0.00    -0.338 N 
ATOM     20  C   UNL     1      -1.633  -5.830   2.352  1.00  0.00     0.196 C 
ATOM     21  C   UNL     1      -2.839  -6.506  -0.216  1.00  0.00     0.265 C 
ATOM     22  H   UNL     1      -1.066  -5.869  -1.005  1.00  0.00     0.346 HD
ATOM     23  H   UNL     1      -1.895  -4.715  -0.094  1.00  0.00     0.346 HD
ATOM     24  C   UNL     1      -2.919  -6.601   2.251  1.00  0.00    -0.025 C 
ATOM     25  N   UNL     1      -0.977  -6.324   3.598  1.00  0.00    -0.270 NA
ATOM     26  C   UNL     1      -3.732  -6.371   1.028  1.00  0.00     0.095 C 
ATOM     27  C   UNL     1      -3.017  -7.500   3.221  1.00  0.00     0.001 A 
ATOM     28  C   UNL     1      -1.790  -7.255   4.008  1.00  0.00     0.066 A 
ATOM     29  C   UNL     1      -3.869  -8.616   3.471  1.00  0.00     0.010 A 
ATOM     30  C   UNL     1      -1.530  -8.201   5.118  1.00  0.00     0.028 A 
ATOM     31  C   UNL     1      -3.521  -9.480   4.439  1.00  0.00     0.001 A 
ATOM     32  C   UNL     1      -2.344  -9.261   5.266  1.00  0.00     0.002 A 
ENDBRANCH  13  18
ENDBRANCH   9  10
ENDBRANCH   8   9
ENDBRANCH   5   8
ENDBRANCH   3   4
ENDBRANCH   2   3
ENDBRANCH   1   2
BRANCH   1  33
ATOM     33  C   UNL     1      -1.303 -14.462  -1.351  1.00  0.00     0.002 C 
BRANCH  33  34
ATOM     34  C   UNL     1      -1.475 -15.484  -0.228  1.00  0.00     0.021 C 
BRANCH  34  35
ATOM     35  C   UNL     1      -2.792 -15.392   0.530  1.00  0.00     0.116 C 
BRANCH  35  36
ATOM     36  N   UNL     1      -3.939 -15.679  -0.316  1.00  0.00    -0.352 N 
ATOM     37  C   UNL     1      -4.953 -16.584  -0.118  1.00  0.00     0.251 C 
ATOM     38  H   UNL     1      -3.998 -15.152  -1.145  1.00  0.00     0.163 HD
ATOM     39  O   UNL     1      -5.748 -16.823  -1.026  1.00  0.00    -0.269 OA
BRANCH  37  40
ATOM     40  C   UNL     1      -5.070 -17.286   1.178  1.00  0.00     0.039 A 
ATOM     41  C   UNL     1      -5.301 -18.663   1.185  1.00  0.00     0.014 A 
ATOM     42  C   UNL     1      -4.942 -16.589   2.384  1.00  0.00     0.014 A 
ATOM     43  C   UNL     1      -5.341 -19.351   2.400  1.00  0.00     0.010 A 
ATOM     44  C   UNL     1      -4.904 -17.288   3.587  1.00  0.00     0.010 A 
ATOM     45  C   UNL     1      -5.107 -18.676   3.610  1.00  0.00    -0.014 A 
BRANCH  45  46
ATOM     46  C   UNL     1      -5.067 -19.406   4.904  1.00  0.00     0.031 A 
ATOM     47  C   UNL     1      -6.072 -19.094   5.981  1.00  0.00     0.074 A 
ATOM     48  C   UNL     1      -4.088 -20.304   5.132  1.00  0.00     0.049 A 
ATOM     49  N   UNL     1      -6.160 -19.580   7.193  1.00  0.00    -0.248 NA
ATOM     50  C   UNL     1      -7.096 -18.085   5.666  1.00  0.00     0.031 C 
ATOM     51  C   UNL     1      -3.024 -20.654   4.187  1.00  0.00     0.029 A 
ATOM     52  N   UNL     1      -3.817 -21.079   6.233  1.00  0.00    -0.354 N 
ATOM     53  C   UNL     1      -7.233 -18.926   7.787  1.00  0.00     0.074 A 
ATOM     54  C   UNL     1      -7.734 -17.973   6.822  1.00  0.00     0.031 C 
ATOM     55  C   UNL     1      -2.231 -21.586   4.740  1.00  0.00     0.029 A 
ATOM     56  C   UNL     1      -2.701 -21.870   6.093  1.00  0.00     0.049 A 
ATOM     57  H   UNL     1      -4.371 -21.069   7.047  1.00  0.00     0.167 HD
ATOM     58  C   UNL     1      -7.766 -19.119   9.018  1.00  0.00     0.037 A 
ATOM     59  C   UNL     1      -2.113 -22.719   6.959  1.00  0.00     0.037 A 
ATOM     60  C   UNL     1      -7.278 -20.091   9.962  1.00  0.00     0.049 A 
ATOM     61  C   UNL     1      -2.725 -22.916   8.320  1.00  0.00     0.074 A 
ATOM     62  C   UNL     1      -7.794 -20.414  11.205  1.00  0.00     0.029 A 
ATOM     63  N   UNL     1      -6.160 -20.890   9.775  1.00  0.00    -0.354 N 
ATOM     64  N   UNL     1      -3.789 -22.347   8.835  1.00  0.00    -0.248 NA
ATOM     65  C   UNL     1      -2.064 -23.876   9.215  1.00  0.00     0.031 C 
ATOM     66  C   UNL     1      -6.954 -21.364  11.794  1.00  0.00     0.029 A 
ATOM     67  C   UNL     1      -5.952 -21.682  10.892  1.00  0.00     0.049 A 
ATOM     68  H   UNL     1      -5.597 -20.893   8.967  1.00  0.00     0.167 HD
ATOM     69  C   UNL     1      -3.940 -22.901  10.103  1.00  0.00     0.074 A 
ATOM     70  C   UNL     1      -2.868 -23.859  10.269  1.00  0.00     0.031 C 
ATOM     71  C   UNL     1      -4.883 -22.639  11.042  1.00  0.00     0.037 A 
BRANCH  58  72
ATOM     72  C   UNL     1      -8.937 -18.264   9.420  1.00  0.00     0.058 A 
ATOM     73  C   UNL     1     -10.202 -18.411   8.828  1.00  0.00     0.135 A 
ATOM     74  C   UNL     1      -8.806 -17.319  10.451  1.00  0.00     0.135 A 
ATOM     75  F   UNL     1     -10.383 -19.288   7.827  1.00  0.00    -0.206 F 
ATOM     76  C   UNL     1     -11.287 -17.635   9.225  1.00  0.00     0.059 A 
ATOM     77  C   UNL     1      -9.885 -16.554  10.886  1.00  0.00     0.059 A 
ATOM     78  F   UNL     1      -7.620 -17.134  11.053  1.00  0.00    -0.206 F 
ATOM     79  C   UNL     1     -11.118 -16.711  10.257  1.00  0.00     0.060 A 
BRANCH  79  80
ATOM     80  S   UNL     1     -12.540 -15.724  10.769  1.00  0.00     0.124 S 
ATOM     81  O   UNL     1     -12.695 -14.825   9.629  1.00  0.00    -0.237 OA
ATOM     82  O   UNL     1     -13.581 -16.735  10.924  1.00  0.00    -0.237 OA
ATOM     83  O   UNL     1     -12.091 -15.095  12.007  1.00  0.00    -0.744 OA
ENDBRANCH  79  80
ENDBRANCH  58  72
BRANCH  59  84
ATOM     84  C   UNL     1      -0.879 -23.453   6.563  1.00  0.00     0.058 A 
ATOM     85  C   UNL     1      -0.892 -24.842   6.367  1.00  0.00     0.135 A 
ATOM     86  C   UNL     1       0.337 -22.778   6.368  1.00  0.00     0.135 A 
ATOM     87  F   UNL     1      -2.027 -25.534   6.546  1.00  0.00    -0.206 F 
ATOM     88  C   UNL     1       0.259 -25.540   6.016  1.00  0.00     0.059 A 
ATOM     89  C   UNL     1       1.494 -23.450   5.987  1.00  0.00     0.059 A 
ATOM     90  F   UNL     1       0.400 -21.447   6.525  1.00  0.00    -0.206 F 
ATOM     91  C   UNL     1       1.448 -24.834   5.826  1.00  0.00     0.060 A 
BRANCH  91  92
ATOM     92  S   UNL     1       2.927 -25.744   5.331  1.00  0.00     0.124 S 
ATOM     93  O   UNL     1       3.260 -26.453   6.561  1.00  0.00    -0.237 OA
ATOM     94  O   UNL     1       2.427 -26.566   4.234  1.00  0.00    -0.237 OA
ATOM     95  O   UNL     1       3.855 -24.687   4.939  1.00  0.00    -0.744 OA
ENDBRANCH  91  92
ENDBRANCH  59  84
BRANCH  71  96
ATOM     96  C   UNL     1      -4.824 -23.425  12.324  1.00  0.00     0.058 A 
ATOM     97  C   UNL     1      -3.821 -23.209  13.282  1.00  0.00     0.135 A 
ATOM     98  C   UNL     1      -5.820 -24.371  12.621  1.00  0.00     0.135 A 
ATOM     99  F   UNL     1      -2.842 -22.321  13.046  1.00  0.00    -0.206 F 
ATOM    100  C   UNL     1      -3.793 -23.920  14.477  1.00  0.00     0.059 A 
ATOM    101  C   UNL     1      -5.829 -25.070  13.824  1.00  0.00     0.059 A 
ATOM    102  F   UNL     1      -6.809 -24.610  11.745  1.00  0.00    -0.206 F 
ATOM    103  C   UNL     1      -4.804 -24.846  14.741  1.00  0.00     0.060 A 
BRANCH 103 104
ATOM    104  S   UNL     1      -4.774 -25.735  16.311  1.00  0.00     0.124 S 
ATOM    105  O   UNL     1      -3.659 -26.654  16.108  1.00  0.00    -0.237 OA
ATOM    106  O   UNL     1      -4.544 -24.662  17.273  1.00  0.00    -0.237 OA
ATOM    107  O   UNL     1      -6.094 -26.356  16.377  1.00  0.00    -0.744 OA
ENDBRANCH 103 104
ENDBRANCH  71  96
ENDBRANCH  45  46
ENDBRANCH  37  40
ENDBRANCH  35  36
ENDBRANCH  34  35
ENDBRANCH  33  34
ENDBRANCH   1  33
TORSDOF 20
