REMARK SMILES O=C(NCCCCCCNC(=O)c1ccc(OCc2sccc2Br)cn1)c1ccc(-c2c3nc(c(-c4c(F)cc(S(=O)(=O)[O-])cc4F)c4ccc([nH]4)c(-c4c(F)cc(S(=O)(=O)[O-])cc4F)c4nc(c(-c5c(F)cc(S(=O)(=O)[O-])cc5F)c5ccc2[nH]5)C=C4)C=C3)cc1
REMARK SMILES IDX 6 1 5 2 4 3 3 4 1 5 2 6 27 8 28 9 92 10 29 11 91 12 30 13
REMARK SMILES IDX 31 14 32 15 85 16 33 17 90 18 84 19 86 20 34 21 89 22 83 23
REMARK SMILES IDX 82 24 35 26 69 27 48 28 68 29 49 30 52 31 67 32 87 33 50 34
REMARK SMILES IDX 51 35 66 37 88 38 53 39 36 40 37 41 46 42 38 43 39 44 45 45
REMARK SMILES IDX 47 46 40 47 41 48 42 49 43 50 44 51 70 52 71 53 80 54 72 55
REMARK SMILES IDX 73 56 79 57 81 58 74 59 75 60 76 61 77 62 78 63 54 64 55 65
REMARK SMILES IDX 64 66 56 67 57 68 63 69 65 70 58 71 59 72 60 73 61 74 62 75
REMARK SMILES IDX 7 76 8 77 9 78 10 79 11 80 12 82 13 83 14 84 26 85 15 86
REMARK SMILES IDX 25 87 16 88 17 89 18 90 19 91 20 92 23 93 21 94 22 95 24 96
REMARK H PARENT 3 7 86 25 52 36 10 81
REMARK Flexibility Score: inf
ROOT
ATOM      1  C   UNL     1       4.328  -2.869   2.659  1.00  0.00     0.002 C 
ENDROOT
BRANCH   1   2
ATOM      2  C   UNL     1       4.804  -1.478   2.233  1.00  0.00     0.021 C 
BRANCH   2   3
ATOM      3  C   UNL     1       4.543  -1.123   0.774  1.00  0.00     0.116 C 
BRANCH   3   4
ATOM      4  N   UNL     1       3.125  -1.093   0.454  1.00  0.00    -0.352 N 
ATOM      5  O   UNL     1       1.148  -0.175  -0.114  1.00  0.00    -0.269 OA
ATOM      6  C   UNL     1       2.372  -0.073  -0.073  1.00  0.00     0.251 C 
ATOM      7  H   UNL     1       2.634  -1.924   0.643  1.00  0.00     0.163 HD
BRANCH   6   8
ATOM      8  C   UNL     1       3.031   1.155  -0.568  1.00  0.00     0.039 A 
ATOM      9  C   UNL     1       4.168   1.083  -1.379  1.00  0.00     0.014 A 
ATOM     10  C   UNL     1       2.491   2.398  -0.227  1.00  0.00     0.014 A 
ATOM     11  C   UNL     1       4.836   2.249  -1.741  1.00  0.00     0.010 A 
ATOM     12  C   UNL     1       3.122   3.569  -0.653  1.00  0.00     0.010 A 
ATOM     13  C   UNL     1       4.316   3.505  -1.390  1.00  0.00    -0.014 A 
BRANCH  13  14
ATOM     14  C   UNL     1       5.000   4.746  -1.835  1.00  0.00     0.031 A 
ATOM     15  C   UNL     1       5.601   5.695  -0.836  1.00  0.00     0.074 A 
ATOM     16  C   UNL     1       5.064   5.020  -3.152  1.00  0.00     0.049 A 
ATOM     17  N   UNL     1       6.184   6.849  -1.041  1.00  0.00    -0.248 NA
ATOM     18  C   UNL     1       5.531   5.303   0.580  1.00  0.00     0.031 C 
ATOM     19  C   UNL     1       4.513   4.176  -4.215  1.00  0.00     0.029 A 
ATOM     20  N   UNL     1       5.612   6.084  -3.823  1.00  0.00    -0.354 N 
ATOM     21  C   UNL     1       6.531   7.331   0.215  1.00  0.00     0.074 A 
ATOM     22  C   UNL     1       6.071   6.355   1.180  1.00  0.00     0.031 C 
ATOM     23  C   UNL     1       4.766   4.744  -5.403  1.00  0.00     0.029 A 
ATOM     24  C   UNL     1       5.441   6.019  -5.185  1.00  0.00     0.049 A 
ATOM     25  H   UNL     1       6.082   6.822  -3.372  1.00  0.00     0.167 HD
ATOM     26  C   UNL     1       7.178   8.480   0.532  1.00  0.00     0.037 A 
ATOM     27  C   UNL     1       5.762   6.899  -6.152  1.00  0.00     0.037 A 
ATOM     28  C   UNL     1       7.634   9.443  -0.439  1.00  0.00     0.049 A 
ATOM     29  C   UNL     1       6.449   8.180  -5.776  1.00  0.00     0.074 A 
ATOM     30  C   UNL     1       8.324  10.623  -0.222  1.00  0.00     0.029 A 
ATOM     31  N   UNL     1       7.436   9.344  -1.810  1.00  0.00    -0.354 N 
ATOM     32  N   UNL     1       6.797   8.607  -4.585  1.00  0.00    -0.248 NA
ATOM     33  C   UNL     1       6.790   9.098  -6.870  1.00  0.00     0.031 C 
ATOM     34  C   UNL     1       8.502  11.260  -1.456  1.00  0.00     0.029 A 
ATOM     35  C   UNL     1       7.973  10.450  -2.448  1.00  0.00     0.049 A 
ATOM     36  H   UNL     1       6.981   8.597  -2.262  1.00  0.00     0.167 HD
ATOM     37  C   UNL     1       7.420   9.833  -4.789  1.00  0.00     0.074 A 
ATOM     38  C   UNL     1       7.406  10.075  -6.218  1.00  0.00     0.031 C 
ATOM     39  C   UNL     1       7.959  10.676  -3.874  1.00  0.00     0.037 A 
BRANCH  26  40
ATOM     40  C   UNL     1       7.405   8.772   1.992  1.00  0.00     0.058 A 
ATOM     41  C   UNL     1       8.319   8.035   2.762  1.00  0.00     0.135 A 
ATOM     42  C   UNL     1       6.710   9.816   2.626  1.00  0.00     0.135 A 
ATOM     43  F   UNL     1       9.002   7.018   2.212  1.00  0.00    -0.206 F 
ATOM     44  C   UNL     1       8.505   8.295   4.116  1.00  0.00     0.059 A 
ATOM     45  C   UNL     1       6.902  10.112   3.973  1.00  0.00     0.059 A 
ATOM     46  F   UNL     1       5.828  10.557   1.937  1.00  0.00    -0.206 F 
ATOM     47  C   UNL     1       7.786   9.331   4.715  1.00  0.00     0.060 A 
BRANCH  47  48
ATOM     48  S   UNL     1       8.017   9.635   6.479  1.00  0.00     0.124 S 
ATOM     49  O   UNL     1       7.304   8.502   7.063  1.00  0.00    -0.237 OA
ATOM     50  O   UNL     1       9.470   9.604   6.615  1.00  0.00    -0.237 OA
ATOM     51  O   UNL     1       7.398  10.940   6.684  1.00  0.00    -0.744 OA
ENDBRANCH  47  48
ENDBRANCH  26  40
BRANCH  27  52
ATOM     52  C   UNL     1       5.429   6.582  -7.564  1.00  0.00     0.058 A 
ATOM     53  C   UNL     1       6.431   6.241  -8.484  1.00  0.00     0.135 A 
ATOM     54  C   UNL     1       4.096   6.551  -8.005  1.00  0.00     0.135 A 
ATOM     55  F   UNL     1       7.719   6.261  -8.110  1.00  0.00    -0.206 F 
ATOM     56  C   UNL     1       6.125   5.880  -9.791  1.00  0.00     0.059 A 
ATOM     57  C   UNL     1       3.763   6.168  -9.300  1.00  0.00     0.059 A 
ATOM     58  F   UNL     1       3.101   6.852  -7.157  1.00  0.00    -0.206 F 
ATOM     59  C   UNL     1       4.786   5.838 -10.187  1.00  0.00     0.060 A 
BRANCH  59  60
ATOM     60  S   UNL     1       4.396   5.290 -11.863  1.00  0.00     0.124 S 
ATOM     61  O   UNL     1       4.819   6.440 -12.654  1.00  0.00    -0.237 OA
ATOM     62  O   UNL     1       5.217   4.090 -11.990  1.00  0.00    -0.237 OA
ATOM     63  O   UNL     1       2.957   5.052 -11.812  1.00  0.00    -0.744 OA
ENDBRANCH  59  60
ENDBRANCH  27  52
BRANCH  39  64
ATOM     64  C   UNL     1       8.622  11.924  -4.388  1.00  0.00     0.058 A 
ATOM     65  C   UNL     1       7.880  13.011  -4.874  1.00  0.00     0.135 A 
ATOM     66  C   UNL     1      10.019  12.055  -4.332  1.00  0.00     0.135 A 
ATOM     67  F   UNL     1       6.542  12.933  -4.958  1.00  0.00    -0.206 F 
ATOM     68  C   UNL     1       8.501  14.181  -5.301  1.00  0.00     0.059 A 
ATOM     69  C   UNL     1      10.659  13.225  -4.728  1.00  0.00     0.059 A 
ATOM     70  F   UNL     1      10.775  11.047  -3.868  1.00  0.00    -0.206 F 
ATOM     71  C   UNL     1       9.891  14.280  -5.219  1.00  0.00     0.060 A 
BRANCH  71  72
ATOM     72  S   UNL     1      10.682  15.822  -5.727  1.00  0.00     0.124 S 
ATOM     73  O   UNL     1      10.574  15.743  -7.180  1.00  0.00    -0.237 OA
ATOM     74  O   UNL     1       9.846  16.829  -5.082  1.00  0.00    -0.237 OA
ATOM     75  O   UNL     1      12.035  15.702  -5.190  1.00  0.00    -0.744 OA
ENDBRANCH  71  72
ENDBRANCH  39  64
ENDBRANCH  13  14
ENDBRANCH   6   8
ENDBRANCH   3   4
ENDBRANCH   2   3
ENDBRANCH   1   2
BRANCH   1  76
ATOM     76  C   UNL     1       4.866  -4.034   1.823  1.00  0.00     0.002 C 
BRANCH  76  77
ATOM     77  C   UNL     1       6.391  -4.117   1.706  1.00  0.00     0.021 C 
BRANCH  77  78
ATOM     78  C   UNL     1       7.143  -4.184   3.034  1.00  0.00     0.116 C 
BRANCH  78  79
ATOM     79  N   UNL     1       6.800  -5.368   3.805  1.00  0.00    -0.351 N 
ATOM     80  C   UNL     1       7.646  -6.299   4.369  1.00  0.00     0.269 C 
ATOM     81  H   UNL     1       5.838  -5.525   3.942  1.00  0.00     0.163 HD
ATOM     82  O   UNL     1       7.186  -7.288   4.932  1.00  0.00    -0.268 OA
BRANCH  80  83
ATOM     83  C   UNL     1       9.114  -6.067   4.307  1.00  0.00     0.128 A 
ATOM     84  C   UNL     1       9.656  -4.947   4.929  1.00  0.00     0.038 A 
ATOM     85  N   UNL     1       9.834  -6.944   3.567  1.00  0.00    -0.247 NA
ATOM     86  C   UNL     1      11.008  -4.669   4.733  1.00  0.00     0.050 A 
ATOM     87  C   UNL     1      11.144  -6.646   3.409  1.00  0.00     0.158 A 
ATOM     88  C   UNL     1      11.771  -5.518   3.936  1.00  0.00     0.138 A 
BRANCH  88  89
ATOM     89  O   UNL     1      13.071  -5.339   3.563  1.00  0.00    -0.486 OA
BRANCH  89  90
ATOM     90  C   UNL     1      13.743  -4.129   3.938  1.00  0.00     0.277 C 
BRANCH  90  91
ATOM     91  C   UNL     1      13.297  -2.942   3.124  1.00  0.00     0.056 A 
ATOM     92  S   UNL     1      12.552  -3.108   1.581  1.00  0.00    -0.144 S 
ATOM     93  C   UNL     1      13.442  -1.605   3.434  1.00  0.00     0.035 A 
ATOM     94  C   UNL     1      12.350  -1.419   1.410  1.00  0.00     0.066 A 
ATOM     95  C   UNL     1      12.894  -0.726   2.467  1.00  0.00     0.028 A 
ATOM     96  Br  UNL     1      14.279  -0.922   4.987  1.00  0.00    -0.049 Br
ENDBRANCH  90  91
ENDBRANCH  89  90
ENDBRANCH  88  89
ENDBRANCH  80  83
ENDBRANCH  78  79
ENDBRANCH  77  78
ENDBRANCH  76  77
ENDBRANCH   1  76
TORSDOF 19
