REMARK SMILES COc1ccc(/C=C/C(=O)Nc2cc(Cl)ccc2C(=O)NCCCCCCNC(=O)c2ccc(-c3c4nc(c(-c5c(F)cc(S(=O)(=O)[O-])cc5F)c5ccc([nH]5)c(-c5c(F)cc(S(=O)(=O)[O-])cc5F)c5nc(c(-c6c(F)cc(S(=O)(=O)[O-])cc6F)c6ccc3[nH]6)C=C5)C=C4)cc2)cc1
REMARK SMILES IDX 24 1 23 2 22 3 21 4 19 5 20 6 18 8 12 9 13 10 14 11 17 12
REMARK SMILES IDX 15 13 16 14 11 15 9 16 10 17 8 19 7 20 6 21 3 22 4 23 98 24
REMARK SMILES IDX 5 25 97 26 2 27 1 28 25 29 26 30 27 31 28 32 29 33 30 35
REMARK SMILES IDX 31 36 32 37 96 38 33 39 95 40 34 41 35 42 36 43 89 44 37 45
REMARK SMILES IDX 94 46 88 47 90 48 38 49 93 50 87 51 86 52 39 54 73 55 52 56
REMARK SMILES IDX 72 57 53 58 56 59 71 60 91 61 54 62 55 63 70 65 92 66 57 67
REMARK SMILES IDX 40 68 41 69 50 70 42 71 43 72 49 73 51 74 44 75 45 76 46 77
REMARK SMILES IDX 47 78 48 79 74 80 75 81 84 82 76 83 77 84 83 85 85 86 78 87
REMARK SMILES IDX 79 88 80 89 81 90 82 91 58 92 59 93 68 94 60 95 61 96 67 97
REMARK SMILES IDX 69 98 62 99 63 100 64 101 65 102 66 103
REMARK H PARENT 21 7 11 18 28 34 90 53 56 64
REMARK Flexibility Score: inf
ROOT
ATOM      1  C   UNL     1       0.725  -1.597  11.003  1.00  0.00     0.002 C 
ENDROOT
BRANCH   1   2
ATOM      2  C   UNL     1       2.120  -2.212  10.824  1.00  0.00     0.021 C 
BRANCH   2   3
ATOM      3  C   UNL     1       2.457  -2.699   9.422  1.00  0.00     0.116 C 
BRANCH   3   4
ATOM      4  N   UNL     1       2.638  -1.653   8.443  1.00  0.00    -0.352 N 
ATOM      5  C   UNL     1       3.309  -1.652   7.246  1.00  0.00     0.253 C 
ATOM      6  O   UNL     1       3.269  -0.610   6.586  1.00  0.00    -0.269 OA
ATOM      7  H   UNL     1       2.207  -0.797   8.673  1.00  0.00     0.163 HD
BRANCH   5   8
ATOM      8  C   UNL     1       4.164  -2.782   6.746  1.00  0.00     0.063 A 
ATOM      9  C   UNL     1       3.998  -4.174   6.911  1.00  0.00     0.055 A 
ATOM     10  C   UNL     1       5.051  -5.037   6.537  1.00  0.00     0.047 A 
ATOM     11  C   UNL     1       6.164  -4.563   5.848  1.00  0.00     0.043 A 
ATOM     12  C   UNL     1       5.299  -2.335   6.024  1.00  0.00     0.017 A 
ATOM     13  Cl  UNL     1       7.367  -5.663   5.301  1.00  0.00    -0.084 Cl
ATOM     14  C   UNL     1       6.276  -3.215   5.555  1.00  0.00     0.021 A 
BRANCH   9  15
ATOM     15  N   UNL     1       2.845  -4.878   7.324  1.00  0.00    -0.322 N 
ATOM     16  C   UNL     1       1.513  -4.661   7.108  1.00  0.00     0.248 C 
ATOM     17  O   UNL     1       0.682  -5.363   7.682  1.00  0.00    -0.270 OA
ATOM     18  H   UNL     1       3.037  -5.675   7.869  1.00  0.00     0.170 HD
BRANCH  16  19
ATOM     19  C   UNL     1       1.054  -3.580   6.219  1.00  0.00     0.072 C 
ATOM     20  C   UNL     1       1.586  -3.421   5.000  1.00  0.00     0.014 C 
BRANCH  20  21
ATOM     21  C   UNL     1       1.272  -2.324   4.083  1.00  0.00    -0.025 A 
ATOM     22  C   UNL     1       0.753  -0.379   2.139  1.00  0.00     0.118 A 
ATOM     23  C   UNL     1      -0.216  -0.690   3.090  1.00  0.00     0.047 A 
ATOM     24  C   UNL     1       2.011  -0.974   2.205  1.00  0.00     0.047 A 
ATOM     25  C   UNL     1       0.037  -1.670   4.054  1.00  0.00     0.012 A 
ATOM     26  C   UNL     1       2.264  -1.948   3.168  1.00  0.00     0.012 A 
BRANCH  22  27
ATOM     27  O   UNL     1       0.403   0.532   1.179  1.00  0.00    -0.497 OA
ATOM     28  C   UNL     1       0.831   0.144  -0.126  1.00  0.00     0.278 C 
ENDBRANCH  22  27
ENDBRANCH  20  21
ENDBRANCH  16  19
ENDBRANCH   9  15
ENDBRANCH   5   8
ENDBRANCH   3   4
ENDBRANCH   2   3
ENDBRANCH   1   2
BRANCH   1  29
ATOM     29  C   UNL     1      -0.476  -2.401  10.486  1.00  0.00     0.002 C 
BRANCH  29  30
ATOM     30  C   UNL     1      -0.583  -3.861  10.933  1.00  0.00     0.021 C 
BRANCH  30  31
ATOM     31  C   UNL     1      -0.490  -4.114  12.433  1.00  0.00     0.116 C 
BRANCH  31  32
ATOM     32  N   UNL     1      -1.460  -3.357  13.203  1.00  0.00    -0.352 N 
ATOM     33  C   UNL     1      -2.271  -3.761  14.236  1.00  0.00     0.251 C 
ATOM     34  H   UNL     1      -1.551  -2.411  12.946  1.00  0.00     0.163 HD
ATOM     35  O   UNL     1      -3.117  -2.993  14.677  1.00  0.00    -0.269 OA
BRANCH  33  36
ATOM     36  C   UNL     1      -2.143  -5.127  14.796  1.00  0.00     0.039 A 
ATOM     37  C   UNL     1      -3.309  -5.838  15.092  1.00  0.00     0.014 A 
ATOM     38  C   UNL     1      -0.894  -5.701  15.046  1.00  0.00     0.014 A 
ATOM     39  C   UNL     1      -3.221  -7.140  15.588  1.00  0.00     0.010 A 
ATOM     40  C   UNL     1      -0.808  -7.028  15.463  1.00  0.00     0.010 A 
ATOM     41  C   UNL     1      -1.970  -7.760  15.748  1.00  0.00    -0.014 A 
BRANCH  41  42
ATOM     42  C   UNL     1      -1.873  -9.170  16.207  1.00  0.00     0.031 A 
ATOM     43  C   UNL     1      -1.191  -9.507  17.507  1.00  0.00     0.074 A 
ATOM     44  C   UNL     1      -2.362 -10.155  15.428  1.00  0.00     0.049 A 
ATOM     45  N   UNL     1      -1.011 -10.676  18.066  1.00  0.00    -0.248 NA
ATOM     46  C   UNL     1      -0.609  -8.387  18.263  1.00  0.00     0.031 C 
ATOM     47  C   UNL     1      -2.986  -9.961  14.117  1.00  0.00     0.029 A 
ATOM     48  N   UNL     1      -2.413 -11.513  15.620  1.00  0.00    -0.354 N 
ATOM     49  C   UNL     1      -0.290 -10.434  19.230  1.00  0.00     0.074 A 
ATOM     50  C   UNL     1      -0.011  -9.015  19.264  1.00  0.00     0.031 C 
ATOM     51  C   UNL     1      -3.386 -11.150  13.639  1.00  0.00     0.029 A 
ATOM     52  C   UNL     1      -3.015 -12.195  14.589  1.00  0.00     0.049 A 
ATOM     53  H   UNL     1      -2.051 -11.958  16.421  1.00  0.00     0.167 HD
ATOM     54  C   UNL     1       0.083 -11.310  20.195  1.00  0.00     0.037 A 
ATOM     55  C   UNL     1      -3.244 -13.512  14.424  1.00  0.00     0.037 A 
ATOM     56  C   UNL     1      -0.215 -12.719  20.157  1.00  0.00     0.049 A 
ATOM     57  C   UNL     1      -2.832 -14.467  15.511  1.00  0.00     0.074 A 
ATOM     58  C   UNL     1       0.058 -13.682  21.113  1.00  0.00     0.029 A 
ATOM     59  N   UNL     1      -0.844 -13.370  19.105  1.00  0.00    -0.354 N 
ATOM     60  N   UNL     1      -2.225 -14.210  16.646  1.00  0.00    -0.248 NA
ATOM     61  C   UNL     1      -3.145 -15.887  15.303  1.00  0.00     0.031 C 
ATOM     62  C   UNL     1      -0.352 -14.922  20.614  1.00  0.00     0.029 A 
ATOM     63  C   UNL     1      -0.941 -14.725  19.375  1.00  0.00     0.049 A 
ATOM     64  H   UNL     1      -1.173 -12.932  18.286  1.00  0.00     0.167 HD
ATOM     65  C   UNL     1      -2.108 -15.432  17.300  1.00  0.00     0.074 A 
ATOM     66  C   UNL     1      -2.717 -16.424  16.438  1.00  0.00     0.031 C 
ATOM     67  C   UNL     1      -1.551 -15.704  18.506  1.00  0.00     0.037 A 
BRANCH  54  68
ATOM     68  C   UNL     1       0.860 -10.769  21.366  1.00  0.00     0.058 A 
ATOM     69  C   UNL     1       0.280  -9.896  22.302  1.00  0.00     0.135 A 
ATOM     70  C   UNL     1       2.200 -11.140  21.568  1.00  0.00     0.135 A 
ATOM     71  F   UNL     1      -0.994  -9.496  22.157  1.00  0.00    -0.206 F 
ATOM     72  C   UNL     1       1.011  -9.377  23.367  1.00  0.00     0.059 A 
ATOM     73  C   UNL     1       2.940 -10.660  22.645  1.00  0.00     0.059 A 
ATOM     74  F   UNL     1       2.807 -11.975  20.709  1.00  0.00    -0.206 F 
ATOM     75  C   UNL     1       2.342  -9.762  23.527  1.00  0.00     0.060 A 
BRANCH  75  76
ATOM     76  S   UNL     1       3.281  -9.066  24.903  1.00  0.00     0.124 S 
ATOM     77  O   UNL     1       3.470  -7.689  24.459  1.00  0.00    -0.237 OA
ATOM     78  O   UNL     1       2.369  -9.250  26.028  1.00  0.00    -0.237 OA
ATOM     79  O   UNL     1       4.489  -9.884  24.940  1.00  0.00    -0.744 OA
ENDBRANCH  75  76
ENDBRANCH  54  68
BRANCH  55  80
ATOM     80  C   UNL     1      -3.926 -13.991  13.191  1.00  0.00     0.058 A 
ATOM     81  C   UNL     1      -5.241 -14.477  13.233  1.00  0.00     0.135 A 
ATOM     82  C   UNL     1      -3.293 -13.930  11.940  1.00  0.00     0.135 A 
ATOM     83  F   UNL     1      -5.888 -14.563  14.406  1.00  0.00    -0.206 F 
ATOM     84  C   UNL     1      -5.903 -14.891  12.081  1.00  0.00     0.059 A 
ATOM     85  C   UNL     1      -3.943 -14.311  10.770  1.00  0.00     0.059 A 
ATOM     86  F   UNL     1      -2.040 -13.457  11.843  1.00  0.00    -0.206 F 
ATOM     87  C   UNL     1      -5.247 -14.796  10.852  1.00  0.00     0.060 A 
BRANCH  87  88
ATOM     88  S   UNL     1      -6.141 -15.270   9.356  1.00  0.00     0.124 S 
ATOM     89  O   UNL     1      -6.205 -16.720   9.498  1.00  0.00    -0.237 OA
ATOM     90  O   UNL     1      -7.403 -14.555   9.515  1.00  0.00    -0.237 OA
ATOM     91  O   UNL     1      -5.282 -14.778   8.282  1.00  0.00    -0.744 OA
ENDBRANCH  87  88
ENDBRANCH  55  80
BRANCH  67  92
ATOM     92  C   UNL     1      -1.601 -17.129  18.988  1.00  0.00     0.058 A 
ATOM     93  C   UNL     1      -0.815 -18.137  18.408  1.00  0.00     0.135 A 
ATOM     94  C   UNL     1      -2.406 -17.477  20.086  1.00  0.00     0.135 A 
ATOM     95  F   UNL     1      -0.031 -17.861  17.354  1.00  0.00    -0.206 F 
ATOM     96  C   UNL     1      -0.844 -19.445  18.883  1.00  0.00     0.059 A 
ATOM     97  C   UNL     1      -2.427 -18.771  20.596  1.00  0.00     0.059 A 
ATOM     98  F   UNL     1      -3.170 -16.550  20.686  1.00  0.00    -0.206 F 
ATOM     99  C   UNL     1      -1.651 -19.751  19.980  1.00  0.00     0.060 A 
BRANCH  99 100
ATOM    100  S   UNL     1      -1.653 -21.444  20.607  1.00  0.00     0.124 S 
ATOM    101  O   UNL     1      -2.397 -22.143  19.565  1.00  0.00    -0.237 OA
ATOM    102  O   UNL     1      -0.227 -21.750  20.682  1.00  0.00    -0.237 OA
ATOM    103  O   UNL     1      -2.331 -21.330  21.894  1.00  0.00    -0.744 OA
ENDBRANCH  99 100
ENDBRANCH  67  92
ENDBRANCH  41  42
ENDBRANCH  33  36
ENDBRANCH  31  32
ENDBRANCH  30  31
ENDBRANCH  29  30
ENDBRANCH   1  29
TORSDOF 20
