REMARK SMILES Cc1c(NC(=O)c2ccc(Br)cc2N)cccc1C(=O)NCCCCCCNC(=O)c1ccc(-c2c3nc(c(-c4c(F)cc(S(=O)(=O)[O-])cc4F)c4ccc([nH]4)c(-c4c(F)cc(S(=O)(=O)[O-])cc4F)c4nc(c(-c5c(F)cc(S(=O)(=O)[O-])cc5F)c5ccc2[nH]5)C=C4)C=C3)cc1
REMARK SMILES IDX 24 1 23 2 22 3 21 4 19 5 20 6 18 8 1 9 2 10 3 11 15 12 17 13
REMARK SMILES IDX 16 14 4 15 5 16 6 18 7 19 8 20 13 21 9 22 12 23 10 24 11 25
REMARK SMILES IDX 14 26 25 29 26 30 27 31 28 32 29 33 30 35 31 36 32 37 96 38
REMARK SMILES IDX 33 39 95 40 34 41 35 42 36 43 89 44 37 45 94 46 88 47 90 48
REMARK SMILES IDX 38 49 93 50 87 51 86 52 39 54 73 55 52 56 72 57 53 58 56 59
REMARK SMILES IDX 71 60 91 61 54 62 55 63 70 65 92 66 57 67 40 68 41 69 50 70
REMARK SMILES IDX 42 71 43 72 49 73 51 74 44 75 45 76 46 77 47 78 48 79 74 80
REMARK SMILES IDX 75 81 84 82 76 83 77 84 83 85 85 86 78 87 79 88 80 89 81 90
REMARK SMILES IDX 82 91 58 92 59 93 68 94 60 95 61 96 67 97 69 98 62 99 63 100
REMARK SMILES IDX 64 101 65 102 66 103
REMARK H PARENT 21 7 4 17 14 27 14 28 28 34 90 53 56 64
REMARK Flexibility Score: inf
ROOT
ATOM      1  C   UNL     1       5.487   2.875  -0.709  1.00  0.00     0.002 C 
ENDROOT
BRANCH   1   2
ATOM      2  C   UNL     1       4.352   1.849  -0.604  1.00  0.00     0.021 C 
BRANCH   2   3
ATOM      3  C   UNL     1       3.304   2.126   0.486  1.00  0.00     0.116 C 
BRANCH   3   4
ATOM      4  N   UNL     1       2.128   2.752  -0.094  1.00  0.00    -0.352 N 
ATOM      5  C   UNL     1       0.841   2.352  -0.327  1.00  0.00     0.251 C 
ATOM      6  O   UNL     1       0.092   3.190  -0.840  1.00  0.00    -0.269 OA
ATOM      7  H   UNL     1       2.297   3.676  -0.386  1.00  0.00     0.163 HD
BRANCH   5   8
ATOM      8  C   UNL     1       0.242   1.029   0.042  1.00  0.00     0.044 A 
ATOM      9  C   UNL     1       2.114  -0.475  -0.838  1.00  0.00     0.047 C 
ATOM     10  C   UNL     1       0.784  -0.258  -0.171  1.00  0.00    -0.015 A 
ATOM     11  C   UNL     1      -0.008  -1.401   0.132  1.00  0.00     0.045 A 
ATOM     12  C   UNL     1      -1.331  -1.266   0.560  1.00  0.00     0.026 A 
ATOM     13  C   UNL     1      -1.096   1.127   0.486  1.00  0.00     0.014 A 
ATOM     14  C   UNL     1      -1.878  -0.002   0.731  1.00  0.00     0.003 A 
BRANCH  11  15
ATOM     15  N   UNL     1       0.575  -2.678   0.009  1.00  0.00    -0.322 N 
ATOM     16  C   UNL     1       0.022  -3.894  -0.327  1.00  0.00     0.257 C 
ATOM     17  H   UNL     1       1.541  -2.706   0.196  1.00  0.00     0.170 HD
ATOM     18  O   UNL     1       0.594  -4.926   0.026  1.00  0.00    -0.269 OA
BRANCH  16  19
ATOM     19  C   UNL     1      -1.195  -4.003  -1.182  1.00  0.00     0.063 A 
ATOM     20  C   UNL     1      -2.061  -5.070  -0.879  1.00  0.00     0.017 A 
ATOM     21  C   UNL     1      -1.455  -3.184  -2.303  1.00  0.00     0.045 A 
ATOM     22  C   UNL     1      -3.196  -5.310  -1.653  1.00  0.00     0.016 A 
ATOM     23  C   UNL     1      -2.611  -3.434  -3.060  1.00  0.00     0.042 A 
ATOM     24  C   UNL     1      -3.471  -4.482  -2.735  1.00  0.00     0.020 A 
ATOM     25  Br  UNL     1      -4.998  -4.805  -3.802  1.00  0.00    -0.051 Br
BRANCH  21  26
ATOM     26  N   UNL     1      -0.557  -2.251  -2.808  1.00  0.00    -0.398 N 
ATOM     27  H   UNL     1       0.268  -2.043  -2.311  1.00  0.00     0.156 HD
ATOM     28  H   UNL     1      -0.745  -1.798  -3.661  1.00  0.00     0.156 HD
ENDBRANCH  21  26
ENDBRANCH  16  19
ENDBRANCH  11  15
ENDBRANCH   5   8
ENDBRANCH   3   4
ENDBRANCH   2   3
ENDBRANCH   1   2
BRANCH   1  29
ATOM     29  C   UNL     1       6.416   2.990   0.508  1.00  0.00     0.002 C 
BRANCH  29  30
ATOM     30  C   UNL     1       6.931   1.669   1.087  1.00  0.00     0.021 C 
BRANCH  30  31
ATOM     31  C   UNL     1       7.848   0.893   0.150  1.00  0.00     0.116 C 
BRANCH  31  32
ATOM     32  N   UNL     1       9.261   1.118   0.408  1.00  0.00    -0.352 N 
ATOM     33  C   UNL     1      10.243   0.228   0.002  1.00  0.00     0.251 C 
ATOM     34  H   UNL     1       9.530   1.933   0.889  1.00  0.00     0.163 HD
ATOM     35  O   UNL     1      11.154  -0.169   0.716  1.00  0.00    -0.269 OA
BRANCH  33  36
ATOM     36  C   UNL     1      10.167  -0.172  -1.418  1.00  0.00     0.039 A 
ATOM     37  C   UNL     1      10.950   0.513  -2.351  1.00  0.00     0.014 A 
ATOM     38  C   UNL     1       9.159  -1.047  -1.821  1.00  0.00     0.014 A 
ATOM     39  C   UNL     1      10.635   0.417  -3.707  1.00  0.00     0.010 A 
ATOM     40  C   UNL     1       8.808  -1.085  -3.158  1.00  0.00     0.010 A 
ATOM     41  C   UNL     1       9.520  -0.326  -4.099  1.00  0.00    -0.014 A 
BRANCH  41  42
ATOM     42  C   UNL     1       8.966  -0.305  -5.453  1.00  0.00     0.031 A 
ATOM     43  C   UNL     1       9.124  -1.471  -6.356  1.00  0.00     0.074 A 
ATOM     44  C   UNL     1       8.228   0.752  -5.857  1.00  0.00     0.049 A 
ATOM     45  N   UNL     1       8.932  -1.440  -7.633  1.00  0.00    -0.248 NA
ATOM     46  C   UNL     1       9.556  -2.779  -5.875  1.00  0.00     0.031 C 
ATOM     47  C   UNL     1       7.342   0.821  -7.015  1.00  0.00     0.029 A 
ATOM     48  N   UNL     1       8.316   2.072  -5.408  1.00  0.00    -0.354 N 
ATOM     49  C   UNL     1       8.989  -2.731  -8.107  1.00  0.00     0.074 A 
ATOM     50  C   UNL     1       9.401  -3.527  -6.972  1.00  0.00     0.031 C 
ATOM     51  C   UNL     1       7.176   2.107  -7.358  1.00  0.00     0.029 A 
ATOM     52  C   UNL     1       8.066   2.897  -6.526  1.00  0.00     0.049 A 
ATOM     53  H   UNL     1       8.514   2.369  -4.490  1.00  0.00     0.167 HD
ATOM     54  C   UNL     1       8.591  -3.008  -9.383  1.00  0.00     0.037 A 
ATOM     55  C   UNL     1       9.033   3.742  -6.993  1.00  0.00     0.037 A 
ATOM     56  C   UNL     1       8.262  -1.796 -10.126  1.00  0.00     0.049 A 
ATOM     57  C   UNL     1       9.524   3.429  -8.393  1.00  0.00     0.074 A 
ATOM     58  C   UNL     1       7.087  -1.114 -10.394  1.00  0.00     0.029 A 
ATOM     59  N   UNL     1       9.290  -0.945 -10.489  1.00  0.00    -0.354 N 
ATOM     60  N   UNL     1       9.104   2.430  -9.120  1.00  0.00    -0.248 NA
ATOM     61  C   UNL     1      10.593   4.184  -9.053  1.00  0.00     0.031 C 
ATOM     62  C   UNL     1       7.426   0.186 -10.865  1.00  0.00     0.029 A 
ATOM     63  C   UNL     1       8.804   0.286 -10.886  1.00  0.00     0.049 A 
ATOM     64  H   UNL     1      10.244  -1.185 -10.466  1.00  0.00     0.167 HD
ATOM     65  C   UNL     1       9.858   2.356 -10.260  1.00  0.00     0.074 A 
ATOM     66  C   UNL     1      10.758   3.490 -10.192  1.00  0.00     0.031 C 
ATOM     67  C   UNL     1       9.745   1.351 -11.170  1.00  0.00     0.037 A 
BRANCH  54  68
ATOM     68  C   UNL     1       8.300  -4.405  -9.880  1.00  0.00     0.058 A 
ATOM     69  C   UNL     1       7.239  -4.641 -10.780  1.00  0.00     0.135 A 
ATOM     70  C   UNL     1       8.993  -5.558  -9.464  1.00  0.00     0.135 A 
ATOM     71  F   UNL     1       6.543  -3.632 -11.322  1.00  0.00    -0.206 F 
ATOM     72  C   UNL     1       6.826  -5.922 -11.146  1.00  0.00     0.059 A 
ATOM     73  C   UNL     1       8.562  -6.854  -9.767  1.00  0.00     0.059 A 
ATOM     74  F   UNL     1      10.139  -5.464  -8.773  1.00  0.00    -0.206 F 
ATOM     75  C   UNL     1       7.467  -7.027 -10.602  1.00  0.00     0.060 A 
BRANCH  75  76
ATOM     76  S   UNL     1       6.832  -8.672 -10.979  1.00  0.00     0.124 S 
ATOM     77  O   UNL     1       5.406  -8.525 -10.705  1.00  0.00    -0.237 OA
ATOM     78  O   UNL     1       7.197  -8.822 -12.384  1.00  0.00    -0.237 OA
ATOM     79  O   UNL     1       7.553  -9.535 -10.047  1.00  0.00    -0.744 OA
ENDBRANCH  75  76
ENDBRANCH  54  68
BRANCH  55  80
ATOM     80  C   UNL     1       9.856   4.326  -5.897  1.00  0.00     0.058 A 
ATOM     81  C   UNL     1       9.204   5.149  -4.956  1.00  0.00     0.135 A 
ATOM     82  C   UNL     1      11.086   3.768  -5.530  1.00  0.00     0.135 A 
ATOM     83  F   UNL     1       8.033   5.729  -5.268  1.00  0.00    -0.206 F 
ATOM     84  C   UNL     1       9.658   5.262  -3.647  1.00  0.00     0.059 A 
ATOM     85  C   UNL     1      11.569   3.884  -4.226  1.00  0.00     0.059 A 
ATOM     86  F   UNL     1      11.758   2.985  -6.386  1.00  0.00    -0.206 F 
ATOM     87  C   UNL     1      10.803   4.562  -3.275  1.00  0.00     0.060 A 
BRANCH  87  88
ATOM     88  S   UNL     1      11.185   4.430  -1.511  1.00  0.00     0.124 S 
ATOM     89  O   UNL     1      11.230   5.829  -1.103  1.00  0.00    -0.237 OA
ATOM     90  O   UNL     1      10.049   3.658  -1.004  1.00  0.00    -0.237 OA
ATOM     91  O   UNL     1      12.463   3.726  -1.500  1.00  0.00    -0.744 OA
ENDBRANCH  87  88
ENDBRANCH  55  80
BRANCH  67  92
ATOM     92  C   UNL     1      10.552   1.323 -12.424  1.00  0.00     0.058 A 
ATOM     93  C   UNL     1      10.481   2.371 -13.355  1.00  0.00     0.135 A 
ATOM     94  C   UNL     1      11.316   0.198 -12.781  1.00  0.00     0.135 A 
ATOM     95  F   UNL     1       9.753   3.468 -13.089  1.00  0.00    -0.206 F 
ATOM     96  C   UNL     1      11.145   2.313 -14.577  1.00  0.00     0.059 A 
ATOM     97  C   UNL     1      11.963   0.103 -14.009  1.00  0.00     0.059 A 
ATOM     98  F   UNL     1      11.460  -0.832 -11.931  1.00  0.00    -0.206 F 
ATOM     99  C   UNL     1      11.882   1.173 -14.897  1.00  0.00     0.060 A 
BRANCH  99 100
ATOM    100  S   UNL     1      12.711   1.070 -16.496  1.00  0.00     0.124 S 
ATOM    101  O   UNL     1      11.858   1.883 -17.358  1.00  0.00    -0.237 OA
ATOM    102  O   UNL     1      14.017   1.641 -16.183  1.00  0.00    -0.237 OA
ATOM    103  O   UNL     1      12.698  -0.361 -16.784  1.00  0.00    -0.744 OA
ENDBRANCH  99 100
ENDBRANCH  67  92
ENDBRANCH  41  42
ENDBRANCH  33  36
ENDBRANCH  31  32
ENDBRANCH  30  31
ENDBRANCH  29  30
ENDBRANCH   1  29
TORSDOF 19
