REMARK SMILES CCCC(=O)Nc1cccc(C(=O)N[C@@H](C(=O)NCCCCCCNC(=O)c2ccc(-c3c4nc(c(-c5c(F)cc(S(=O)(=O)[O-])cc5F)c5ccc([nH]5)c(-c5c(F)cc(S(=O)(=O)[O-])cc5F)c5nc(c(-c6c(F)cc(S(=O)(=O)[O-])cc6F)c6ccc3[nH]6)C=C5)C=C4)cc2)c2c(C)n[nH]c2C)c1
REMARK SMILES IDX 20 1 19 2 18 3 16 4 17 5 15 7 14 8 12 9 13 10 11 12 7 13
REMARK SMILES IDX 8 14 101 15 9 16 10 17 6 18 4 19 5 20 3 22 2 23 1 24 94 25
REMARK SMILES IDX 95 26 99 27 96 28 97 29 98 30 100 31 21 33 22 34 23 35 24 36
REMARK SMILES IDX 25 37 26 38 27 40 28 41 29 42 93 43 30 44 92 45 31 46 32 47
REMARK SMILES IDX 33 48 86 49 34 50 91 51 85 52 87 53 35 54 90 55 84 56 83 57
REMARK SMILES IDX 36 59 70 60 49 61 69 62 50 63 53 64 68 65 88 66 51 67 52 68
REMARK SMILES IDX 67 70 89 71 54 72 37 73 38 74 47 75 39 76 40 77 46 78 48 79
REMARK SMILES IDX 41 80 42 81 43 82 44 83 45 84 71 85 72 86 81 87 73 88 74 89
REMARK SMILES IDX 80 90 82 91 75 92 76 93 77 94 78 95 79 96 55 97 56 98 65 99
REMARK SMILES IDX 57 100 58 101 64 102 66 103 59 104 60 105 61 106 62 107
REMARK SMILES IDX 63 108
REMARK H PARENT 18 6 14 11 6 21 98 32 25 39 87 58 53 69
REMARK Flexibility Score: inf
ROOT
ATOM      1  C   UNL     1      -1.633  -3.296  -1.974  1.00  0.00     0.021 C 
ENDROOT
BRANCH   1   2
ATOM      2  C   UNL     1      -1.672  -1.829  -1.565  1.00  0.00     0.116 C 
BRANCH   2   3
ATOM      3  N   UNL     1      -2.447  -1.666  -0.359  1.00  0.00    -0.354 N 
ATOM      4  C   UNL     1      -2.020  -1.446   0.919  1.00  0.00     0.247 C 
ATOM      5  O   UNL     1      -2.895  -1.422   1.789  1.00  0.00    -0.272 OA
ATOM      6  H   UNL     1      -3.424  -1.721  -0.475  1.00  0.00     0.163 HD
BRANCH   4   7
ATOM      7  C   UNL     1      -0.532  -1.058   1.184  1.00  0.00     0.206 C 
BRANCH   7   8
ATOM      8  N   UNL     1       0.434  -2.061   0.704  1.00  0.00    -0.336 N 
ATOM      9  C   UNL     1       1.426  -2.171  -0.242  1.00  0.00     0.252 C 
ATOM     10  O   UNL     1       1.923  -3.297  -0.350  1.00  0.00    -0.269 OA
ATOM     11  H   UNL     1       0.342  -2.901   1.210  1.00  0.00     0.165 HD
BRANCH   9  12
ATOM     12  C   UNL     1       1.954  -1.093  -1.146  1.00  0.00     0.041 A 
ATOM     13  C   UNL     1       2.069   1.187  -2.007  1.00  0.00     0.041 A 
ATOM     14  C   UNL     1       3.114   0.866  -2.857  1.00  0.00     0.026 A 
ATOM     15  C   UNL     1       1.459   0.203  -1.221  1.00  0.00     0.040 A 
ATOM     16  C   UNL     1       3.617  -0.433  -2.828  1.00  0.00     0.003 A 
ATOM     17  C   UNL     1       3.054  -1.395  -1.971  1.00  0.00     0.014 A 
BRANCH  13  18
ATOM     18  N   UNL     1       1.584   2.498  -1.925  1.00  0.00    -0.326 N 
ATOM     19  C   UNL     1       1.361   3.158  -0.737  1.00  0.00     0.224 C 
ATOM     20  O   UNL     1       0.420   3.941  -0.616  1.00  0.00    -0.275 OA
ATOM     21  H   UNL     1       1.393   2.975  -2.765  1.00  0.00     0.169 HD
BRANCH  19  22
ATOM     22  C   UNL     1       2.403   2.961   0.367  1.00  0.00     0.100 C 
BRANCH  22  23
ATOM     23  C   UNL     1       2.029   1.980   1.473  1.00  0.00     0.006 C 
ATOM     24  C   UNL     1       3.038   0.855   1.681  1.00  0.00     0.004 C 
ENDBRANCH  22  23
ENDBRANCH  19  22
ENDBRANCH  13  18
ENDBRANCH   9  12
ENDBRANCH   7   8
BRANCH   7  25
ATOM     25  C   UNL     1      -0.307  -0.741   2.643  1.00  0.00     0.027 A 
ATOM     26  C   UNL     1      -0.712   0.474   3.295  1.00  0.00     0.065 A 
ATOM     27  C   UNL     1       0.221  -1.504   3.675  1.00  0.00     0.038 A 
ATOM     28  C   UNL     1      -1.476   1.623   2.732  1.00  0.00     0.069 C 
ATOM     29  N   UNL     1      -0.340   0.501   4.578  1.00  0.00    -0.180 NA
ATOM     30  N   UNL     1       0.209  -0.700   4.781  1.00  0.00    -0.282 N 
ATOM     31  C   UNL     1       0.702  -2.902   3.757  1.00  0.00     0.066 C 
ATOM     32  H   UNL     1       0.573  -0.982   5.652  1.00  0.00     0.190 HD
ENDBRANCH   7  25
ENDBRANCH   4   7
ENDBRANCH   2   3
ENDBRANCH   1   2
BRANCH   1  33
ATOM     33  C   UNL     1      -2.942  -3.739  -2.634  1.00  0.00     0.002 C 
BRANCH  33  34
ATOM     34  C   UNL     1      -3.299  -2.944  -3.897  1.00  0.00     0.002 C 
BRANCH  34  35
ATOM     35  C   UNL     1      -2.216  -2.965  -4.980  1.00  0.00     0.021 C 
BRANCH  35  36
ATOM     36  C   UNL     1      -1.862  -4.367  -5.462  1.00  0.00     0.116 C 
BRANCH  36  37
ATOM     37  N   UNL     1      -3.039  -5.062  -5.963  1.00  0.00    -0.352 N 
ATOM     38  C   UNL     1      -3.254  -5.616  -7.197  1.00  0.00     0.251 C 
ATOM     39  H   UNL     1      -3.784  -5.146  -5.325  1.00  0.00     0.163 HD
ATOM     40  O   UNL     1      -4.388  -5.913  -7.552  1.00  0.00    -0.269 OA
BRANCH  38  41
ATOM     41  C   UNL     1      -2.101  -5.847  -8.088  1.00  0.00     0.039 A 
ATOM     42  C   UNL     1      -2.203  -5.504  -9.436  1.00  0.00     0.014 A 
ATOM     43  C   UNL     1      -0.925  -6.408  -7.581  1.00  0.00     0.014 A 
ATOM     44  C   UNL     1      -1.103  -5.686 -10.273  1.00  0.00     0.010 A 
ATOM     45  C   UNL     1       0.192  -6.520  -8.399  1.00  0.00     0.010 A 
ATOM     46  C   UNL     1       0.110  -6.171  -9.754  1.00  0.00    -0.014 A 
BRANCH  46  47
ATOM     47  C   UNL     1       1.305  -6.329 -10.617  1.00  0.00     0.031 A 
ATOM     48  C   UNL     1       1.877  -7.697 -10.860  1.00  0.00     0.074 A 
ATOM     49  C   UNL     1       1.906  -5.235 -11.121  1.00  0.00     0.049 A 
ATOM     50  N   UNL     1       2.952  -8.035 -11.524  1.00  0.00    -0.248 NA
ATOM     51  C   UNL     1       1.164  -8.834 -10.254  1.00  0.00     0.031 C 
ATOM     52  C   UNL     1       1.467  -3.853 -10.906  1.00  0.00     0.029 A 
ATOM     53  N   UNL     1       3.021  -5.109 -11.909  1.00  0.00    -0.354 N 
ATOM     54  C   UNL     1       3.051  -9.416 -11.406  1.00  0.00     0.074 A 
ATOM     55  C   UNL     1       1.960  -9.848 -10.560  1.00  0.00     0.031 C 
ATOM     56  C   UNL     1       2.293  -3.023 -11.562  1.00  0.00     0.029 A 
ATOM     57  C   UNL     1       3.339  -3.807 -12.211  1.00  0.00     0.049 A 
ATOM     58  H   UNL     1       3.545  -5.880 -12.227  1.00  0.00     0.167 HD
ATOM     59  C   UNL     1       3.955 -10.250 -11.972  1.00  0.00     0.037 A 
ATOM     60  C   UNL     1       4.364  -3.302 -12.924  1.00  0.00     0.037 A 
ATOM     61  C   UNL     1       5.023  -9.810 -12.831  1.00  0.00     0.049 A 
ATOM     62  C   UNL     1       5.355  -4.248 -13.545  1.00  0.00     0.074 A 
ATOM     63  C   UNL     1       5.959 -10.576 -13.502  1.00  0.00     0.029 A 
ATOM     64  N   UNL     1       5.299  -8.484 -13.135  1.00  0.00    -0.354 N 
ATOM     65  N   UNL     1       5.397  -5.558 -13.478  1.00  0.00    -0.248 NA
ATOM     66  C   UNL     1       6.434  -3.651 -14.344  1.00  0.00     0.031 C 
ATOM     67  C   UNL     1       6.828  -9.712 -14.176  1.00  0.00     0.029 A 
ATOM     68  C   UNL     1       6.403  -8.409 -13.968  1.00  0.00     0.049 A 
ATOM     69  H   UNL     1       4.785  -7.711 -12.808  1.00  0.00     0.167 HD
ATOM     70  C   UNL     1       6.489  -5.943 -14.247  1.00  0.00     0.074 A 
ATOM     71  C   UNL     1       7.073  -4.728 -14.779  1.00  0.00     0.031 C 
ATOM     72  C   UNL     1       6.966  -7.189 -14.491  1.00  0.00     0.037 A 
BRANCH  59  73
ATOM     73  C   UNL     1       3.823 -11.721 -11.685  1.00  0.00     0.058 A 
ATOM     74  C   UNL     1       2.759 -12.480 -12.198  1.00  0.00     0.135 A 
ATOM     75  C   UNL     1       4.787 -12.387 -10.911  1.00  0.00     0.135 A 
ATOM     76  F   UNL     1       1.800 -11.892 -12.931  1.00  0.00    -0.206 F 
ATOM     77  C   UNL     1       2.638 -13.840 -11.929  1.00  0.00     0.059 A 
ATOM     78  C   UNL     1       4.702 -13.753 -10.654  1.00  0.00     0.059 A 
ATOM     79  F   UNL     1       5.825 -11.711 -10.394  1.00  0.00    -0.206 F 
ATOM     80  C   UNL     1       3.615 -14.467 -11.155  1.00  0.00     0.060 A 
BRANCH  80  81
ATOM     81  S   UNL     1       3.445 -16.233 -10.820  1.00  0.00     0.124 S 
ATOM     82  O   UNL     1       2.346 -16.241  -9.859  1.00  0.00    -0.237 OA
ATOM     83  O   UNL     1       3.137 -16.773 -12.140  1.00  0.00    -0.237 OA
ATOM     84  O   UNL     1       4.750 -16.604 -10.282  1.00  0.00    -0.744 OA
ENDBRANCH  80  81
ENDBRANCH  59  73
BRANCH  60  85
ATOM     85  C   UNL     1       4.489  -1.831 -13.103  1.00  0.00     0.058 A 
ATOM     86  C   UNL     1       4.254  -1.232 -14.349  1.00  0.00     0.135 A 
ATOM     87  C   UNL     1       4.824  -0.993 -12.028  1.00  0.00     0.135 A 
ATOM     88  F   UNL     1       3.934  -1.991 -15.408  1.00  0.00    -0.206 F 
ATOM     89  C   UNL     1       4.362   0.143 -14.529  1.00  0.00     0.059 A 
ATOM     90  C   UNL     1       4.913   0.387 -12.177  1.00  0.00     0.059 A 
ATOM     91  F   UNL     1       5.039  -1.514 -10.810  1.00  0.00    -0.206 F 
ATOM     92  C   UNL     1       4.690   0.945 -13.434  1.00  0.00     0.060 A 
BRANCH  92  93
ATOM     93  S   UNL     1       4.779   2.734 -13.665  1.00  0.00     0.124 S 
ATOM     94  O   UNL     1       6.024   2.871 -14.413  1.00  0.00    -0.237 OA
ATOM     95  O   UNL     1       3.553   3.008 -14.408  1.00  0.00    -0.237 OA
ATOM     96  O   UNL     1       4.803   3.246 -12.299  1.00  0.00    -0.744 OA
ENDBRANCH  92  93
ENDBRANCH  60  85
BRANCH  72  97
ATOM     97  C   UNL     1       8.160  -7.307 -15.398  1.00  0.00     0.058 A 
ATOM     98  C   UNL     1       9.444  -6.929 -14.979  1.00  0.00     0.135 A 
ATOM     99  C   UNL     1       8.023  -7.857 -16.683  1.00  0.00     0.135 A 
ATOM    100  F   UNL     1       9.628  -6.390 -13.764  1.00  0.00    -0.206 F 
ATOM    101  C   UNL     1      10.550  -7.072 -15.811  1.00  0.00     0.059 A 
ATOM    102  C   UNL     1       9.118  -8.037 -17.520  1.00  0.00     0.059 A 
ATOM    103  F   UNL     1       6.816  -8.245 -17.128  1.00  0.00    -0.206 F 
ATOM    104  C   UNL     1      10.377  -7.630 -17.080  1.00  0.00     0.060 A 
BRANCH 104 105
ATOM    105  S   UNL     1      11.825  -7.846 -18.135  1.00  0.00     0.124 S 
ATOM    106  O   UNL     1      12.095  -6.472 -18.547  1.00  0.00    -0.237 OA
ATOM    107  O   UNL     1      12.796  -8.434 -17.217  1.00  0.00    -0.237 OA
ATOM    108  O   UNL     1      11.349  -8.736 -19.189  1.00  0.00    -0.744 OA
ENDBRANCH 104 105
ENDBRANCH  72  97
ENDBRANCH  46  47
ENDBRANCH  38  41
ENDBRANCH  36  37
ENDBRANCH  35  36
ENDBRANCH  34  35
ENDBRANCH  33  34
ENDBRANCH   1  33
TORSDOF 22
