REMARK SMILES O=C(NCCCCCCNC(=O)c1cc(Br)ccc1OC(=O)c1ccc(F)cc1)c1ccc(-c2c3nc(c(-c4c(F)cc(S(=O)(=O)[O-])cc4F)c4ccc([nH]4)c(-c4c(F)cc(S(=O)(=O)[O-])cc4F)c4nc(c(-c5c(F)cc(S(=O)(=O)[O-])cc5F)c5ccc2[nH]5)C=C4)C=C3)cc1
REMARK SMILES IDX 6 1 5 2 4 3 3 4 1 5 2 6 30 8 31 9 95 10 32 11 94 12 33 13
REMARK SMILES IDX 34 14 35 15 88 16 36 17 93 18 87 19 89 20 37 21 92 22 86 23
REMARK SMILES IDX 85 24 38 26 72 27 51 28 71 29 52 30 55 31 70 32 90 33 53 34
REMARK SMILES IDX 54 35 69 37 91 38 56 39 39 40 40 41 49 42 41 43 42 44 48 45
REMARK SMILES IDX 50 46 43 47 44 48 45 49 46 50 47 51 73 52 74 53 83 54 75 55
REMARK SMILES IDX 76 56 82 57 84 58 77 59 78 60 79 61 80 62 81 63 57 64 58 65
REMARK SMILES IDX 67 66 59 67 60 68 66 69 68 70 61 71 62 72 63 73 64 74 65 75
REMARK SMILES IDX 7 76 8 77 9 78 10 79 11 80 12 82 13 83 14 84 19 85 15 86
REMARK SMILES IDX 18 87 16 88 17 89 20 90 21 91 22 92 23 93 24 94 29 95 25 96
REMARK SMILES IDX 28 97 26 98 27 99
REMARK H PARENT 3 7 89 25 55 36 10 81
REMARK Flexibility Score: inf
ROOT
ATOM      1  C   UNL     1       4.264  -3.931   0.781  1.00  0.00     0.002 C 
ENDROOT
BRANCH   1   2
ATOM      2  C   UNL     1       4.752  -2.533   1.163  1.00  0.00     0.021 C 
BRANCH   2   3
ATOM      3  C   UNL     1       4.530  -1.450   0.115  1.00  0.00     0.116 C 
BRANCH   3   4
ATOM      4  N   UNL     1       3.122  -1.188  -0.130  1.00  0.00    -0.352 N 
ATOM      5  O   UNL     1       1.202  -0.014  -0.146  1.00  0.00    -0.269 OA
ATOM      6  C   UNL     1       2.427  -0.005  -0.056  1.00  0.00     0.251 C 
ATOM      7  H   UNL     1       2.588  -1.974  -0.387  1.00  0.00     0.163 HD
BRANCH   6   8
ATOM      8  C   UNL     1       3.143   1.274   0.156  1.00  0.00     0.039 A 
ATOM      9  C   UNL     1       4.310   1.575  -0.551  1.00  0.00     0.014 A 
ATOM     10  C   UNL     1       2.616   2.204   1.058  1.00  0.00     0.014 A 
ATOM     11  C   UNL     1       5.013   2.743  -0.267  1.00  0.00     0.010 A 
ATOM     12  C   UNL     1       3.286   3.410   1.292  1.00  0.00     0.010 A 
ATOM     13  C   UNL     1       4.504   3.678   0.650  1.00  0.00    -0.014 A 
BRANCH  13  14
ATOM     14  C   UNL     1       5.231   4.954   0.874  1.00  0.00     0.031 A 
ATOM     15  C   UNL     1       5.880   5.258   2.195  1.00  0.00     0.074 A 
ATOM     16  C   UNL     1       5.331   5.830  -0.144  1.00  0.00     0.049 A 
ATOM     17  N   UNL     1       6.575   6.310   2.546  1.00  0.00    -0.248 NA
ATOM     18  C   UNL     1       5.727   4.258   3.262  1.00  0.00     0.031 C 
ATOM     19  C   UNL     1       4.739   5.644  -1.471  1.00  0.00     0.029 A 
ATOM     20  N   UNL     1       5.981   7.033  -0.236  1.00  0.00    -0.354 N 
ATOM     21  C   UNL     1       6.936   6.107   3.872  1.00  0.00     0.074 A 
ATOM     22  C   UNL     1       6.359   4.840   4.273  1.00  0.00     0.031 C 
ATOM     23  C   UNL     1       5.099   6.667  -2.259  1.00  0.00     0.029 A 
ATOM     24  C   UNL     1       5.900   7.608  -1.482  1.00  0.00     0.049 A 
ATOM     25  H   UNL     1       6.461   7.446   0.518  1.00  0.00     0.167 HD
ATOM     26  C   UNL     1       7.686   6.899   4.676  1.00  0.00     0.037 A 
ATOM     27  C   UNL     1       6.407   8.764  -1.950  1.00  0.00     0.037 A 
ATOM     28  C   UNL     1       8.263   8.154   4.269  1.00  0.00     0.049 A 
ATOM     29  C   UNL     1       7.212   9.636  -1.034  1.00  0.00     0.074 A 
ATOM     30  C   UNL     1       9.050   9.020   5.009  1.00  0.00     0.029 A 
ATOM     31  N   UNL     1       8.117   8.725   3.012  1.00  0.00    -0.354 N 
ATOM     32  N   UNL     1       7.545   9.425   0.216  1.00  0.00    -0.248 NA
ATOM     33  C   UNL     1       7.701  10.907  -1.585  1.00  0.00     0.031 C 
ATOM     34  C   UNL     1       9.352  10.129   4.211  1.00  0.00     0.029 A 
ATOM     35  C   UNL     1       8.784   9.938   2.961  1.00  0.00     0.049 A 
ATOM     36  H   UNL     1       7.612   8.327   2.267  1.00  0.00     0.167 HD
ATOM     37  C   UNL     1       8.286  10.534   0.604  1.00  0.00     0.074 A 
ATOM     38  C   UNL     1       8.367  11.407  -0.551  1.00  0.00     0.031 C 
ATOM     39  C   UNL     1       8.846  10.803   1.808  1.00  0.00     0.037 A 
BRANCH  26  40
ATOM     40  C   UNL     1       7.919   6.436   6.087  1.00  0.00     0.058 A 
ATOM     41  C   UNL     1       7.275   7.067   7.163  1.00  0.00     0.135 A 
ATOM     42  C   UNL     1       8.808   5.390   6.380  1.00  0.00     0.135 A 
ATOM     43  F   UNL     1       6.411   8.070   6.939  1.00  0.00    -0.206 F 
ATOM     44  C   UNL     1       7.505   6.680   8.479  1.00  0.00     0.059 A 
ATOM     45  C   UNL     1       9.039   4.972   7.688  1.00  0.00     0.059 A 
ATOM     46  F   UNL     1       9.435   4.739   5.386  1.00  0.00    -0.206 F 
ATOM     47  C   UNL     1       8.389   5.630   8.732  1.00  0.00     0.060 A 
BRANCH  47  48
ATOM     48  S   UNL     1       8.630   5.091  10.439  1.00  0.00     0.124 S 
ATOM     49  O   UNL     1       9.487   6.145  10.969  1.00  0.00    -0.237 OA
ATOM     50  O   UNL     1       7.263   5.062  10.951  1.00  0.00    -0.237 OA
ATOM     51  O   UNL     1       9.259   3.781  10.291  1.00  0.00    -0.744 OA
ENDBRANCH  47  48
ENDBRANCH  26  40
BRANCH  27  52
ATOM     52  C   UNL     1       6.173   9.130  -3.369  1.00  0.00     0.058 A 
ATOM     53  C   UNL     1       4.901   9.515  -3.820  1.00  0.00     0.135 A 
ATOM     54  C   UNL     1       7.198   9.010  -4.319  1.00  0.00     0.135 A 
ATOM     55  F   UNL     1       3.887   9.634  -2.949  1.00  0.00    -0.206 F 
ATOM     56  C   UNL     1       4.641   9.724  -5.169  1.00  0.00     0.059 A 
ATOM     57  C   UNL     1       6.968   9.235  -5.672  1.00  0.00     0.059 A 
ATOM     58  F   UNL     1       8.433   8.656  -3.930  1.00  0.00    -0.206 F 
ATOM     59  C   UNL     1       5.678   9.566  -6.089  1.00  0.00     0.060 A 
BRANCH  59  60
ATOM     60  S   UNL     1       5.309   9.782  -7.843  1.00  0.00     0.124 S 
ATOM     61  O   UNL     1       4.541   8.574  -8.128  1.00  0.00    -0.237 OA
ATOM     62  O   UNL     1       4.555  11.031  -7.849  1.00  0.00    -0.237 OA
ATOM     63  O   UNL     1       6.630   9.847  -8.460  1.00  0.00    -0.744 OA
ENDBRANCH  59  60
ENDBRANCH  27  52
BRANCH  39  64
ATOM     64  C   UNL     1       9.597  12.095   1.947  1.00  0.00     0.058 A 
ATOM     65  C   UNL     1      10.999  12.104   2.001  1.00  0.00     0.135 A 
ATOM     66  C   UNL     1       8.924  13.318   2.092  1.00  0.00     0.135 A 
ATOM     67  F   UNL     1      11.689  10.960   1.867  1.00  0.00    -0.206 F 
ATOM     68  C   UNL     1      11.710  13.281   2.211  1.00  0.00     0.059 A 
ATOM     69  C   UNL     1       9.615  14.511   2.284  1.00  0.00     0.059 A 
ATOM     70  F   UNL     1       7.584  13.362   2.033  1.00  0.00    -0.206 F 
ATOM     71  C   UNL     1      11.008  14.479   2.358  1.00  0.00     0.060 A 
BRANCH  71  72
ATOM     72  S   UNL     1      11.944  16.000   2.620  1.00  0.00     0.124 S 
ATOM     73  O   UNL     1      12.368  15.854   4.008  1.00  0.00    -0.237 OA
ATOM     74  O   UNL     1      13.001  15.893   1.618  1.00  0.00    -0.237 OA
ATOM     75  O   UNL     1      10.960  17.049   2.370  1.00  0.00    -0.744 OA
ENDBRANCH  71  72
ENDBRANCH  39  64
ENDBRANCH  13  14
ENDBRANCH   6   8
ENDBRANCH   3   4
ENDBRANCH   2   3
ENDBRANCH   1   2
BRANCH   1  76
ATOM     76  C   UNL     1       4.822  -4.505  -0.524  1.00  0.00     0.002 C 
BRANCH  76  77
ATOM     77  C   UNL     1       6.346  -4.493  -0.672  1.00  0.00     0.021 C 
BRANCH  77  78
ATOM     78  C   UNL     1       7.133  -5.104   0.485  1.00  0.00     0.116 C 
BRANCH  78  79
ATOM     79  N   UNL     1       6.805  -6.501   0.724  1.00  0.00    -0.352 N 
ATOM     80  C   UNL     1       7.625  -7.602   0.680  1.00  0.00     0.255 C 
ATOM     81  H   UNL     1       5.864  -6.682   0.948  1.00  0.00     0.163 HD
ATOM     82  O   UNL     1       7.162  -8.733   0.788  1.00  0.00    -0.269 OA
BRANCH  80  83
ATOM     83  C   UNL     1       9.078  -7.418   0.498  1.00  0.00     0.083 A 
ATOM     84  C   UNL     1       9.790  -6.631   1.413  1.00  0.00     0.033 A 
ATOM     85  C   UNL     1       9.761  -8.052  -0.546  1.00  0.00     0.144 A 
ATOM     86  C   UNL     1      11.159  -6.436   1.234  1.00  0.00     0.019 A 
ATOM     87  C   UNL     1      11.136  -7.866  -0.711  1.00  0.00     0.049 A 
ATOM     88  Br  UNL     1      12.112  -5.344   2.447  1.00  0.00    -0.051 Br
ATOM     89  C   UNL     1      11.832  -7.039   0.172  1.00  0.00     0.019 A 
BRANCH  85  90
ATOM     90  O   UNL     1       9.155  -8.982  -1.402  1.00  0.00    -0.422 OA
BRANCH  90  91
ATOM     91  C   UNL     1       8.225  -8.484  -2.291  1.00  0.00     0.343 C 
ATOM     92  O   UNL     1       7.897  -7.311  -2.436  1.00  0.00    -0.246 OA
BRANCH  91  93
ATOM     93  C   UNL     1       7.670  -9.602  -3.101  1.00  0.00     0.060 A 
ATOM     94  C   UNL     1       8.292 -10.861  -3.160  1.00  0.00     0.019 A 
ATOM     95  C   UNL     1       6.510  -9.370  -3.856  1.00  0.00     0.019 A 
ATOM     96  C   UNL     1       7.761 -11.869  -3.969  1.00  0.00     0.040 A 
ATOM     97  C   UNL     1       5.980 -10.383  -4.660  1.00  0.00     0.040 A 
ATOM     98  C   UNL     1       6.612 -11.621  -4.712  1.00  0.00     0.123 A 
ATOM     99  F   UNL     1       6.111 -12.587  -5.492  1.00  0.00    -0.207 F 
ENDBRANCH  91  93
ENDBRANCH  90  91
ENDBRANCH  85  90
ENDBRANCH  80  83
ENDBRANCH  78  79
ENDBRANCH  77  78
ENDBRANCH  76  77
ENDBRANCH   1  76
TORSDOF 19
