REMARK SMILES Cc1ccc(C(=O)N[C@@H]2C=C[C@H](C(=O)NCCCCCCNC(=O)c3ccc(-c4c5nc(c(-c6c(F)cc(S(=O)(=O)[O-])cc6F)c6ccc([nH]6)c(-c6c(F)cc(S(=O)(=O)[O-])cc6F)c6nc(c(-c7c(F)cc(S(=O)(=O)[O-])cc7F)c7ccc4[nH]7)C=C6)C=C5)cc3)C2)c(F)c1
REMARK SMILES IDX 19 1 18 2 17 3 16 4 15 5 13 6 14 7 12 9 9 10 10 11 91 12
REMARK SMILES IDX 11 13 8 14 6 15 7 16 5 18 1 19 2 20 3 21 94 22 4 23 92 24
REMARK SMILES IDX 93 25 20 26 21 27 22 28 23 29 24 31 25 32 26 33 90 34 27 35
REMARK SMILES IDX 89 36 28 37 29 38 30 39 83 40 31 41 88 42 82 43 84 44 32 45
REMARK SMILES IDX 87 46 81 47 80 48 33 50 67 51 46 52 66 53 47 54 50 55 65 56
REMARK SMILES IDX 85 57 48 58 49 59 64 61 86 62 51 63 34 64 35 65 44 66 36 67
REMARK SMILES IDX 37 68 43 69 45 70 38 71 39 72 40 73 41 74 42 75 68 76 69 77
REMARK SMILES IDX 78 78 70 79 71 80 77 81 79 82 72 83 73 84 74 85 75 86 76 87
REMARK SMILES IDX 52 88 53 89 62 90 54 91 55 92 61 93 63 94 56 95 57 96 58 97
REMARK SMILES IDX 59 98 60 99
REMARK H PARENT 15 8 8 17 22 30 84 49 50 60
REMARK Flexibility Score: inf
ROOT
ATOM      1  C   UNL     1       4.269  -9.587   3.666  1.00  0.00     0.002 C 
ENDROOT
BRANCH   1   2
ATOM      2  C   UNL     1       3.171  -9.888   2.642  1.00  0.00     0.002 C 
BRANCH   2   3
ATOM      3  C   UNL     1       1.814  -9.226   2.910  1.00  0.00     0.021 C 
BRANCH   3   4
ATOM      4  C   UNL     1       1.842  -7.705   3.068  1.00  0.00     0.116 C 
BRANCH   4   5
ATOM      5  N   UNL     1       2.398  -7.031   1.908  1.00  0.00    -0.356 N 
ATOM      6  C   UNL     1       2.112  -5.787   1.414  1.00  0.00     0.227 C 
ATOM      7  O   UNL     1       2.801  -5.354   0.491  1.00  0.00    -0.274 OA
ATOM      8  H   UNL     1       3.076  -7.539   1.408  1.00  0.00     0.163 HD
BRANCH   6   9
ATOM      9  C   UNL     1       0.914  -5.032   1.994  1.00  0.00     0.103 C 
ATOM     10  C   UNL     1      -0.829  -4.410   0.345  1.00  0.00     0.106 C 
ATOM     11  C   UNL     1      -0.040  -3.229   0.822  1.00  0.00    -0.006 C 
ATOM     12  C   UNL     1      -0.364  -5.518   1.305  1.00  0.00     0.047 C 
ATOM     13  C   UNL     1       0.911  -3.567   1.700  1.00  0.00    -0.016 C 
BRANCH  10  14
ATOM     14  N   UNL     1      -0.572  -4.559  -1.078  1.00  0.00    -0.346 N 
ATOM     15  C   UNL     1      -0.916  -5.526  -1.993  1.00  0.00     0.254 C 
ATOM     16  O   UNL     1      -0.876  -5.264  -3.192  1.00  0.00    -0.269 OA
ATOM     17  H   UNL     1      -0.047  -3.821  -1.463  1.00  0.00     0.164 HD
BRANCH  15  18
ATOM     18  C   UNL     1      -1.232  -6.896  -1.557  1.00  0.00     0.075 A 
ATOM     19  C   UNL     1      -1.235 -10.743   0.342  1.00  0.00     0.044 C 
ATOM     20  C   UNL     1      -1.316  -9.436  -0.389  1.00  0.00    -0.048 A 
ATOM     21  C   UNL     1      -2.207  -8.436   0.027  1.00  0.00     0.004 A 
ATOM     22  C   UNL     1      -0.494  -9.199  -1.495  1.00  0.00     0.043 A 
ATOM     23  C   UNL     1      -2.185  -7.172  -0.573  1.00  0.00     0.017 A 
ATOM     24  C   UNL     1      -0.447  -7.931  -2.066  1.00  0.00     0.136 A 
ATOM     25  F   UNL     1       0.424  -7.721  -3.064  1.00  0.00    -0.206 F 
ENDBRANCH  15  18
ENDBRANCH  10  14
ENDBRANCH   6   9
ENDBRANCH   4   5
ENDBRANCH   3   4
ENDBRANCH   2   3
ENDBRANCH   1   2
BRANCH   1  26
ATOM     26  C   UNL     1       3.935  -9.955   5.113  1.00  0.00     0.021 C 
BRANCH  26  27
ATOM     27  C   UNL     1       3.567 -11.419   5.341  1.00  0.00     0.116 C 
BRANCH  27  28
ATOM     28  N   UNL     1       4.658 -12.324   5.017  1.00  0.00    -0.352 N 
ATOM     29  C   UNL     1       5.260 -13.285   5.794  1.00  0.00     0.251 C 
ATOM     30  H   UNL     1       5.019 -12.236   4.105  1.00  0.00     0.163 HD
ATOM     31  O   UNL     1       6.287 -13.830   5.406  1.00  0.00    -0.269 OA
BRANCH  29  32
ATOM     32  C   UNL     1       4.683 -13.642   7.110  1.00  0.00     0.039 A 
ATOM     33  C   UNL     1       5.536 -13.756   8.211  1.00  0.00     0.014 A 
ATOM     34  C   UNL     1       3.310 -13.857   7.263  1.00  0.00     0.014 A 
ATOM     35  C   UNL     1       5.003 -14.007   9.477  1.00  0.00     0.010 A 
ATOM     36  C   UNL     1       2.773 -14.037   8.537  1.00  0.00     0.010 A 
ATOM     37  C   UNL     1       3.613 -14.102   9.659  1.00  0.00    -0.014 A 
BRANCH  37  38
ATOM     38  C   UNL     1       3.024 -14.214  11.020  1.00  0.00     0.031 A 
ATOM     39  C   UNL     1       2.235 -15.431  11.418  1.00  0.00     0.074 A 
ATOM     40  C   UNL     1       3.147 -13.180  11.877  1.00  0.00     0.049 A 
ATOM     41  N   UNL     1       1.605 -15.674  12.539  1.00  0.00    -0.248 NA
ATOM     42  C   UNL     1       2.120 -16.507  10.421  1.00  0.00     0.031 C 
ATOM     43  C   UNL     1       3.844 -11.923  11.588  1.00  0.00     0.029 A 
ATOM     44  N   UNL     1       2.683 -13.011  13.158  1.00  0.00    -0.354 N 
ATOM     45  C   UNL     1       1.012 -16.921  12.381  1.00  0.00     0.074 A 
ATOM     46  C   UNL     1       1.318 -17.365  11.038  1.00  0.00     0.031 C 
ATOM     47  C   UNL     1       3.777 -11.124  12.664  1.00  0.00     0.029 A 
ATOM     48  C   UNL     1       2.995 -11.787  13.703  1.00  0.00     0.049 A 
ATOM     49  H   UNL     1       2.174 -13.701  13.641  1.00  0.00     0.167 HD
ATOM     50  C   UNL     1       0.294 -17.637  13.280  1.00  0.00     0.037 A 
ATOM     51  C   UNL     1       2.676 -11.249  14.896  1.00  0.00     0.037 A 
ATOM     52  C   UNL     1       0.008 -17.194  14.622  1.00  0.00     0.049 A 
ATOM     53  C   UNL     1       1.865 -12.059  15.871  1.00  0.00     0.074 A 
ATOM     54  C   UNL     1      -0.649 -17.878  15.630  1.00  0.00     0.029 A 
ATOM     55  N   UNL     1       0.348 -15.952  15.140  1.00  0.00    -0.354 N 
ATOM     56  N   UNL     1       1.384 -13.272  15.734  1.00  0.00    -0.248 NA
ATOM     57  C   UNL     1       1.553 -11.431  17.162  1.00  0.00     0.031 C 
ATOM     58  C   UNL     1      -0.760 -17.029  16.735  1.00  0.00     0.029 A 
ATOM     59  C   UNL     1      -0.119 -15.837  16.439  1.00  0.00     0.049 A 
ATOM     60  H   UNL     1       0.848 -15.256  14.656  1.00  0.00     0.167 HD
ATOM     61  C   UNL     1       0.729 -13.558  16.926  1.00  0.00     0.074 A 
ATOM     62  C   UNL     1       0.895 -12.401  17.781  1.00  0.00     0.031 C 
ATOM     63  C   UNL     1       0.047 -14.676  17.279  1.00  0.00     0.037 A 
BRANCH  50  64
ATOM     64  C   UNL     1      -0.239 -18.977  12.851  1.00  0.00     0.058 A 
ATOM     65  C   UNL     1       0.607 -20.077  12.636  1.00  0.00     0.135 A 
ATOM     66  C   UNL     1      -1.622 -19.182  12.713  1.00  0.00     0.135 A 
ATOM     67  F   UNL     1       1.938 -19.936  12.740  1.00  0.00    -0.206 F 
ATOM     68  C   UNL     1       0.105 -21.324  12.279  1.00  0.00     0.059 A 
ATOM     69  C   UNL     1      -2.149 -20.429  12.386  1.00  0.00     0.059 A 
ATOM     70  F   UNL     1      -2.479 -18.167  12.906  1.00  0.00    -0.206 F 
ATOM     71  C   UNL     1      -1.276 -21.491  12.160  1.00  0.00     0.060 A 
BRANCH  71  72
ATOM     72  S   UNL     1      -1.911 -23.122  11.715  1.00  0.00     0.124 S 
ATOM     73  O   UNL     1      -1.500 -23.222  10.317  1.00  0.00    -0.237 OA
ATOM     74  O   UNL     1      -1.205 -23.995  12.647  1.00  0.00    -0.237 OA
ATOM     75  O   UNL     1      -3.348 -23.001  11.938  1.00  0.00    -0.744 OA
ENDBRANCH  71  72
ENDBRANCH  50  64
BRANCH  51  76
ATOM     76  C   UNL     1       3.120  -9.869  15.234  1.00  0.00     0.058 A 
ATOM     77  C   UNL     1       4.078  -9.638  16.232  1.00  0.00     0.135 A 
ATOM     78  C   UNL     1       2.600  -8.754  14.559  1.00  0.00     0.135 A 
ATOM     79  F   UNL     1       4.600 -10.670  16.912  1.00  0.00    -0.206 F 
ATOM     80  C   UNL     1       4.490  -8.351  16.564  1.00  0.00     0.059 A 
ATOM     81  C   UNL     1       3.018  -7.460  14.851  1.00  0.00     0.059 A 
ATOM     82  F   UNL     1       1.693  -8.919  13.583  1.00  0.00    -0.206 F 
ATOM     83  C   UNL     1       3.955  -7.268  15.864  1.00  0.00     0.060 A 
BRANCH  83  84
ATOM     84  S   UNL     1       4.528  -5.604  16.273  1.00  0.00     0.124 S 
ATOM     85  O   UNL     1       3.898  -5.387  17.570  1.00  0.00    -0.237 OA
ATOM     86  O   UNL     1       5.977  -5.775  16.285  1.00  0.00    -0.237 OA
ATOM     87  O   UNL     1       4.009  -4.793  15.175  1.00  0.00    -0.744 OA
ENDBRANCH  83  84
ENDBRANCH  51  76
BRANCH  63  88
ATOM     88  C   UNL     1      -0.563 -14.710  18.655  1.00  0.00     0.058 A 
ATOM     89  C   UNL     1      -1.678 -13.924  18.985  1.00  0.00     0.135 A 
ATOM     90  C   UNL     1      -0.057 -15.575  19.640  1.00  0.00     0.135 A 
ATOM     91  F   UNL     1      -2.196 -13.074  18.085  1.00  0.00    -0.206 F 
ATOM     92  C   UNL     1      -2.255 -13.976  20.250  1.00  0.00     0.059 A 
ATOM     93  C   UNL     1      -0.638 -15.667  20.901  1.00  0.00     0.059 A 
ATOM     94  F   UNL     1       1.003 -16.356  19.375  1.00  0.00    -0.206 F 
ATOM     95  C   UNL     1      -1.730 -14.854  21.200  1.00  0.00     0.060 A 
BRANCH  95  96
ATOM     96  S   UNL     1      -2.513 -14.937  22.824  1.00  0.00     0.124 S 
ATOM     97  O   UNL     1      -2.107 -13.665  23.412  1.00  0.00    -0.237 OA
ATOM     98  O   UNL     1      -3.928 -15.054  22.482  1.00  0.00    -0.237 OA
ATOM     99  O   UNL     1      -1.920 -16.125  23.429  1.00  0.00    -0.744 OA
ENDBRANCH  95  96
ENDBRANCH  63  88
ENDBRANCH  37  38
ENDBRANCH  29  32
ENDBRANCH  27  28
ENDBRANCH  26  27
ENDBRANCH   1  26
TORSDOF 18
