REMARK SMILES C[C@@H](Oc1ccc(/C=C2\C(=O)[NH+]=C(NCCCCCCNC(=O)c3ccc(-c4c5nc(c(-c6c(F)cc(S(=O)(=O)[O-])cc6F)c6ccc([nH]6)c(-c6c(F)cc(S(=O)(=O)[O-])cc6F)c6nc(c(-c7c(F)cc(S(=O)(=O)[O-])cc7F)c7ccc4[nH]7)C=C6)C=C5)cc3)N(c3ccc4c(c3)OCO4)C2=O)cc1)C(=O)[O-]
REMARK SMILES IDX 17 1 16 2 15 3 14 4 8 5 9 6 10 7 100 8 11 9 12 10 90 11
REMARK SMILES IDX 101 12 13 13 7 16 4 17 5 18 103 19 6 20 102 21 3 22 2 23
REMARK SMILES IDX 1 24 104 25 105 26 106 27 91 28 92 29 96 30 93 31 95 32
REMARK SMILES IDX 94 33 97 34 99 35 98 36 18 37 19 38 20 39 21 40 22 41 23 43
REMARK SMILES IDX 24 44 25 45 89 46 26 47 88 48 27 49 28 50 29 51 82 52 30 53
REMARK SMILES IDX 87 54 81 55 83 56 31 57 86 58 80 59 79 60 32 62 66 63 45 64
REMARK SMILES IDX 65 65 46 66 49 67 64 68 84 69 47 70 48 71 63 73 85 74 50 75
REMARK SMILES IDX 33 76 34 77 43 78 35 79 36 80 42 81 44 82 37 83 38 84 39 85
REMARK SMILES IDX 40 86 41 87 67 88 68 89 77 90 69 91 70 92 76 93 78 94 71 95
REMARK SMILES IDX 72 96 73 97 74 98 75 99 51 100 52 101 61 102 53 103 54 104
REMARK SMILES IDX 60 105 62 106 55 107 56 108 57 109 58 110 59 111
REMARK H PARENT 12 14 14 15 21 42 83 61 49 72
REMARK Flexibility Score: inf
ROOT
ATOM      1  C   UNL     1       9.743  10.315  -2.256  1.00  0.00     0.003 C 
ENDROOT
BRANCH   1   2
ATOM      2  C   UNL     1       8.280   9.940  -1.984  1.00  0.00     0.037 C 
BRANCH   2   3
ATOM      3  C   UNL     1       7.662   9.034  -3.046  1.00  0.00     0.197 C 
BRANCH   3   4
ATOM      4  N   UNL     1       8.375   7.774  -3.087  1.00  0.00    -0.277 N 
ATOM      5  C   UNL     1       6.176   3.075  -1.943  1.00  0.00     0.031 C 
ATOM      6  C   UNL     1       6.852   4.230  -1.798  1.00  0.00     0.138 C 
ATOM      7  C   UNL     1       6.326   5.494  -1.261  1.00  0.00     0.321 C 
ATOM      8  C   UNL     1       8.265   4.232  -2.220  1.00  0.00     0.328 C 
ATOM      9  O   UNL     1       5.517   5.527  -0.341  1.00  0.00    -0.250 OA
ATOM     10  N   UNL     1       6.799   6.613  -1.877  1.00  0.00    -0.210 N 
ATOM     11  N   UNL     1       8.752   5.492  -2.542  1.00  0.00    -0.162 N 
ATOM     12  O   UNL     1       8.910   3.184  -2.289  1.00  0.00    -0.249 OA
ATOM     13  C   UNL     1       7.951   6.625  -2.474  1.00  0.00     0.366 C 
ATOM     14  H   UNL     1       6.253   7.433  -1.870  1.00  0.00     0.270 HD
ATOM     15  H   UNL     1       9.221   7.741  -3.589  1.00  0.00     0.260 HD
BRANCH   5  16
ATOM     16  C   UNL     1       4.763   2.768  -1.682  1.00  0.00    -0.024 A 
ATOM     17  C   UNL     1       2.093   1.982  -1.291  1.00  0.00     0.120 A 
ATOM     18  C   UNL     1       2.386   3.280  -1.702  1.00  0.00     0.047 A 
ATOM     19  C   UNL     1       3.122   1.062  -1.125  1.00  0.00     0.047 A 
ATOM     20  C   UNL     1       3.715   3.667  -1.908  1.00  0.00     0.012 A 
ATOM     21  C   UNL     1       4.449   1.456  -1.305  1.00  0.00     0.012 A 
BRANCH  17  22
ATOM     22  O   UNL     1       0.779   1.617  -1.212  1.00  0.00    -0.485 OA
BRANCH  22  23
ATOM     23  C   UNL     1       0.350   1.227   0.099  1.00  0.00     0.216 C 
ATOM     24  C   UNL     1       0.554  -0.265   0.349  1.00  0.00     0.059 C 
BRANCH  23  25
ATOM     25  C   UNL     1      -1.145   1.505   0.216  1.00  0.00     0.082 C 
ATOM     26  O   UNL     1      -1.721   1.916   1.213  1.00  0.00    -0.546 OA
ATOM     27  O   UNL     1      -1.858   1.161  -0.878  1.00  0.00    -0.546 OA
ENDBRANCH  23  25
ENDBRANCH  22  23
ENDBRANCH  17  22
ENDBRANCH   5  16
BRANCH  11  28
ATOM     28  C   UNL     1      10.081   5.544  -3.033  1.00  0.00     0.115 A 
ATOM     29  C   UNL     1      11.126   5.969  -2.184  1.00  0.00     0.048 A 
ATOM     30  C   UNL     1      10.355   5.000  -4.294  1.00  0.00     0.094 A 
ATOM     31  C   UNL     1      12.460   5.790  -2.568  1.00  0.00     0.054 A 
ATOM     32  C   UNL     1      11.674   4.820  -4.630  1.00  0.00     0.169 A 
ATOM     33  C   UNL     1      12.698   5.184  -3.784  1.00  0.00     0.166 A 
ATOM     34  O   UNL     1      12.123   4.208  -5.758  1.00  0.00    -0.453 OA
ATOM     35  O   UNL     1      13.914   4.822  -4.276  1.00  0.00    -0.454 OA
ATOM     36  C   UNL     1      13.507   4.016  -5.403  1.00  0.00     0.468 C 
ENDBRANCH  11  28
ENDBRANCH   3   4
ENDBRANCH   2   3
ENDBRANCH   1   2
BRANCH   1  37
ATOM     37  C   UNL     1      10.005  10.968  -3.617  1.00  0.00     0.002 C 
BRANCH  37  38
ATOM     38  C   UNL     1       9.157  12.206  -3.915  1.00  0.00     0.021 C 
BRANCH  38  39
ATOM     39  C   UNL     1       9.302  13.333  -2.899  1.00  0.00     0.116 C 
BRANCH  39  40
ATOM     40  N   UNL     1      10.652  13.872  -2.868  1.00  0.00    -0.352 N 
ATOM     41  C   UNL     1      11.069  15.174  -2.996  1.00  0.00     0.251 C 
ATOM     42  H   UNL     1      11.369  13.209  -2.738  1.00  0.00     0.163 HD
ATOM     43  O   UNL     1      12.262  15.424  -3.141  1.00  0.00    -0.269 OA
BRANCH  41  44
ATOM     44  C   UNL     1      10.075  16.269  -2.980  1.00  0.00     0.039 A 
ATOM     45  C   UNL     1      10.179  17.292  -3.925  1.00  0.00     0.014 A 
ATOM     46  C   UNL     1       9.040  16.283  -2.040  1.00  0.00     0.014 A 
ATOM     47  C   UNL     1       9.211  18.298  -3.964  1.00  0.00     0.010 A 
ATOM     48  C   UNL     1       8.034  17.241  -2.131  1.00  0.00     0.010 A 
ATOM     49  C   UNL     1       8.111  18.262  -3.090  1.00  0.00    -0.014 A 
BRANCH  49  50
ATOM     50  C   UNL     1       7.031  19.279  -3.169  1.00  0.00     0.031 A 
ATOM     51  C   UNL     1       6.764  20.195  -2.006  1.00  0.00     0.074 A 
ATOM     52  C   UNL     1       6.245  19.331  -4.262  1.00  0.00     0.049 A 
ATOM     53  N   UNL     1       5.833  21.104  -1.866  1.00  0.00    -0.248 NA
ATOM     54  C   UNL     1       7.642  20.050  -0.834  1.00  0.00     0.031 C 
ATOM     55  C   UNL     1       6.368  18.459  -5.433  1.00  0.00     0.029 A 
ATOM     56  N   UNL     1       5.179  20.141  -4.563  1.00  0.00    -0.354 N 
ATOM     57  C   UNL     1       6.003  21.627  -0.590  1.00  0.00     0.074 A 
ATOM     58  C   UNL     1       7.088  20.893   0.024  1.00  0.00     0.031 C 
ATOM     59  C   UNL     1       5.429  18.794  -6.331  1.00  0.00     0.029 A 
ATOM     60  C   UNL     1       4.612  19.875  -5.787  1.00  0.00     0.049 A 
ATOM     61  H   UNL     1       4.851  20.846  -3.960  1.00  0.00     0.167 HD
ATOM     62  C   UNL     1       5.331  22.641   0.007  1.00  0.00     0.037 A 
ATOM     63  C   UNL     1       3.547  20.429  -6.400  1.00  0.00     0.037 A 
ATOM     64  C   UNL     1       4.258  23.372  -0.617  1.00  0.00     0.049 A 
ATOM     65  C   UNL     1       2.812  21.552  -5.721  1.00  0.00     0.074 A 
ATOM     66  C   UNL     1       3.555  24.457  -0.123  1.00  0.00     0.029 A 
ATOM     67  N   UNL     1       3.725  23.087  -1.867  1.00  0.00    -0.354 N 
ATOM     68  N   UNL     1       3.034  22.088  -4.544  1.00  0.00    -0.248 NA
ATOM     69  C   UNL     1       1.690  22.151  -6.454  1.00  0.00     0.031 C 
ATOM     70  C   UNL     1       2.559  24.790  -1.049  1.00  0.00     0.029 A 
ATOM     71  C   UNL     1       2.682  23.955  -2.148  1.00  0.00     0.049 A 
ATOM     72  H   UNL     1       4.041  22.372  -2.465  1.00  0.00     0.167 HD
ATOM     73  C   UNL     1       2.095  23.103  -4.405  1.00  0.00     0.074 A 
ATOM     74  C   UNL     1       1.310  23.113  -5.623  1.00  0.00     0.031 C 
ATOM     75  C   UNL     1       1.904  23.952  -3.364  1.00  0.00     0.037 A 
BRANCH  62  76
ATOM     76  C   UNL     1       5.732  23.005   1.413  1.00  0.00     0.058 A 
ATOM     77  C   UNL     1       6.982  23.577   1.704  1.00  0.00     0.135 A 
ATOM     78  C   UNL     1       4.854  22.780   2.487  1.00  0.00     0.135 A 
ATOM     79  F   UNL     1       7.867  23.805   0.720  1.00  0.00    -0.206 F 
ATOM     80  C   UNL     1       7.368  23.863   3.010  1.00  0.00     0.059 A 
ATOM     81  C   UNL     1       5.205  23.091   3.798  1.00  0.00     0.059 A 
ATOM     82  F   UNL     1       3.644  22.241   2.270  1.00  0.00    -0.206 F 
ATOM     83  C   UNL     1       6.474  23.610   4.051  1.00  0.00     0.060 A 
BRANCH  83  84
ATOM     84  S   UNL     1       7.001  23.957   5.742  1.00  0.00     0.124 S 
ATOM     85  O   UNL     1       7.955  22.877   5.976  1.00  0.00    -0.237 OA
ATOM     86  O   UNL     1       7.575  25.294   5.623  1.00  0.00    -0.237 OA
ATOM     87  O   UNL     1       5.762  23.877   6.509  1.00  0.00    -0.744 OA
ENDBRANCH  83  84
ENDBRANCH  62  76
BRANCH  63  88
ATOM     88  C   UNL     1       3.139  19.937  -7.743  1.00  0.00     0.058 A 
ATOM     89  C   UNL     1       3.352  20.712  -8.892  1.00  0.00     0.135 A 
ATOM     90  C   UNL     1       2.583  18.659  -7.910  1.00  0.00     0.135 A 
ATOM     91  F   UNL     1       3.874  21.944  -8.784  1.00  0.00    -0.206 F 
ATOM     92  C   UNL     1       3.030  20.239 -10.160  1.00  0.00     0.059 A 
ATOM     93  C   UNL     1       2.276  18.154  -9.170  1.00  0.00     0.059 A 
ATOM     94  F   UNL     1       2.374  17.872  -6.844  1.00  0.00    -0.206 F 
ATOM     95  C   UNL     1       2.503  18.953 -10.290  1.00  0.00     0.060 A 
BRANCH  95  96
ATOM     96  S   UNL     1       2.174  18.316 -11.947  1.00  0.00     0.124 S 
ATOM     97  O   UNL     1       1.010  19.102 -12.340  1.00  0.00    -0.237 OA
ATOM     98  O   UNL     1       3.419  18.623 -12.644  1.00  0.00    -0.237 OA
ATOM     99  O   UNL     1       1.927  16.895 -11.718  1.00  0.00    -0.744 OA
ENDBRANCH  95  96
ENDBRANCH  63  88
BRANCH  75 100
ATOM    100  C   UNL     1       0.820  24.988  -3.502  1.00  0.00     0.058 A 
ATOM    101  C   UNL     1      -0.541  24.648  -3.458  1.00  0.00     0.135 A 
ATOM    102  C   UNL     1       1.150  26.348  -3.625  1.00  0.00     0.135 A 
ATOM    103  F   UNL     1      -0.914  23.363  -3.349  1.00  0.00    -0.206 F 
ATOM    104  C   UNL     1      -1.536  25.616  -3.552  1.00  0.00     0.059 A 
ATOM    105  C   UNL     1       0.173  27.336  -3.690  1.00  0.00     0.059 A 
ATOM    106  F   UNL     1       2.437  26.731  -3.663  1.00  0.00    -0.206 F 
ATOM    107  C   UNL     1      -1.169  26.959  -3.664  1.00  0.00     0.060 A 
BRANCH 107 108
ATOM    108  S   UNL     1      -2.470  28.208  -3.750  1.00  0.00     0.124 S 
ATOM    109  O   UNL     1      -2.993  27.996  -5.096  1.00  0.00    -0.237 OA
ATOM    110  O   UNL     1      -3.353  27.814  -2.657  1.00  0.00    -0.237 OA
ATOM    111  O   UNL     1      -1.751  29.462  -3.547  1.00  0.00    -0.744 OA
ENDBRANCH 107 108
ENDBRANCH  75 100
ENDBRANCH  49  50
ENDBRANCH  41  44
ENDBRANCH  39  40
ENDBRANCH  38  39
ENDBRANCH  37  38
ENDBRANCH   1  37
TORSDOF 20
