REMARK SMILES O=C(NCCCCCCNC(=O)c1ccc(Cl)cc1-c1ccc(O)c(F)c1)c1ccc(-c2c3nc(c(-c4c(F)cc(S(=O)(=O)[O-])cc4F)c4ccc([nH]4)c(-c4c(F)cc(S(=O)(=O)[O-])cc4F)c4nc(c(-c5c(F)cc(S(=O)(=O)[O-])cc5F)c5ccc2[nH]5)C=C4)C=C3)cc1
REMARK SMILES IDX 6 1 5 2 4 3 3 4 1 5 2 6 28 8 29 9 93 10 30 11 92 12 31 13
REMARK SMILES IDX 32 14 33 15 86 16 34 17 91 18 85 19 87 20 35 21 90 22 84 23
REMARK SMILES IDX 83 24 36 26 70 27 49 28 69 29 50 30 53 31 68 32 88 33 51 34
REMARK SMILES IDX 52 35 67 37 89 38 54 39 37 40 38 41 47 42 39 43 40 44 46 45
REMARK SMILES IDX 48 46 41 47 42 48 43 49 44 50 45 51 71 52 72 53 81 54 73 55
REMARK SMILES IDX 74 56 80 57 82 58 75 59 76 60 77 61 78 62 79 63 55 64 56 65
REMARK SMILES IDX 65 66 57 67 58 68 64 69 66 70 59 71 60 72 61 73 62 74 63 75
REMARK SMILES IDX 7 76 8 77 9 78 10 79 11 80 12 82 13 83 14 84 19 85 15 86
REMARK SMILES IDX 18 87 16 88 17 89 20 90 21 91 27 92 22 93 25 94 23 95 26 96
REMARK SMILES IDX 24 97
REMARK H PARENT 3 7 87 25 53 36 10 81 24 98
REMARK Flexibility Score: inf
ROOT
ATOM      1  C   UNL     1       4.254  -3.344  -1.825  1.00  0.00     0.002 C 
ENDROOT
BRANCH   1   2
ATOM      2  C   UNL     1       4.710  -2.492  -0.642  1.00  0.00     0.021 C 
BRANCH   2   3
ATOM      3  C   UNL     1       4.465  -0.996  -0.786  1.00  0.00     0.116 C 
BRANCH   3   4
ATOM      4  N   UNL     1       3.052  -0.652  -0.844  1.00  0.00    -0.352 N 
ATOM      5  O   UNL     1       1.114   0.287  -0.169  1.00  0.00    -0.269 OA
ATOM      6  C   UNL     1       2.335   0.224  -0.061  1.00  0.00     0.251 C 
ATOM      7  H   UNL     1       2.535  -1.113  -1.543  1.00  0.00     0.163 HD
BRANCH   6   8
ATOM      8  C   UNL     1       3.040   1.064   0.934  1.00  0.00     0.039 A 
ATOM      9  C   UNL     1       4.228   1.715   0.600  1.00  0.00     0.014 A 
ATOM     10  C   UNL     1       2.522   1.175   2.228  1.00  0.00     0.014 A 
ATOM     11  C   UNL     1       4.988   2.315   1.597  1.00  0.00     0.010 A 
ATOM     12  C   UNL     1       3.240   1.870   3.207  1.00  0.00     0.010 A 
ATOM     13  C   UNL     1       4.504   2.405   2.913  1.00  0.00    -0.014 A 
BRANCH  13  14
ATOM     14  C   UNL     1       5.332   3.085   3.945  1.00  0.00     0.031 A 
ATOM     15  C   UNL     1       5.851   2.341   5.149  1.00  0.00     0.074 A 
ATOM     16  C   UNL     1       5.659   4.381   3.763  1.00  0.00     0.049 A 
ATOM     17  N   UNL     1       6.629   2.771   6.110  1.00  0.00    -0.248 NA
ATOM     18  C   UNL     1       5.439   0.936   5.300  1.00  0.00     0.031 C 
ATOM     19  C   UNL     1       5.206   5.213   2.645  1.00  0.00     0.029 A 
ATOM     20  N   UNL     1       6.463   5.219   4.492  1.00  0.00    -0.354 N 
ATOM     21  C   UNL     1       6.779   1.705   6.991  1.00  0.00     0.074 A 
ATOM     22  C   UNL     1       5.989   0.613   6.463  1.00  0.00     0.031 C 
ATOM     23  C   UNL     1       5.785   6.419   2.729  1.00  0.00     0.029 A 
ATOM     24  C   UNL     1       6.595   6.471   3.940  1.00  0.00     0.049 A 
ATOM     25  H   UNL     1       6.903   4.950   5.331  1.00  0.00     0.167 HD
ATOM     26  C   UNL     1       7.512   1.641   8.130  1.00  0.00     0.037 A 
ATOM     27  C   UNL     1       7.282   7.549   4.364  1.00  0.00     0.037 A 
ATOM     28  C   UNL     1       8.312   2.728   8.639  1.00  0.00     0.049 A 
ATOM     29  C   UNL     1       8.080   7.452   5.632  1.00  0.00     0.074 A 
ATOM     30  C   UNL     1       9.124   2.748   9.760  1.00  0.00     0.029 A 
ATOM     31  N   UNL     1       8.398   3.989   8.065  1.00  0.00    -0.354 N 
ATOM     32  N   UNL     1       8.239   6.423   6.429  1.00  0.00    -0.248 NA
ATOM     33  C   UNL     1       8.793   8.663   6.058  1.00  0.00     0.031 C 
ATOM     34  C   UNL     1       9.660   4.033   9.892  1.00  0.00     0.029 A 
ATOM     35  C   UNL     1       9.231   4.799   8.821  1.00  0.00     0.049 A 
ATOM     36  H   UNL     1       7.935   4.267   7.242  1.00  0.00     0.167 HD
ATOM     37  C   UNL     1       9.093   6.854   7.438  1.00  0.00     0.074 A 
ATOM     38  C   UNL     1       9.427   8.232   7.140  1.00  0.00     0.031 C 
ATOM     39  C   UNL     1       9.560   6.169   8.511  1.00  0.00     0.037 A 
BRANCH  26  40
ATOM     40  C   UNL     1       7.470   0.361   8.925  1.00  0.00     0.058 A 
ATOM     41  C   UNL     1       8.082  -0.818   8.471  1.00  0.00     0.135 A 
ATOM     42  C   UNL     1       6.844   0.327  10.183  1.00  0.00     0.135 A 
ATOM     43  F   UNL     1       8.684  -0.849   7.271  1.00  0.00    -0.206 F 
ATOM     44  C   UNL     1       8.050  -1.991   9.220  1.00  0.00     0.059 A 
ATOM     45  C   UNL     1       6.824  -0.826  10.962  1.00  0.00     0.059 A 
ATOM     46  F   UNL     1       6.246   1.426  10.670  1.00  0.00    -0.206 F 
ATOM     47  C   UNL     1       7.417  -1.985  10.465  1.00  0.00     0.060 A 
BRANCH  47  48
ATOM     48  S   UNL     1       7.382  -3.516  11.422  1.00  0.00     0.124 S 
ATOM     49  O   UNL     1       6.420  -4.310  10.664  1.00  0.00    -0.237 OA
ATOM     50  O   UNL     1       8.770  -3.962  11.348  1.00  0.00    -0.237 OA
ATOM     51  O   UNL     1       6.935  -3.083  12.742  1.00  0.00    -0.744 OA
ENDBRANCH  47  48
ENDBRANCH  26  40
BRANCH  27  52
ATOM     52  C   UNL     1       7.250   8.805   3.569  1.00  0.00     0.058 A 
ATOM     53  C   UNL     1       8.389   9.263   2.893  1.00  0.00     0.135 A 
ATOM     54  C   UNL     1       6.072   9.560   3.453  1.00  0.00     0.135 A 
ATOM     55  F   UNL     1       9.540   8.577   2.975  1.00  0.00    -0.206 F 
ATOM     56  C   UNL     1       8.369  10.434   2.142  1.00  0.00     0.059 A 
ATOM     57  C   UNL     1       6.018  10.717   2.684  1.00  0.00     0.059 A 
ATOM     58  F   UNL     1       4.949   9.154   4.065  1.00  0.00    -0.206 F 
ATOM     59  C   UNL     1       7.176  11.153   2.042  1.00  0.00     0.060 A 
BRANCH  59  60
ATOM     60  S   UNL     1       7.147  12.645   1.026  1.00  0.00     0.124 S 
ATOM     61  O   UNL     1       7.893  13.581   1.860  1.00  0.00    -0.237 OA
ATOM     62  O   UNL     1       7.817  12.199  -0.192  1.00  0.00    -0.237 OA
ATOM     63  O   UNL     1       5.722  12.924   0.881  1.00  0.00    -0.744 OA
ENDBRANCH  59  60
ENDBRANCH  27  52
BRANCH  39  64
ATOM     64  C   UNL     1      10.523   6.887   9.417  1.00  0.00     0.058 A 
ATOM     65  C   UNL     1      10.112   7.929  10.263  1.00  0.00     0.135 A 
ATOM     66  C   UNL     1      11.875   6.509   9.452  1.00  0.00     0.135 A 
ATOM     67  F   UNL     1       8.832   8.334  10.264  1.00  0.00    -0.206 F 
ATOM     68  C   UNL     1      11.014   8.596  11.085  1.00  0.00     0.059 A 
ATOM     69  C   UNL     1      12.789   7.141  10.289  1.00  0.00     0.059 A 
ATOM     70  F   UNL     1      12.320   5.511   8.672  1.00  0.00    -0.206 F 
ATOM     71  C   UNL     1      12.352   8.196  11.089  1.00  0.00     0.060 A 
BRANCH  71  72
ATOM     72  S   UNL     1      13.513   9.062  12.167  1.00  0.00     0.124 S 
ATOM     73  O   UNL     1      13.691  10.322  11.454  1.00  0.00    -0.237 OA
ATOM     74  O   UNL     1      12.774   9.142  13.423  1.00  0.00    -0.237 OA
ATOM     75  O   UNL     1      14.678   8.182  12.187  1.00  0.00    -0.744 OA
ENDBRANCH  71  72
ENDBRANCH  39  64
ENDBRANCH  13  14
ENDBRANCH   6   8
ENDBRANCH   3   4
ENDBRANCH   2   3
ENDBRANCH   1   2
BRANCH   1  76
ATOM     76  C   UNL     1       4.817  -2.938  -3.191  1.00  0.00     0.002 C 
BRANCH  76  77
ATOM     77  C   UNL     1       6.343  -2.822  -3.279  1.00  0.00     0.021 C 
BRANCH  77  78
ATOM     78  C   UNL     1       7.122  -4.059  -2.839  1.00  0.00     0.116 C 
BRANCH  78  79
ATOM     79  N   UNL     1       6.803  -5.231  -3.637  1.00  0.00    -0.352 N 
ATOM     80  C   UNL     1       7.642  -6.074  -4.322  1.00  0.00     0.251 C 
ATOM     81  H   UNL     1       5.846  -5.453  -3.695  1.00  0.00     0.163 HD
ATOM     82  O   UNL     1       7.185  -7.013  -4.970  1.00  0.00    -0.269 OA
BRANCH  80  83
ATOM     83  C   UNL     1       9.104  -5.849  -4.262  1.00  0.00     0.047 A 
ATOM     84  C   UNL     1       9.723  -5.916  -3.001  1.00  0.00     0.016 A 
ATOM     85  C   UNL     1       9.861  -5.619  -5.430  1.00  0.00    -0.004 A 
ATOM     86  C   UNL     1      11.091  -5.682  -2.878  1.00  0.00     0.021 A 
ATOM     87  C   UNL     1      11.242  -5.386  -5.277  1.00  0.00     0.030 A 
ATOM     88  C   UNL     1      11.842  -5.408  -4.015  1.00  0.00     0.041 A 
ATOM     89  Cl  UNL     1      13.529  -5.104  -3.869  1.00  0.00    -0.084 Cl
BRANCH  85  90
ATOM     90  C   UNL     1       9.287  -5.633  -6.787  1.00  0.00    -0.014 A 
ATOM     91  C   UNL     1       8.339  -4.679  -7.200  1.00  0.00     0.013 A 
ATOM     92  C   UNL     1       9.684  -6.615  -7.710  1.00  0.00     0.052 A 
ATOM     93  C   UNL     1       7.793  -4.713  -8.490  1.00  0.00     0.050 A 
ATOM     94  C   UNL     1       9.143  -6.644  -8.992  1.00  0.00     0.165 A 
ATOM     95  C   UNL     1       8.198  -5.700  -9.383  1.00  0.00     0.151 A 
ATOM     96  F   UNL     1       9.546  -7.597  -9.845  1.00  0.00    -0.203 F 
BRANCH  95  97
ATOM     97  O   UNL     1       7.681  -5.760 -10.645  1.00  0.00    -0.505 OA
ATOM     98  H   UNL     1       7.044  -5.130 -10.921  1.00  0.00     0.293 HD
ENDBRANCH  95  97
ENDBRANCH  85  90
ENDBRANCH  80  83
ENDBRANCH  78  79
ENDBRANCH  77  78
ENDBRANCH  76  77
ENDBRANCH   1  76
TORSDOF 18
