REMARK SMILES CC(=O)Nc1cc(NC(C)=O)cc(C(=O)Nc2ccc(Br)cc2C(=O)NCCCCCCNC(=O)c2ccc(-c3c4nc(c(-c5c(F)cc(S(=O)(=O)[O-])cc5F)c5ccc([nH]5)c(-c5c(F)cc(S(=O)(=O)[O-])cc5F)c5nc(c(-c6c(F)cc(S(=O)(=O)[O-])cc6F)c6ccc3[nH]6)C=C5)C=C4)cc2)c1
REMARK SMILES IDX 29 1 28 2 27 3 26 4 24 5 25 6 23 8 17 9 18 10 19 11 22 12
REMARK SMILES IDX 20 13 21 14 16 15 14 16 15 17 13 19 5 20 6 21 102 22 7 23
REMARK SMILES IDX 12 24 4 25 1 26 2 27 3 28 8 30 9 31 10 33 11 34 30 35 31 36
REMARK SMILES IDX 32 37 33 38 34 39 35 41 36 42 37 43 101 44 38 45 100 46
REMARK SMILES IDX 39 47 40 48 41 49 94 50 42 51 99 52 93 53 95 54 43 55 98 56
REMARK SMILES IDX 92 57 91 58 44 60 78 61 57 62 77 63 58 64 61 65 76 66 96 67
REMARK SMILES IDX 59 68 60 69 75 71 97 72 62 73 45 74 46 75 55 76 47 77 48 78
REMARK SMILES IDX 54 79 56 80 49 81 50 82 51 83 52 84 53 85 79 86 80 87 89 88
REMARK SMILES IDX 81 89 82 90 88 91 90 92 83 93 84 94 85 95 86 96 87 97 63 98
REMARK SMILES IDX 64 99 73 100 65 101 66 102 72 103 74 104 67 105 68 106
REMARK SMILES IDX 69 107 70 108 71 109
REMARK H PARENT 26 7 16 18 4 29 8 32 33 40 95 59 61 70
REMARK Flexibility Score: inf
ROOT
ATOM      1  C   UNL     1       7.687  -0.335   4.514  1.00  0.00     0.002 C 
ENDROOT
BRANCH   1   2
ATOM      2  C   UNL     1       7.688   0.019   3.022  1.00  0.00     0.021 C 
BRANCH   2   3
ATOM      3  C   UNL     1       6.357  -0.138   2.306  1.00  0.00     0.116 C 
BRANCH   3   4
ATOM      4  N   UNL     1       5.339   0.801   2.715  1.00  0.00    -0.352 N 
ATOM      5  C   UNL     1       4.224   1.228   2.038  1.00  0.00     0.253 C 
ATOM      6  O   UNL     1       3.485   2.036   2.602  1.00  0.00    -0.269 OA
ATOM      7  H   UNL     1       5.462   1.192   3.610  1.00  0.00     0.163 HD
BRANCH   5   8
ATOM      8  C   UNL     1       3.929   0.839   0.625  1.00  0.00     0.064 A 
ATOM      9  C   UNL     1       4.112  -0.420   0.010  1.00  0.00     0.054 A 
ATOM     10  C   UNL     1       3.985  -0.509  -1.391  1.00  0.00     0.028 A 
ATOM     11  C   UNL     1       3.513   0.565  -2.148  1.00  0.00     0.018 A 
ATOM     12  C   UNL     1       3.419   1.905  -0.152  1.00  0.00     0.031 A 
ATOM     13  C   UNL     1       3.189   1.756  -1.516  1.00  0.00     0.018 A 
ATOM     14  Br  UNL     1       2.414   3.166  -2.507  1.00  0.00    -0.051 Br
BRANCH   9  15
ATOM     15  N   UNL     1       4.324  -1.676   0.632  1.00  0.00    -0.321 N 
ATOM     16  C   UNL     1       3.884  -2.213   1.830  1.00  0.00     0.255 C 
ATOM     17  O   UNL     1       4.393  -3.252   2.246  1.00  0.00    -0.269 OA
ATOM     18  H   UNL     1       4.894  -2.286   0.111  1.00  0.00     0.170 HD
BRANCH  16  19
ATOM     19  C   UNL     1       2.791  -1.592   2.607  1.00  0.00     0.044 A 
ATOM     20  C   UNL     1       0.889  -0.118   2.652  1.00  0.00     0.044 A 
ATOM     21  C   UNL     1       0.951  -0.129   4.053  1.00  0.00     0.052 A 
ATOM     22  C   UNL     1       1.754  -0.935   1.945  1.00  0.00     0.040 A 
ATOM     23  C   UNL     1       1.860  -0.944   4.741  1.00  0.00     0.044 A 
ATOM     24  C   UNL     1       2.813  -1.651   4.004  1.00  0.00     0.040 A 
BRANCH  20  25
ATOM     25  N   UNL     1       0.044   0.830   2.047  1.00  0.00    -0.326 N 
ATOM     26  C   UNL     1      -0.168  -0.005  -0.299  1.00  0.00     0.114 C 
ATOM     27  C   UNL     1      -0.327   1.056   0.754  1.00  0.00     0.221 C 
ATOM     28  O   UNL     1      -0.843   2.139   0.466  1.00  0.00    -0.275 OA
ATOM     29  H   UNL     1      -0.361   1.458   2.687  1.00  0.00     0.169 HD
ENDBRANCH  20  25
BRANCH  23  30
ATOM     30  N   UNL     1       1.878  -1.085   6.147  1.00  0.00    -0.326 N 
ATOM     31  C   UNL     1       0.973  -0.549   7.046  1.00  0.00     0.221 C 
ATOM     32  H   UNL     1       2.612  -1.620   6.527  1.00  0.00     0.169 HD
ATOM     33  C   UNL     1       1.244  -0.938   8.478  1.00  0.00     0.114 C 
ATOM     34  O   UNL     1       0.007   0.162   6.781  1.00  0.00    -0.275 OA
ENDBRANCH  23  30
ENDBRANCH  16  19
ENDBRANCH   9  15
ENDBRANCH   5   8
ENDBRANCH   3   4
ENDBRANCH   2   3
ENDBRANCH   1   2
BRANCH   1  35
ATOM     35  C   UNL     1       7.087  -1.688   4.916  1.00  0.00     0.002 C 
BRANCH  35  36
ATOM     36  C   UNL     1       7.590  -2.925   4.169  1.00  0.00     0.021 C 
BRANCH  36  37
ATOM     37  C   UNL     1       9.102  -3.103   4.105  1.00  0.00     0.116 C 
BRANCH  37  38
ATOM     38  N   UNL     1       9.732  -3.097   5.414  1.00  0.00    -0.352 N 
ATOM     39  C   UNL     1      10.604  -3.999   5.977  1.00  0.00     0.251 C 
ATOM     40  H   UNL     1       9.500  -2.329   5.985  1.00  0.00     0.163 HD
ATOM     41  O   UNL     1      10.924  -3.886   7.152  1.00  0.00    -0.269 OA
BRANCH  39  42
ATOM     42  C   UNL     1      11.124  -5.125   5.168  1.00  0.00     0.039 A 
ATOM     43  C   UNL     1      11.098  -6.410   5.715  1.00  0.00     0.014 A 
ATOM     44  C   UNL     1      11.618  -4.920   3.877  1.00  0.00     0.014 A 
ATOM     45  C   UNL     1      11.482  -7.503   4.934  1.00  0.00     0.010 A 
ATOM     46  C   UNL     1      11.938  -6.016   3.078  1.00  0.00     0.010 A 
ATOM     47  C   UNL     1      11.856  -7.319   3.593  1.00  0.00    -0.014 A 
BRANCH  47  48
ATOM     48  C   UNL     1      12.105  -8.476   2.695  1.00  0.00     0.031 A 
ATOM     49  C   UNL     1      13.463  -8.693   2.090  1.00  0.00     0.074 A 
ATOM     50  C   UNL     1      11.076  -9.280   2.359  1.00  0.00     0.049 A 
ATOM     51  N   UNL     1      13.839  -9.581   1.206  1.00  0.00    -0.248 NA
ATOM     52  C   UNL     1      14.534  -7.780   2.518  1.00  0.00     0.031 C 
ATOM     53  C   UNL     1       9.703  -9.145   2.852  1.00  0.00     0.029 A 
ATOM     54  N   UNL     1      11.016 -10.357   1.510  1.00  0.00    -0.354 N 
ATOM     55  C   UNL     1      15.184  -9.330   0.964  1.00  0.00     0.074 A 
ATOM     56  C   UNL     1      15.547  -8.177   1.760  1.00  0.00     0.031 C 
ATOM     57  C   UNL     1       8.942 -10.108   2.309  1.00  0.00     0.029 A 
ATOM     58  C   UNL     1       9.756 -10.897   1.391  1.00  0.00     0.049 A 
ATOM     59  H   UNL     1      11.800 -10.711   1.032  1.00  0.00     0.167 HD
ATOM     60  C   UNL     1      16.040 -10.010   0.164  1.00  0.00     0.037 A 
ATOM     61  C   UNL     1       9.300 -11.898   0.612  1.00  0.00     0.037 A 
ATOM     62  C   UNL     1      15.669 -11.163  -0.617  1.00  0.00     0.049 A 
ATOM     63  C   UNL     1      10.261 -12.610  -0.301  1.00  0.00     0.074 A 
ATOM     64  C   UNL     1      16.476 -11.958  -1.412  1.00  0.00     0.029 A 
ATOM     65  N   UNL     1      14.384 -11.678  -0.714  1.00  0.00    -0.354 N 
ATOM     66  N   UNL     1      11.546 -12.405  -0.463  1.00  0.00    -0.248 NA
ATOM     67  C   UNL     1       9.711 -13.684  -1.140  1.00  0.00     0.031 C 
ATOM     68  C   UNL     1      15.669 -12.916  -2.035  1.00  0.00     0.029 A 
ATOM     69  C   UNL     1      14.368 -12.755  -1.585  1.00  0.00     0.049 A 
ATOM     70  H   UNL     1      13.598 -11.329  -0.233  1.00  0.00     0.167 HD
ATOM     71  C   UNL     1      11.962 -13.335  -1.410  1.00  0.00     0.074 A 
ATOM     72  C   UNL     1      10.796 -14.116  -1.768  1.00  0.00     0.031 C 
ATOM     73  C   UNL     1      13.198 -13.521  -1.937  1.00  0.00     0.037 A 
BRANCH  60  74
ATOM     74  C   UNL     1      17.462  -9.526   0.085  1.00  0.00     0.058 A 
ATOM     75  C   UNL     1      18.347  -9.651   1.169  1.00  0.00     0.135 A 
ATOM     76  C   UNL     1      17.963  -8.972  -1.105  1.00  0.00     0.135 A 
ATOM     77  F   UNL     1      17.920 -10.162   2.335  1.00  0.00    -0.206 F 
ATOM     78  C   UNL     1      19.667  -9.220   1.085  1.00  0.00     0.059 A 
ATOM     79  C   UNL     1      19.288  -8.561  -1.221  1.00  0.00     0.059 A 
ATOM     80  F   UNL     1      17.163  -8.828  -2.173  1.00  0.00    -0.206 F 
ATOM     81  C   UNL     1      20.129  -8.677  -0.115  1.00  0.00     0.060 A 
BRANCH  81  82
ATOM     82  S   UNL     1      21.846  -8.130  -0.206  1.00  0.00     0.124 S 
ATOM     83  O   UNL     1      21.817  -6.938   0.637  1.00  0.00    -0.237 OA
ATOM     84  O   UNL     1      22.567  -9.274   0.340  1.00  0.00    -0.237 OA
ATOM     85  O   UNL     1      22.051  -7.884  -1.630  1.00  0.00    -0.744 OA
ENDBRANCH  81  82
ENDBRANCH  60  74
BRANCH  61  86
ATOM     86  C   UNL     1       7.862 -12.278   0.656  1.00  0.00     0.058 A 
ATOM     87  C   UNL     1       7.456 -13.508   1.195  1.00  0.00     0.135 A 
ATOM     88  C   UNL     1       6.863 -11.415   0.176  1.00  0.00     0.135 A 
ATOM     89  F   UNL     1       8.373 -14.371   1.659  1.00  0.00    -0.206 F 
ATOM     90  C   UNL     1       6.116 -13.876   1.244  1.00  0.00     0.059 A 
ATOM     91  C   UNL     1       5.514 -11.749   0.240  1.00  0.00     0.059 A 
ATOM     92  F   UNL     1       7.195 -10.221  -0.338  1.00  0.00    -0.206 F 
ATOM     93  C   UNL     1       5.151 -12.987   0.768  1.00  0.00     0.060 A 
BRANCH  93  94
ATOM     94  S   UNL     1       3.410 -13.455   0.882  1.00  0.00     0.124 S 
ATOM     95  O   UNL     1       3.319 -14.495  -0.137  1.00  0.00    -0.237 OA
ATOM     96  O   UNL     1       3.306 -13.906   2.267  1.00  0.00    -0.237 OA
ATOM     97  O   UNL     1       2.708 -12.212   0.581  1.00  0.00    -0.744 OA
ENDBRANCH  93  94
ENDBRANCH  61  86
BRANCH  73  98
ATOM     98  C   UNL     1      13.360 -14.616  -2.956  1.00  0.00     0.058 A 
ATOM     99  C   UNL     1      12.850 -14.488  -4.257  1.00  0.00     0.135 A 
ATOM    100  C   UNL     1      14.095 -15.773  -2.650  1.00  0.00     0.135 A 
ATOM    101  F   UNL     1      12.131 -13.407  -4.598  1.00  0.00    -0.206 F 
ATOM    102  C   UNL     1      13.053 -15.474  -5.217  1.00  0.00     0.059 A 
ATOM    103  C   UNL     1      14.335 -16.759  -3.603  1.00  0.00     0.059 A 
ATOM    104  F   UNL     1      14.611 -15.943  -1.422  1.00  0.00    -0.206 F 
ATOM    105  C   UNL     1      13.804 -16.602  -4.882  1.00  0.00     0.060 A 
BRANCH 105 106
ATOM    106  S   UNL     1      14.108 -17.844  -6.157  1.00  0.00     0.124 S 
ATOM    107  O   UNL     1      12.788 -18.449  -6.300  1.00  0.00    -0.237 OA
ATOM    108  O   UNL     1      14.558 -17.030  -7.282  1.00  0.00    -0.237 OA
ATOM    109  O   UNL     1      15.130 -18.701  -5.562  1.00  0.00    -0.744 OA
ENDBRANCH 105 106
ENDBRANCH  73  98
ENDBRANCH  47  48
ENDBRANCH  39  42
ENDBRANCH  37  38
ENDBRANCH  36  37
ENDBRANCH  35  36
ENDBRANCH   1  35
TORSDOF 20
