REMARK SMILES Cc1ccc([C@@]23C[C@@H]4C[C@@H](C[C@@](C(=O)N5CCC(C(=O)NCCCCCCNC(=O)c6ccc(-c7c8nc(c(-c9c(F)cc(S(=O)(=O)[O-])cc9F)c9ccc([nH]9)c(-c9c(F)cc(S(=O)(=O)[O-])cc9F)c9nc(c(-c%10c(F)cc(S(=O)(=O)[O-])cc%10F)c%10ccc7[nH]%10)C=C9)C=C8)cc6)CC5)(C4)C2)C3)cc1
REMARK SMILES IDX 25 1 24 2 23 3 22 4 21 5 19 6 20 7 18 9 13 10 14 11 15 12
REMARK SMILES IDX 16 13 98 14 17 15 97 16 12 17 6 18 7 19 100 20 101 21 8 22
REMARK SMILES IDX 10 23 9 24 99 25 11 26 5 27 1 28 2 29 3 30 103 31 4 32
REMARK SMILES IDX 102 33 26 34 27 35 28 36 29 37 30 39 31 40 32 41 96 42 33 43
REMARK SMILES IDX 95 44 34 45 35 46 36 47 89 48 37 49 94 50 88 51 90 52 38 53
REMARK SMILES IDX 93 54 87 55 86 56 39 58 73 59 52 60 72 61 53 62 56 63 71 64
REMARK SMILES IDX 91 65 54 66 55 67 70 69 92 70 57 71 40 72 41 73 50 74 42 75
REMARK SMILES IDX 43 76 49 77 51 78 44 79 45 80 46 81 47 82 48 83 74 84 75 85
REMARK SMILES IDX 84 86 76 87 77 88 83 89 85 90 78 91 79 92 80 93 81 94 82 95
REMARK SMILES IDX 58 96 59 97 68 98 60 99 61 100 67 101 69 102 62 103 63 104
REMARK SMILES IDX 64 105 65 106 66 107
REMARK H PARENT 21 8 28 38 90 57 56 68
REMARK Flexibility Score: inf
ROOT
ATOM      1  C   UNL     1     -11.933  -3.232  -4.081  1.00  0.00     0.002 C 
ENDROOT
BRANCH   1   2
ATOM      2  C   UNL     1     -10.885  -2.331  -4.752  1.00  0.00     0.002 C 
BRANCH   2   3
ATOM      3  C   UNL     1      -9.586  -2.091  -3.975  1.00  0.00     0.021 C 
BRANCH   3   4
ATOM      4  C   UNL     1      -8.857  -3.348  -3.509  1.00  0.00     0.116 C 
BRANCH   4   5
ATOM      5  N   UNL     1      -8.342  -4.144  -4.613  1.00  0.00    -0.356 N 
ATOM      6  C   UNL     1      -7.148  -4.780  -4.768  1.00  0.00     0.223 C 
ATOM      7  O   UNL     1      -6.989  -5.494  -5.761  1.00  0.00    -0.275 OA
ATOM      8  H   UNL     1      -8.960  -4.240  -5.373  1.00  0.00     0.163 HD
BRANCH   6   9
ATOM      9  C   UNL     1      -6.017  -4.614  -3.764  1.00  0.00     0.082 C 
ATOM     10  C   UNL     1      -5.793  -2.456  -0.395  1.00  0.00     0.228 C 
ATOM     11  O   UNL     1      -6.636  -2.907   0.387  1.00  0.00    -0.274 OA
ATOM     12  N   UNL     1      -5.223  -3.284  -1.362  1.00  0.00    -0.342 N 
ATOM     13  C   UNL     1      -5.453  -4.720  -1.278  1.00  0.00     0.120 C 
ATOM     14  C   UNL     1      -4.556  -2.898  -2.604  1.00  0.00     0.120 C 
ATOM     15  C   UNL     1      -6.391  -5.182  -2.382  1.00  0.00     0.035 C 
ATOM     16  C   UNL     1      -5.480  -3.173  -3.781  1.00  0.00     0.035 C 
BRANCH  10  17
ATOM     17  C   UNL     1      -5.313  -0.993  -0.240  1.00  0.00     0.051 C 
ATOM     18  C   UNL     1      -3.168   0.409   0.055  1.00  0.00    -0.003 C 
ATOM     19  C   UNL     1      -3.663   1.245  -1.164  1.00  0.00     0.015 C 
ATOM     20  C   UNL     1      -3.780  -1.003  -0.088  1.00  0.00     0.028 C 
ATOM     21  C   UNL     1      -3.754   1.024   1.351  1.00  0.00     0.015 C 
ATOM     22  C   UNL     1      -5.202   1.334  -1.206  1.00  0.00    -0.009 C 
ATOM     23  C   UNL     1      -5.294   1.060   1.286  1.00  0.00    -0.009 C 
ATOM     24  C   UNL     1      -5.718   1.943   0.104  1.00  0.00     0.007 C 
ATOM     25  C   UNL     1      -5.799  -0.070  -1.375  1.00  0.00     0.020 C 
ATOM     26  C   UNL     1      -5.854  -0.366   1.084  1.00  0.00     0.020 C 
BRANCH  18  27
ATOM     27  C   UNL     1      -1.629   0.349   0.108  1.00  0.00    -0.042 A 
ATOM     28  C   UNL     1       2.711   0.191   0.020  1.00  0.00     0.044 C 
ATOM     29  C   UNL     1       1.216   0.263   0.080  1.00  0.00    -0.051 A 
ATOM     30  C   UNL     1       0.473  -0.913   0.147  1.00  0.00     0.004 A 
ATOM     31  C   UNL     1       0.537   1.483   0.052  1.00  0.00     0.004 A 
ATOM     32  C   UNL     1      -0.923  -0.868   0.169  1.00  0.00     0.004 A 
ATOM     33  C   UNL     1      -0.864   1.525   0.072  1.00  0.00     0.004 A 
ENDBRANCH  18  27
ENDBRANCH  10  17
ENDBRANCH   6   9
ENDBRANCH   4   5
ENDBRANCH   3   4
ENDBRANCH   2   3
ENDBRANCH   1   2
BRANCH   1  34
ATOM     34  C   UNL     1     -12.284  -2.906  -2.627  1.00  0.00     0.021 C 
BRANCH  34  35
ATOM     35  C   UNL     1     -12.878  -1.516  -2.430  1.00  0.00     0.116 C 
BRANCH  35  36
ATOM     36  N   UNL     1     -14.260  -1.529  -1.978  1.00  0.00    -0.352 N 
ATOM     37  C   UNL     1     -15.033  -0.445  -1.591  1.00  0.00     0.251 C 
ATOM     38  H   UNL     1     -14.697  -2.410  -1.942  1.00  0.00     0.163 HD
ATOM     39  O   UNL     1     -16.102  -0.579  -1.028  1.00  0.00    -0.269 OA
BRANCH  37  40
ATOM     40  C   UNL     1     -14.554   0.895  -1.999  1.00  0.00     0.039 A 
ATOM     41  C   UNL     1     -15.293   1.571  -2.977  1.00  0.00     0.014 A 
ATOM     42  C   UNL     1     -13.291   1.341  -1.619  1.00  0.00     0.014 A 
ATOM     43  C   UNL     1     -14.693   2.602  -3.700  1.00  0.00     0.010 A 
ATOM     44  C   UNL     1     -12.672   2.309  -2.390  1.00  0.00     0.010 A 
ATOM     45  C   UNL     1     -13.353   2.911  -3.459  1.00  0.00    -0.014 A 
BRANCH  45  46
ATOM     46  C   UNL     1     -12.554   3.765  -4.335  1.00  0.00     0.031 A 
ATOM     47  C   UNL     1     -12.118   5.119  -3.889  1.00  0.00     0.074 A 
ATOM     48  C   UNL     1     -12.135   3.318  -5.543  1.00  0.00     0.049 A 
ATOM     49  N   UNL     1     -11.814   6.085  -4.694  1.00  0.00    -0.248 NA
ATOM     50  C   UNL     1     -12.004   5.497  -2.482  1.00  0.00     0.031 C 
ATOM     51  C   UNL     1     -11.087   3.924  -6.366  1.00  0.00     0.029 A 
ATOM     52  N   UNL     1     -12.598   2.294  -6.362  1.00  0.00    -0.354 N 
ATOM     53  C   UNL     1     -11.198   7.071  -3.957  1.00  0.00     0.074 A 
ATOM     54  C   UNL     1     -11.402   6.688  -2.577  1.00  0.00     0.031 C 
ATOM     55  C   UNL     1     -11.216   3.487  -7.627  1.00  0.00     0.029 A 
ATOM     56  C   UNL     1     -12.443   2.718  -7.686  1.00  0.00     0.049 A 
ATOM     57  H   UNL     1     -12.967   1.431  -6.064  1.00  0.00     0.167 HD
ATOM     58  C   UNL     1     -10.451   8.030  -4.579  1.00  0.00     0.037 A 
ATOM     59  C   UNL     1     -13.448   2.936  -8.587  1.00  0.00     0.037 A 
ATOM     60  C   UNL     1     -10.436   7.853  -6.027  1.00  0.00     0.049 A 
ATOM     61  C   UNL     1     -13.443   4.331  -9.189  1.00  0.00     0.074 A 
ATOM     62  C   UNL     1      -9.522   7.255  -6.881  1.00  0.00     0.029 A 
ATOM     63  N   UNL     1     -11.588   8.068  -6.774  1.00  0.00    -0.354 N 
ATOM     64  N   UNL     1     -12.764   5.329  -8.697  1.00  0.00    -0.248 NA
ATOM     65  C   UNL     1     -14.226   4.729 -10.359  1.00  0.00     0.031 C 
ATOM     66  C   UNL     1     -10.135   7.089  -8.143  1.00  0.00     0.029 A 
ATOM     67  C   UNL     1     -11.424   7.583  -8.058  1.00  0.00     0.049 A 
ATOM     68  H   UNL     1     -12.404   8.503  -6.436  1.00  0.00     0.167 HD
ATOM     69  C   UNL     1     -13.029   6.474  -9.406  1.00  0.00     0.074 A 
ATOM     70  C   UNL     1     -13.924   6.037 -10.459  1.00  0.00     0.031 C 
ATOM     71  C   UNL     1     -12.493   7.678  -9.042  1.00  0.00     0.037 A 
BRANCH  58  72
ATOM     72  C   UNL     1      -9.482   8.925  -3.834  1.00  0.00     0.058 A 
ATOM     73  C   UNL     1      -8.230   9.270  -4.388  1.00  0.00     0.135 A 
ATOM     74  C   UNL     1      -9.713   9.428  -2.539  1.00  0.00     0.135 A 
ATOM     75  F   UNL     1      -7.904   8.958  -5.649  1.00  0.00    -0.206 F 
ATOM     76  C   UNL     1      -7.237   9.936  -3.669  1.00  0.00     0.059 A 
ATOM     77  C   UNL     1      -8.717  10.053  -1.778  1.00  0.00     0.059 A 
ATOM     78  F   UNL     1     -10.927   9.343  -1.974  1.00  0.00    -0.206 F 
ATOM     79  C   UNL     1      -7.472  10.285  -2.348  1.00  0.00     0.060 A 
BRANCH  79  80
ATOM     80  S   UNL     1      -6.123  11.009  -1.397  1.00  0.00     0.124 S 
ATOM     81  O   UNL     1      -5.033  10.068  -1.641  1.00  0.00    -0.237 OA
ATOM     82  O   UNL     1      -5.981  12.320  -2.019  1.00  0.00    -0.237 OA
ATOM     83  O   UNL     1      -6.637  11.014  -0.030  1.00  0.00    -0.744 OA
ENDBRANCH  79  80
ENDBRANCH  58  72
BRANCH  59  84
ATOM     84  C   UNL     1     -14.665   2.120  -8.357  1.00  0.00     0.058 A 
ATOM     85  C   UNL     1     -14.573   0.735  -8.579  1.00  0.00     0.135 A 
ATOM     86  C   UNL     1     -15.706   2.587  -7.543  1.00  0.00     0.135 A 
ATOM     87  F   UNL     1     -13.609   0.245  -9.376  1.00  0.00    -0.206 F 
ATOM     88  C   UNL     1     -15.362  -0.165  -7.877  1.00  0.00     0.059 A 
ATOM     89  C   UNL     1     -16.515   1.701  -6.833  1.00  0.00     0.059 A 
ATOM     90  F   UNL     1     -15.849   3.901  -7.313  1.00  0.00    -0.206 F 
ATOM     91  C   UNL     1     -16.282   0.330  -6.953  1.00  0.00     0.060 A 
BRANCH  91  92
ATOM     92  S   UNL     1     -17.008  -0.842  -5.784  1.00  0.00     0.124 S 
ATOM     93  O   UNL     1     -17.680  -1.782  -6.674  1.00  0.00    -0.237 OA
ATOM     94  O   UNL     1     -15.814  -1.349  -5.110  1.00  0.00    -0.237 OA
ATOM     95  O   UNL     1     -17.880  -0.003  -4.971  1.00  0.00    -0.744 OA
ENDBRANCH  91  92
ENDBRANCH  59  84
BRANCH  71  96
ATOM     96  C   UNL     1     -12.828   9.036  -9.620  1.00  0.00     0.058 A 
ATOM     97  C   UNL     1     -14.072   9.376 -10.178  1.00  0.00     0.135 A 
ATOM     98  C   UNL     1     -11.908  10.110  -9.498  1.00  0.00     0.135 A 
ATOM     99  F   UNL     1     -15.069   8.483 -10.253  1.00  0.00    -0.206 F 
ATOM    100  C   UNL     1     -14.362  10.664 -10.640  1.00  0.00     0.059 A 
ATOM    101  C   UNL     1     -12.195  11.411  -9.902  1.00  0.00     0.059 A 
ATOM    102  F   UNL     1     -10.690   9.931  -8.964  1.00  0.00    -0.206 F 
ATOM    103  C   UNL     1     -13.418  11.676 -10.497  1.00  0.00     0.060 A 
BRANCH 103 104
ATOM    104  S   UNL     1     -13.803  13.357 -11.023  1.00  0.00     0.124 S 
ATOM    105  O   UNL     1     -13.258  13.371 -12.377  1.00  0.00    -0.237 OA
ATOM    106  O   UNL     1     -15.260  13.404 -10.931  1.00  0.00    -0.237 OA
ATOM    107  O   UNL     1     -13.096  14.179 -10.047  1.00  0.00    -0.744 OA
ENDBRANCH 103 104
ENDBRANCH  71  96
ENDBRANCH  45  46
ENDBRANCH  37  40
ENDBRANCH  35  36
ENDBRANCH  34  35
ENDBRANCH   1  34
TORSDOF 18
