REMARK SMILES O=C(NCCCCCCNC(=O)c1ccc(-c2c3nc(c(-c4c(F)cc(S(=O)(=O)[O-])cc4F)c4ccc([nH]4)c(-c4c(F)cc(S(=O)(=O)[O-])cc4F)c4nc(c(-c5c(F)cc(S(=O)(=O)[O-])cc5F)c5ccc2[nH]5)C=C4)C=C3)cc1)c1ccc(/[NH+]=C2\S[C@@H](Cc3ccc(F)cc3)C(=O)N2Cc2ccccc2)cc1
REMARK SMILES IDX 6 1 5 2 4 3 3 4 1 5 2 6 79 8 80 9 106 10 81 11 105 12 82 13
REMARK SMILES IDX 83 14 84 15 85 17 97 18 86 19 95 20 96 21 98 22 99 23 100 24
REMARK SMILES IDX 104 25 101 26 103 27 102 28 87 29 88 30 89 31 94 32 90 33
REMARK SMILES IDX 93 34 91 35 92 36 7 37 8 38 9 39 10 40 11 41 12 43 13 44
REMARK SMILES IDX 14 45 78 46 15 47 77 48 16 49 17 50 18 51 71 52 19 53 76 54
REMARK SMILES IDX 70 55 72 56 20 57 75 58 69 59 68 60 21 62 55 63 34 64 54 65
REMARK SMILES IDX 35 66 38 67 53 68 73 69 36 70 37 71 52 73 74 74 39 75 22 76
REMARK SMILES IDX 23 77 32 78 24 79 25 80 31 81 33 82 26 83 27 84 28 85 29 86
REMARK SMILES IDX 30 87 56 88 57 89 66 90 58 91 59 92 65 93 67 94 60 95 61 96
REMARK SMILES IDX 62 97 63 98 64 99 40 100 41 101 50 102 42 103 43 104 49 105
REMARK SMILES IDX 51 106 44 107 45 108 46 109 47 110 48 111
REMARK H PARENT 3 7 83 16 10 42 72 61 38 72
REMARK Flexibility Score: inf
ROOT
ATOM      1  C   UNL     1       4.181   3.086  -2.227  1.00  0.00     0.002 C 
ENDROOT
BRANCH   1   2
ATOM      2  C   UNL     1       4.656   1.649  -2.003  1.00  0.00     0.021 C 
BRANCH   2   3
ATOM      3  C   UNL     1       4.370   1.089  -0.614  1.00  0.00     0.116 C 
BRANCH   3   4
ATOM      4  N   UNL     1       2.943   1.004  -0.339  1.00  0.00    -0.352 N 
ATOM      5  O   UNL     1       0.955  -0.026  -0.024  1.00  0.00    -0.269 OA
ATOM      6  C   UNL     1       2.181  -0.100  -0.048  1.00  0.00     0.251 C 
ATOM      7  H   UNL     1       2.455   1.859  -0.365  1.00  0.00     0.163 HD
BRANCH   6   8
ATOM      8  C   UNL     1       2.844  -1.389   0.233  1.00  0.00     0.040 A 
ATOM      9  C   UNL     1       3.904  -1.446   1.138  1.00  0.00     0.018 A 
ATOM     10  C   UNL     1       2.389  -2.554  -0.394  1.00  0.00     0.018 A 
ATOM     11  C   UNL     1       4.575  -2.647   1.327  1.00  0.00     0.052 A 
ATOM     12  C   UNL     1       3.043  -3.770  -0.162  1.00  0.00     0.052 A 
ATOM     13  C   UNL     1       4.161  -3.813   0.673  1.00  0.00     0.125 A 
BRANCH  13  14
ATOM     14  N   UNL     1       4.830  -4.992   1.001  1.00  0.00    -0.235 N 
ATOM     15  C   UNL     1       5.659  -5.572   0.205  1.00  0.00     0.320 C 
ATOM     16  H   UNL     1       4.660  -5.399   1.882  1.00  0.00     0.313 HD
ATOM     17  S   UNL     1       5.945  -5.222  -1.476  1.00  0.00    -0.022 SA
ATOM     18  N   UNL     1       6.472  -6.585   0.638  1.00  0.00    -0.186 N 
ATOM     19  C   UNL     1       6.844  -6.789  -1.727  1.00  0.00     0.178 C 
ATOM     20  C   UNL     1       7.222  -7.237  -0.320  1.00  0.00     0.324 C 
ATOM     21  O   UNL     1       8.014  -8.141  -0.078  1.00  0.00    -0.245 OA
BRANCH  18  22
ATOM     22  C   UNL     1       6.549  -6.974   2.045  1.00  0.00     0.283 C 
BRANCH  22  23
ATOM     23  C   UNL     1       7.334  -6.012   2.920  1.00  0.00    -0.006 A 
ATOM     24  C   UNL     1       8.677  -6.248   3.242  1.00  0.00     0.008 A 
ATOM     25  C   UNL     1       6.718  -4.870   3.458  1.00  0.00     0.008 A 
ATOM     26  C   UNL     1       9.378  -5.360   4.067  1.00  0.00     0.000 A 
ATOM     27  C   UNL     1       7.428  -3.961   4.244  1.00  0.00     0.000 A 
ATOM     28  C   UNL     1       8.759  -4.209   4.554  1.00  0.00     0.000 A 
ENDBRANCH  22  23
ENDBRANCH  18  22
BRANCH  19  29
ATOM     29  C   UNL     1       8.018  -6.599  -2.686  1.00  0.00     0.063 C 
BRANCH  29  30
ATOM     30  C   UNL     1       8.735  -7.880  -3.060  1.00  0.00    -0.046 A 
ATOM     31  C   UNL     1      10.096  -8.031  -2.748  1.00  0.00     0.007 A 
ATOM     32  C   UNL     1       8.069  -8.925  -3.720  1.00  0.00     0.007 A 
ATOM     33  C   UNL     1      10.769  -9.212  -3.062  1.00  0.00     0.039 A 
ATOM     34  C   UNL     1       8.744 -10.108  -4.029  1.00  0.00     0.039 A 
ATOM     35  C   UNL     1      10.086 -10.242  -3.692  1.00  0.00     0.123 A 
ATOM     36  F   UNL     1      10.728 -11.382  -3.982  1.00  0.00    -0.207 F 
ENDBRANCH  29  30
ENDBRANCH  19  29
ENDBRANCH  13  14
ENDBRANCH   6   8
ENDBRANCH   3   4
ENDBRANCH   2   3
ENDBRANCH   1   2
BRANCH   1  37
ATOM     37  C   UNL     1       4.698   4.114  -1.216  1.00  0.00     0.002 C 
BRANCH  37  38
ATOM     38  C   UNL     1       6.219   4.172  -1.053  1.00  0.00     0.021 C 
BRANCH  38  39
ATOM     39  C   UNL     1       7.001   4.409  -2.340  1.00  0.00     0.116 C 
BRANCH  39  40
ATOM     40  N   UNL     1       6.666   5.675  -2.969  1.00  0.00    -0.352 N 
ATOM     41  C   UNL     1       7.495   6.682  -3.398  1.00  0.00     0.251 C 
ATOM     42  H   UNL     1       5.704   5.835  -3.107  1.00  0.00     0.163 HD
ATOM     43  O   UNL     1       7.018   7.756  -3.752  1.00  0.00    -0.269 OA
BRANCH  41  44
ATOM     44  C   UNL     1       8.961   6.481  -3.409  1.00  0.00     0.039 A 
ATOM     45  C   UNL     1       9.784   7.498  -2.919  1.00  0.00     0.014 A 
ATOM     46  C   UNL     1       9.524   5.301  -3.904  1.00  0.00     0.014 A 
ATOM     47  C   UNL     1      11.167   7.307  -2.868  1.00  0.00     0.010 A 
ATOM     48  C   UNL     1      10.895   5.084  -3.787  1.00  0.00     0.010 A 
ATOM     49  C   UNL     1      11.732   6.085  -3.270  1.00  0.00    -0.014 A 
BRANCH  49  50
ATOM     50  C   UNL     1      13.193   5.835  -3.151  1.00  0.00     0.031 A 
ATOM     51  C   UNL     1      14.024   5.597  -4.382  1.00  0.00     0.074 A 
ATOM     52  C   UNL     1      13.758   5.761  -1.929  1.00  0.00     0.049 A 
ATOM     53  N   UNL     1      15.294   5.295  -4.476  1.00  0.00    -0.248 NA
ATOM     54  C   UNL     1      13.333   5.686  -5.679  1.00  0.00     0.031 C 
ATOM     55  C   UNL     1      13.050   5.927  -0.657  1.00  0.00     0.029 A 
ATOM     56  N   UNL     1      15.056   5.516  -1.554  1.00  0.00    -0.354 N 
ATOM     57  C   UNL     1      15.550   5.146  -5.834  1.00  0.00     0.074 A 
ATOM     58  C   UNL     1      14.293   5.340  -6.524  1.00  0.00     0.031 C 
ATOM     59  C   UNL     1      13.924   5.798   0.354  1.00  0.00     0.029 A 
ATOM     60  C   UNL     1      15.245   5.502  -0.191  1.00  0.00     0.049 A 
ATOM     61  H   UNL     1      15.783   5.365  -2.200  1.00  0.00     0.167 HD
ATOM     62  C   UNL     1      16.730   4.894  -6.451  1.00  0.00     0.037 A 
ATOM     63  C   UNL     1      16.353   5.267   0.537  1.00  0.00     0.037 A 
ATOM     64  C   UNL     1      17.982   4.727  -5.760  1.00  0.00     0.049 A 
ATOM     65  C   UNL     1      17.651   4.985  -0.172  1.00  0.00     0.074 A 
ATOM     66  C   UNL     1      19.241   4.524  -6.299  1.00  0.00     0.029 A 
ATOM     67  N   UNL     1      18.136   4.741  -4.381  1.00  0.00    -0.354 N 
ATOM     68  N   UNL     1      17.886   4.909  -1.460  1.00  0.00    -0.248 NA
ATOM     69  C   UNL     1      18.835   4.763   0.670  1.00  0.00     0.031 C 
ATOM     70  C   UNL     1      20.148   4.370  -5.245  1.00  0.00     0.029 A 
ATOM     71  C   UNL     1      19.465   4.529  -4.051  1.00  0.00     0.049 A 
ATOM     72  H   UNL     1      17.408   4.880  -3.733  1.00  0.00     0.167 HD
ATOM     73  C   UNL     1      19.249   4.660  -1.583  1.00  0.00     0.074 A 
ATOM     74  C   UNL     1      19.787   4.609  -0.240  1.00  0.00     0.031 C 
ATOM     75  C   UNL     1      19.988   4.490  -2.708  1.00  0.00     0.037 A 
BRANCH  62  76
ATOM     76  C   UNL     1      16.725   4.790  -7.952  1.00  0.00     0.058 A 
ATOM     77  C   UNL     1      16.519   5.914  -8.769  1.00  0.00     0.135 A 
ATOM     78  C   UNL     1      16.974   3.560  -8.584  1.00  0.00     0.135 A 
ATOM     79  F   UNL     1      16.263   7.111  -8.219  1.00  0.00    -0.206 F 
ATOM     80  C   UNL     1      16.532   5.818 -10.157  1.00  0.00     0.059 A 
ATOM     81  C   UNL     1      17.019   3.446  -9.971  1.00  0.00     0.059 A 
ATOM     82  F   UNL     1      17.177   2.453  -7.853  1.00  0.00    -0.206 F 
ATOM     83  C   UNL     1      16.783   4.579 -10.749  1.00  0.00     0.060 A 
BRANCH  83  84
ATOM     84  S   UNL     1      16.805   4.475 -12.551  1.00  0.00     0.124 S 
ATOM     85  O   UNL     1      15.385   4.607 -12.866  1.00  0.00    -0.237 OA
ATOM     86  O   UNL     1      17.644   5.610 -12.919  1.00  0.00    -0.237 OA
ATOM     87  O   UNL     1      17.384   3.160 -12.809  1.00  0.00    -0.744 OA
ENDBRANCH  83  84
ENDBRANCH  62  76
BRANCH  63  88
ATOM     88  C   UNL     1      16.289   5.303   2.023  1.00  0.00     0.058 A 
ATOM     89  C   UNL     1      16.908   6.332   2.749  1.00  0.00     0.135 A 
ATOM     90  C   UNL     1      15.605   4.314   2.748  1.00  0.00     0.135 A 
ATOM     91  F   UNL     1      17.579   7.297   2.102  1.00  0.00    -0.206 F 
ATOM     92  C   UNL     1      16.870   6.370   4.139  1.00  0.00     0.059 A 
ATOM     93  C   UNL     1      15.530   4.345   4.136  1.00  0.00     0.059 A 
ATOM     94  F   UNL     1      14.981   3.317   2.101  1.00  0.00    -0.206 F 
ATOM     95  C   UNL     1      16.176   5.371   4.824  1.00  0.00     0.060 A 
BRANCH  95  96
ATOM     96  S   UNL     1      16.097   5.451   6.627  1.00  0.00     0.124 S 
ATOM     97  O   UNL     1      17.453   5.063   6.997  1.00  0.00    -0.237 OA
ATOM     98  O   UNL     1      15.746   6.849   6.856  1.00  0.00    -0.237 OA
ATOM     99  O   UNL     1      15.051   4.488   6.958  1.00  0.00    -0.744 OA
ENDBRANCH  95  96
ENDBRANCH  63  88
BRANCH  75 100
ATOM    100  C   UNL     1      21.466   4.271  -2.540  1.00  0.00     0.058 A 
ATOM    101  C   UNL     1      21.984   3.062  -2.050  1.00  0.00     0.135 A 
ATOM    102  C   UNL     1      22.379   5.266  -2.925  1.00  0.00     0.135 A 
ATOM    103  F   UNL     1      21.154   2.080  -1.661  1.00  0.00    -0.206 F 
ATOM    104  C   UNL     1      23.354   2.856  -1.925  1.00  0.00     0.059 A 
ATOM    105  C   UNL     1      23.754   5.071  -2.837  1.00  0.00     0.059 A 
ATOM    106  F   UNL     1      21.938   6.438  -3.411  1.00  0.00    -0.206 F 
ATOM    107  C   UNL     1      24.232   3.866  -2.325  1.00  0.00     0.060 A 
BRANCH 107 108
ATOM    108  S   UNL     1      26.008   3.571  -2.192  1.00  0.00     0.124 S 
ATOM    109  O   UNL     1      26.215   3.673  -0.751  1.00  0.00    -0.237 OA
ATOM    110  O   UNL     1      26.146   2.234  -2.759  1.00  0.00    -0.237 OA
ATOM    111  O   UNL     1      26.591   4.647  -2.988  1.00  0.00    -0.744 OA
ENDBRANCH 107 108
ENDBRANCH  75 100
ENDBRANCH  49  50
ENDBRANCH  41  44
ENDBRANCH  39  40
ENDBRANCH  38  39
ENDBRANCH  37  38
ENDBRANCH   1  37
TORSDOF 21
