REMARK SMILES Cc1ccc(C(=O)N2C[C@@H](C(=O)NCCCCCCNC(=O)c3ccc(-c4c5nc(c(-c6c(F)cc(S(=O)(=O)[O-])cc6F)c6ccc([nH]6)c(-c6c(F)cc(S(=O)(=O)[O-])cc6F)c6nc(c(-c7c(F)cc(S(=O)(=O)[O-])cc7F)c7ccc4[nH]7)C=C6)C=C5)cc3)C[C@H](C(=O)N3CCOCC3)C2)cc1F
REMARK SMILES IDX 17 1 16 2 15 3 14 4 13 5 11 6 12 7 10 9 8 10 9 11 99 12
REMARK SMILES IDX 90 13 89 14 6 15 7 16 5 17 1 18 2 19 3 20 101 21 4 22 100 23
REMARK SMILES IDX 102 24 91 25 92 26 93 27 94 28 98 29 95 30 97 31 96 32 18 33
REMARK SMILES IDX 19 34 20 35 21 36 22 38 23 39 24 40 88 41 25 42 87 43 26 44
REMARK SMILES IDX 27 45 28 46 81 47 29 48 86 49 80 50 82 51 30 52 85 53 79 54
REMARK SMILES IDX 78 55 31 57 65 58 44 59 64 60 45 61 48 62 63 63 83 64 46 65
REMARK SMILES IDX 47 66 62 68 84 69 49 70 32 71 33 72 42 73 34 74 35 75 41 76
REMARK SMILES IDX 43 77 36 78 37 79 38 80 39 81 40 82 66 83 67 84 76 85 68 86
REMARK SMILES IDX 69 87 75 88 77 89 70 90 71 91 72 92 73 93 74 94 50 95 51 96
REMARK SMILES IDX 60 97 52 98 53 99 59 100 61 101 54 102 55 103 56 104 57 105
REMARK SMILES IDX 58 106
REMARK H PARENT 13 8 20 37 82 56 48 67
REMARK Flexibility Score: inf
ROOT
ATOM      1  C   UNL     1      -9.309   1.838   4.079  1.00  0.00     0.002 C 
ENDROOT
BRANCH   1   2
ATOM      2  C   UNL     1     -10.087   1.564   2.783  1.00  0.00     0.002 C 
BRANCH   2   3
ATOM      3  C   UNL     1      -9.264   1.342   1.514  1.00  0.00     0.021 C 
BRANCH   3   4
ATOM      4  C   UNL     1      -8.057   0.436   1.677  1.00  0.00     0.116 C 
BRANCH   4   5
ATOM      5  N   UNL     1      -8.407  -0.921   2.031  1.00  0.00    -0.356 N 
ATOM      6  C   UNL     1      -7.744  -2.074   1.759  1.00  0.00     0.224 C 
ATOM      7  O   UNL     1      -8.153  -3.122   2.265  1.00  0.00    -0.275 OA
ATOM      8  H   UNL     1      -9.243  -1.024   2.540  1.00  0.00     0.163 HD
BRANCH   6   9
ATOM      9  C   UNL     1      -6.552  -2.094   0.820  1.00  0.00     0.099 C 
ATOM     10  N   UNL     1      -4.284  -1.202   0.376  1.00  0.00    -0.337 N 
ATOM     11  C   UNL     1      -5.375  -1.286   1.336  1.00  0.00     0.133 C 
ATOM     12  C   UNL     1      -4.632  -0.765  -0.976  1.00  0.00     0.133 C 
ATOM     13  C   UNL     1      -5.789  -1.577  -1.593  1.00  0.00     0.099 C 
ATOM     14  C   UNL     1      -6.954  -1.823  -0.637  1.00  0.00     0.030 C 
BRANCH  10  15
ATOM     15  C   UNL     1      -2.993  -1.382   0.861  1.00  0.00     0.254 C 
ATOM     16  O   UNL     1      -2.745  -2.114   1.819  1.00  0.00    -0.269 OA
BRANCH  15  17
ATOM     17  C   UNL     1      -1.865  -0.593   0.311  1.00  0.00     0.042 A 
ATOM     18  C   UNL     1       1.670   1.787  -0.293  1.00  0.00     0.047 C 
ATOM     19  C   UNL     1       0.422   0.968  -0.159  1.00  0.00    -0.015 A 
ATOM     20  C   UNL     1      -0.840   1.570  -0.095  1.00  0.00     0.007 A 
ATOM     21  C   UNL     1       0.513  -0.421  -0.025  1.00  0.00     0.126 A 
ATOM     22  C   UNL     1      -1.981   0.794   0.145  1.00  0.00     0.014 A 
ATOM     23  C   UNL     1      -0.612  -1.202   0.215  1.00  0.00     0.053 A 
ATOM     24  F   UNL     1       1.714  -1.016  -0.073  1.00  0.00    -0.207 F 
ENDBRANCH  15  17
ENDBRANCH  10  15
BRANCH  13  25
ATOM     25  C   UNL     1      -5.210  -2.743  -2.406  1.00  0.00     0.227 C 
ATOM     26  O   UNL     1      -4.915  -2.530  -3.589  1.00  0.00    -0.275 OA
ATOM     27  N   UNL     1      -4.776  -3.890  -1.789  1.00  0.00    -0.338 N 
ATOM     28  C   UNL     1      -5.530  -4.779  -0.906  1.00  0.00     0.148 C 
ATOM     29  C   UNL     1      -3.520  -4.490  -2.232  1.00  0.00     0.148 C 
ATOM     30  C   UNL     1      -4.660  -5.178   0.295  1.00  0.00     0.181 C 
ATOM     31  C   UNL     1      -2.700  -4.891  -1.000  1.00  0.00     0.181 C 
ATOM     32  O   UNL     1      -3.439  -5.795  -0.158  1.00  0.00    -0.378 OA
ENDBRANCH  13  25
ENDBRANCH   6   9
ENDBRANCH   4   5
ENDBRANCH   3   4
ENDBRANCH   2   3
ENDBRANCH   1   2
BRANCH   1  33
ATOM     33  C   UNL     1      -8.196   2.892   4.038  1.00  0.00     0.021 C 
BRANCH  33  34
ATOM     34  C   UNL     1      -8.635   4.270   3.604  1.00  0.00     0.116 C 
BRANCH  34  35
ATOM     35  N   UNL     1      -9.527   4.911   4.551  1.00  0.00    -0.352 N 
ATOM     36  C   UNL     1      -9.561   6.304   4.516  1.00  0.00     0.251 C 
ATOM     37  H   UNL     1     -10.076   4.393   5.181  1.00  0.00     0.163 HD
ATOM     38  O   UNL     1      -8.777   6.992   5.138  1.00  0.00    -0.269 OA
BRANCH  36  39
ATOM     39  C   UNL     1     -10.396   6.859   3.406  1.00  0.00     0.039 A 
ATOM     40  C   UNL     1     -10.346   8.225   3.105  1.00  0.00     0.014 A 
ATOM     41  C   UNL     1     -11.014   5.971   2.523  1.00  0.00     0.014 A 
ATOM     42  C   UNL     1     -10.827   8.675   1.873  1.00  0.00     0.010 A 
ATOM     43  C   UNL     1     -11.378   6.390   1.274  1.00  0.00     0.010 A 
ATOM     44  C   UNL     1     -11.291   7.740   0.942  1.00  0.00    -0.014 A 
BRANCH  44  45
ATOM     45  C   UNL     1     -11.686   8.047  -0.425  1.00  0.00     0.031 A 
ATOM     46  C   UNL     1     -10.767   8.699  -1.367  1.00  0.00     0.074 A 
ATOM     47  C   UNL     1     -12.908   7.640  -0.829  1.00  0.00     0.049 A 
ATOM     48  N   UNL     1     -11.162   9.435  -2.347  1.00  0.00    -0.248 NA
ATOM     49  C   UNL     1      -9.317   8.562  -1.291  1.00  0.00     0.031 C 
ATOM     50  C   UNL     1     -13.505   7.662  -2.154  1.00  0.00     0.029 A 
ATOM     51  N   UNL     1     -13.961   7.288   0.011  1.00  0.00    -0.354 N 
ATOM     52  C   UNL     1     -10.086   9.634  -3.179  1.00  0.00     0.074 A 
ATOM     53  C   UNL     1      -8.942   9.146  -2.438  1.00  0.00     0.031 C 
ATOM     54  C   UNL     1     -14.844   7.637  -2.012  1.00  0.00     0.029 A 
ATOM     55  C   UNL     1     -15.139   7.740  -0.588  1.00  0.00     0.049 A 
ATOM     56  H   UNL     1     -13.889   6.809   0.869  1.00  0.00     0.167 HD
ATOM     57  C   UNL     1     -10.308  10.057  -4.458  1.00  0.00     0.037 A 
ATOM     58  C   UNL     1     -15.806   8.760   0.037  1.00  0.00     0.037 A 
ATOM     59  C   UNL     1     -11.742  10.225  -4.712  1.00  0.00     0.049 A 
ATOM     60  C   UNL     1     -15.784  10.056  -0.750  1.00  0.00     0.074 A 
ATOM     61  C   UNL     1     -12.711   9.445  -5.323  1.00  0.00     0.029 A 
ATOM     62  N   UNL     1     -12.433  11.194  -4.008  1.00  0.00    -0.354 N 
ATOM     63  N   UNL     1     -15.155  10.219  -1.882  1.00  0.00    -0.248 NA
ATOM     64  C   UNL     1     -16.438  11.286  -0.306  1.00  0.00     0.031 C 
ATOM     65  C   UNL     1     -13.992   9.958  -4.966  1.00  0.00     0.029 A 
ATOM     66  C   UNL     1     -13.801  11.054  -4.146  1.00  0.00     0.049 A 
ATOM     67  H   UNL     1     -12.003  11.899  -3.473  1.00  0.00     0.167 HD
ATOM     68  C   UNL     1     -15.271  11.516  -2.301  1.00  0.00     0.074 A 
ATOM     69  C   UNL     1     -16.093  12.145  -1.283  1.00  0.00     0.031 C 
ATOM     70  C   UNL     1     -14.665  11.982  -3.434  1.00  0.00     0.037 A 
BRANCH  57  71
ATOM     71  C   UNL     1      -9.255  10.084  -5.543  1.00  0.00     0.058 A 
ATOM     72  C   UNL     1      -9.604   9.856  -6.893  1.00  0.00     0.135 A 
ATOM     73  C   UNL     1      -7.883  10.321  -5.320  1.00  0.00     0.135 A 
ATOM     74  F   UNL     1     -10.878   9.693  -7.272  1.00  0.00    -0.206 F 
ATOM     75  C   UNL     1      -8.663   9.770  -7.919  1.00  0.00     0.059 A 
ATOM     76  C   UNL     1      -6.915  10.194  -6.325  1.00  0.00     0.059 A 
ATOM     77  F   UNL     1      -7.435  10.722  -4.122  1.00  0.00    -0.206 F 
ATOM     78  C   UNL     1      -7.316   9.909  -7.623  1.00  0.00     0.060 A 
BRANCH  78  79
ATOM     79  S   UNL     1      -6.118   9.709  -8.956  1.00  0.00     0.124 S 
ATOM     80  O   UNL     1      -6.479   8.402  -9.499  1.00  0.00    -0.237 OA
ATOM     81  O   UNL     1      -6.418  10.854  -9.808  1.00  0.00    -0.237 OA
ATOM     82  O   UNL     1      -4.832   9.758  -8.267  1.00  0.00    -0.744 OA
ENDBRANCH  78  79
ENDBRANCH  57  71
BRANCH  58  83
ATOM     83  C   UNL     1     -15.740   8.609   1.535  1.00  0.00     0.058 A 
ATOM     84  C   UNL     1     -16.338   7.453   2.087  1.00  0.00     0.135 A 
ATOM     85  C   UNL     1     -14.723   9.218   2.290  1.00  0.00     0.135 A 
ATOM     86  F   UNL     1     -17.324   6.828   1.420  1.00  0.00    -0.206 F 
ATOM     87  C   UNL     1     -15.825   6.823   3.220  1.00  0.00     0.059 A 
ATOM     88  C   UNL     1     -14.202   8.607   3.440  1.00  0.00     0.059 A 
ATOM     89  F   UNL     1     -14.126  10.332   1.840  1.00  0.00    -0.206 F 
ATOM     90  C   UNL     1     -14.710   7.371   3.848  1.00  0.00     0.060 A 
BRANCH  90  91
ATOM     91  S   UNL     1     -13.877   6.377   5.116  1.00  0.00     0.124 S 
ATOM     92  O   UNL     1     -14.973   6.043   6.019  1.00  0.00    -0.237 OA
ATOM     93  O   UNL     1     -13.348   5.255   4.340  1.00  0.00    -0.237 OA
ATOM     94  O   UNL     1     -12.871   7.283   5.657  1.00  0.00    -0.744 OA
ENDBRANCH  90  91
ENDBRANCH  58  83
BRANCH  70  95
ATOM     95  C   UNL     1     -14.820  13.386  -3.954  1.00  0.00     0.058 A 
ATOM     96  C   UNL     1     -16.059  14.047  -3.985  1.00  0.00     0.135 A 
ATOM     97  C   UNL     1     -13.739  14.077  -4.550  1.00  0.00     0.135 A 
ATOM     98  F   UNL     1     -17.172  13.443  -3.541  1.00  0.00    -0.206 F 
ATOM     99  C   UNL     1     -16.197  15.341  -4.489  1.00  0.00     0.059 A 
ATOM    100  C   UNL     1     -13.865  15.344  -5.106  1.00  0.00     0.059 A 
ATOM    101  F   UNL     1     -12.504  13.560  -4.586  1.00  0.00    -0.206 F 
ATOM    102  C   UNL     1     -15.090  15.986  -5.036  1.00  0.00     0.060 A 
BRANCH 102 103
ATOM    103  S   UNL     1     -15.253  17.669  -5.652  1.00  0.00     0.124 S 
ATOM    104  O   UNL     1     -16.552  17.639  -6.317  1.00  0.00    -0.237 OA
ATOM    105  O   UNL     1     -15.194  18.436  -4.412  1.00  0.00    -0.237 OA
ATOM    106  O   UNL     1     -14.105  17.820  -6.541  1.00  0.00    -0.744 OA
ENDBRANCH 102 103
ENDBRANCH  70  95
ENDBRANCH  44  45
ENDBRANCH  36  39
ENDBRANCH  34  35
ENDBRANCH  33  34
ENDBRANCH   1  33
TORSDOF 19
