REMARK SMILES O=C(NCCCCCCNC(=O)c1[nH]ncc1C[N@H+]1CCC[C@@H](C(=O)c2ccc(Oc3ccccc3)cc2)C1)c1ccc(-c2c3nc(c(-c4c(F)cc(S(=O)(=O)[O-])cc4F)c4ccc([nH]4)c(-c4c(F)cc(S(=O)(=O)[O-])cc4F)c4nc(c(-c5c(F)cc(S(=O)(=O)[O-])cc5F)c5ccc2[nH]5)C=C4)C=C3)cc1
REMARK SMILES IDX 8 1 7 2 6 3 5 4 4 5 3 6 1 7 2 8 40 10 41 11 105 12 42 13
REMARK SMILES IDX 104 14 43 15 44 16 45 17 98 18 46 19 103 20 97 21 99 22
REMARK SMILES IDX 47 23 102 24 96 25 95 26 48 28 82 29 61 30 81 31 62 32 65 33
REMARK SMILES IDX 80 34 100 35 63 36 64 37 79 39 101 40 66 41 49 42 50 43
REMARK SMILES IDX 59 44 51 45 52 46 58 47 60 48 53 49 54 50 55 51 56 52 57 53
REMARK SMILES IDX 83 54 84 55 93 56 85 57 86 58 92 59 94 60 87 61 88 62 89 63
REMARK SMILES IDX 90 64 91 65 67 66 68 67 77 68 69 69 70 70 76 71 78 72 71 73
REMARK SMILES IDX 72 74 73 75 74 76 75 77 9 78 10 79 11 80 12 82 13 83 14 84
REMARK SMILES IDX 17 85 15 86 16 88 18 89 19 90 20 91 39 92 21 94 23 95 22 96
REMARK SMILES IDX 24 97 25 98 26 99 27 100 38 101 28 102 37 103 29 104 30 105
REMARK SMILES IDX 31 106 32 107 36 108 33 109 35 110 34 111
REMARK H PARENT 3 9 99 27 65 38 10 81 14 87 19 93
REMARK Flexibility Score: inf
ROOT
ATOM      1  C   UNL     1       6.045   4.376  -0.135  1.00  0.00     0.021 C 
ENDROOT
BRANCH   1   2
ATOM      2  C   UNL     1       4.535   4.338  -0.384  1.00  0.00     0.002 C 
BRANCH   2   3
ATOM      3  C   UNL     1       4.080   3.546  -1.613  1.00  0.00     0.002 C 
BRANCH   3   4
ATOM      4  C   UNL     1       4.602   2.112  -1.712  1.00  0.00     0.021 C 
BRANCH   4   5
ATOM      5  C   UNL     1       4.352   1.244  -0.487  1.00  0.00     0.116 C 
BRANCH   5   6
ATOM      6  N   UNL     1       2.938   1.064  -0.207  1.00  0.00    -0.352 N 
ATOM      7  O   UNL     1       1.012  -0.073   0.067  1.00  0.00    -0.269 OA
ATOM      8  C   UNL     1       2.237  -0.101  -0.009  1.00  0.00     0.251 C 
ATOM      9  H   UNL     1       2.409   1.892  -0.151  1.00  0.00     0.163 HD
BRANCH   8  10
ATOM     10  C   UNL     1       2.962  -1.386   0.088  1.00  0.00     0.039 A 
ATOM     11  C   UNL     1       4.116  -1.498   0.868  1.00  0.00     0.014 A 
ATOM     12  C   UNL     1       2.475  -2.497  -0.607  1.00  0.00     0.014 A 
ATOM     13  C   UNL     1       4.851  -2.679   0.851  1.00  0.00     0.010 A 
ATOM     14  C   UNL     1       3.171  -3.708  -0.556  1.00  0.00     0.010 A 
ATOM     15  C   UNL     1       4.377  -3.803   0.155  1.00  0.00    -0.014 A 
BRANCH  15  16
ATOM     16  C   UNL     1       5.116  -5.086   0.256  1.00  0.00     0.031 A 
ATOM     17  C   UNL     1       5.764  -5.712  -0.948  1.00  0.00     0.074 A 
ATOM     18  C   UNL     1       5.210  -5.678   1.463  1.00  0.00     0.049 A 
ATOM     19  N   UNL     1       6.449  -6.824  -1.026  1.00  0.00    -0.248 NA
ATOM     20  C   UNL     1       5.621  -5.005  -2.230  1.00  0.00     0.031 C 
ATOM     21  C   UNL     1       4.604  -5.169   2.698  1.00  0.00     0.029 A 
ATOM     22  N   UNL     1       5.852  -6.823   1.858  1.00  0.00    -0.354 N 
ATOM     23  C   UNL     1       6.806  -6.961  -2.363  1.00  0.00     0.074 A 
ATOM     24  C   UNL     1       6.240  -5.829  -3.065  1.00  0.00     0.031 C 
ATOM     25  C   UNL     1       4.938  -5.974   3.716  1.00  0.00     0.029 A 
ATOM     26  C   UNL     1       5.725  -7.087   3.201  1.00  0.00     0.049 A 
ATOM     27  H   UNL     1       6.356  -7.400   1.240  1.00  0.00     0.167 HD
ATOM     28  C   UNL     1       7.544  -7.939  -2.944  1.00  0.00     0.037 A 
ATOM     29  C   UNL     1       6.175  -8.121   3.937  1.00  0.00     0.037 A 
ATOM     30  C   UNL     1       8.110  -9.057  -2.231  1.00  0.00     0.049 A 
ATOM     31  C   UNL     1       6.972  -9.200   3.264  1.00  0.00     0.074 A 
ATOM     32  C   UNL     1       8.899 -10.082  -2.723  1.00  0.00     0.029 A 
ATOM     33  N   UNL     1       7.943  -9.301  -0.874  1.00  0.00    -0.354 N 
ATOM     34  N   UNL     1       7.327  -9.294   2.005  1.00  0.00    -0.248 NA
ATOM     35  C   UNL     1       7.427 -10.312   4.107  1.00  0.00     0.031 C 
ATOM     36  C   UNL     1       9.173 -10.968  -1.675  1.00  0.00     0.029 A 
ATOM     37  C   UNL     1       8.596 -10.471  -0.518  1.00  0.00     0.049 A 
ATOM     38  H   UNL     1       7.435  -8.728  -0.256  1.00  0.00     0.167 HD
ATOM     39  C   UNL     1       8.061 -10.470   1.906  1.00  0.00     0.074 A 
ATOM     40  C   UNL     1       8.114 -11.041   3.238  1.00  0.00     0.031 C 
ATOM     41  C   UNL     1       8.638 -11.026   0.813  1.00  0.00     0.037 A 
BRANCH  28  42
ATOM     42  C   UNL     1       7.774  -7.856  -4.429  1.00  0.00     0.058 A 
ATOM     43  C   UNL     1       8.638  -6.902  -4.991  1.00  0.00     0.135 A 
ATOM     44  C   UNL     1       7.161  -8.774  -5.299  1.00  0.00     0.135 A 
ATOM     45  F   UNL     1       9.241  -5.992  -4.210  1.00  0.00    -0.206 F 
ATOM     46  C   UNL     1       8.868  -6.846  -6.362  1.00  0.00     0.059 A 
ATOM     47  C   UNL     1       7.396  -8.752  -6.671  1.00  0.00     0.059 A 
ATOM     48  F   UNL     1       6.327  -9.708  -4.816  1.00  0.00    -0.206 F 
ATOM     49  C   UNL     1       8.241  -7.775  -7.195  1.00  0.00     0.060 A 
BRANCH  49  50
ATOM     50  S   UNL     1       8.555  -7.690  -8.972  1.00  0.00     0.124 S 
ATOM     51  O   UNL     1       7.784  -6.508  -9.346  1.00  0.00    -0.237 OA
ATOM     52  O   UNL     1      10.006  -7.542  -9.026  1.00  0.00    -0.237 OA
ATOM     53  O   UNL     1       8.038  -8.960  -9.470  1.00  0.00    -0.744 OA
ENDBRANCH  49  50
ENDBRANCH  28  42
BRANCH  29  54
ATOM     54  C   UNL     1       5.870  -8.176   5.390  1.00  0.00     0.058 A 
ATOM     55  C   UNL     1       6.874  -7.982   6.348  1.00  0.00     0.135 A 
ATOM     56  C   UNL     1       4.559  -8.385   5.847  1.00  0.00     0.135 A 
ATOM     57  F   UNL     1       8.142  -7.781   5.959  1.00  0.00    -0.206 F 
ATOM     58  C   UNL     1       6.593  -8.004   7.710  1.00  0.00     0.059 A 
ATOM     59  C   UNL     1       4.248  -8.384   7.202  1.00  0.00     0.059 A 
ATOM     60  F   UNL     1       3.559  -8.556   4.968  1.00  0.00    -0.206 F 
ATOM     61  C   UNL     1       5.275  -8.202   8.127  1.00  0.00     0.060 A 
BRANCH  61  62
ATOM     62  S   UNL     1       4.910  -8.171   9.895  1.00  0.00     0.124 S 
ATOM     63  O   UNL     1       5.429  -9.465  10.322  1.00  0.00    -0.237 OA
ATOM     64  O   UNL     1       5.660  -7.002  10.343  1.00  0.00    -0.237 OA
ATOM     65  O   UNL     1       3.458  -8.027   9.934  1.00  0.00    -0.744 OA
ENDBRANCH  61  62
ENDBRANCH  29  54
BRANCH  41  66
ATOM     66  C   UNL     1       9.398 -12.306   1.016  1.00  0.00     0.058 A 
ATOM     67  C   UNL     1       8.740 -13.524   1.247  1.00  0.00     0.135 A 
ATOM     68  C   UNL     1      10.800 -12.319   0.944  1.00  0.00     0.135 A 
ATOM     69  F   UNL     1       7.401 -13.563   1.335  1.00  0.00    -0.206 F 
ATOM     70  C   UNL     1       9.448 -14.709   1.422  1.00  0.00     0.059 A 
ATOM     71  C   UNL     1      11.527 -13.496   1.091  1.00  0.00     0.059 A 
ATOM     72  F   UNL     1      11.476 -11.181   0.718  1.00  0.00    -0.206 F 
ATOM     73  C   UNL     1      10.842 -14.684   1.342  1.00  0.00     0.060 A 
BRANCH  73  74
ATOM     74  S   UNL     1      11.748 -16.233   1.540  1.00  0.00     0.124 S 
ATOM     75  O   UNL     1      11.657 -16.443   2.981  1.00  0.00    -0.237 OA
ATOM     76  O   UNL     1      10.976 -17.156   0.714  1.00  0.00    -0.237 OA
ATOM     77  O   UNL     1      13.080 -15.913   1.035  1.00  0.00    -0.744 OA
ENDBRANCH  73  74
ENDBRANCH  41  66
ENDBRANCH  15  16
ENDBRANCH   8  10
ENDBRANCH   5   6
ENDBRANCH   4   5
ENDBRANCH   3   4
ENDBRANCH   2   3
ENDBRANCH   1   2
BRANCH   1  78
ATOM     78  C   UNL     1       6.886   4.825  -1.325  1.00  0.00     0.116 C 
BRANCH  78  79
ATOM     79  N   UNL     1       6.599   6.190  -1.728  1.00  0.00    -0.351 N 
ATOM     80  C   UNL     1       7.476   7.226  -1.927  1.00  0.00     0.269 C 
ATOM     81  H   UNL     1       5.649   6.401  -1.877  1.00  0.00     0.163 HD
ATOM     82  O   UNL     1       7.028   8.366  -2.055  1.00  0.00    -0.268 OA
BRANCH  80  83
ATOM     83  C   UNL     1       8.881   6.950  -1.900  1.00  0.00     0.131 A 
ATOM     84  N   UNL     1       9.739   7.692  -1.138  1.00  0.00    -0.272 N 
ATOM     85  C   UNL     1       9.674   6.021  -2.563  1.00  0.00     0.057 A 
ATOM     86  N   UNL     1      10.985   7.197  -1.089  1.00  0.00    -0.183 NA
ATOM     87  H   UNL     1       9.469   8.514  -0.669  1.00  0.00     0.190 HD
ATOM     88  C   UNL     1      10.943   6.179  -1.950  1.00  0.00     0.145 A 
BRANCH  85  89
ATOM     89  C   UNL     1       9.271   5.030  -3.612  1.00  0.00     0.303 C 
BRANCH  89  90
ATOM     90  N   UNL     1       9.852   5.267  -4.941  1.00  0.00    -0.330 N 
ATOM     91  C   UNL     1       9.478   6.559  -5.522  1.00  0.00     0.262 C 
ATOM     92  C   UNL     1      11.292   5.016  -4.997  1.00  0.00     0.274 C 
ATOM     93  H   UNL     1       9.423   4.564  -5.542  1.00  0.00     0.348 HD
ATOM     94  C   UNL     1       9.961   6.664  -6.972  1.00  0.00     0.062 C 
ATOM     95  C   UNL     1      11.837   5.088  -6.427  1.00  0.00     0.116 C 
ATOM     96  C   UNL     1      11.465   6.426  -7.075  1.00  0.00     0.023 C 
BRANCH  95  97
ATOM     97  C   UNL     1      13.347   4.916  -6.330  1.00  0.00     0.171 C 
ATOM     98  O   UNL     1      14.119   5.855  -6.150  1.00  0.00    -0.294 OA
BRANCH  97  99
ATOM     99  C   UNL     1      13.889   3.537  -6.315  1.00  0.00     0.018 A 
ATOM    100  C   UNL     1      14.805   3.188  -5.317  1.00  0.00     0.015 A 
ATOM    101  C   UNL     1      13.501   2.600  -7.274  1.00  0.00     0.015 A 
ATOM    102  C   UNL     1      15.336   1.897  -5.287  1.00  0.00     0.048 A 
ATOM    103  C   UNL     1      14.033   1.308  -7.235  1.00  0.00     0.048 A 
ATOM    104  C   UNL     1      14.969   0.958  -6.256  1.00  0.00     0.127 A 
BRANCH 104 105
ATOM    105  O   UNL     1      15.572  -0.276  -6.130  1.00  0.00    -0.457 OA
BRANCH 105 106
ATOM    106  C   UNL     1      15.413  -1.191  -7.142  1.00  0.00     0.127 A 
ATOM    107  C   UNL     1      14.742  -2.376  -6.845  1.00  0.00     0.047 A 
ATOM    108  C   UNL     1      15.954  -0.980  -8.413  1.00  0.00     0.047 A 
ATOM    109  C   UNL     1      14.557  -3.332  -7.843  1.00  0.00     0.004 A 
ATOM    110  C   UNL     1      15.757  -1.934  -9.411  1.00  0.00     0.004 A 
ATOM    111  C   UNL     1      15.054  -3.106  -9.127  1.00  0.00     0.000 A 
ENDBRANCH 105 106
ENDBRANCH 104 105
ENDBRANCH  97  99
ENDBRANCH  95  97
ENDBRANCH  89  90
ENDBRANCH  85  89
ENDBRANCH  80  83
ENDBRANCH  78  79
ENDBRANCH   1  78
TORSDOF 22
