REMARK SMILES C#CC[NH2+]CC(=O)N1CC[C@](CCC)(C(=O)NCCCCCCNC(=O)c2ccc(-c3c4nc(c(-c5c(F)cc(S(=O)(=O)[O-])cc5F)c5ccc([nH]5)c(-c5c(F)cc(S(=O)(=O)[O-])cc5F)c5nc(c(-c6c(F)cc(S(=O)(=O)[O-])cc6F)c6ccc3[nH]6)C=C5)C=C4)cc2)C1
REMARK SMILES IDX 19 1 18 2 17 3 15 4 16 5 11 7 8 8 9 9 93 10 10 11 6 12 7 13
REMARK SMILES IDX 5 14 4 15 3 18 2 19 1 20 12 21 13 22 14 23 20 24 21 25 22 26
REMARK SMILES IDX 23 27 24 28 25 29 26 31 27 32 28 33 92 34 29 35 91 36 30 37
REMARK SMILES IDX 31 38 32 39 85 40 33 41 90 42 84 43 86 44 34 45 89 46 83 47
REMARK SMILES IDX 82 48 35 50 69 51 48 52 68 53 49 54 52 55 67 56 87 57 50 58
REMARK SMILES IDX 51 59 66 61 88 62 53 63 36 64 37 65 46 66 38 67 39 68 45 69
REMARK SMILES IDX 47 70 40 71 41 72 42 73 43 74 44 75 70 76 71 77 80 78 72 79
REMARK SMILES IDX 73 80 79 81 81 82 74 83 75 84 76 85 77 86 78 87 54 88 55 89
REMARK SMILES IDX 64 90 56 91 57 92 63 93 65 94 58 95 59 96 60 97 61 98 62 99
REMARK H PARENT 17 6 4 16 4 17 24 30 86 49 52 60
REMARK Flexibility Score: inf
ROOT
ATOM      1  C   UNL     1      -3.333   8.153  -0.152  1.00  0.00     0.021 C 
ENDROOT
BRANCH   1   2
ATOM      2  C   UNL     1      -3.482   6.677   0.136  1.00  0.00     0.116 C 
BRANCH   2   3
ATOM      3  N   UNL     1      -4.874   6.253   0.167  1.00  0.00    -0.356 N 
ATOM      4  C   UNL     1      -5.483   5.154  -0.375  1.00  0.00     0.228 C 
ATOM      5  O   UNL     1      -6.698   5.030  -0.223  1.00  0.00    -0.274 OA
ATOM      6  H   UNL     1      -5.477   6.857   0.658  1.00  0.00     0.163 HD
BRANCH   4   7
ATOM      7  C   UNL     1      -4.646   4.118  -1.122  1.00  0.00     0.068 C 
ATOM      8  N   UNL     1      -4.391   1.729  -0.823  1.00  0.00    -0.337 N 
ATOM      9  C   UNL     1      -3.149   2.408  -0.545  1.00  0.00     0.121 C 
ATOM     10  C   UNL     1      -5.384   2.746  -1.166  1.00  0.00     0.136 C 
ATOM     11  C   UNL     1      -3.484   3.795  -0.190  1.00  0.00     0.040 C 
BRANCH   8  12
ATOM     12  C   UNL     1      -4.533   0.399  -1.229  1.00  0.00     0.277 C 
ATOM     13  O   UNL     1      -5.151   0.113  -2.259  1.00  0.00    -0.268 OA
BRANCH  12  14
ATOM     14  C   UNL     1      -4.078  -0.750  -0.265  1.00  0.00     0.362 C 
BRANCH  14  15
ATOM     15  N   UNL     1      -2.640  -1.140  -0.290  1.00  0.00    -0.328 N 
ATOM     16  H   UNL     1      -2.452  -1.846   0.421  1.00  0.00     0.347 HD
ATOM     17  H   UNL     1      -2.375  -1.540  -1.190  1.00  0.00     0.347 HD
BRANCH  15  18
ATOM     18  C   UNL     1      -1.901   0.063  -0.009  1.00  0.00     0.352 C 
BRANCH  18  19
ATOM     19  C   UNL     1      -0.381   0.063  -0.009  1.00  0.00    -0.047 C 
ATOM     20  C   UNL     1       0.922   0.063  -0.009  1.00  0.00     0.010 C 
ENDBRANCH  18  19
ENDBRANCH  15  18
ENDBRANCH  14  15
ENDBRANCH  12  14
ENDBRANCH   8  12
BRANCH   7  21
ATOM     21  C   UNL     1      -4.163   4.678  -2.490  1.00  0.00     0.018 C 
BRANCH  21  22
ATOM     22  C   UNL     1      -3.949   3.743  -3.689  1.00  0.00    -0.002 C 
ATOM     23  C   UNL     1      -5.183   3.553  -4.557  1.00  0.00     0.004 C 
ENDBRANCH  21  22
ENDBRANCH   7  21
ENDBRANCH   4   7
ENDBRANCH   2   3
ENDBRANCH   1   2
BRANCH   1  24
ATOM     24  C   UNL     1      -3.892   9.039   0.952  1.00  0.00     0.002 C 
BRANCH  24  25
ATOM     25  C   UNL     1      -3.267   8.807   2.331  1.00  0.00     0.002 C 
BRANCH  25  26
ATOM     26  C   UNL     1      -1.742   8.928   2.384  1.00  0.00     0.021 C 
BRANCH  26  27
ATOM     27  C   UNL     1      -1.180  10.191   1.742  1.00  0.00     0.116 C 
BRANCH  27  28
ATOM     28  N   UNL     1      -1.789  11.393   2.281  1.00  0.00    -0.352 N 
ATOM     29  C   UNL     1      -1.194  12.540   2.735  1.00  0.00     0.251 C 
ATOM     30  H   UNL     1      -2.773  11.382   2.326  1.00  0.00     0.163 HD
ATOM     31  O   UNL     1      -1.858  13.381   3.327  1.00  0.00    -0.269 OA
BRANCH  29  32
ATOM     32  C   UNL     1       0.254  12.739   2.523  1.00  0.00     0.039 A 
ATOM     33  C   UNL     1       1.025  13.218   3.584  1.00  0.00     0.014 A 
ATOM     34  C   UNL     1       0.846  12.458   1.288  1.00  0.00     0.014 A 
ATOM     35  C   UNL     1       2.400  13.375   3.417  1.00  0.00     0.010 A 
ATOM     36  C   UNL     1       2.228  12.541   1.149  1.00  0.00     0.010 A 
ATOM     37  C   UNL     1       3.017  13.012   2.207  1.00  0.00    -0.014 A 
BRANCH  37  38
ATOM     38  C   UNL     1       4.486  13.132   2.038  1.00  0.00     0.031 A 
ATOM     39  C   UNL     1       5.056  14.079   1.016  1.00  0.00     0.074 A 
ATOM     40  C   UNL     1       5.304  12.356   2.776  1.00  0.00     0.049 A 
ATOM     41  N   UNL     1       6.306  14.300   0.704  1.00  0.00    -0.248 NA
ATOM     42  C   UNL     1       4.093  14.861   0.223  1.00  0.00     0.031 C 
ATOM     43  C   UNL     1       4.866  11.363   3.761  1.00  0.00     0.029 A 
ATOM     44  N   UNL     1       6.673  12.275   2.812  1.00  0.00    -0.354 N 
ATOM     45  C   UNL     1       6.281  15.236  -0.323  1.00  0.00     0.074 A 
ATOM     46  C   UNL     1       4.891  15.496  -0.624  1.00  0.00     0.031 C 
ATOM     47  C   UNL     1       5.945  10.796   4.324  1.00  0.00     0.029 A 
ATOM     48  C   UNL     1       7.149  11.354   3.714  1.00  0.00     0.049 A 
ATOM     49  H   UNL     1       7.260  12.826   2.244  1.00  0.00     0.167 HD
ATOM     50  C   UNL     1       7.323  15.843  -0.941  1.00  0.00     0.037 A 
ATOM     51  C   UNL     1       8.412  10.995   4.014  1.00  0.00     0.037 A 
ATOM     52  C   UNL     1       8.704  15.593  -0.621  1.00  0.00     0.049 A 
ATOM     53  C   UNL     1       9.552  11.684   3.313  1.00  0.00     0.074 A 
ATOM     54  C   UNL     1       9.832  16.194  -1.150  1.00  0.00     0.029 A 
ATOM     55  N   UNL     1       9.147  14.663   0.310  1.00  0.00    -0.354 N 
ATOM     56  N   UNL     1       9.510  12.616   2.390  1.00  0.00    -0.248 NA
ATOM     57  C   UNL     1      10.909  11.280   3.701  1.00  0.00     0.031 C 
ATOM     58  C   UNL     1      10.958  15.593  -0.577  1.00  0.00     0.029 A 
ATOM     59  C   UNL     1      10.532  14.658   0.353  1.00  0.00     0.049 A 
ATOM     60  H   UNL     1       8.563  14.091   0.858  1.00  0.00     0.167 HD
ATOM     61  C   UNL     1      10.835  12.931   2.108  1.00  0.00     0.074 A 
ATOM     62  C   UNL     1      11.652  12.100   2.970  1.00  0.00     0.031 C 
ATOM     63  C   UNL     1      11.331  13.826   1.219  1.00  0.00     0.037 A 
BRANCH  50  64
ATOM     64  C   UNL     1       7.008  16.839  -2.026  1.00  0.00     0.058 A 
ATOM     65  C   UNL     1       6.409  18.078  -1.741  1.00  0.00     0.135 A 
ATOM     66  C   UNL     1       7.341  16.568  -3.363  1.00  0.00     0.135 A 
ATOM     67  F   UNL     1       6.054  18.385  -0.483  1.00  0.00    -0.206 F 
ATOM     68  C   UNL     1       6.125  18.997  -2.746  1.00  0.00     0.059 A 
ATOM     69  C   UNL     1       7.095  17.486  -4.380  1.00  0.00     0.059 A 
ATOM     70  F   UNL     1       7.914  15.399  -3.693  1.00  0.00    -0.206 F 
ATOM     71  C   UNL     1       6.472  18.692  -4.062  1.00  0.00     0.060 A 
BRANCH  71  72
ATOM     72  S   UNL     1       6.102  19.900  -5.352  1.00  0.00     0.124 S 
ATOM     73  O   UNL     1       4.649  19.795  -5.440  1.00  0.00    -0.237 OA
ATOM     74  O   UNL     1       6.614  21.139  -4.775  1.00  0.00    -0.237 OA
ATOM     75  O   UNL     1       6.838  19.399  -6.509  1.00  0.00    -0.744 OA
ENDBRANCH  71  72
ENDBRANCH  50  64
BRANCH  51  76
ATOM     76  C   UNL     1       8.664   9.950   5.042  1.00  0.00     0.058 A 
ATOM     77  C   UNL     1       9.237  10.275   6.280  1.00  0.00     0.135 A 
ATOM     78  C   UNL     1       8.325   8.607   4.812  1.00  0.00     0.135 A 
ATOM     79  F   UNL     1       9.582  11.544   6.547  1.00  0.00    -0.206 F 
ATOM     80  C   UNL     1       9.485   9.305   7.247  1.00  0.00     0.059 A 
ATOM     81  C   UNL     1       8.537   7.624   5.773  1.00  0.00     0.059 A 
ATOM     82  F   UNL     1       7.756   8.246   3.651  1.00  0.00    -0.206 F 
ATOM     83  C   UNL     1       9.128   7.982   6.984  1.00  0.00     0.060 A 
BRANCH  83  84
ATOM     84  S   UNL     1       9.412   6.738   8.262  1.00  0.00     0.124 S 
ATOM     85  O   UNL     1      10.863   6.605   8.225  1.00  0.00    -0.237 OA
ATOM     86  O   UNL     1       8.859   7.387   9.447  1.00  0.00    -0.237 OA
ATOM     87  O   UNL     1       8.659   5.584   7.780  1.00  0.00    -0.744 OA
ENDBRANCH  83  84
ENDBRANCH  51  76
BRANCH  63  88
ATOM     88  C   UNL     1      12.827  13.983   1.158  1.00  0.00     0.058 A 
ATOM     89  C   UNL     1      13.656  12.984   0.624  1.00  0.00     0.135 A 
ATOM     90  C   UNL     1      13.435  15.166   1.611  1.00  0.00     0.135 A 
ATOM     91  F   UNL     1      13.128  11.832   0.181  1.00  0.00    -0.206 F 
ATOM     92  C   UNL     1      15.038  13.137   0.574  1.00  0.00     0.059 A 
ATOM     93  C   UNL     1      14.811  15.354   1.540  1.00  0.00     0.059 A 
ATOM     94  F   UNL     1      12.688  16.159   2.119  1.00  0.00    -0.206 F 
ATOM     95  C   UNL     1      15.606  14.326   1.035  1.00  0.00     0.060 A 
BRANCH  95  96
ATOM     96  S   UNL     1      17.399  14.518   0.951  1.00  0.00     0.124 S 
ATOM     97  O   UNL     1      17.840  13.633   2.024  1.00  0.00    -0.237 OA
ATOM     98  O   UNL     1      17.698  14.068  -0.405  1.00  0.00    -0.237 OA
ATOM     99  O   UNL     1      17.600  15.944   1.190  1.00  0.00    -0.744 OA
ENDBRANCH  95  96
ENDBRANCH  63  88
ENDBRANCH  37  38
ENDBRANCH  29  32
ENDBRANCH  27  28
ENDBRANCH  26  27
ENDBRANCH  25  26
ENDBRANCH  24  25
ENDBRANCH   1  24
TORSDOF 23
