REMARK SMILES Cc1cc(C(=O)NC2(CC(=O)NCCCCCCNC(=O)c3ccc(-c4c5nc(c(-c6c(F)cc(S(=O)(=O)[O-])cc6F)c6ccc([nH]6)c(-c6c(F)cc(S(=O)(=O)[O-])cc6F)c6nc(c(-c7c(F)cc(S(=O)(=O)[O-])cc7F)c7ccc4[nH]7)C=C6)C=C5)cc3)CCC2)sc1C
REMARK SMILES IDX 15 1 14 2 13 3 12 4 10 5 11 6 9 8 8 9 88 10 90 11 89 12 7 13
REMARK SMILES IDX 5 14 6 15 4 17 1 18 2 19 3 20 92 21 91 22 93 23 16 24 17 25
REMARK SMILES IDX 18 26 19 27 20 28 21 30 22 31 23 32 87 33 24 34 86 35 25 36
REMARK SMILES IDX 26 37 27 38 80 39 28 40 85 41 79 42 81 43 29 44 84 45 78 46
REMARK SMILES IDX 77 47 30 49 64 50 43 51 63 52 44 53 47 54 62 55 82 56 45 57
REMARK SMILES IDX 46 58 61 60 83 61 48 62 31 63 32 64 41 65 33 66 34 67 40 68
REMARK SMILES IDX 42 69 35 70 36 71 37 72 38 73 39 74 65 75 66 76 75 77 67 78
REMARK SMILES IDX 68 79 74 80 76 81 69 82 70 83 71 84 72 85 73 86 49 87 50 88
REMARK SMILES IDX 59 89 51 90 52 91 58 92 60 93 53 94 54 95 55 96 56 97 57 98
REMARK H PARENT 12 7 7 16 19 29 81 48 47 59
REMARK Flexibility Score: inf
ROOT
ATOM      1  C   UNL     1       7.208  -1.733   3.979  1.00  0.00     0.002 C 
ENDROOT
BRANCH   1   2
ATOM      2  C   UNL     1       6.470  -0.931   2.904  1.00  0.00     0.021 C 
BRANCH   2   3
ATOM      3  C   UNL     1       7.175  -0.926   1.544  1.00  0.00     0.116 C 
BRANCH   3   4
ATOM      4  N   UNL     1       6.852  -2.135   0.816  1.00  0.00    -0.356 N 
ATOM      5  C   UNL     1       5.915  -2.323  -0.149  1.00  0.00     0.222 C 
ATOM      6  O   UNL     1       5.592  -3.477  -0.440  1.00  0.00    -0.275 OA
ATOM      7  H   UNL     1       7.384  -2.929   1.052  1.00  0.00     0.163 HD
BRANCH   5   8
ATOM      8  C   UNL     1       5.275  -1.151  -0.857  1.00  0.00     0.128 C 
BRANCH   8   9
ATOM      9  C   UNL     1       3.892  -0.695  -0.332  1.00  0.00     0.049 C 
ATOM     10  C   UNL     1       3.336   0.403  -1.276  1.00  0.00     0.029 C 
ATOM     11  C   UNL     1       3.962   0.363   0.796  1.00  0.00     0.029 C 
ATOM     12  C   UNL     1       3.784   1.468  -0.257  1.00  0.00     0.005 C 
BRANCH   9  13
ATOM     13  N   UNL     1       3.031  -1.875  -0.068  1.00  0.00    -0.345 N 
ATOM     14  C   UNL     1       1.692  -2.159   0.125  1.00  0.00     0.261 C 
ATOM     15  O   UNL     1       1.453  -3.372   0.212  1.00  0.00    -0.268 OA
ATOM     16  H   UNL     1       3.572  -2.696  -0.016  1.00  0.00     0.164 HD
BRANCH  14  17
ATOM     17  C   UNL     1       0.597  -1.200   0.164  1.00  0.00     0.092 A 
ATOM     18  C   UNL     1      -3.067  -0.427  -0.357  1.00  0.00     0.045 C 
ATOM     19  C   UNL     1      -1.605  -0.360  -0.073  1.00  0.00    -0.037 A 
ATOM     20  C   UNL     1      -0.728  -1.496  -0.129  1.00  0.00     0.029 A 
ATOM     21  C   UNL     1      -0.890   0.778   0.250  1.00  0.00     0.005 A 
ATOM     22  S   UNL     1       0.679   0.382   0.771  1.00  0.00    -0.135 S 
ATOM     23  C   UNL     1      -1.322   2.206   0.258  1.00  0.00     0.056 C 
ENDBRANCH  14  17
ENDBRANCH   9  13
ENDBRANCH   8   9
ENDBRANCH   5   8
ENDBRANCH   3   4
ENDBRANCH   2   3
ENDBRANCH   1   2
BRANCH   1  24
ATOM     24  C   UNL     1       8.612  -1.214   4.308  1.00  0.00     0.002 C 
BRANCH  24  25
ATOM     25  C   UNL     1       8.690   0.279   4.641  1.00  0.00     0.021 C 
BRANCH  25  26
ATOM     26  C   UNL     1       7.821   0.711   5.819  1.00  0.00     0.116 C 
BRANCH  26  27
ATOM     27  N   UNL     1       8.214   0.038   7.046  1.00  0.00    -0.352 N 
ATOM     28  C   UNL     1       8.699   0.569   8.214  1.00  0.00     0.251 C 
ATOM     29  H   UNL     1       8.117  -0.942   7.037  1.00  0.00     0.163 HD
ATOM     30  O   UNL     1       9.222  -0.164   9.047  1.00  0.00    -0.269 OA
BRANCH  28  31
ATOM     31  C   UNL     1       8.597   2.023   8.462  1.00  0.00     0.039 A 
ATOM     32  C   UNL     1       9.694   2.696   9.003  1.00  0.00     0.014 A 
ATOM     33  C   UNL     1       7.411   2.714   8.191  1.00  0.00     0.014 A 
ATOM     34  C   UNL     1       9.620   4.072   9.226  1.00  0.00     0.010 A 
ATOM     35  C   UNL     1       7.362   4.097   8.351  1.00  0.00     0.010 A 
ATOM     36  C   UNL     1       8.462   4.788   8.877  1.00  0.00    -0.014 A 
BRANCH  36  37
ATOM     37  C   UNL     1       8.392   6.261   9.057  1.00  0.00     0.031 A 
ATOM     38  C   UNL     1       7.417   6.862  10.032  1.00  0.00     0.074 A 
ATOM     39  C   UNL     1       9.173   7.057   8.300  1.00  0.00     0.049 A 
ATOM     40  N   UNL     1       7.188   8.123  10.297  1.00  0.00    -0.248 NA
ATOM     41  C   UNL     1       6.570   5.927  10.789  1.00  0.00     0.031 C 
ATOM     42  C   UNL     1      10.118   6.593   7.282  1.00  0.00     0.029 A 
ATOM     43  N   UNL     1       9.292   8.424   8.264  1.00  0.00    -0.354 N 
ATOM     44  C   UNL     1       6.167   8.133  11.241  1.00  0.00     0.074 A 
ATOM     45  C   UNL     1       5.785   6.755  11.463  1.00  0.00     0.031 C 
ATOM     46  C   UNL     1      10.736   7.654   6.739  1.00  0.00     0.029 A 
ATOM     47  C   UNL     1      10.210   8.873   7.345  1.00  0.00     0.049 A 
ATOM     48  H   UNL     1       8.769   9.025   8.841  1.00  0.00     0.167 HD
ATOM     49  C   UNL     1       5.615   9.192  11.881  1.00  0.00     0.037 A 
ATOM     50  C   UNL     1      10.586  10.127   7.024  1.00  0.00     0.037 A 
ATOM     51  C   UNL     1       6.019  10.558  11.672  1.00  0.00     0.049 A 
ATOM     52  C   UNL     1       9.969  11.286   7.759  1.00  0.00     0.074 A 
ATOM     53  C   UNL     1       5.564  11.697  12.314  1.00  0.00     0.029 A 
ATOM     54  N   UNL     1       6.971  10.972  10.752  1.00  0.00    -0.354 N 
ATOM     55  N   UNL     1       9.053  11.272   8.697  1.00  0.00    -0.248 NA
ATOM     56  C   UNL     1      10.444  12.629   7.399  1.00  0.00     0.031 C 
ATOM     57  C   UNL     1       6.212  12.803  11.754  1.00  0.00     0.029 A 
ATOM     58  C   UNL     1       7.105  12.350  10.796  1.00  0.00     0.049 A 
ATOM     59  H   UNL     1       7.477  10.374  10.156  1.00  0.00     0.167 HD
ATOM     60  C   UNL     1       8.860  12.601   9.059  1.00  0.00     0.074 A 
ATOM     61  C   UNL     1       9.763  13.390   8.246  1.00  0.00     0.031 C 
ATOM     62  C   UNL     1       8.014  13.120   9.983  1.00  0.00     0.037 A 
BRANCH  49  63
ATOM     63  C   UNL     1       4.518   8.913  12.872  1.00  0.00     0.058 A 
ATOM     64  C   UNL     1       4.778   8.286  14.102  1.00  0.00     0.135 A 
ATOM     65  C   UNL     1       3.196   9.306  12.606  1.00  0.00     0.135 A 
ATOM     66  F   UNL     1       6.021   7.877  14.402  1.00  0.00    -0.206 F 
ATOM     67  C   UNL     1       3.763   8.030  15.018  1.00  0.00     0.059 A 
ATOM     68  C   UNL     1       2.170   9.085  13.520  1.00  0.00     0.059 A 
ATOM     69  F   UNL     1       2.891   9.909  11.447  1.00  0.00    -0.206 F 
ATOM     70  C   UNL     1       2.461   8.431  14.717  1.00  0.00     0.060 A 
BRANCH  70  71
ATOM     71  S   UNL     1       1.155   8.093  15.916  1.00  0.00     0.124 S 
ATOM     72  O   UNL     1       0.976   6.653  15.752  1.00  0.00    -0.237 OA
ATOM     73  O   UNL     1       1.766   8.515  17.172  1.00  0.00    -0.237 OA
ATOM     74  O   UNL     1       0.045   8.920  15.454  1.00  0.00    -0.744 OA
ENDBRANCH  70  71
ENDBRANCH  49  63
BRANCH  50  75
ATOM     75  C   UNL     1      11.620  10.345   5.979  1.00  0.00     0.058 A 
ATOM     76  C   UNL     1      12.908  10.783   6.320  1.00  0.00     0.135 A 
ATOM     77  C   UNL     1      11.350  10.097   4.625  1.00  0.00     0.135 A 
ATOM     78  F   UNL     1      13.213  11.038   7.601  1.00  0.00    -0.206 F 
ATOM     79  C   UNL     1      13.889  10.982   5.354  1.00  0.00     0.059 A 
ATOM     80  C   UNL     1      12.322  10.265   3.643  1.00  0.00     0.059 A 
ATOM     81  F   UNL     1      10.139   9.657   4.249  1.00  0.00    -0.206 F 
ATOM     82  C   UNL     1      13.587  10.718   4.017  1.00  0.00     0.060 A 
BRANCH  82  83
ATOM     83  S   UNL     1      14.883  10.926   2.777  1.00  0.00     0.124 S 
ATOM     84  O   UNL     1      14.959  12.379   2.674  1.00  0.00    -0.237 OA
ATOM     85  O   UNL     1      16.022  10.269   3.410  1.00  0.00    -0.237 OA
ATOM     86  O   UNL     1      14.342  10.236   1.609  1.00  0.00    -0.744 OA
ENDBRANCH  82  83
ENDBRANCH  50  75
BRANCH  62  87
ATOM     87  C   UNL     1       8.045  14.609  10.189  1.00  0.00     0.058 A 
ATOM     88  C   UNL     1       7.501  15.495   9.247  1.00  0.00     0.135 A 
ATOM     89  C   UNL     1       8.582  15.151  11.368  1.00  0.00     0.135 A 
ATOM     90  F   UNL     1       6.982  15.029   8.100  1.00  0.00    -0.206 F 
ATOM     91  C   UNL     1       7.509  16.871   9.456  1.00  0.00     0.059 A 
ATOM     92  C   UNL     1       8.576  16.521  11.610  1.00  0.00     0.059 A 
ATOM     93  F   UNL     1       9.105  14.345  12.306  1.00  0.00    -0.206 F 
ATOM     94  C   UNL     1       8.048  17.374  10.642  1.00  0.00     0.060 A 
BRANCH  94  95
ATOM     95  S   UNL     1       8.022  19.158  10.917  1.00  0.00     0.124 S 
ATOM     96  O   UNL     1       9.088  19.607  10.028  1.00  0.00    -0.237 OA
ATOM     97  O   UNL     1       6.666  19.518  10.514  1.00  0.00    -0.237 OA
ATOM     98  O   UNL     1       8.299  19.285  12.345  1.00  0.00    -0.744 OA
ENDBRANCH  94  95
ENDBRANCH  62  87
ENDBRANCH  36  37
ENDBRANCH  28  31
ENDBRANCH  26  27
ENDBRANCH  25  26
ENDBRANCH  24  25
ENDBRANCH   1  24
TORSDOF 19
