REMARK SMILES C[NH2+][C@@]1(C(=O)NCCCCCCNC(=O)c2ccc(-c3c4nc(c(-c5c(F)cc(S(=O)(=O)[O-])cc5F)c5ccc([nH]5)c(-c5c(F)cc(S(=O)(=O)[O-])cc5F)c5nc(c(-c6c(F)cc(S(=O)(=O)[O-])cc6F)c6ccc3[nH]6)C=C5)C=C4)cc2)CCC[C@H](n2cc(I)cn2)C1
REMARK SMILES IDX 10 1 9 2 8 3 7 4 6 5 4 6 5 7 3 9 82 10 92 11 83 12 85 13
REMARK SMILES IDX 84 14 2 15 1 16 86 19 87 20 91 21 88 22 90 23 89 24 11 25
REMARK SMILES IDX 12 26 13 27 14 28 15 30 16 31 17 32 81 33 18 34 80 35 19 36
REMARK SMILES IDX 20 37 21 38 74 39 22 40 79 41 73 42 75 43 23 44 78 45 72 46
REMARK SMILES IDX 71 47 24 49 58 50 37 51 57 52 38 53 41 54 56 55 76 56 39 57
REMARK SMILES IDX 40 58 55 60 77 61 42 62 25 63 26 64 35 65 27 66 28 67 34 68
REMARK SMILES IDX 36 69 29 70 30 71 31 72 32 73 33 74 59 75 60 76 69 77 61 78
REMARK SMILES IDX 62 79 68 80 70 81 63 82 64 83 65 84 66 85 67 86 43 87 44 88
REMARK SMILES IDX 53 89 45 90 46 91 52 92 54 93 47 94 48 95 49 96 50 97 51 98
REMARK H PARENT 6 8 2 17 2 18 13 29 75 48 41 59
REMARK Flexibility Score: inf
ROOT
ATOM      1  C   UNL     1      -7.095  -1.411  -3.670  1.00  0.00     0.002 C 
ENDROOT
BRANCH   1   2
ATOM      2  C   UNL     1      -5.792  -0.606  -3.679  1.00  0.00     0.002 C 
BRANCH   2   3
ATOM      3  C   UNL     1      -4.932  -0.821  -2.432  1.00  0.00     0.021 C 
BRANCH   3   4
ATOM      4  C   UNL     1      -3.720  -1.730  -2.619  1.00  0.00     0.116 C 
BRANCH   4   5
ATOM      5  N   UNL     1      -2.567  -1.063  -3.202  1.00  0.00    -0.351 N 
ATOM      6  C   UNL     1      -1.349  -0.636  -2.773  1.00  0.00     0.281 C 
ATOM      7  O   UNL     1      -0.543  -0.404  -3.697  1.00  0.00    -0.268 OA
ATOM      8  H   UNL     1      -2.704  -0.869  -4.158  1.00  0.00     0.163 HD
BRANCH   6   9
ATOM      9  C   UNL     1      -0.857  -0.394  -1.268  1.00  0.00     0.177 C 
ATOM     10  C   UNL     1      -1.490  -1.324  -0.235  1.00  0.00     0.079 C 
ATOM     11  C   UNL     1      -0.989   1.073  -0.797  1.00  0.00     0.106 C 
ATOM     12  C   UNL     1      -2.743  -0.799   0.477  1.00  0.00     0.009 C 
ATOM     13  C   UNL     1      -2.420   1.590  -0.655  1.00  0.00     0.114 C 
ATOM     14  C   UNL     1      -3.268   0.623   0.200  1.00  0.00     0.028 C 
BRANCH   9  15
ATOM     15  N   UNL     1       0.613  -0.764  -1.343  1.00  0.00    -0.336 N 
ATOM     16  C   UNL     1       1.502  -0.210  -0.331  1.00  0.00     0.331 C 
ATOM     17  H   UNL     1       0.675  -1.780  -1.281  1.00  0.00     0.346 HD
ATOM     18  H   UNL     1       0.937  -0.358  -2.221  1.00  0.00     0.346 HD
ENDBRANCH   9  15
BRANCH  13  19
ATOM     19  N   UNL     1      -2.991   2.064  -1.919  1.00  0.00    -0.268 N 
ATOM     20  C   UNL     1      -4.183   2.717  -2.124  1.00  0.00     0.123 A 
ATOM     21  N   UNL     1      -2.236   2.042  -3.037  1.00  0.00    -0.180 NA
ATOM     22  C   UNL     1      -4.238   2.965  -3.475  1.00  0.00     0.051 A 
ATOM     23  C   UNL     1      -3.027   2.514  -3.998  1.00  0.00     0.149 A 
ATOM     24  I   UNL     1      -5.750   3.812  -4.491  1.00  0.00    -0.041 I 
ENDBRANCH  13  19
ENDBRANCH   6   9
ENDBRANCH   4   5
ENDBRANCH   3   4
ENDBRANCH   2   3
ENDBRANCH   1   2
BRANCH   1  25
ATOM     25  C   UNL     1      -8.063  -1.092  -2.520  1.00  0.00     0.021 C 
BRANCH  25  26
ATOM     26  C   UNL     1      -8.447   0.380  -2.386  1.00  0.00     0.116 C 
BRANCH  26  27
ATOM     27  N   UNL     1      -9.202   0.844  -3.541  1.00  0.00    -0.352 N 
ATOM     28  C   UNL     1     -10.556   1.048  -3.651  1.00  0.00     0.251 C 
ATOM     29  H   UNL     1      -8.673   1.036  -4.349  1.00  0.00     0.163 HD
ATOM     30  O   UNL     1     -11.085   1.154  -4.755  1.00  0.00    -0.269 OA
BRANCH  28  31
ATOM     31  C   UNL     1     -11.371   1.130  -2.423  1.00  0.00     0.039 A 
ATOM     32  C   UNL     1     -12.525   0.354  -2.303  1.00  0.00     0.014 A 
ATOM     33  C   UNL     1     -10.970   1.969  -1.379  1.00  0.00     0.014 A 
ATOM     34  C   UNL     1     -13.244   0.372  -1.105  1.00  0.00     0.010 A 
ATOM     35  C   UNL     1     -11.643   1.926  -0.162  1.00  0.00     0.010 A 
ATOM     36  C   UNL     1     -12.790   1.132  -0.013  1.00  0.00    -0.014 A 
BRANCH  36  37
ATOM     37  C   UNL     1     -13.504   1.115   1.291  1.00  0.00     0.031 A 
ATOM     38  C   UNL     1     -14.113   2.382   1.831  1.00  0.00     0.074 A 
ATOM     39  C   UNL     1     -13.549  -0.021   2.015  1.00  0.00     0.049 A 
ATOM     40  N   UNL     1     -14.721   2.585   2.972  1.00  0.00    -0.248 NA
ATOM     41  C   UNL     1     -13.999   3.586   0.992  1.00  0.00     0.031 C 
ATOM     42  C   UNL     1     -12.950  -1.299   1.623  1.00  0.00     0.029 A 
ATOM     43  N   UNL     1     -14.117  -0.285   3.237  1.00  0.00    -0.354 N 
ATOM     44  C   UNL     1     -15.050   3.935   2.991  1.00  0.00     0.074 A 
ATOM     45  C   UNL     1     -14.518   4.516   1.779  1.00  0.00     0.031 C 
ATOM     46  C   UNL     1     -13.205  -2.215   2.571  1.00  0.00     0.029 A 
ATOM     47  C   UNL     1     -13.949  -1.584   3.657  1.00  0.00     0.049 A 
ATOM     48  H   UNL     1     -14.599   0.393   3.764  1.00  0.00     0.167 HD
ATOM     49  C   UNL     1     -15.754   4.623   3.921  1.00  0.00     0.037 A 
ATOM     50  C   UNL     1     -14.343  -2.196   4.791  1.00  0.00     0.037 A 
ATOM     51  C   UNL     1     -16.299   4.031   5.115  1.00  0.00     0.049 A 
ATOM     52  C   UNL     1     -15.119  -1.409   5.814  1.00  0.00     0.074 A 
ATOM     53  C   UNL     1     -17.076   4.627   6.093  1.00  0.00     0.029 A 
ATOM     54  N   UNL     1     -16.123   2.708   5.497  1.00  0.00    -0.354 N 
ATOM     55  N   UNL     1     -15.480  -0.148   5.783  1.00  0.00    -0.248 NA
ATOM     56  C   UNL     1     -15.549  -2.129   7.020  1.00  0.00     0.031 C 
ATOM     57  C   UNL     1     -17.325   3.680   7.091  1.00  0.00     0.029 A 
ATOM     58  C   UNL     1     -16.755   2.476   6.707  1.00  0.00     0.049 A 
ATOM     59  H   UNL     1     -15.622   2.035   4.982  1.00  0.00     0.167 HD
ATOM     60  C   UNL     1     -16.205   0.069   6.951  1.00  0.00     0.074 A 
ATOM     61  C   UNL     1     -16.241  -1.195   7.658  1.00  0.00     0.031 C 
ATOM     62  C   UNL     1     -16.789   1.209   7.396  1.00  0.00     0.037 A 
BRANCH  49  63
ATOM     63  C   UNL     1     -15.981   6.092   3.682  1.00  0.00     0.058 A 
ATOM     64  C   UNL     1     -16.816   6.552   2.650  1.00  0.00     0.135 A 
ATOM     65  C   UNL     1     -15.383   7.053   4.514  1.00  0.00     0.135 A 
ATOM     66  F   UNL     1     -17.402   5.680   1.814  1.00  0.00    -0.206 F 
ATOM     67  C   UNL     1     -17.024   7.910   2.432  1.00  0.00     0.059 A 
ATOM     68  C   UNL     1     -15.603   8.415   4.335  1.00  0.00     0.059 A 
ATOM     69  F   UNL     1     -14.575   6.671   5.516  1.00  0.00    -0.206 F 
ATOM     70  C   UNL     1     -16.414   8.835   3.281  1.00  0.00     0.060 A 
BRANCH  70  71
ATOM     71  S   UNL     1     -16.701  10.592   2.987  1.00  0.00     0.124 S 
ATOM     72  O   UNL     1     -15.931  10.813   1.767  1.00  0.00    -0.237 OA
ATOM     73  O   UNL     1     -18.152  10.650   2.840  1.00  0.00    -0.237 OA
ATOM     74  O   UNL     1     -16.169  11.230   4.188  1.00  0.00    -0.744 OA
ENDBRANCH  70  71
ENDBRANCH  49  63
BRANCH  50  75
ATOM     75  C   UNL     1     -14.030  -3.635   5.010  1.00  0.00     0.058 A 
ATOM     76  C   UNL     1     -15.043  -4.605   5.003  1.00  0.00     0.135 A 
ATOM     77  C   UNL     1     -12.712  -4.070   5.221  1.00  0.00     0.135 A 
ATOM     78  F   UNL     1     -16.320  -4.240   4.811  1.00  0.00    -0.206 F 
ATOM     79  C   UNL     1     -14.766  -5.952   5.216  1.00  0.00     0.059 A 
ATOM     80  C   UNL     1     -12.406  -5.415   5.409  1.00  0.00     0.059 A 
ATOM     81  F   UNL     1     -11.702  -3.186   5.221  1.00  0.00    -0.206 F 
ATOM     82  C   UNL     1     -13.442  -6.347   5.416  1.00  0.00     0.060 A 
BRANCH  82  83
ATOM     83  S   UNL     1     -13.088  -8.103   5.646  1.00  0.00     0.124 S 
ATOM     84  O   UNL     1     -13.617  -8.336   6.985  1.00  0.00    -0.237 OA
ATOM     85  O   UNL     1     -13.834  -8.711   4.548  1.00  0.00    -0.237 OA
ATOM     86  O   UNL     1     -11.635  -8.171   5.520  1.00  0.00    -0.744 OA
ENDBRANCH  82  83
ENDBRANCH  50  75
BRANCH  62  87
ATOM     87  C   UNL     1     -17.551   1.140   8.691  1.00  0.00     0.058 A 
ATOM     88  C   UNL     1     -16.900   1.006   9.927  1.00  0.00     0.135 A 
ATOM     89  C   UNL     1     -18.950   1.267   8.697  1.00  0.00     0.135 A 
ATOM     90  F   UNL     1     -15.565   0.875   9.978  1.00  0.00    -0.206 F 
ATOM     91  C   UNL     1     -17.612   0.976  11.122  1.00  0.00     0.059 A 
ATOM     92  C   UNL     1     -19.679   1.271   9.882  1.00  0.00     0.059 A 
ATOM     93  F   UNL     1     -19.622   1.409   7.543  1.00  0.00    -0.206 F 
ATOM     94  C   UNL     1     -19.001   1.113  11.089  1.00  0.00     0.060 A 
BRANCH  94  95
ATOM     95  S   UNL     1     -19.907   1.108  12.651  1.00  0.00     0.124 S 
ATOM     96  O   UNL     1     -19.820  -0.297  13.037  1.00  0.00    -0.237 OA
ATOM     97  O   UNL     1     -19.130   2.038  13.464  1.00  0.00    -0.237 OA
ATOM     98  O   UNL     1     -21.238   1.574  12.274  1.00  0.00    -0.744 OA
ENDBRANCH  94  95
ENDBRANCH  62  87
ENDBRANCH  36  37
ENDBRANCH  28  31
ENDBRANCH  26  27
ENDBRANCH  25  26
ENDBRANCH   1  25
TORSDOF 18
