REMARK SMILES CC[C@H]1CCCC[C@@H]1C1(C(=O)NCCCCCCNC(=O)c2ccc(-c3c4nc(c(-c5c(F)cc(S(=O)(=O)[O-])cc5F)c5ccc([nH]5)c(-c5c(F)cc(S(=O)(=O)[O-])cc5F)c5nc(c(-c6c(F)cc(S(=O)(=O)[O-])cc6F)c6ccc3[nH]6)C=C5)C=C4)cc2)CC1
REMARK SMILES IDX 16 1 15 2 14 3 13 4 12 5 10 6 11 7 9 9 88 10 89 11 8 12 3 13
REMARK SMILES IDX 4 14 5 15 7 16 6 17 2 18 1 19 17 20 18 21 19 22 20 23 21 25
REMARK SMILES IDX 22 26 23 27 87 28 24 29 86 30 25 31 26 32 27 33 80 34 28 35
REMARK SMILES IDX 85 36 79 37 81 38 29 39 84 40 78 41 77 42 30 44 64 45 43 46
REMARK SMILES IDX 63 47 44 48 47 49 62 50 82 51 45 52 46 53 61 55 83 56 48 57
REMARK SMILES IDX 31 58 32 59 41 60 33 61 34 62 40 63 42 64 35 65 36 66 37 67
REMARK SMILES IDX 38 68 39 69 65 70 66 71 75 72 67 73 68 74 74 75 76 76 69 77
REMARK SMILES IDX 70 78 71 79 72 80 73 81 49 82 50 83 59 84 51 85 52 86 58 87
REMARK SMILES IDX 60 88 53 89 54 90 55 91 56 92 57 93
REMARK H PARENT 12 8 19 24 81 43 47 54
REMARK Flexibility Score: inf
ROOT
ATOM      1  C   UNL     1       9.015  -1.709  -0.396  1.00  0.00     0.002 C 
ENDROOT
BRANCH   1   2
ATOM      2  C   UNL     1       7.920  -2.719  -0.757  1.00  0.00     0.002 C 
BRANCH   2   3
ATOM      3  C   UNL     1       6.656  -2.699   0.119  1.00  0.00     0.021 C 
BRANCH   3   4
ATOM      4  C   UNL     1       6.063  -1.312   0.365  1.00  0.00     0.116 C 
BRANCH   4   5
ATOM      5  N   UNL     1       5.743  -0.624  -0.863  1.00  0.00    -0.356 N 
ATOM      6  C   UNL     1       4.606  -0.364  -1.567  1.00  0.00     0.226 C 
ATOM      7  O   UNL     1       4.741   0.389  -2.531  1.00  0.00    -0.274 OA
ATOM      8  H   UNL     1       6.543  -0.252  -1.300  1.00  0.00     0.163 HD
BRANCH   6   9
ATOM      9  C   UNL     1       3.212  -0.910  -1.254  1.00  0.00     0.052 C 
ATOM     10  C   UNL     1       2.619  -0.330   0.037  1.00  0.00     0.018 C 
ATOM     11  C   UNL     1       2.870  -1.799  -0.071  1.00  0.00     0.018 C 
BRANCH   9  12
ATOM     12  C   UNL     1       2.343  -1.102  -2.546  1.00  0.00     0.008 C 
ATOM     13  C   UNL     1       0.789  -0.990  -2.459  1.00  0.00    -0.007 C 
ATOM     14  C   UNL     1       0.102  -2.314  -2.079  1.00  0.00     0.004 C 
ATOM     15  C   UNL     1       0.590  -3.504  -2.895  1.00  0.00     0.000 C 
ATOM     16  C   UNL     1       2.800  -2.364  -3.310  1.00  0.00     0.005 C 
ATOM     17  C   UNL     1       2.105  -3.641  -2.854  1.00  0.00     0.000 C 
BRANCH  13  18
ATOM     18  C   UNL     1       0.264  -0.434  -3.817  1.00  0.00     0.000 C 
ATOM     19  C   UNL     1      -1.249  -0.318  -3.935  1.00  0.00     0.004 C 
ENDBRANCH  13  18
ENDBRANCH   9  12
ENDBRANCH   6   9
ENDBRANCH   4   5
ENDBRANCH   3   4
ENDBRANCH   2   3
ENDBRANCH   1   2
BRANCH   1  20
ATOM     20  C   UNL     1       9.484  -1.723   1.060  1.00  0.00     0.021 C 
BRANCH  20  21
ATOM     21  C   UNL     1      10.059  -3.048   1.538  1.00  0.00     0.116 C 
BRANCH  21  22
ATOM     22  N   UNL     1      11.305  -3.382   0.868  1.00  0.00    -0.352 N 
ATOM     23  C   UNL     1      12.517  -3.719   1.419  1.00  0.00     0.251 C 
ATOM     24  H   UNL     1      11.276  -3.364  -0.116  1.00  0.00     0.163 HD
ATOM     25  O   UNL     1      13.515  -3.799   0.710  1.00  0.00    -0.269 OA
BRANCH  23  26
ATOM     26  C   UNL     1      12.618  -3.960   2.876  1.00  0.00     0.039 A 
ATOM     27  C   UNL     1      13.664  -3.369   3.590  1.00  0.00     0.014 A 
ATOM     28  C   UNL     1      11.681  -4.761   3.536  1.00  0.00     0.014 A 
ATOM     29  C   UNL     1      13.733  -3.529   4.976  1.00  0.00     0.010 A 
ATOM     30  C   UNL     1      11.713  -4.865   4.924  1.00  0.00     0.010 A 
ATOM     31  C   UNL     1      12.741  -4.252   5.657  1.00  0.00    -0.014 A 
BRANCH  31  32
ATOM     32  C   UNL     1      12.757  -4.382   7.136  1.00  0.00     0.031 A 
ATOM     33  C   UNL     1      12.946  -5.731   7.773  1.00  0.00     0.074 A 
ATOM     34  C   UNL     1      12.529  -3.298   7.904  1.00  0.00     0.049 A 
ATOM     35  N   UNL     1      12.905  -6.061   9.038  1.00  0.00    -0.248 NA
ATOM     36  C   UNL     1      13.184  -6.864   6.864  1.00  0.00     0.031 C 
ATOM     37  C   UNL     1      12.282  -1.944   7.403  1.00  0.00     0.029 A 
ATOM     38  N   UNL     1      12.450  -3.166   9.267  1.00  0.00    -0.354 N 
ATOM     39  C   UNL     1      13.092  -7.438   9.076  1.00  0.00     0.074 A 
ATOM     40  C   UNL     1      13.201  -7.887   7.705  1.00  0.00     0.031 C 
ATOM     41  C   UNL     1      12.094  -1.117   8.445  1.00  0.00     0.029 A 
ATOM     42  C   UNL     1      12.173  -1.886   9.683  1.00  0.00     0.049 A 
ATOM     43  H   UNL     1      12.581  -3.918   9.889  1.00  0.00     0.167 HD
ATOM     44  C   UNL     1      13.184  -8.250  10.156  1.00  0.00     0.037 A 
ATOM     45  C   UNL     1      11.992  -1.388  10.922  1.00  0.00     0.037 A 
ATOM     46  C   UNL     1      13.105  -7.793  11.519  1.00  0.00     0.049 A 
ATOM     47  C   UNL     1      12.112  -2.306  12.107  1.00  0.00     0.074 A 
ATOM     48  C   UNL     1      13.259  -8.524  12.683  1.00  0.00     0.029 A 
ATOM     49  N   UNL     1      12.849  -6.484  11.901  1.00  0.00    -0.354 N 
ATOM     50  N   UNL     1      12.354  -3.595  12.129  1.00  0.00    -0.248 NA
ATOM     51  C   UNL     1      11.939  -1.703  13.436  1.00  0.00     0.031 C 
ATOM     52  C   UNL     1      13.059  -7.665  13.770  1.00  0.00     0.029 A 
ATOM     53  C   UNL     1      12.819  -6.390  13.283  1.00  0.00     0.049 A 
ATOM     54  H   UNL     1      12.708  -5.732  11.281  1.00  0.00     0.167 HD
ATOM     55  C   UNL     1      12.377  -3.955  13.471  1.00  0.00     0.074 A 
ATOM     56  C   UNL     1      12.140  -2.744  14.232  1.00  0.00     0.031 C 
ATOM     57  C   UNL     1      12.577  -5.177  14.024  1.00  0.00     0.037 A 
BRANCH  44  58
ATOM     58  C   UNL     1      13.382  -9.719   9.903  1.00  0.00     0.058 A 
ATOM     59  C   UNL     1      14.598 -10.224   9.414  1.00  0.00     0.135 A 
ATOM     60  C   UNL     1      12.351 -10.635  10.165  1.00  0.00     0.135 A 
ATOM     61  F   UNL     1      15.611  -9.390   9.131  1.00  0.00    -0.206 F 
ATOM     62  C   UNL     1      14.772 -11.580   9.159  1.00  0.00     0.059 A 
ATOM     63  C   UNL     1      12.512 -11.999   9.943  1.00  0.00     0.059 A 
ATOM     64  F   UNL     1      11.169 -10.206  10.634  1.00  0.00    -0.206 F 
ATOM     65  C   UNL     1      13.721 -12.460   9.422  1.00  0.00     0.060 A 
BRANCH  65  66
ATOM     66  S   UNL     1      13.956 -14.216   9.075  1.00  0.00     0.124 S 
ATOM     67  O   UNL     1      13.845 -14.241   7.620  1.00  0.00    -0.237 OA
ATOM     68  O   UNL     1      15.289 -14.467   9.613  1.00  0.00    -0.237 OA
ATOM     69  O   UNL     1      12.861 -14.854   9.799  1.00  0.00    -0.744 OA
ENDBRANCH  65  66
ENDBRANCH  44  58
BRANCH  45  70
ATOM     70  C   UNL     1      11.700   0.058  11.100  1.00  0.00     0.058 A 
ATOM     71  C   UNL     1      12.673   0.932  11.604  1.00  0.00     0.135 A 
ATOM     72  C   UNL     1      10.456   0.599  10.739  1.00  0.00     0.135 A 
ATOM     73  F   UNL     1      13.874   0.459  11.970  1.00  0.00    -0.206 F 
ATOM     74  C   UNL     1      12.424   2.293  11.751  1.00  0.00     0.059 A 
ATOM     75  C   UNL     1      10.190   1.960  10.857  1.00  0.00     0.059 A 
ATOM     76  F   UNL     1       9.497  -0.195  10.236  1.00  0.00    -0.206 F 
ATOM     77  C   UNL     1      11.179   2.798  11.370  1.00  0.00     0.060 A 
BRANCH  77  78
ATOM     78  S   UNL     1      10.889   4.576  11.498  1.00  0.00     0.124 S 
ATOM     79  O   UNL     1      10.704   4.740  12.935  1.00  0.00    -0.237 OA
ATOM     80  O   UNL     1      12.120   5.130  10.944  1.00  0.00    -0.237 OA
ATOM     81  O   UNL     1       9.697   4.779  10.680  1.00  0.00    -0.744 OA
ENDBRANCH  77  78
ENDBRANCH  45  70
BRANCH  57  82
ATOM     82  C   UNL     1      12.560  -5.265  15.523  1.00  0.00     0.058 A 
ATOM     83  C   UNL     1      11.361  -5.194  16.248  1.00  0.00     0.135 A 
ATOM     84  C   UNL     1      13.750  -5.472  16.239  1.00  0.00     0.135 A 
ATOM     85  F   UNL     1      10.197  -4.990  15.611  1.00  0.00    -0.206 F 
ATOM     86  C   UNL     1      11.344  -5.306  17.635  1.00  0.00     0.059 A 
ATOM     87  C   UNL     1      13.754  -5.610  17.623  1.00  0.00     0.059 A 
ATOM     88  F   UNL     1      14.923  -5.556  15.591  1.00  0.00    -0.206 F 
ATOM     89  C   UNL     1      12.546  -5.514  18.314  1.00  0.00     0.060 A 
BRANCH  89  90
ATOM     90  S   UNL     1      12.508  -5.692  20.110  1.00  0.00     0.124 S 
ATOM     91  O   UNL     1      12.325  -4.309  20.538  1.00  0.00    -0.237 OA
ATOM     92  O   UNL     1      11.364  -6.576  20.314  1.00  0.00    -0.237 OA
ATOM     93  O   UNL     1      13.808  -6.279  20.420  1.00  0.00    -0.744 OA
ENDBRANCH  89  90
ENDBRANCH  57  82
ENDBRANCH  31  32
ENDBRANCH  23  26
ENDBRANCH  21  22
ENDBRANCH  20  21
ENDBRANCH   1  20
TORSDOF 18
