REMARK SMILES CN(C)S(=O)(=O)c1ccc(-n2c(CCC(=O)NCCCCCCNC(=O)c3ccc(-c4c5nc(c(-c6c(F)cc(S(=O)(=O)[O-])cc6F)c6ccc([nH]6)c(-c6c(F)cc(S(=O)(=O)[O-])cc6F)c6nc(c(-c7c(F)cc(S(=O)(=O)[O-])cc7F)c7ccc4[nH]7)C=C6)C=C5)cc3)ccc2-c2ccc(F)cc2)cc1
REMARK SMILES IDX 19 1 18 2 17 3 15 4 16 5 14 7 13 8 12 9 11 10 95 11 93 12
REMARK SMILES IDX 94 13 10 14 7 15 8 16 104 17 9 18 103 19 4 20 5 21 6 22 2 23
REMARK SMILES IDX 1 24 3 25 96 26 97 27 102 28 98 29 101 30 99 31 100 32 20 33
REMARK SMILES IDX 21 34 22 35 23 36 24 37 25 38 26 40 27 41 28 42 92 43 29 44
REMARK SMILES IDX 91 45 30 46 31 47 32 48 85 49 33 50 90 51 84 52 86 53 34 54
REMARK SMILES IDX 89 55 83 56 82 57 35 59 69 60 48 61 68 62 49 63 52 64 67 65
REMARK SMILES IDX 87 66 50 67 51 68 66 70 88 71 53 72 36 73 37 74 46 75 38 76
REMARK SMILES IDX 39 77 45 78 47 79 40 80 41 81 42 82 43 83 44 84 70 85 71 86
REMARK SMILES IDX 80 87 72 88 73 89 79 90 81 91 74 92 75 93 76 94 77 95 78 96
REMARK SMILES IDX 54 97 55 98 64 99 56 100 57 101 63 102 65 103 58 104 59 105
REMARK SMILES IDX 60 106 61 107 62 108
REMARK H PARENT 17 6 24 39 86 58 52 69
REMARK Flexibility Score: inf
ROOT
ATOM      1  C   UNL     1      -2.030  -7.514   3.563  1.00  0.00     0.021 C 
ENDROOT
BRANCH   1   2
ATOM      2  C   UNL     1      -1.465  -8.777   2.913  1.00  0.00     0.116 C 
BRANCH   2   3
ATOM      3  N   UNL     1      -0.301  -8.507   2.081  1.00  0.00    -0.356 N 
ATOM      4  C   UNL     1       1.030  -8.625   2.360  1.00  0.00     0.220 C 
ATOM      5  O   UNL     1       1.830  -8.397   1.446  1.00  0.00    -0.275 OA
ATOM      6  H   UNL     1      -0.506  -8.188   1.173  1.00  0.00     0.163 HD
BRANCH   4   7
ATOM      7  C   UNL     1       1.528  -8.985   3.749  1.00  0.00     0.106 C 
BRANCH   7   8
ATOM      8  C   UNL     1       2.120  -7.812   4.555  1.00  0.00     0.064 C 
BRANCH   8   9
ATOM      9  C   UNL     1       1.105  -7.059   5.387  1.00  0.00     0.024 A 
ATOM     10  N   UNL     1       0.674  -5.723   5.232  1.00  0.00    -0.314 N 
ATOM     11  C   UNL     1      -0.260  -5.468   6.264  1.00  0.00     0.053 A 
ATOM     12  C   UNL     1       0.530  -7.559   6.546  1.00  0.00     0.024 A 
ATOM     13  C   UNL     1      -0.307  -6.575   7.091  1.00  0.00     0.029 A 
BRANCH  10  14
ATOM     14  C   UNL     1       0.967  -4.807   4.150  1.00  0.00     0.046 A 
ATOM     15  C   UNL     1       1.198  -3.069   1.939  1.00  0.00     0.082 A 
ATOM     16  C   UNL     1       0.958  -2.545   3.205  1.00  0.00     0.024 A 
ATOM     17  C   UNL     1       1.377  -4.437   1.776  1.00  0.00     0.024 A 
ATOM     18  C   UNL     1       0.866  -3.414   4.306  1.00  0.00     0.028 A 
ATOM     19  C   UNL     1       1.261  -5.283   2.875  1.00  0.00     0.028 A 
BRANCH  15  20
ATOM     20  S   UNL     1       1.294  -2.074   0.482  1.00  0.00     0.242 S 
ATOM     21  O   UNL     1       0.566  -2.745  -0.563  1.00  0.00    -0.207 OA
ATOM     22  O   UNL     1       2.701  -1.732   0.313  1.00  0.00    -0.207 OA
BRANCH  20  23
ATOM     23  N   UNL     1       0.440  -0.635   0.836  1.00  0.00    -0.204 NA
ATOM     24  C   UNL     1       0.802   0.469  -0.082  1.00  0.00     0.124 C 
ATOM     25  C   UNL     1      -1.031  -0.791   0.937  1.00  0.00     0.124 C 
ENDBRANCH  20  23
ENDBRANCH  15  20
ENDBRANCH  10  14
BRANCH  11  26
ATOM     26  C   UNL     1      -1.196  -4.336   6.280  1.00  0.00    -0.001 A 
ATOM     27  C   UNL     1      -1.084  -3.267   7.170  1.00  0.00     0.013 A 
ATOM     28  C   UNL     1      -2.211  -4.306   5.316  1.00  0.00     0.013 A 
ATOM     29  C   UNL     1      -1.932  -2.158   7.029  1.00  0.00     0.040 A 
ATOM     30  C   UNL     1      -3.066  -3.218   5.178  1.00  0.00     0.040 A 
ATOM     31  C   UNL     1      -2.907  -2.141   6.032  1.00  0.00     0.123 A 
ATOM     32  F   UNL     1      -3.738  -1.098   5.923  1.00  0.00    -0.207 F 
ENDBRANCH  11  26
ENDBRANCH   8   9
ENDBRANCH   7   8
ENDBRANCH   4   7
ENDBRANCH   2   3
ENDBRANCH   1   2
BRANCH   1  33
ATOM     33  C   UNL     1      -3.034  -6.723   2.711  1.00  0.00     0.002 C 
BRANCH  33  34
ATOM     34  C   UNL     1      -4.540  -6.748   3.074  1.00  0.00     0.002 C 
BRANCH  34  35
ATOM     35  C   UNL     1      -5.057  -7.354   4.396  1.00  0.00     0.021 C 
BRANCH  35  36
ATOM     36  C   UNL     1      -5.169  -6.422   5.623  1.00  0.00     0.116 C 
BRANCH  36  37
ATOM     37  N   UNL     1      -6.189  -5.392   5.457  1.00  0.00    -0.352 N 
ATOM     38  C   UNL     1      -6.751  -4.463   6.306  1.00  0.00     0.251 C 
ATOM     39  H   UNL     1      -6.554  -5.353   4.544  1.00  0.00     0.163 HD
ATOM     40  O   UNL     1      -7.832  -3.989   5.941  1.00  0.00    -0.269 OA
BRANCH  38  41
ATOM     41  C   UNL     1      -6.162  -3.964   7.589  1.00  0.00     0.039 A 
ATOM     42  C   UNL     1      -6.997  -3.236   8.460  1.00  0.00     0.014 A 
ATOM     43  C   UNL     1      -4.817  -4.064   7.927  1.00  0.00     0.014 A 
ATOM     44  C   UNL     1      -6.503  -2.647   9.636  1.00  0.00     0.010 A 
ATOM     45  C   UNL     1      -4.302  -3.417   9.061  1.00  0.00     0.010 A 
ATOM     46  C   UNL     1      -5.145  -2.740   9.948  1.00  0.00    -0.014 A 
BRANCH  46  47
ATOM     47  C   UNL     1      -4.651  -2.377  11.312  1.00  0.00     0.031 A 
ATOM     48  C   UNL     1      -4.637  -3.599  12.261  1.00  0.00     0.074 A 
ATOM     49  C   UNL     1      -4.305  -1.077  11.578  1.00  0.00     0.049 A 
ATOM     50  N   UNL     1      -4.749  -3.655  13.555  1.00  0.00    -0.248 NA
ATOM     51  C   UNL     1      -4.580  -4.971  11.681  1.00  0.00     0.031 C 
ATOM     52  C   UNL     1      -4.334   0.013  10.583  1.00  0.00     0.029 A 
ATOM     53  N   UNL     1      -3.859  -0.400  12.708  1.00  0.00    -0.354 N 
ATOM     54  C   UNL     1      -4.585  -5.006  13.938  1.00  0.00     0.074 A 
ATOM     55  C   UNL     1      -4.604  -5.779  12.739  1.00  0.00     0.031 C 
ATOM     56  C   UNL     1      -4.008   1.196  11.152  1.00  0.00     0.029 A 
ATOM     57  C   UNL     1      -3.712   1.010  12.562  1.00  0.00     0.049 A 
ATOM     58  H   UNL     1      -3.658  -0.864  13.552  1.00  0.00     0.167 HD
ATOM     59  C   UNL     1      -4.314  -5.414  15.211  1.00  0.00     0.037 A 
ATOM     60  C   UNL     1      -3.411   1.966  13.504  1.00  0.00     0.037 A 
ATOM     61  C   UNL     1      -4.245  -4.293  16.082  1.00  0.00     0.049 A 
ATOM     62  C   UNL     1      -3.095   1.231  14.740  1.00  0.00     0.074 A 
ATOM     63  C   UNL     1      -5.192  -3.461  16.610  1.00  0.00     0.029 A 
ATOM     64  N   UNL     1      -3.001  -3.746  16.278  1.00  0.00    -0.354 N 
ATOM     65  N   UNL     1      -2.000   0.567  14.956  1.00  0.00    -0.248 NA
ATOM     66  C   UNL     1      -4.092   1.213  15.820  1.00  0.00     0.031 C 
ATOM     67  C   UNL     1      -4.522  -2.229  16.751  1.00  0.00     0.029 A 
ATOM     68  C   UNL     1      -3.172  -2.393  16.420  1.00  0.00     0.049 A 
ATOM     69  H   UNL     1      -2.146  -4.234  16.311  1.00  0.00     0.167 HD
ATOM     70  C   UNL     1      -2.327  -0.198  16.049  1.00  0.00     0.074 A 
ATOM     71  C   UNL     1      -3.441   0.456  16.698  1.00  0.00     0.031 C 
ATOM     72  C   UNL     1      -2.082  -1.531  16.019  1.00  0.00     0.037 A 
BRANCH  59  73
ATOM     73  C   UNL     1      -3.847  -6.732  15.770  1.00  0.00     0.058 A 
ATOM     74  C   UNL     1      -4.033  -6.960  17.157  1.00  0.00     0.135 A 
ATOM     75  C   UNL     1      -2.930  -7.573  15.123  1.00  0.00     0.135 A 
ATOM     76  F   UNL     1      -4.943  -6.255  17.852  1.00  0.00    -0.206 F 
ATOM     77  C   UNL     1      -3.239  -7.839  17.884  1.00  0.00     0.059 A 
ATOM     78  C   UNL     1      -2.156  -8.500  15.827  1.00  0.00     0.059 A 
ATOM     79  F   UNL     1      -2.692  -7.459  13.809  1.00  0.00    -0.206 F 
ATOM     80  C   UNL     1      -2.269  -8.572  17.214  1.00  0.00     0.060 A 
BRANCH  80  81
ATOM     81  S   UNL     1      -1.121  -9.570  18.186  1.00  0.00     0.124 S 
ATOM     82  O   UNL     1      -0.201  -8.555  18.685  1.00  0.00    -0.237 OA
ATOM     83  O   UNL     1      -1.998 -10.175  19.185  1.00  0.00    -0.237 OA
ATOM     84  O   UNL     1      -0.574 -10.499  17.202  1.00  0.00    -0.744 OA
ENDBRANCH  80  81
ENDBRANCH  59  73
BRANCH  60  85
ATOM     85  C   UNL     1      -3.423   3.489  13.646  1.00  0.00     0.058 A 
ATOM     86  C   UNL     1      -3.727   4.418  12.642  1.00  0.00     0.135 A 
ATOM     87  C   UNL     1      -3.249   4.087  14.934  1.00  0.00     0.135 A 
ATOM     88  F   UNL     1      -3.764   4.059  11.354  1.00  0.00    -0.206 F 
ATOM     89  C   UNL     1      -4.013   5.771  12.918  1.00  0.00     0.059 A 
ATOM     90  C   UNL     1      -3.579   5.405  15.243  1.00  0.00     0.059 A 
ATOM     91  F   UNL     1      -2.774   3.394  15.979  1.00  0.00    -0.206 F 
ATOM     92  C   UNL     1      -4.000   6.240  14.230  1.00  0.00     0.060 A 
BRANCH  92  93
ATOM     93  S   UNL     1      -4.648   7.873  14.649  1.00  0.00     0.124 S 
ATOM     94  O   UNL     1      -3.460   8.711  14.542  1.00  0.00    -0.237 OA
ATOM     95  O   UNL     1      -5.669   8.083  13.627  1.00  0.00    -0.237 OA
ATOM     96  O   UNL     1      -5.167   7.683  16.002  1.00  0.00    -0.744 OA
ENDBRANCH  92  93
ENDBRANCH  60  85
BRANCH  72  97
ATOM     97  C   UNL     1      -0.898  -1.922  15.158  1.00  0.00     0.058 A 
ATOM     98  C   UNL     1       0.399  -1.540  15.537  1.00  0.00     0.135 A 
ATOM     99  C   UNL     1      -1.015  -2.567  13.915  1.00  0.00     0.135 A 
ATOM    100  F   UNL     1       0.595  -0.909  16.706  1.00  0.00    -0.206 F 
ATOM    101  C   UNL     1       1.515  -1.791  14.732  1.00  0.00     0.059 A 
ATOM    102  C   UNL     1       0.083  -2.844  13.097  1.00  0.00     0.059 A 
ATOM    103  F   UNL     1      -2.212  -2.931  13.452  1.00  0.00    -0.206 F 
ATOM    104  C   UNL     1       1.348  -2.446  13.512  1.00  0.00     0.060 A 
BRANCH 104 105
ATOM    105  S   UNL     1       2.798  -2.767  12.481  1.00  0.00     0.124 S 
ATOM    106  O   UNL     1       3.298  -1.421  12.219  1.00  0.00    -0.237 OA
ATOM    107  O   UNL     1       3.624  -3.587  13.360  1.00  0.00    -0.237 OA
ATOM    108  O   UNL     1       2.248  -3.459  11.318  1.00  0.00    -0.744 OA
ENDBRANCH 104 105
ENDBRANCH  72  97
ENDBRANCH  46  47
ENDBRANCH  38  41
ENDBRANCH  36  37
ENDBRANCH  35  36
ENDBRANCH  34  35
ENDBRANCH  33  34
ENDBRANCH   1  33
TORSDOF 22
