REMARK SMILES COc1cccc(-n2cc(C(=O)NCCCCCCNC(=O)c3ccc(-c4c5nc(c(-c6c(F)cc(S(=O)(=O)[O-])cc6F)c6ccc([nH]6)c(-c6c(F)cc(S(=O)(=O)[O-])cc6F)c6nc(c(-c7c(F)cc(S(=O)(=O)[O-])cc7F)c7ccc4[nH]7)C=C6)C=C5)cc3)c3c2[C@H](c2cc(OC)c(OC)c(OC)c2)CC(=O)N3)c1
REMARK SMILES IDX 17 1 16 2 15 3 14 4 13 5 11 6 12 7 10 9 8 10 9 11 90 12
REMARK SMILES IDX 89 13 91 14 107 15 104 16 105 17 106 19 7 20 3 21 4 22
REMARK SMILES IDX 108 23 5 24 6 25 2 26 1 27 92 28 93 29 103 30 94 31 100 32
REMARK SMILES IDX 97 33 95 34 96 35 101 36 102 37 98 38 99 39 18 40 19 41
REMARK SMILES IDX 20 42 21 43 22 45 23 46 24 47 88 48 25 49 87 50 26 51 27 52
REMARK SMILES IDX 28 53 81 54 29 55 86 56 80 57 82 58 30 59 85 60 79 61 78 62
REMARK SMILES IDX 31 64 65 65 44 66 64 67 45 68 48 69 63 70 83 71 46 72 47 73
REMARK SMILES IDX 62 75 84 76 49 77 32 78 33 79 42 80 34 81 35 82 41 83 43 84
REMARK SMILES IDX 36 85 37 86 38 87 39 88 40 89 66 90 67 91 76 92 68 93 69 94
REMARK SMILES IDX 75 95 77 96 70 97 71 98 72 99 73 100 74 101 50 102 51 103
REMARK SMILES IDX 60 104 52 105 53 106 59 107 61 108 54 109 55 110 56 111
REMARK SMILES IDX 57 112 58 113
REMARK H PARENT 13 8 107 18 20 44 82 63 48 74
REMARK Flexibility Score: inf
ROOT
ATOM      1  C   UNL     1      11.811   0.362  -6.605  1.00  0.00     0.002 C 
ENDROOT
BRANCH   1   2
ATOM      2  C   UNL     1      11.093   0.711  -5.293  1.00  0.00     0.002 C 
BRANCH   2   3
ATOM      3  C   UNL     1       9.567   0.759  -5.399  1.00  0.00     0.021 C 
BRANCH   3   4
ATOM      4  C   UNL     1       8.939  -0.583  -5.790  1.00  0.00     0.116 C 
BRANCH   4   5
ATOM      5  N   UNL     1       8.583  -1.319  -4.606  1.00  0.00    -0.352 N 
ATOM      6  C   UNL     1       7.414  -1.465  -3.917  1.00  0.00     0.254 C 
ATOM      7  O   UNL     1       7.490  -2.201  -2.927  1.00  0.00    -0.269 OA
ATOM      8  H   UNL     1       9.335  -1.817  -4.213  1.00  0.00     0.163 HD
BRANCH   6   9
ATOM      9  C   UNL     1       6.127  -0.884  -4.317  1.00  0.00     0.081 A 
ATOM     10  N   UNL     1       3.854  -0.788  -4.231  1.00  0.00    -0.317 N 
ATOM     11  C   UNL     1       4.973  -1.401  -3.735  1.00  0.00     0.107 A 
ATOM     12  C   UNL     1       4.250   0.147  -5.161  1.00  0.00     0.055 A 
ATOM     13  C   UNL     1       5.637   0.188  -5.129  1.00  0.00     0.076 A 
ATOM     14  C   UNL     1       3.379   1.110  -5.949  1.00  0.00     0.078 C 
ATOM     15  N   UNL     1       6.270   1.193  -5.822  1.00  0.00    -0.324 N 
ATOM     16  C   UNL     1       4.152   2.438  -6.059  1.00  0.00     0.115 C 
ATOM     17  C   UNL     1       5.613   2.235  -6.421  1.00  0.00     0.225 C 
ATOM     18  H   UNL     1       7.251   1.162  -5.891  1.00  0.00     0.170 HD
ATOM     19  O   UNL     1       6.224   3.002  -7.164  1.00  0.00    -0.275 OA
BRANCH  10  20
ATOM     20  C   UNL     1       2.560  -1.093  -3.776  1.00  0.00     0.049 A 
ATOM     21  C   UNL     1       0.886  -1.014  -2.044  1.00  0.00     0.120 A 
ATOM     22  C   UNL     1       0.025  -1.733  -2.882  1.00  0.00     0.046 A 
ATOM     23  C   UNL     1       2.166  -0.686  -2.495  1.00  0.00     0.073 A 
ATOM     24  C   UNL     1       0.449  -2.179  -4.134  1.00  0.00     0.006 A 
ATOM     25  C   UNL     1       1.740  -1.896  -4.565  1.00  0.00     0.027 A 
BRANCH  21  26
ATOM     26  O   UNL     1       0.359  -0.721  -0.818  1.00  0.00    -0.497 OA
ATOM     27  C   UNL     1       1.109   0.146   0.024  1.00  0.00     0.278 C 
ENDBRANCH  21  26
ENDBRANCH  10  20
BRANCH  14  28
ATOM     28  C   UNL     1       2.925   0.556  -7.308  1.00  0.00    -0.031 A 
ATOM     29  C   UNL     1       1.811  -0.284  -7.357  1.00  0.00     0.055 A 
ATOM     30  C   UNL     1       3.554   0.828  -8.533  1.00  0.00     0.055 A 
ATOM     31  C   UNL     1       1.455  -0.986  -8.514  1.00  0.00     0.164 A 
ATOM     32  C   UNL     1       3.121   0.251  -9.748  1.00  0.00     0.164 A 
ATOM     33  C   UNL     1       2.083  -0.701  -9.737  1.00  0.00     0.203 A 
BRANCH  31  34
ATOM     34  O   UNL     1       0.443  -1.896  -8.315  1.00  0.00    -0.493 OA
ATOM     35  C   UNL     1       0.613  -3.144  -8.983  1.00  0.00     0.278 C 
ENDBRANCH  31  34
BRANCH  32  36
ATOM     36  O   UNL     1       3.724   0.542 -10.946  1.00  0.00    -0.493 OA
ATOM     37  C   UNL     1       4.470   1.753 -11.031  1.00  0.00     0.278 C 
ENDBRANCH  32  36
BRANCH  33  38
ATOM     38  O   UNL     1       1.614  -1.409 -10.813  1.00  0.00    -0.490 OA
ATOM     39  C   UNL     1       1.759  -0.861 -12.113  1.00  0.00     0.278 C 
ENDBRANCH  33  38
ENDBRANCH  14  28
ENDBRANCH   6   9
ENDBRANCH   4   5
ENDBRANCH   3   4
ENDBRANCH   2   3
ENDBRANCH   1   2
BRANCH   1  40
ATOM     40  C   UNL     1      11.453   1.243  -7.812  1.00  0.00     0.021 C 
BRANCH  40  41
ATOM     41  C   UNL     1      11.995   2.659  -7.689  1.00  0.00     0.116 C 
BRANCH  41  42
ATOM     42  N   UNL     1      13.455   2.662  -7.739  1.00  0.00    -0.352 N 
ATOM     43  C   UNL     1      14.318   3.727  -7.695  1.00  0.00     0.251 C 
ATOM     44  H   UNL     1      13.878   1.776  -7.813  1.00  0.00     0.163 HD
ATOM     45  O   UNL     1      15.481   3.594  -8.075  1.00  0.00    -0.269 OA
BRANCH  43  46
ATOM     46  C   UNL     1      13.838   5.025  -7.200  1.00  0.00     0.039 A 
ATOM     47  C   UNL     1      14.225   6.206  -7.840  1.00  0.00     0.014 A 
ATOM     48  C   UNL     1      12.996   5.057  -6.089  1.00  0.00     0.014 A 
ATOM     49  C   UNL     1      13.701   7.415  -7.396  1.00  0.00     0.010 A 
ATOM     50  C   UNL     1      12.393   6.237  -5.721  1.00  0.00     0.010 A 
ATOM     51  C   UNL     1      12.770   7.422  -6.347  1.00  0.00    -0.014 A 
BRANCH  51  52
ATOM     52  C   UNL     1      12.080   8.660  -5.993  1.00  0.00     0.031 A 
ATOM     53  C   UNL     1      11.328   9.285  -7.120  1.00  0.00     0.074 A 
ATOM     54  C   UNL     1      11.929   9.078  -4.718  1.00  0.00     0.049 A 
ATOM     55  N   UNL     1      11.547  10.421  -7.695  1.00  0.00    -0.248 NA
ATOM     56  C   UNL     1      10.289   8.478  -7.784  1.00  0.00     0.031 C 
ATOM     57  C   UNL     1      12.325   8.383  -3.488  1.00  0.00     0.029 A 
ATOM     58  N   UNL     1      11.274  10.172  -4.243  1.00  0.00    -0.354 N 
ATOM     59  C   UNL     1      10.530  10.578  -8.636  1.00  0.00     0.074 A 
ATOM     60  C   UNL     1       9.921   9.283  -8.783  1.00  0.00     0.031 C 
ATOM     61  C   UNL     1      11.697   8.943  -2.431  1.00  0.00     0.029 A 
ATOM     62  C   UNL     1      10.995  10.131  -2.881  1.00  0.00     0.049 A 
ATOM     63  H   UNL     1      11.019  10.931  -4.816  1.00  0.00     0.167 HD
ATOM     64  C   UNL     1      10.111  11.815  -9.027  1.00  0.00     0.037 A 
ATOM     65  C   UNL     1      10.212  10.991  -2.182  1.00  0.00     0.037 A 
ATOM     66  C   UNL     1      11.077  12.822  -8.666  1.00  0.00     0.049 A 
ATOM     67  C   UNL     1      10.100  12.230  -2.992  1.00  0.00     0.074 A 
ATOM     68  C   UNL     1      12.407  13.050  -8.962  1.00  0.00     0.029 A 
ATOM     69  N   UNL     1      10.802  13.592  -7.562  1.00  0.00    -0.354 N 
ATOM     70  N   UNL     1      11.102  13.025  -3.252  1.00  0.00    -0.248 NA
ATOM     71  C   UNL     1       8.960  12.355  -3.886  1.00  0.00     0.031 C 
ATOM     72  C   UNL     1      12.973  13.553  -7.754  1.00  0.00     0.029 A 
ATOM     73  C   UNL     1      11.948  13.671  -6.814  1.00  0.00     0.049 A 
ATOM     74  H   UNL     1       9.938  14.012  -7.347  1.00  0.00     0.167 HD
ATOM     75  C   UNL     1      10.907  13.424  -4.566  1.00  0.00     0.074 A 
ATOM     76  C   UNL     1       9.523  13.066  -4.867  1.00  0.00     0.031 C 
ATOM     77  C   UNL     1      11.964  13.747  -5.369  1.00  0.00     0.037 A 
BRANCH  64  78
ATOM     78  C   UNL     1       8.677  12.172  -9.374  1.00  0.00     0.058 A 
ATOM     79  C   UNL     1       8.388  13.473  -9.841  1.00  0.00     0.135 A 
ATOM     80  C   UNL     1       7.552  11.406  -8.993  1.00  0.00     0.135 A 
ATOM     81  F   UNL     1       9.374  14.293 -10.238  1.00  0.00    -0.206 F 
ATOM     82  C   UNL     1       7.096  14.004  -9.837  1.00  0.00     0.059 A 
ATOM     83  C   UNL     1       6.251  11.897  -9.033  1.00  0.00     0.059 A 
ATOM     84  F   UNL     1       7.657  10.180  -8.471  1.00  0.00    -0.206 F 
ATOM     85  C   UNL     1       6.037  13.211  -9.410  1.00  0.00     0.060 A 
BRANCH  85  86
ATOM     86  S   UNL     1       4.387  13.923  -9.291  1.00  0.00     0.124 S 
ATOM     87  O   UNL     1       4.550  14.844  -8.172  1.00  0.00    -0.237 OA
ATOM     88  O   UNL     1       4.225  14.533 -10.606  1.00  0.00    -0.237 OA
ATOM     89  O   UNL     1       3.539  12.762  -9.036  1.00  0.00    -0.744 OA
ENDBRANCH  85  86
ENDBRANCH  64  78
BRANCH  65  90
ATOM     90  C   UNL     1       9.310  10.699  -1.036  1.00  0.00     0.058 A 
ATOM     91  C   UNL     1       8.761  11.735  -0.258  1.00  0.00     0.135 A 
ATOM     92  C   UNL     1       8.738   9.422  -0.859  1.00  0.00     0.135 A 
ATOM     93  F   UNL     1       9.232  12.986  -0.374  1.00  0.00    -0.206 F 
ATOM     94  C   UNL     1       7.674  11.530   0.600  1.00  0.00     0.059 A 
ATOM     95  C   UNL     1       7.662   9.192  -0.003  1.00  0.00     0.059 A 
ATOM     96  F   UNL     1       9.148   8.373  -1.589  1.00  0.00    -0.206 F 
ATOM     97  C   UNL     1       7.116  10.256   0.704  1.00  0.00     0.060 A 
BRANCH  97  98
ATOM     98  S   UNL     1       5.600  10.023   1.663  1.00  0.00     0.124 S 
ATOM     99  O   UNL     1       6.077  10.197   3.031  1.00  0.00    -0.237 OA
ATOM    100  O   UNL     1       4.741  11.083   1.148  1.00  0.00    -0.237 OA
ATOM    101  O   UNL     1       5.185   8.666   1.316  1.00  0.00    -0.744 OA
ENDBRANCH  97  98
ENDBRANCH  65  90
BRANCH  77 102
ATOM    102  C   UNL     1      13.304  13.993  -4.722  1.00  0.00     0.058 A 
ATOM    103  C   UNL     1      14.054  13.026  -4.030  1.00  0.00     0.135 A 
ATOM    104  C   UNL     1      13.917  15.235  -4.947  1.00  0.00     0.135 A 
ATOM    105  F   UNL     1      13.587  11.782  -3.857  1.00  0.00    -0.206 F 
ATOM    106  C   UNL     1      15.339  13.296  -3.550  1.00  0.00     0.059 A 
ATOM    107  C   UNL     1      15.208  15.515  -4.508  1.00  0.00     0.059 A 
ATOM    108  F   UNL     1      13.278  16.182  -5.653  1.00  0.00    -0.206 F 
ATOM    109  C   UNL     1      15.909  14.544  -3.797  1.00  0.00     0.060 A 
BRANCH 109 110
ATOM    110  S   UNL     1      17.596  14.870  -3.243  1.00  0.00     0.124 S 
ATOM    111  O   UNL     1      17.431  14.965  -1.796  1.00  0.00    -0.237 OA
ATOM    112  O   UNL     1      18.321  13.697  -3.723  1.00  0.00    -0.237 OA
ATOM    113  O   UNL     1      17.940  16.122  -3.914  1.00  0.00    -0.744 OA
ENDBRANCH 109 110
ENDBRANCH  77 102
ENDBRANCH  51  52
ENDBRANCH  43  46
ENDBRANCH  41  42
ENDBRANCH  40  41
ENDBRANCH   1  40
TORSDOF 22
