REMARK SMILES Cc1nn(C)c(=O)c(C(=O)N[C@H]2C=C[C@H](C(=O)NCCCCCCNC(=O)c3ccc(-c4c5nc(c(-c6c(F)cc(S(=O)(=O)[O-])cc6F)c6ccc([nH]6)c(-c6c(F)cc(S(=O)(=O)[O-])cc6F)c6nc(c(-c7c(F)cc(S(=O)(=O)[O-])cc7F)c7ccc4[nH]7)C=C6)C=C5)cc3)C2)c1C
REMARK SMILES IDX 22 1 21 2 20 3 19 4 18 5 16 6 17 7 15 9 12 10 13 11 94 12
REMARK SMILES IDX 14 13 11 14 9 15 10 16 8 18 1 19 2 20 3 21 95 22 4 23 96 24
REMARK SMILES IDX 5 25 6 26 7 27 23 28 24 29 25 30 26 31 27 33 28 34 29 35
REMARK SMILES IDX 93 36 30 37 92 38 31 39 32 40 33 41 86 42 34 43 91 44 85 45
REMARK SMILES IDX 87 46 35 47 90 48 84 49 83 50 36 52 70 53 49 54 69 55 50 56
REMARK SMILES IDX 53 57 68 58 88 59 51 60 52 61 67 63 89 64 54 65 37 66 38 67
REMARK SMILES IDX 47 68 39 69 40 70 46 71 48 72 41 73 42 74 43 75 44 76 45 77
REMARK SMILES IDX 71 78 72 79 81 80 73 81 74 82 80 83 82 84 75 85 76 86 77 87
REMARK SMILES IDX 78 88 79 89 55 90 56 91 65 92 57 93 58 94 64 95 66 96 59 97
REMARK SMILES IDX 60 98 61 99 62 100 63 101
REMARK H PARENT 18 8 11 17 25 32 87 51 53 62
REMARK Flexibility Score: inf
ROOT
ATOM      1  C   UNL     1       1.251   5.012   5.777  1.00  0.00     0.002 C 
ENDROOT
BRANCH   1   2
ATOM      2  C   UNL     1       1.033   3.517   6.030  1.00  0.00     0.002 C 
BRANCH   2   3
ATOM      3  C   UNL     1      -0.436   3.076   6.125  1.00  0.00     0.021 C 
BRANCH   3   4
ATOM      4  C   UNL     1      -1.271   3.425   4.893  1.00  0.00     0.116 C 
BRANCH   4   5
ATOM      5  N   UNL     1      -0.778   2.707   3.743  1.00  0.00    -0.356 N 
ATOM      6  C   UNL     1      -1.104   1.448   3.348  1.00  0.00     0.227 C 
ATOM      7  O   UNL     1      -0.379   0.920   2.502  1.00  0.00    -0.274 OA
ATOM      8  H   UNL     1      -0.129   3.185   3.178  1.00  0.00     0.163 HD
BRANCH   6   9
ATOM      9  C   UNL     1      -2.370   0.770   3.915  1.00  0.00     0.103 C 
ATOM     10  C   UNL     1      -2.768  -0.815   2.192  1.00  0.00     0.106 C 
ATOM     11  C   UNL     1      -3.817   0.247   2.132  1.00  0.00    -0.006 C 
ATOM     12  C   UNL     1      -2.347  -0.750   3.654  1.00  0.00     0.047 C 
ATOM     13  C   UNL     1      -3.568   1.166   3.078  1.00  0.00    -0.016 C 
BRANCH  10  14
ATOM     14  N   UNL     1      -3.231  -2.061   1.667  1.00  0.00    -0.346 N 
ATOM     15  C   UNL     1      -2.579  -2.899   0.797  1.00  0.00     0.257 C 
ATOM     16  O   UNL     1      -3.208  -3.833   0.300  1.00  0.00    -0.269 OA
ATOM     17  H   UNL     1      -4.123  -2.352   1.964  1.00  0.00     0.164 HD
BRANCH  15  18
ATOM     18  C   UNL     1      -1.127  -2.704   0.476  1.00  0.00     0.111 A 
ATOM     19  C   UNL     1       1.538  -0.220  -0.398  1.00  0.00     0.069 C 
ATOM     20  C   UNL     1       0.854  -1.564  -0.277  1.00  0.00     0.062 A 
ATOM     21  N   UNL     1       1.612  -2.611  -0.277  1.00  0.00    -0.175 NA
ATOM     22  C   UNL     1      -0.630  -1.609  -0.137  1.00  0.00    -0.010 A 
ATOM     23  N   UNL     1       1.021  -3.803   0.036  1.00  0.00    -0.232 N 
ATOM     24  C   UNL     1      -1.386  -0.453  -0.723  1.00  0.00     0.047 C 
ATOM     25  C   UNL     1       1.857  -4.976  -0.130  1.00  0.00     0.178 C 
ATOM     26  C   UNL     1      -0.230  -3.896   0.640  1.00  0.00     0.279 A 
ATOM     27  O   UNL     1      -0.616  -4.906   1.225  1.00  0.00    -0.267 OA
ENDBRANCH  15  18
ENDBRANCH  10  14
ENDBRANCH   6   9
ENDBRANCH   4   5
ENDBRANCH   3   4
ENDBRANCH   2   3
ENDBRANCH   1   2
BRANCH   1  28
ATOM     28  C   UNL     1       0.501   5.945   6.730  1.00  0.00     0.021 C 
BRANCH  28  29
ATOM     29  C   UNL     1       0.818   5.730   8.206  1.00  0.00     0.116 C 
BRANCH  29  30
ATOM     30  N   UNL     1       2.196   6.065   8.518  1.00  0.00    -0.352 N 
ATOM     31  C   UNL     1       2.680   6.981   9.414  1.00  0.00     0.251 C 
ATOM     32  H   UNL     1       2.878   5.563   8.015  1.00  0.00     0.163 HD
ATOM     33  O   UNL     1       3.875   7.286   9.390  1.00  0.00    -0.269 OA
BRANCH  31  34
ATOM     34  C   UNL     1       1.775   7.615  10.397  1.00  0.00     0.039 A 
ATOM     35  C   UNL     1       1.887   8.987  10.633  1.00  0.00     0.014 A 
ATOM     36  C   UNL     1       0.841   6.855  11.108  1.00  0.00     0.014 A 
ATOM     37  C   UNL     1       1.036   9.605  11.553  1.00  0.00     0.010 A 
ATOM     38  C   UNL     1      -0.050   7.483  11.976  1.00  0.00     0.010 A 
ATOM     39  C   UNL     1       0.049   8.861  12.219  1.00  0.00    -0.014 A 
BRANCH  39  40
ATOM     40  C   UNL     1      -0.856   9.496  13.210  1.00  0.00     0.031 A 
ATOM     41  C   UNL     1      -0.769   9.097  14.660  1.00  0.00     0.074 A 
ATOM     42  C   UNL     1      -1.779  10.391  12.806  1.00  0.00     0.049 A 
ATOM     43  N   UNL     1      -1.529   9.456  15.662  1.00  0.00    -0.248 NA
ATOM     44  C   UNL     1       0.299   8.152  15.028  1.00  0.00     0.031 C 
ATOM     45  C   UNL     1      -1.977  10.840  11.426  1.00  0.00     0.029 A 
ATOM     46  N   UNL     1      -2.734  11.076  13.516  1.00  0.00    -0.354 N 
ATOM     47  C   UNL     1      -1.040   8.776  16.771  1.00  0.00     0.074 A 
ATOM     48  C   UNL     1       0.053   7.947  16.314  1.00  0.00     0.031 C 
ATOM     49  C   UNL     1      -2.983  11.730  11.392  1.00  0.00     0.029 A 
ATOM     50  C   UNL     1      -3.527  11.888  12.738  1.00  0.00     0.049 A 
ATOM     51  H   UNL     1      -2.841  10.995  14.491  1.00  0.00     0.167 HD
ATOM     52  C   UNL     1      -1.451   8.855  18.058  1.00  0.00     0.037 A 
ATOM     53  C   UNL     1      -4.583  12.656  13.069  1.00  0.00     0.037 A 
ATOM     54  C   UNL     1      -2.513   9.713  18.515  1.00  0.00     0.049 A 
ATOM     55  C   UNL     1      -5.026  12.713  14.508  1.00  0.00     0.074 A 
ATOM     56  C   UNL     1      -2.962   9.905  19.811  1.00  0.00     0.029 A 
ATOM     57  N   UNL     1      -3.286  10.524  17.699  1.00  0.00    -0.354 N 
ATOM     58  N   UNL     1      -4.523  12.096  15.550  1.00  0.00    -0.248 NA
ATOM     59  C   UNL     1      -6.178  13.572  14.817  1.00  0.00     0.031 C 
ATOM     60  C   UNL     1      -4.037  10.798  19.772  1.00  0.00     0.029 A 
ATOM     61  C   UNL     1      -4.225  11.200  18.460  1.00  0.00     0.049 A 
ATOM     62  H   UNL     1      -3.182  10.607  16.724  1.00  0.00     0.167 HD
ATOM     63  C   UNL     1      -5.288  12.503  16.639  1.00  0.00     0.074 A 
ATOM     64  C   UNL     1      -6.267  13.441  16.133  1.00  0.00     0.031 C 
ATOM     65  C   UNL     1      -5.195  12.128  17.939  1.00  0.00     0.037 A 
BRANCH  52  66
ATOM     66  C   UNL     1      -0.745   8.012  19.083  1.00  0.00     0.058 A 
ATOM     67  C   UNL     1       0.547   8.331  19.529  1.00  0.00     0.135 A 
ATOM     68  C   UNL     1      -1.408   6.940  19.702  1.00  0.00     0.135 A 
ATOM     69  F   UNL     1       1.233   9.332  18.955  1.00  0.00    -0.206 F 
ATOM     70  C   UNL     1       1.155   7.620  20.558  1.00  0.00     0.059 A 
ATOM     71  C   UNL     1      -0.828   6.231  20.750  1.00  0.00     0.059 A 
ATOM     72  F   UNL     1      -2.642   6.589  19.306  1.00  0.00    -0.206 F 
ATOM     73  C   UNL     1       0.454   6.580  21.172  1.00  0.00     0.060 A 
BRANCH  73  74
ATOM     74  S   UNL     1       1.233   5.720  22.554  1.00  0.00     0.124 S 
ATOM     75  O   UNL     1       2.314   5.006  21.882  1.00  0.00    -0.237 OA
ATOM     76  O   UNL     1       1.641   6.825  23.415  1.00  0.00    -0.237 OA
ATOM     77  O   UNL     1       0.162   4.880  23.081  1.00  0.00    -0.744 OA
ENDBRANCH  73  74
ENDBRANCH  52  66
BRANCH  53  78
ATOM     78  C   UNL     1      -5.309  13.429  12.023  1.00  0.00     0.058 A 
ATOM     79  C   UNL     1      -5.267  14.831  11.998  1.00  0.00     0.135 A 
ATOM     80  C   UNL     1      -6.077  12.781  11.043  1.00  0.00     0.135 A 
ATOM     81  F   UNL     1      -4.554  15.497  12.918  1.00  0.00    -0.206 F 
ATOM     82  C   UNL     1      -5.982  15.565  11.056  1.00  0.00     0.059 A 
ATOM     83  C   UNL     1      -6.777  13.492  10.073  1.00  0.00     0.059 A 
ATOM     84  F   UNL     1      -6.139  11.441  11.012  1.00  0.00    -0.206 F 
ATOM     85  C   UNL     1      -6.736  14.885  10.098  1.00  0.00     0.060 A 
BRANCH  85  86
ATOM     86  S   UNL     1      -7.642  15.847   8.867  1.00  0.00     0.124 S 
ATOM     87  O   UNL     1      -8.714  16.420   9.672  1.00  0.00    -0.237 OA
ATOM     88  O   UNL     1      -6.623  16.781   8.399  1.00  0.00    -0.237 OA
ATOM     89  O   UNL     1      -8.053  14.841   7.892  1.00  0.00    -0.744 OA
ENDBRANCH  85  86
ENDBRANCH  53  78
BRANCH  65  90
ATOM     90  C   UNL     1      -6.172  12.739  18.905  1.00  0.00     0.058 A 
ATOM     91  C   UNL     1      -7.528  12.376  18.903  1.00  0.00     0.135 A 
ATOM     92  C   UNL     1      -5.741  13.663  19.871  1.00  0.00     0.135 A 
ATOM     93  F   UNL     1      -7.991  11.499  17.999  1.00  0.00    -0.206 F 
ATOM     94  C   UNL     1      -8.429  12.933  19.803  1.00  0.00     0.059 A 
ATOM     95  C   UNL     1      -6.620  14.210  20.801  1.00  0.00     0.059 A 
ATOM     96  F   UNL     1      -4.452  14.033  19.926  1.00  0.00    -0.206 F 
ATOM     97  C   UNL     1      -7.966  13.850  20.748  1.00  0.00     0.060 A 
BRANCH  97  98
ATOM     98  S   UNL     1      -9.147  14.555  21.917  1.00  0.00     0.124 S 
ATOM     99  O   UNL     1      -9.911  15.451  21.056  1.00  0.00    -0.237 OA
ATOM    100  O   UNL     1      -9.859  13.372  22.392  1.00  0.00    -0.237 OA
ATOM    101  O   UNL     1      -8.297  15.209  22.908  1.00  0.00    -0.744 OA
ENDBRANCH  97  98
ENDBRANCH  65  90
ENDBRANCH  39  40
ENDBRANCH  31  34
ENDBRANCH  29  30
ENDBRANCH  28  29
ENDBRANCH   1  28
TORSDOF 18
