REMARK SMILES CC(C)(CC(=O)NCCCCCCNC(=O)c1ccc(-c2c3nc(c(-c4c(F)cc(S(=O)(=O)[O-])cc4F)c4ccc([nH]4)c(-c4c(F)cc(S(=O)(=O)[O-])cc4F)c4nc(c(-c5c(F)cc(S(=O)(=O)[O-])cc5F)c5ccc2[nH]5)C=C4)C=C3)cc1)Cc1nc([C@@]2(C)CCCO2)no1
REMARK SMILES IDX 10 1 9 2 8 3 7 4 5 5 6 6 4 8 2 9 1 10 3 11 83 12 84 13 85 14
REMARK SMILES IDX 94 15 86 16 93 17 87 18 88 19 89 20 92 21 90 22 91 23 11 24
REMARK SMILES IDX 12 25 13 26 14 27 15 28 16 30 17 31 18 32 82 33 19 34 81 35
REMARK SMILES IDX 20 36 21 37 22 38 75 39 23 40 80 41 74 42 76 43 24 44 79 45
REMARK SMILES IDX 73 46 72 47 25 49 59 50 38 51 58 52 39 53 42 54 57 55 77 56
REMARK SMILES IDX 40 57 41 58 56 60 78 61 43 62 26 63 27 64 36 65 28 66 29 67
REMARK SMILES IDX 35 68 37 69 30 70 31 71 32 72 33 73 34 74 60 75 61 76 70 77
REMARK SMILES IDX 62 78 63 79 69 80 71 81 64 82 65 83 66 84 67 85 68 86 44 87
REMARK SMILES IDX 45 88 54 89 46 90 47 91 53 92 55 93 48 94 49 95 50 96 51 97
REMARK SMILES IDX 52 98
REMARK H PARENT 7 7 14 29 76 48 42 59
REMARK Flexibility Score: inf
ROOT
ATOM      1  C   UNL     1      -0.011   3.506  -2.020  1.00  0.00     0.002 C 
ENDROOT
BRANCH   1   2
ATOM      2  C   UNL     1       0.427   2.392  -1.069  1.00  0.00     0.021 C 
BRANCH   2   3
ATOM      3  C   UNL     1      -0.715   1.680  -0.350  1.00  0.00     0.116 C 
BRANCH   3   4
ATOM      4  N   UNL     1      -1.464   0.836  -1.256  1.00  0.00    -0.356 N 
ATOM      5  C   UNL     1      -1.606  -0.513  -1.285  1.00  0.00     0.220 C 
ATOM      6  O   UNL     1      -2.383  -0.999  -2.109  1.00  0.00    -0.275 OA
ATOM      7  H   UNL     1      -1.947   1.318  -1.966  1.00  0.00     0.163 HD
BRANCH   5   8
ATOM      8  C   UNL     1      -0.874  -1.403  -0.299  1.00  0.00     0.107 C 
BRANCH   8   9
ATOM      9  C   UNL     1       0.592  -1.840  -0.586  1.00  0.00    -0.018 C 
ATOM     10  C   UNL     1       1.624  -0.812  -0.087  1.00  0.00     0.012 C 
ATOM     11  C   UNL     1       0.835  -3.096   0.305  1.00  0.00     0.012 C 
BRANCH   9  12
ATOM     12  C   UNL     1       0.877  -2.278  -2.052  1.00  0.00     0.107 C 
BRANCH  12  13
ATOM     13  C   UNL     1       0.667  -1.289  -3.147  1.00  0.00     0.227 A 
ATOM     14  N   UNL     1      -0.136  -1.369  -4.184  1.00  0.00    -0.193 NA
ATOM     15  O   UNL     1       1.469  -0.188  -3.181  1.00  0.00    -0.339 OA
ATOM     16  C   UNL     1       0.151  -0.215  -4.881  1.00  0.00     0.203 A 
ATOM     17  N   UNL     1       1.097   0.548  -4.309  1.00  0.00    -0.059 NA
BRANCH  16  18
ATOM     18  C   UNL     1      -0.529   0.151  -6.180  1.00  0.00     0.128 C 
ATOM     19  C   UNL     1      -1.185  -1.082  -6.827  1.00  0.00     0.051 C 
ATOM     20  C   UNL     1      -1.556   1.279  -5.998  1.00  0.00     0.046 C 
ATOM     21  O   UNL     1       0.415   0.647  -7.175  1.00  0.00    -0.367 OA
ATOM     22  C   UNL     1      -1.523   1.992  -7.330  1.00  0.00     0.032 C 
ATOM     23  C   UNL     1      -0.061   1.892  -7.698  1.00  0.00     0.161 C 
ENDBRANCH  16  18
ENDBRANCH  12  13
ENDBRANCH   9  12
ENDBRANCH   8   9
ENDBRANCH   5   8
ENDBRANCH   3   4
ENDBRANCH   2   3
ENDBRANCH   1   2
BRANCH   1  24
ATOM     24  C   UNL     1      -0.621   4.725  -1.330  1.00  0.00     0.002 C 
BRANCH  24  25
ATOM     25  C   UNL     1       0.229   5.320  -0.204  1.00  0.00     0.021 C 
BRANCH  25  26
ATOM     26  C   UNL     1       1.675   5.627  -0.588  1.00  0.00     0.116 C 
BRANCH  26  27
ATOM     27  N   UNL     1       1.752   6.609  -1.656  1.00  0.00    -0.352 N 
ATOM     28  C   UNL     1       2.330   7.850  -1.639  1.00  0.00     0.251 C 
ATOM     29  H   UNL     1       1.332   6.346  -2.507  1.00  0.00     0.163 HD
ATOM     30  O   UNL     1       2.098   8.653  -2.544  1.00  0.00    -0.269 OA
BRANCH  28  31
ATOM     31  C   UNL     1       3.223   8.223  -0.524  1.00  0.00     0.039 A 
ATOM     32  C   UNL     1       3.061   9.465   0.091  1.00  0.00     0.014 A 
ATOM     33  C   UNL     1       4.220   7.343  -0.091  1.00  0.00     0.014 A 
ATOM     34  C   UNL     1       3.874   9.808   1.172  1.00  0.00     0.010 A 
ATOM     35  C   UNL     1       4.979   7.657   1.033  1.00  0.00     0.010 A 
ATOM     36  C   UNL     1       4.823   8.898   1.668  1.00  0.00    -0.014 A 
BRANCH  36  37
ATOM     37  C   UNL     1       5.672   9.237   2.838  1.00  0.00     0.031 A 
ATOM     38  C   UNL     1       7.164   9.357   2.678  1.00  0.00     0.074 A 
ATOM     39  C   UNL     1       5.105   9.390   4.051  1.00  0.00     0.049 A 
ATOM     40  N   UNL     1       8.075   9.602   3.584  1.00  0.00    -0.248 NA
ATOM     41  C   UNL     1       7.707   9.145   1.326  1.00  0.00     0.031 C 
ATOM     42  C   UNL     1       3.676   9.249   4.341  1.00  0.00     0.029 A 
ATOM     43  N   UNL     1       5.661   9.691   5.269  1.00  0.00    -0.354 N 
ATOM     44  C   UNL     1       9.294   9.564   2.917  1.00  0.00     0.074 A 
ATOM     45  C   UNL     1       9.012   9.214   1.542  1.00  0.00     0.031 C 
ATOM     46  C   UNL     1       3.466   9.487   5.645  1.00  0.00     0.029 A 
ATOM     47  C   UNL     1       4.745   9.763   6.292  1.00  0.00     0.049 A 
ATOM     48  H   UNL     1       6.625   9.841   5.398  1.00  0.00     0.167 HD
ATOM     49  C   UNL     1      10.533   9.822   3.400  1.00  0.00     0.037 A 
ATOM     50  C   UNL     1       4.918  10.018   7.604  1.00  0.00     0.037 A 
ATOM     51  C   UNL     1      10.802  10.193   4.765  1.00  0.00     0.049 A 
ATOM     52  C   UNL     1       6.303  10.307   8.116  1.00  0.00     0.074 A 
ATOM     53  C   UNL     1      12.014  10.529   5.343  1.00  0.00     0.029 A 
ATOM     54  N   UNL     1       9.845  10.278   5.767  1.00  0.00    -0.354 N 
ATOM     55  N   UNL     1       7.438  10.329   7.458  1.00  0.00    -0.248 NA
ATOM     56  C   UNL     1       6.431  10.617   9.546  1.00  0.00     0.031 C 
ATOM     57  C   UNL     1      11.797  10.772   6.704  1.00  0.00     0.029 A 
ATOM     58  C   UNL     1      10.442  10.641   6.963  1.00  0.00     0.049 A 
ATOM     59  H   UNL     1       8.884  10.104   5.645  1.00  0.00     0.167 HD
ATOM     60  C   UNL     1       8.410  10.684   8.387  1.00  0.00     0.074 A 
ATOM     61  C   UNL     1       7.727  10.879   9.649  1.00  0.00     0.031 C 
ATOM     62  C   UNL     1       9.746  10.838   8.210  1.00  0.00     0.037 A 
BRANCH  49  63
ATOM     63  C   UNL     1      11.691   9.716   2.445  1.00  0.00     0.058 A 
ATOM     64  C   UNL     1      11.875  10.640   1.402  1.00  0.00     0.135 A 
ATOM     65  C   UNL     1      12.649   8.699   2.591  1.00  0.00     0.135 A 
ATOM     66  F   UNL     1      10.982  11.623   1.205  1.00  0.00    -0.206 F 
ATOM     67  C   UNL     1      12.947  10.541   0.521  1.00  0.00     0.059 A 
ATOM     68  C   UNL     1      13.746   8.599   1.741  1.00  0.00     0.059 A 
ATOM     69  F   UNL     1      12.524   7.789   3.570  1.00  0.00    -0.206 F 
ATOM     70  C   UNL     1      13.878   9.516   0.699  1.00  0.00     0.060 A 
BRANCH  70  71
ATOM     71  S   UNL     1      15.267   9.406  -0.449  1.00  0.00     0.124 S 
ATOM     72  O   UNL     1      14.608   8.920  -1.657  1.00  0.00    -0.237 OA
ATOM     73  O   UNL     1      15.741  10.786  -0.497  1.00  0.00    -0.237 OA
ATOM     74  O   UNL     1      16.169   8.459   0.198  1.00  0.00    -0.744 OA
ENDBRANCH  70  71
ENDBRANCH  49  63
BRANCH  50  75
ATOM     75  C   UNL     1       3.744  10.038   8.517  1.00  0.00     0.058 A 
ATOM     76  C   UNL     1       3.283  11.240   9.076  1.00  0.00     0.135 A 
ATOM     77  C   UNL     1       3.052   8.861   8.840  1.00  0.00     0.135 A 
ATOM     78  F   UNL     1       3.914  12.392   8.802  1.00  0.00    -0.206 F 
ATOM     79  C   UNL     1       2.191  11.273   9.936  1.00  0.00     0.059 A 
ATOM     80  C   UNL     1       1.940   8.871   9.677  1.00  0.00     0.059 A 
ATOM     81  F   UNL     1       3.440   7.687   8.318  1.00  0.00    -0.206 F 
ATOM     82  C   UNL     1       1.524  10.082  10.229  1.00  0.00     0.060 A 
BRANCH  82  83
ATOM     83  S   UNL     1       0.078  10.142  11.310  1.00  0.00     0.124 S 
ATOM     84  O   UNL     1       0.693  10.375  12.611  1.00  0.00    -0.237 OA
ATOM     85  O   UNL     1      -0.677  11.259  10.750  1.00  0.00    -0.237 OA
ATOM     86  O   UNL     1      -0.532   8.829  11.125  1.00  0.00    -0.744 OA
ENDBRANCH  82  83
ENDBRANCH  50  75
BRANCH  62  87
ATOM     87  C   UNL     1      10.554  11.275   9.401  1.00  0.00     0.058 A 
ATOM     88  C   UNL     1      10.811  10.413  10.479  1.00  0.00     0.135 A 
ATOM     89  C   UNL     1      11.116  12.562   9.442  1.00  0.00     0.135 A 
ATOM     90  F   UNL     1      10.294   9.175  10.492  1.00  0.00    -0.206 F 
ATOM     91  C   UNL     1      11.571  10.822  11.570  1.00  0.00     0.059 A 
ATOM     92  C   UNL     1      11.903  12.982  10.509  1.00  0.00     0.059 A 
ATOM     93  F   UNL     1      10.911  13.422   8.432  1.00  0.00    -0.206 F 
ATOM     94  C   UNL     1      12.114  12.109  11.576  1.00  0.00     0.060 A 
BRANCH  94  95
ATOM     95  S   UNL     1      13.117  12.620  12.986  1.00  0.00     0.124 S 
ATOM     96  O   UNL     1      12.100  12.824  14.012  1.00  0.00    -0.237 OA
ATOM     97  O   UNL     1      13.992  11.467  13.182  1.00  0.00    -0.237 OA
ATOM     98  O   UNL     1      13.782  13.829  12.511  1.00  0.00    -0.744 OA
ENDBRANCH  94  95
ENDBRANCH  62  87
ENDBRANCH  36  37
ENDBRANCH  28  31
ENDBRANCH  26  27
ENDBRANCH  25  26
ENDBRANCH  24  25
ENDBRANCH   1  24
TORSDOF 20
