REMARK SMILES O=C(NCCCCCCNC(=O)c1nn(Cc2ccc(F)cc2)c2c1CN(C(=O)[C@H]1CC1(F)F)CC2)c1ccc(-c2c3nc(c(-c4c(F)cc(S(=O)(=O)[O-])cc4F)c4ccc([nH]4)c(-c4c(F)cc(S(=O)(=O)[O-])cc4F)c4nc(c(-c5c(F)cc(S(=O)(=O)[O-])cc5F)c5ccc2[nH]5)C=C4)C=C3)cc1
REMARK SMILES IDX 6 1 5 2 4 3 3 4 1 5 2 6 37 8 38 9 102 10 39 11 101 12 40 13
REMARK SMILES IDX 41 14 42 15 95 16 43 17 100 18 94 19 96 20 44 21 99 22 93 23
REMARK SMILES IDX 92 24 45 26 79 27 58 28 78 29 59 30 62 31 77 32 97 33 60 34
REMARK SMILES IDX 61 35 76 37 98 38 63 39 46 40 47 41 56 42 48 43 49 44 55 45
REMARK SMILES IDX 57 46 50 47 51 48 52 49 53 50 54 51 80 52 81 53 90 54 82 55
REMARK SMILES IDX 83 56 89 57 91 58 84 59 85 60 86 61 87 62 88 63 64 64 65 65
REMARK SMILES IDX 74 66 66 67 67 68 73 69 75 70 68 71 69 72 70 73 71 74 72 75
REMARK SMILES IDX 7 76 8 77 9 78 10 79 11 80 12 82 13 83 14 84 25 85 15 86
REMARK SMILES IDX 24 87 26 88 36 89 27 90 35 91 16 92 17 93 18 94 23 95 19 96
REMARK SMILES IDX 22 97 20 98 21 99 28 100 29 101 30 102 31 103 32 104 33 105
REMARK SMILES IDX 34 106
REMARK H PARENT 3 7 96 25 62 36 10 81
REMARK Flexibility Score: inf
ROOT
ATOM      1  C   UNL     1      10.163   6.764 -21.954  1.00  0.00     0.002 C 
ENDROOT
BRANCH   1   2
ATOM      2  C   UNL     1       9.780   5.555 -22.817  1.00  0.00     0.021 C 
BRANCH   2   3
ATOM      3  C   UNL     1       8.297   5.189 -22.768  1.00  0.00     0.116 C 
BRANCH   3   4
ATOM      4  N   UNL     1       7.411   6.199 -23.306  1.00  0.00    -0.352 N 
ATOM      5  O   UNL     1       6.066   7.333 -24.651  1.00  0.00    -0.269 OA
ATOM      6  C   UNL     1       6.963   6.491 -24.564  1.00  0.00     0.251 C 
ATOM      7  H   UNL     1       7.055   6.806 -22.618  1.00  0.00     0.163 HD
BRANCH   6   8
ATOM      8  C   UNL     1       7.565   5.944 -25.805  1.00  0.00     0.039 A 
ATOM      9  C   UNL     1       8.340   4.784 -25.892  1.00  0.00     0.014 A 
ATOM     10  C   UNL     1       7.369   6.719 -26.959  1.00  0.00     0.014 A 
ATOM     11  C   UNL     1       9.041   4.491 -27.053  1.00  0.00     0.010 A 
ATOM     12  C   UNL     1       8.034   6.412 -28.132  1.00  0.00     0.010 A 
ATOM     13  C   UNL     1       8.922   5.337 -28.151  1.00  0.00    -0.014 A 
BRANCH  13  14
ATOM     14  C   UNL     1       9.652   5.014 -29.371  1.00  0.00     0.031 A 
ATOM     15  C   UNL     1       9.177   3.780 -30.079  1.00  0.00     0.074 A 
ATOM     16  C   UNL     1      10.520   5.912 -29.883  1.00  0.00     0.049 A 
ATOM     17  N   UNL     1       9.860   2.783 -30.547  1.00  0.00    -0.248 NA
ATOM     18  C   UNL     1       7.715   3.586 -30.182  1.00  0.00     0.031 C 
ATOM     19  C   UNL     1      10.831   7.255 -29.374  1.00  0.00     0.029 A 
ATOM     20  N   UNL     1      11.210   5.878 -31.052  1.00  0.00    -0.354 N 
ATOM     21  C   UNL     1       8.937   1.947 -31.182  1.00  0.00     0.074 A 
ATOM     22  C   UNL     1       7.630   2.409 -30.800  1.00  0.00     0.031 C 
ATOM     23  C   UNL     1      11.420   7.981 -30.351  1.00  0.00     0.029 A 
ATOM     24  C   UNL     1      11.644   7.123 -31.498  1.00  0.00     0.049 A 
ATOM     25  H   UNL     1      11.388   5.043 -31.543  1.00  0.00     0.167 HD
ATOM     26  C   UNL     1       9.294   1.054 -32.147  1.00  0.00     0.037 A 
ATOM     27  C   UNL     1      12.040   7.424 -32.762  1.00  0.00     0.037 A 
ATOM     28  C   UNL     1      10.689   0.724 -32.077  1.00  0.00     0.049 A 
ATOM     29  C   UNL     1      12.375   6.130 -33.420  1.00  0.00     0.074 A 
ATOM     30  C   UNL     1      11.486   0.103 -31.136  1.00  0.00     0.029 A 
ATOM     31  N   UNL     1      11.554   1.364 -32.929  1.00  0.00    -0.354 N 
ATOM     32  N   UNL     1      13.350   5.350 -33.030  1.00  0.00    -0.248 NA
ATOM     33  C   UNL     1      11.320   5.481 -34.185  1.00  0.00     0.031 C 
ATOM     34  C   UNL     1      12.717   0.820 -31.169  1.00  0.00     0.029 A 
ATOM     35  C   UNL     1      12.616   1.788 -32.169  1.00  0.00     0.049 A 
ATOM     36  H   UNL     1      11.436   1.494 -33.898  1.00  0.00     0.167 HD
ATOM     37  C   UNL     1      12.849   4.061 -33.151  1.00  0.00     0.074 A 
ATOM     38  C   UNL     1      11.605   4.206 -33.908  1.00  0.00     0.031 C 
ATOM     39  C   UNL     1      13.325   3.029 -32.393  1.00  0.00     0.037 A 
BRANCH  26  40
ATOM     40  C   UNL     1       8.438   0.735 -33.351  1.00  0.00     0.058 A 
ATOM     41  C   UNL     1       7.462   1.621 -33.860  1.00  0.00     0.135 A 
ATOM     42  C   UNL     1       8.779  -0.343 -34.195  1.00  0.00     0.135 A 
ATOM     43  F   UNL     1       7.105   2.737 -33.211  1.00  0.00    -0.206 F 
ATOM     44  C   UNL     1       6.875   1.463 -35.108  1.00  0.00     0.059 A 
ATOM     45  C   UNL     1       8.237  -0.492 -35.475  1.00  0.00     0.059 A 
ATOM     46  F   UNL     1       9.704  -1.239 -33.817  1.00  0.00    -0.206 F 
ATOM     47  C   UNL     1       7.293   0.424 -35.925  1.00  0.00     0.060 A 
BRANCH  47  48
ATOM     48  S   UNL     1       6.656   0.377 -37.610  1.00  0.00     0.124 S 
ATOM     49  O   UNL     1       5.247   0.075 -37.382  1.00  0.00    -0.237 OA
ATOM     50  O   UNL     1       6.950   1.727 -38.080  1.00  0.00    -0.237 OA
ATOM     51  O   UNL     1       7.435  -0.686 -38.235  1.00  0.00    -0.744 OA
ENDBRANCH  47  48
ENDBRANCH  26  40
BRANCH  27  52
ATOM     52  C   UNL     1      11.668   8.648 -33.533  1.00  0.00     0.058 A 
ATOM     53  C   UNL     1      10.492   9.373 -33.243  1.00  0.00     0.135 A 
ATOM     54  C   UNL     1      12.309   8.978 -34.743  1.00  0.00     0.135 A 
ATOM     55  F   UNL     1       9.761   9.103 -32.153  1.00  0.00    -0.206 F 
ATOM     56  C   UNL     1       9.970  10.338 -34.102  1.00  0.00     0.059 A 
ATOM     57  C   UNL     1      11.798   9.940 -35.627  1.00  0.00     0.059 A 
ATOM     58  F   UNL     1      13.418   8.320 -35.115  1.00  0.00    -0.206 F 
ATOM     59  C   UNL     1      10.613  10.599 -35.306  1.00  0.00     0.060 A 
BRANCH  59  60
ATOM     60  S   UNL     1       9.814  11.744 -36.455  1.00  0.00     0.124 S 
ATOM     61  O   UNL     1       8.549  11.066 -36.722  1.00  0.00    -0.237 OA
ATOM     62  O   UNL     1       9.720  12.961 -35.654  1.00  0.00    -0.237 OA
ATOM     63  O   UNL     1      10.743  11.806 -37.578  1.00  0.00    -0.744 OA
ENDBRANCH  59  60
ENDBRANCH  27  52
BRANCH  39  64
ATOM     64  C   UNL     1      14.540   3.264 -31.527  1.00  0.00     0.058 A 
ATOM     65  C   UNL     1      15.663   2.447 -31.716  1.00  0.00     0.135 A 
ATOM     66  C   UNL     1      14.542   4.098 -30.393  1.00  0.00     0.135 A 
ATOM     67  F   UNL     1      15.700   1.584 -32.745  1.00  0.00    -0.206 F 
ATOM     68  C   UNL     1      16.727   2.439 -30.818  1.00  0.00     0.059 A 
ATOM     69  C   UNL     1      15.612   4.130 -29.494  1.00  0.00     0.059 A 
ATOM     70  F   UNL     1      13.469   4.836 -30.083  1.00  0.00    -0.206 F 
ATOM     71  C   UNL     1      16.692   3.279 -29.705  1.00  0.00     0.060 A 
BRANCH  71  72
ATOM     72  S   UNL     1      18.054   3.191 -28.524  1.00  0.00     0.124 S 
ATOM     73  O   UNL     1      17.901   1.842 -27.985  1.00  0.00    -0.237 OA
ATOM     74  O   UNL     1      19.220   3.397 -29.378  1.00  0.00    -0.237 OA
ATOM     75  O   UNL     1      17.773   4.270 -27.582  1.00  0.00    -0.744 OA
ENDBRANCH  71  72
ENDBRANCH  39  64
ENDBRANCH  13  14
ENDBRANCH   6   8
ENDBRANCH   3   4
ENDBRANCH   2   3
ENDBRANCH   1   2
BRANCH   1  76
ATOM     76  C   UNL     1       9.667   6.720 -20.504  1.00  0.00     0.002 C 
BRANCH  76  77
ATOM     77  C   UNL     1      10.068   5.468 -19.713  1.00  0.00     0.021 C 
BRANCH  77  78
ATOM     78  C   UNL     1      11.569   5.333 -19.455  1.00  0.00     0.116 C 
BRANCH  78  79
ATOM     79  N   UNL     1      12.026   6.343 -18.514  1.00  0.00    -0.351 N 
ATOM     80  C   UNL     1      12.509   6.185 -17.234  1.00  0.00     0.272 C 
ATOM     81  H   UNL     1      11.985   7.272 -18.838  1.00  0.00     0.163 HD
ATOM     82  O   UNL     1      12.560   7.174 -16.502  1.00  0.00    -0.267 OA
BRANCH  80  83
ATOM     83  C   UNL     1      12.908   4.851 -16.755  1.00  0.00     0.155 A 
ATOM     84  N   UNL     1      13.472   3.922 -17.552  1.00  0.00    -0.167 NA
ATOM     85  C   UNL     1      12.830   4.370 -15.420  1.00  0.00     0.026 A 
ATOM     86  N   UNL     1      13.649   2.837 -16.771  1.00  0.00    -0.264 N 
ATOM     87  C   UNL     1      13.242   3.054 -15.490  1.00  0.00     0.046 A 
ATOM     88  C   UNL     1      12.360   5.040 -14.170  1.00  0.00     0.159 C 
ATOM     89  C   UNL     1      13.248   2.113 -14.344  1.00  0.00     0.078 C 
ATOM     90  N   UNL     1      12.585   4.125 -13.025  1.00  0.00    -0.337 N 
ATOM     91  C   UNL     1      12.313   2.691 -13.259  1.00  0.00     0.126 C 
BRANCH  86  92
ATOM     92  C   UNL     1      14.330   1.667 -17.313  1.00  0.00     0.180 C 
BRANCH  92  93
ATOM     93  C   UNL     1      13.480   0.907 -18.304  1.00  0.00    -0.026 A 
ATOM     94  C   UNL     1      13.332   1.386 -19.618  1.00  0.00     0.008 A 
ATOM     95  C   UNL     1      12.847  -0.293 -17.942  1.00  0.00     0.008 A 
ATOM     96  C   UNL     1      12.575   0.679 -20.552  1.00  0.00     0.039 A 
ATOM     97  C   UNL     1      12.092  -1.000 -18.881  1.00  0.00     0.039 A 
ATOM     98  C   UNL     1      11.964  -0.509 -20.175  1.00  0.00     0.123 A 
ATOM     99  F   UNL     1      11.239  -1.195 -21.069  1.00  0.00    -0.207 F 
ENDBRANCH  92  93
ENDBRANCH  86  92
BRANCH  90 100
ATOM    100  C   UNL     1      13.007   4.667 -11.818  1.00  0.00     0.232 C 
ATOM    101  O   UNL     1      13.159   5.862 -11.624  1.00  0.00    -0.274 OA
BRANCH 100 102
ATOM    102  C   UNL     1      13.225   3.720 -10.703  1.00  0.00     0.154 C 
ATOM    103  C   UNL     1      14.471   2.848 -10.665  1.00  0.00     0.097 C 
ATOM    104  C   UNL     1      14.290   3.960  -9.702  1.00  0.00     0.260 C 
ATOM    105  F   UNL     1      15.162   5.020  -9.747  1.00  0.00    -0.206 F 
ATOM    106  F   UNL     1      14.084   3.658  -8.373  1.00  0.00    -0.206 F 
ENDBRANCH 100 102
ENDBRANCH  90 100
ENDBRANCH  80  83
ENDBRANCH  78  79
ENDBRANCH  77  78
ENDBRANCH  76  77
ENDBRANCH   1  76
TORSDOF 20
