REMARK SMILES Cc1nc([C@@H]2C[N@@H+]3CCC[C@@H]3CO2)sc1CC(=O)NCCCCCCNC(=O)c1ccc(-c2c3nc(c(-c4c(F)cc(S(=O)(=O)[O-])cc4F)c4ccc([nH]4)c(-c4c(F)cc(S(=O)(=O)[O-])cc4F)c4nc(c(-c5c(F)cc(S(=O)(=O)[O-])cc5F)c5ccc2[nH]5)C=C4)C=C3)cc1
REMARK SMILES IDX 23 1 22 2 21 3 20 4 19 5 17 6 18 7 16 9 15 10 1 11 2 12 3 13
REMARK SMILES IDX 4 14 14 15 5 16 6 17 13 18 7 19 12 20 8 21 11 22 9 24 10 25
REMARK SMILES IDX 24 26 25 27 26 28 27 29 28 31 29 32 30 33 94 34 31 35 93 36
REMARK SMILES IDX 32 37 33 38 34 39 87 40 35 41 92 42 86 43 88 44 36 45 91 46
REMARK SMILES IDX 85 47 84 48 37 50 71 51 50 52 70 53 51 54 54 55 69 56 89 57
REMARK SMILES IDX 52 58 53 59 68 61 90 62 55 63 38 64 39 65 48 66 40 67 41 68
REMARK SMILES IDX 47 69 49 70 42 71 43 72 44 73 45 74 46 75 72 76 73 77 82 78
REMARK SMILES IDX 74 79 75 80 81 81 83 82 76 83 77 84 78 85 79 86 80 87 56 88
REMARK SMILES IDX 57 89 66 90 58 91 59 92 65 93 67 94 60 95 61 96 62 97 63 98
REMARK SMILES IDX 64 99
REMARK H PARENT 19 8 7 23 26 30 88 49 54 60
REMARK Flexibility Score: inf
ROOT
ATOM      1  C   UNL     1       2.047   5.681  -6.916  1.00  0.00     0.002 C 
ENDROOT
BRANCH   1   2
ATOM      2  C   UNL     1       1.570   4.608  -5.931  1.00  0.00     0.002 C 
BRANCH   2   3
ATOM      3  C   UNL     1       1.345   5.105  -4.497  1.00  0.00     0.021 C 
BRANCH   3   4
ATOM      4  C   UNL     1       0.312   6.229  -4.396  1.00  0.00     0.116 C 
BRANCH   4   5
ATOM      5  N   UNL     1      -1.025   5.729  -4.656  1.00  0.00    -0.356 N 
ATOM      6  C   UNL     1      -2.063   5.531  -3.793  1.00  0.00     0.225 C 
ATOM      7  O   UNL     1      -3.082   4.990  -4.229  1.00  0.00    -0.275 OA
ATOM      8  H   UNL     1      -1.211   5.499  -5.595  1.00  0.00     0.163 HD
BRANCH   6   9
ATOM      9  C   UNL     1      -2.006   6.061  -2.371  1.00  0.00     0.148 C 
BRANCH   9  10
ATOM     10  C   UNL     1      -0.947   5.418  -1.532  1.00  0.00     0.037 A 
ATOM     11  C   UNL     1       0.457   7.450  -0.733  1.00  0.00     0.068 C 
ATOM     12  C   UNL     1       0.083   6.011  -0.817  1.00  0.00     0.052 A 
ATOM     13  N   UNL     1       0.915   5.125  -0.172  1.00  0.00    -0.243 NA
ATOM     14  C   UNL     1       0.606   3.882  -0.476  1.00  0.00     0.128 A 
ATOM     15  S   UNL     1      -0.863   3.707  -1.347  1.00  0.00    -0.120 S 
BRANCH  14  16
ATOM     16  C   UNL     1       1.478   2.691  -0.136  1.00  0.00     0.232 C 
ATOM     17  C   UNL     1       1.791   2.640   1.387  1.00  0.00     0.302 C 
ATOM     18  O   UNL     1       2.643   2.754  -0.986  1.00  0.00    -0.359 OA
ATOM     19  N   UNL     1       3.196   2.623   1.813  1.00  0.00    -0.328 N 
ATOM     20  C   UNL     1       3.619   3.675  -0.490  1.00  0.00     0.226 C 
ATOM     21  C   UNL     1       3.405   3.220   3.139  1.00  0.00     0.262 C 
ATOM     22  C   UNL     1       4.154   3.228   0.870  1.00  0.00     0.210 C 
ATOM     23  H   UNL     1       3.394   1.624   1.847  1.00  0.00     0.348 HD
ATOM     24  C   UNL     1       4.778   3.865   3.069  1.00  0.00     0.068 C 
ATOM     25  C   UNL     1       4.836   4.356   1.636  1.00  0.00     0.073 C 
ENDBRANCH  14  16
ENDBRANCH   9  10
ENDBRANCH   6   9
ENDBRANCH   4   5
ENDBRANCH   3   4
ENDBRANCH   2   3
ENDBRANCH   1   2
BRANCH   1  26
ATOM     26  C   UNL     1       3.336   6.399  -6.508  1.00  0.00     0.021 C 
BRANCH  26  27
ATOM     27  C   UNL     1       4.547   5.484  -6.361  1.00  0.00     0.116 C 
BRANCH  27  28
ATOM     28  N   UNL     1       4.899   4.847  -7.622  1.00  0.00    -0.352 N 
ATOM     29  C   UNL     1       6.096   4.850  -8.291  1.00  0.00     0.251 C 
ATOM     30  H   UNL     1       4.174   4.342  -8.056  1.00  0.00     0.163 HD
ATOM     31  O   UNL     1       6.151   4.443  -9.451  1.00  0.00    -0.269 OA
BRANCH  29  32
ATOM     32  C   UNL     1       7.312   5.358  -7.624  1.00  0.00     0.039 A 
ATOM     33  C   UNL     1       8.176   6.196  -8.333  1.00  0.00     0.014 A 
ATOM     34  C   UNL     1       7.603   5.005  -6.303  1.00  0.00     0.014 A 
ATOM     35  C   UNL     1       9.299   6.728  -7.697  1.00  0.00     0.010 A 
ATOM     36  C   UNL     1       8.680   5.597  -5.648  1.00  0.00     0.010 A 
ATOM     37  C   UNL     1       9.541   6.462  -6.339  1.00  0.00    -0.014 A 
BRANCH  37  38
ATOM     38  C   UNL     1      10.686   7.087  -5.625  1.00  0.00     0.031 A 
ATOM     39  C   UNL     1      11.780   6.229  -5.049  1.00  0.00     0.074 A 
ATOM     40  C   UNL     1      10.705   8.422  -5.442  1.00  0.00     0.049 A 
ATOM     41  N   UNL     1      12.822   6.585  -4.344  1.00  0.00    -0.248 NA
ATOM     42  C   UNL     1      11.676   4.777  -5.272  1.00  0.00     0.031 C 
ATOM     43  C   UNL     1       9.676   9.355  -5.909  1.00  0.00     0.029 A 
ATOM     44  N   UNL     1      11.615   9.228  -4.805  1.00  0.00    -0.354 N 
ATOM     45  C   UNL     1      13.489   5.407  -4.028  1.00  0.00     0.074 A 
ATOM     46  C   UNL     1      12.705   4.320  -4.574  1.00  0.00     0.031 C 
ATOM     47  C   UNL     1      10.023  10.604  -5.561  1.00  0.00     0.029 A 
ATOM     48  C   UNL     1      11.274  10.561  -4.811  1.00  0.00     0.049 A 
ATOM     49  H   UNL     1      12.436   8.885  -4.383  1.00  0.00     0.167 HD
ATOM     50  C   UNL     1      14.658   5.247  -3.363  1.00  0.00     0.037 A 
ATOM     51  C   UNL     1      11.890  11.627  -4.263  1.00  0.00     0.037 A 
ATOM     52  C   UNL     1      15.443   6.337  -2.843  1.00  0.00     0.049 A 
ATOM     53  C   UNL     1      13.186  11.423  -3.525  1.00  0.00     0.074 A 
ATOM     54  C   UNL     1      16.674   6.284  -2.212  1.00  0.00     0.029 A 
ATOM     55  N   UNL     1      15.074   7.674  -2.886  1.00  0.00    -0.354 N 
ATOM     56  N   UNL     1      13.839  10.308  -3.300  1.00  0.00    -0.248 NA
ATOM     57  C   UNL     1      13.834  12.621  -2.974  1.00  0.00     0.031 C 
ATOM     58  C   UNL     1      17.021   7.582  -1.823  1.00  0.00     0.029 A 
ATOM     59  C   UNL     1      16.039   8.452  -2.268  1.00  0.00     0.049 A 
ATOM     60  H   UNL     1      14.248   8.019  -3.296  1.00  0.00     0.167 HD
ATOM     61  C   UNL     1      14.989  10.673  -2.607  1.00  0.00     0.074 A 
ATOM     62  C   UNL     1      14.947  12.114  -2.462  1.00  0.00     0.031 C 
ATOM     63  C   UNL     1      15.988   9.887  -2.135  1.00  0.00     0.037 A 
BRANCH  50  64
ATOM     64  C   UNL     1      15.163   3.844  -3.156  1.00  0.00     0.058 A 
ATOM     65  C   UNL     1      15.634   3.061  -4.223  1.00  0.00     0.135 A 
ATOM     66  C   UNL     1      15.224   3.292  -1.866  1.00  0.00     0.135 A 
ATOM     67  F   UNL     1      15.588   3.531  -5.480  1.00  0.00    -0.206 F 
ATOM     68  C   UNL     1      16.121   1.774  -4.022  1.00  0.00     0.059 A 
ATOM     69  C   UNL     1      15.736   2.018  -1.638  1.00  0.00     0.059 A 
ATOM     70  F   UNL     1      14.787   3.994  -0.809  1.00  0.00    -0.206 F 
ATOM     71  C   UNL     1      16.170   1.261  -2.725  1.00  0.00     0.060 A 
BRANCH  71  72
ATOM     72  S   UNL     1      16.820  -0.405  -2.481  1.00  0.00     0.124 S 
ATOM     73  O   UNL     1      15.749  -1.220  -3.047  1.00  0.00    -0.237 OA
ATOM     74  O   UNL     1      18.062  -0.370  -3.247  1.00  0.00    -0.237 OA
ATOM     75  O   UNL     1      16.981  -0.500  -1.034  1.00  0.00    -0.744 OA
ENDBRANCH  71  72
ENDBRANCH  50  64
BRANCH  51  76
ATOM     76  C   UNL     1      11.293  12.983  -4.401  1.00  0.00     0.058 A 
ATOM     77  C   UNL     1      11.904  13.967  -5.192  1.00  0.00     0.135 A 
ATOM     78  C   UNL     1      10.094  13.320  -3.752  1.00  0.00     0.135 A 
ATOM     79  F   UNL     1      13.055  13.697  -5.828  1.00  0.00    -0.206 F 
ATOM     80  C   UNL     1      11.361  15.242  -5.321  1.00  0.00     0.059 A 
ATOM     81  C   UNL     1       9.516  14.578  -3.889  1.00  0.00     0.059 A 
ATOM     82  F   UNL     1       9.459  12.410  -2.997  1.00  0.00    -0.206 F 
ATOM     83  C   UNL     1      10.163  15.536  -4.667  1.00  0.00     0.060 A 
BRANCH  83  84
ATOM     84  S   UNL     1       9.443  17.179  -4.875  1.00  0.00     0.124 S 
ATOM     85  O   UNL     1      10.357  18.002  -4.093  1.00  0.00    -0.237 OA
ATOM     86  O   UNL     1       9.502  17.357  -6.323  1.00  0.00    -0.237 OA
ATOM     87  O   UNL     1       8.099  17.028  -4.325  1.00  0.00    -0.744 OA
ENDBRANCH  83  84
ENDBRANCH  51  76
BRANCH  63  88
ATOM     88  C   UNL     1      17.143  10.567  -1.450  1.00  0.00     0.058 A 
ATOM     89  C   UNL     1      17.013  11.148  -0.179  1.00  0.00     0.135 A 
ATOM     90  C   UNL     1      18.412  10.588  -2.052  1.00  0.00     0.135 A 
ATOM     91  F   UNL     1      15.821  11.162   0.440  1.00  0.00    -0.206 F 
ATOM     92  C   UNL     1      18.094  11.747   0.460  1.00  0.00     0.059 A 
ATOM     93  C   UNL     1      19.513  11.153  -1.418  1.00  0.00     0.059 A 
ATOM     94  F   UNL     1      18.595  10.037  -3.263  1.00  0.00    -0.206 F 
ATOM     95  C   UNL     1      19.341  11.742  -0.167  1.00  0.00     0.060 A 
BRANCH  95  96
ATOM     96  S   UNL     1      20.742  12.492   0.690  1.00  0.00     0.124 S 
ATOM     97  O   UNL     1      20.428  13.912   0.579  1.00  0.00    -0.237 OA
ATOM     98  O   UNL     1      20.632  11.920   2.028  1.00  0.00    -0.237 OA
ATOM     99  O   UNL     1      21.895  12.042  -0.085  1.00  0.00    -0.744 OA
ENDBRANCH  95  96
ENDBRANCH  63  88
ENDBRANCH  37  38
ENDBRANCH  29  32
ENDBRANCH  27  28
ENDBRANCH  26  27
ENDBRANCH   1  26
TORSDOF 18
