REMARK SMILES COc1ccc([C@H]2[C@H](C(=O)NCCCCCCNC(=O)c3ccc(-c4c5nc(c(-c6c(F)cc(S(=O)(=O)[O-])cc6F)c6ccc([nH]6)c(-c6c(F)cc(S(=O)(=O)[O-])cc6F)c6nc(c(-c7c(F)cc(S(=O)(=O)[O-])cc7F)c7ccc4[nH]7)C=C6)C=C5)cc3)CCN2c2ccc(F)cc2)cc1
REMARK SMILES IDX 15 1 14 2 13 3 12 4 11 5 9 6 10 7 8 9 7 10 89 11 87 12 88 13
REMARK SMILES IDX 6 14 3 15 4 16 98 17 5 18 97 19 2 20 1 21 90 22 91 23 96 24
REMARK SMILES IDX 92 25 95 26 93 27 94 28 16 29 17 30 18 31 19 32 20 34 21 35
REMARK SMILES IDX 22 36 86 37 23 38 85 39 24 40 25 41 26 42 79 43 27 44 84 45
REMARK SMILES IDX 78 46 80 47 28 48 83 49 77 50 76 51 29 53 63 54 42 55 62 56
REMARK SMILES IDX 43 57 46 58 61 59 81 60 44 61 45 62 60 64 82 65 47 66 30 67
REMARK SMILES IDX 31 68 40 69 32 70 33 71 39 72 41 73 34 74 35 75 36 76 37 77
REMARK SMILES IDX 38 78 64 79 65 80 74 81 66 82 67 83 73 84 75 85 68 86 69 87
REMARK SMILES IDX 70 88 71 89 72 90 48 91 49 92 58 93 50 94 51 95 57 96 59 97
REMARK SMILES IDX 52 98 53 99 54 100 55 101 56 102
REMARK H PARENT 11 8 18 33 80 52 46 63
REMARK Flexibility Score: inf
ROOT
ATOM      1  C   UNL     1       7.233   0.141  -5.306  1.00  0.00     0.002 C 
ENDROOT
BRANCH   1   2
ATOM      2  C   UNL     1       6.228  -0.275  -4.224  1.00  0.00     0.002 C 
BRANCH   2   3
ATOM      3  C   UNL     1       4.970  -0.968  -4.750  1.00  0.00     0.021 C 
BRANCH   3   4
ATOM      4  C   UNL     1       5.216  -2.330  -5.398  1.00  0.00     0.116 C 
BRANCH   4   5
ATOM      5  N   UNL     1       4.785  -3.418  -4.539  1.00  0.00    -0.356 N 
ATOM      6  C   UNL     1       3.735  -4.274  -4.567  1.00  0.00     0.225 C 
ATOM      7  O   UNL     1       3.639  -5.029  -3.588  1.00  0.00    -0.275 OA
ATOM      8  H   UNL     1       5.384  -3.567  -3.772  1.00  0.00     0.163 HD
BRANCH   6   9
ATOM      9  C   UNL     1       2.667  -4.366  -5.657  1.00  0.00     0.107 C 
ATOM     10  C   UNL     1       1.582  -3.282  -5.506  1.00  0.00     0.125 C 
ATOM     11  N   UNL     1       2.055  -2.272  -6.465  1.00  0.00    -0.364 N 
ATOM     12  C   UNL     1       3.129  -4.287  -7.110  1.00  0.00     0.037 C 
ATOM     13  C   UNL     1       2.646  -2.930  -7.634  1.00  0.00     0.118 C 
BRANCH  10  14
ATOM     14  C   UNL     1       0.181  -3.787  -5.907  1.00  0.00    -0.024 A 
ATOM     15  C   UNL     1      -2.297  -4.835  -6.797  1.00  0.00     0.118 A 
ATOM     16  C   UNL     1      -1.615  -5.430  -5.736  1.00  0.00     0.047 A 
ATOM     17  C   UNL     1      -1.795  -3.667  -7.354  1.00  0.00     0.047 A 
ATOM     18  C   UNL     1      -0.387  -4.915  -5.294  1.00  0.00     0.010 A 
ATOM     19  C   UNL     1      -0.580  -3.149  -6.905  1.00  0.00     0.010 A 
BRANCH  15  20
ATOM     20  O   UNL     1      -3.463  -5.433  -7.193  1.00  0.00    -0.497 OA
ATOM     21  C   UNL     1      -3.710  -5.361  -8.598  1.00  0.00     0.278 C 
ENDBRANCH  15  20
ENDBRANCH  10  14
BRANCH  11  22
ATOM     22  C   UNL     1       1.902  -0.911  -6.345  1.00  0.00     0.037 A 
ATOM     23  C   UNL     1       1.979  -0.065  -7.465  1.00  0.00     0.029 A 
ATOM     24  C   UNL     1       1.717  -0.286  -5.098  1.00  0.00     0.029 A 
ATOM     25  C   UNL     1       1.935   1.329  -7.347  1.00  0.00     0.041 A 
ATOM     26  C   UNL     1       1.703   1.107  -4.965  1.00  0.00     0.041 A 
ATOM     27  C   UNL     1       1.822   1.902  -6.092  1.00  0.00     0.123 A 
ATOM     28  F   UNL     1       1.846   3.234  -5.964  1.00  0.00    -0.207 F 
ENDBRANCH  11  22
ENDBRANCH   6   9
ENDBRANCH   4   5
ENDBRANCH   3   4
ENDBRANCH   2   3
ENDBRANCH   1   2
BRANCH   1  29
ATOM     29  C   UNL     1       6.678   1.026  -6.428  1.00  0.00     0.021 C 
BRANCH  29  30
ATOM     30  C   UNL     1       5.997   2.312  -5.960  1.00  0.00     0.116 C 
BRANCH  30  31
ATOM     31  N   UNL     1       6.902   3.157  -5.192  1.00  0.00    -0.352 N 
ATOM     32  C   UNL     1       7.485   4.352  -5.527  1.00  0.00     0.251 C 
ATOM     33  H   UNL     1       7.129   2.818  -4.296  1.00  0.00     0.163 HD
ATOM     34  O   UNL     1       8.412   4.795  -4.848  1.00  0.00    -0.269 OA
BRANCH  32  35
ATOM     35  C   UNL     1       7.013   5.099  -6.710  1.00  0.00     0.039 A 
ATOM     36  C   UNL     1       7.950   5.611  -7.612  1.00  0.00     0.014 A 
ATOM     37  C   UNL     1       5.646   5.295  -6.927  1.00  0.00     0.014 A 
ATOM     38  C   UNL     1       7.512   6.246  -8.777  1.00  0.00     0.010 A 
ATOM     39  C   UNL     1       5.212   5.867  -8.119  1.00  0.00     0.010 A 
ATOM     40  C   UNL     1       6.139   6.336  -9.061  1.00  0.00    -0.014 A 
BRANCH  40  41
ATOM     41  C   UNL     1       5.649   6.873 -10.356  1.00  0.00     0.031 A 
ATOM     42  C   UNL     1       4.818   8.124 -10.396  1.00  0.00     0.074 A 
ATOM     43  C   UNL     1       5.885   6.181 -11.489  1.00  0.00     0.049 A 
ATOM     44  N   UNL     1       4.225   8.690 -11.415  1.00  0.00    -0.248 NA
ATOM     45  C   UNL     1       4.609   8.817  -9.116  1.00  0.00     0.031 C 
ATOM     46  C   UNL     1       6.659   4.941 -11.575  1.00  0.00     0.029 A 
ATOM     47  N   UNL     1       5.488   6.414 -12.782  1.00  0.00    -0.354 N 
ATOM     48  C   UNL     1       3.568   9.802 -10.902  1.00  0.00     0.074 A 
ATOM     49  C   UNL     1       3.790   9.796  -9.471  1.00  0.00     0.031 C 
ATOM     50  C   UNL     1       6.704   4.538 -12.854  1.00  0.00     0.029 A 
ATOM     51  C   UNL     1       5.920   5.459 -13.672  1.00  0.00     0.049 A 
ATOM     52  H   UNL     1       4.946   7.192 -13.047  1.00  0.00     0.167 HD
ATOM     53  C   UNL     1       2.862  10.751 -11.565  1.00  0.00     0.037 A 
ATOM     54  C   UNL     1       5.698   5.330 -14.994  1.00  0.00     0.037 A 
ATOM     55  C   UNL     1       2.641  10.741 -12.988  1.00  0.00     0.049 A 
ATOM     56  C   UNL     1       4.851   6.355 -15.698  1.00  0.00     0.074 A 
ATOM     57  C   UNL     1       1.972  11.673 -13.763  1.00  0.00     0.029 A 
ATOM     58  N   UNL     1       3.069   9.741 -13.851  1.00  0.00    -0.354 N 
ATOM     59  N   UNL     1       4.284   7.432 -15.209  1.00  0.00    -0.248 NA
ATOM     60  C   UNL     1       4.607   6.144 -17.131  1.00  0.00     0.031 C 
ATOM     61  C   UNL     1       1.946  11.207 -15.082  1.00  0.00     0.029 A 
ATOM     62  C   UNL     1       2.648  10.014 -15.143  1.00  0.00     0.049 A 
ATOM     63  H   UNL     1       3.595   8.952 -13.584  1.00  0.00     0.167 HD
ATOM     64  C   UNL     1       3.639   8.042 -16.279  1.00  0.00     0.074 A 
ATOM     65  C   UNL     1       3.894   7.218 -17.443  1.00  0.00     0.031 C 
ATOM     66  C   UNL     1       2.907   9.183 -16.295  1.00  0.00     0.037 A 
BRANCH  53  67
ATOM     67  C   UNL     1       2.266  11.866 -10.746  1.00  0.00     0.058 A 
ATOM     68  C   UNL     1       3.071  12.821 -10.102  1.00  0.00     0.135 A 
ATOM     69  C   UNL     1       0.875  11.981 -10.597  1.00  0.00     0.135 A 
ATOM     70  F   UNL     1       4.409  12.756 -10.202  1.00  0.00    -0.206 F 
ATOM     71  C   UNL     1       2.523  13.815  -9.298  1.00  0.00     0.059 A 
ATOM     72  C   UNL     1       0.302  12.988  -9.824  1.00  0.00     0.059 A 
ATOM     73  F   UNL     1       0.054  11.103 -11.194  1.00  0.00    -0.206 F 
ATOM     74  C   UNL     1       1.136  13.885  -9.158  1.00  0.00     0.060 A 
BRANCH  74  75
ATOM     75  S   UNL     1       0.443  15.154  -8.078  1.00  0.00     0.124 S 
ATOM     76  O   UNL     1       0.797  14.638  -6.760  1.00  0.00    -0.237 OA
ATOM     77  O   UNL     1       1.160  16.352  -8.503  1.00  0.00    -0.237 OA
ATOM     78  O   UNL     1      -0.981  15.133  -8.398  1.00  0.00    -0.744 OA
ENDBRANCH  74  75
ENDBRANCH  53  67
BRANCH  54  79
ATOM     79  C   UNL     1       6.314   4.201 -15.741  1.00  0.00     0.058 A 
ATOM     80  C   UNL     1       7.353   4.432 -16.654  1.00  0.00     0.135 A 
ATOM     81  C   UNL     1       5.906   2.873 -15.537  1.00  0.00     0.135 A 
ATOM     82  F   UNL     1       7.771   5.684 -16.890  1.00  0.00    -0.206 F 
ATOM     83  C   UNL     1       7.965   3.389 -17.341  1.00  0.00     0.059 A 
ATOM     84  C   UNL     1       6.520   1.811 -16.193  1.00  0.00     0.059 A 
ATOM     85  F   UNL     1       4.924   2.597 -14.664  1.00  0.00    -0.206 F 
ATOM     86  C   UNL     1       7.546   2.080 -17.097  1.00  0.00     0.060 A 
BRANCH  86  87
ATOM     87  S   UNL     1       8.396   0.730 -17.945  1.00  0.00     0.124 S 
ATOM     88  O   UNL     1       7.936   0.908 -19.317  1.00  0.00    -0.237 OA
ATOM     89  O   UNL     1       9.798   1.048 -17.693  1.00  0.00    -0.237 OA
ATOM     90  O   UNL     1       7.898  -0.461 -17.262  1.00  0.00    -0.744 OA
ENDBRANCH  86  87
ENDBRANCH  54  79
BRANCH  66  91
ATOM     91  C   UNL     1       2.341   9.628 -17.617  1.00  0.00     0.058 A 
ATOM     92  C   UNL     1       1.263   8.961 -18.219  1.00  0.00     0.135 A 
ATOM     93  C   UNL     1       2.838  10.778 -18.253  1.00  0.00     0.135 A 
ATOM     94  F   UNL     1       0.758   7.850 -17.661  1.00  0.00    -0.206 F 
ATOM     95  C   UNL     1       0.703   9.413 -19.410  1.00  0.00     0.059 A 
ATOM     96  C   UNL     1       2.275  11.264 -19.428  1.00  0.00     0.059 A 
ATOM     97  F   UNL     1       3.865  11.456 -17.717  1.00  0.00    -0.206 F 
ATOM     98  C   UNL     1       1.210  10.571 -20.003  1.00  0.00     0.060 A 
BRANCH  98  99
ATOM     99  S   UNL     1       0.431  11.180 -21.514  1.00  0.00     0.124 S 
ATOM    100  O   UNL     1       0.865  10.186 -22.490  1.00  0.00    -0.237 OA
ATOM    101  O   UNL     1      -0.986  11.150 -21.166  1.00  0.00    -0.237 OA
ATOM    102  O   UNL     1       1.003  12.513 -21.679  1.00  0.00    -0.744 OA
ENDBRANCH  98  99
ENDBRANCH  66  91
ENDBRANCH  40  41
ENDBRANCH  32  35
ENDBRANCH  30  31
ENDBRANCH  29  30
ENDBRANCH   1  29
TORSDOF 19
