REMARK SMILES COC(=O)C[C@H](c1ccc(C(=O)NCCCCCCNC(=O)c2ccc(-c3c4nc(c(-c5c(F)cc(S(=O)(=O)[O-])cc5F)c5ccc([nH]5)c(-c5c(F)cc(S(=O)(=O)[O-])cc5F)c5nc(c(-c6c(F)cc(S(=O)(=O)[O-])cc6F)c6ccc3[nH]6)C=C5)C=C4)cc2)cc1)c1c(O)n[nH]c1C
REMARK SMILES IDX 16 1 15 2 14 3 13 4 11 5 12 6 10 8 7 9 8 10 90 11 9 12 89 13
REMARK SMILES IDX 6 14 5 15 3 16 4 17 2 18 1 19 91 20 92 21 96 22 94 23 95 24
REMARK SMILES IDX 97 25 93 27 17 29 18 30 19 31 20 32 21 33 22 35 23 36 24 37
REMARK SMILES IDX 88 38 25 39 87 40 26 41 27 42 28 43 81 44 29 45 86 46 80 47
REMARK SMILES IDX 82 48 30 49 85 50 79 51 78 52 31 54 65 55 44 56 64 57 45 58
REMARK SMILES IDX 48 59 63 60 83 61 46 62 47 63 62 65 84 66 49 67 32 68 33 69
REMARK SMILES IDX 42 70 34 71 35 72 41 73 43 74 36 75 37 76 38 77 39 78 40 79
REMARK SMILES IDX 66 80 67 81 76 82 68 83 69 84 75 85 77 86 70 87 71 88 72 89
REMARK SMILES IDX 73 90 74 91 50 92 51 93 60 94 52 95 53 96 59 97 61 98 54 99
REMARK SMILES IDX 55 100 56 101 57 102 58 103
REMARK H PARENT 13 7 95 26 93 28 20 34 82 53 48 64
REMARK Flexibility Score: inf
ROOT
ATOM      1  C   UNL     1       1.752  -4.501  -6.455  1.00  0.00     0.002 C 
ENDROOT
BRANCH   1   2
ATOM      2  C   UNL     1       1.942  -4.331  -4.942  1.00  0.00     0.021 C 
BRANCH   2   3
ATOM      3  C   UNL     1       1.137  -3.157  -4.381  1.00  0.00     0.116 C 
BRANCH   3   4
ATOM      4  N   UNL     1      -0.247  -3.555  -4.231  1.00  0.00    -0.352 N 
ATOM      5  C   UNL     1      -0.939  -4.147  -3.208  1.00  0.00     0.251 C 
ATOM      6  O   UNL     1      -2.097  -4.493  -3.451  1.00  0.00    -0.269 OA
ATOM      7  H   UNL     1      -0.801  -3.360  -5.022  1.00  0.00     0.163 HD
BRANCH   5   8
ATOM      8  C   UNL     1      -0.411  -4.299  -1.820  1.00  0.00     0.039 A 
ATOM      9  C   UNL     1       0.305  -4.175   0.915  1.00  0.00    -0.040 A 
ATOM     10  C   UNL     1      -1.016  -4.444   0.534  1.00  0.00     0.005 A 
ATOM     11  C   UNL     1       1.282  -4.131  -0.087  1.00  0.00     0.005 A 
ATOM     12  C   UNL     1      -1.372  -4.471  -0.814  1.00  0.00     0.014 A 
ATOM     13  C   UNL     1       0.929  -4.239  -1.437  1.00  0.00     0.014 A 
BRANCH   9  14
ATOM     14  C   UNL     1       0.696  -3.904   2.363  1.00  0.00     0.068 C 
BRANCH  14  15
ATOM     15  C   UNL     1       0.223  -2.540   2.883  1.00  0.00     0.136 C 
BRANCH  15  16
ATOM     16  C   UNL     1      -1.234  -2.189   2.676  1.00  0.00     0.306 C 
ATOM     17  O   UNL     1      -2.111  -2.339   3.514  1.00  0.00    -0.252 OA
BRANCH  16  18
ATOM     18  O   UNL     1      -1.444  -1.671   1.434  1.00  0.00    -0.469 OA
ATOM     19  C   UNL     1      -2.821  -1.548   1.067  1.00  0.00     0.282 C 
ENDBRANCH  16  18
ENDBRANCH  15  16
ENDBRANCH  14  15
BRANCH  14  20
ATOM     20  C   UNL     1       0.378  -5.166   3.121  1.00  0.00     0.044 A 
ATOM     21  C   UNL     1       0.935  -6.433   2.830  1.00  0.00     0.234 A 
ATOM     22  C   UNL     1      -0.406  -5.448   4.235  1.00  0.00     0.040 A 
ATOM     23  N   UNL     1       0.523  -7.428   3.595  1.00  0.00    -0.137 NA
ATOM     24  N   UNL     1      -0.313  -6.806   4.436  1.00  0.00    -0.279 N 
ATOM     25  C   UNL     1      -1.243  -4.637   5.149  1.00  0.00     0.066 C 
ATOM     26  H   UNL     1      -0.818  -7.278   5.137  1.00  0.00     0.190 HD
BRANCH  21  27
ATOM     27  O   UNL     1       1.816  -6.778   1.895  1.00  0.00    -0.492 OA
ATOM     28  H   UNL     1       2.157  -6.130   1.311  1.00  0.00     0.295 HD
ENDBRANCH  21  27
ENDBRANCH  14  20
ENDBRANCH   9  14
ENDBRANCH   5   8
ENDBRANCH   3   4
ENDBRANCH   2   3
ENDBRANCH   1   2
BRANCH   1  29
ATOM     29  C   UNL     1       2.282  -3.331  -7.293  1.00  0.00     0.002 C 
BRANCH  29  30
ATOM     30  C   UNL     1       3.754  -2.988  -7.050  1.00  0.00     0.021 C 
BRANCH  30  31
ATOM     31  C   UNL     1       4.716  -4.129  -7.365  1.00  0.00     0.116 C 
BRANCH  31  32
ATOM     32  N   UNL     1       4.688  -4.464  -8.779  1.00  0.00    -0.352 N 
ATOM     33  C   UNL     1       5.715  -4.463  -9.687  1.00  0.00     0.251 C 
ATOM     34  H   UNL     1       3.808  -4.729  -9.134  1.00  0.00     0.163 HD
ATOM     35  O   UNL     1       5.470  -4.504 -10.889  1.00  0.00    -0.269 OA
BRANCH  33  36
ATOM     36  C   UNL     1       7.114  -4.412  -9.212  1.00  0.00     0.039 A 
ATOM     37  C   UNL     1       8.025  -3.590  -9.877  1.00  0.00     0.014 A 
ATOM     38  C   UNL     1       7.530  -5.199  -8.134  1.00  0.00     0.014 A 
ATOM     39  C   UNL     1       9.349  -3.532  -9.440  1.00  0.00     0.010 A 
ATOM     40  C   UNL     1       8.833  -5.088  -7.656  1.00  0.00     0.010 A 
ATOM     41  C   UNL     1       9.759  -4.267  -8.315  1.00  0.00    -0.014 A 
BRANCH  41  42
ATOM     42  C   UNL     1      11.161  -4.204  -7.832  1.00  0.00     0.031 A 
ATOM     43  C   UNL     1      12.033  -5.430  -7.886  1.00  0.00     0.074 A 
ATOM     44  C   UNL     1      11.633  -3.057  -7.308  1.00  0.00     0.049 A 
ATOM     45  N   UNL     1      13.270  -5.582  -7.487  1.00  0.00    -0.248 NA
ATOM     46  C   UNL     1      11.427  -6.654  -8.435  1.00  0.00     0.031 C 
ATOM     47  C   UNL     1      10.865  -1.819  -7.153  1.00  0.00     0.029 A 
ATOM     48  N   UNL     1      12.870  -2.745  -6.804  1.00  0.00    -0.354 N 
ATOM     49  C   UNL     1      13.585  -6.914  -7.725  1.00  0.00     0.074 A 
ATOM     50  C   UNL     1      12.393  -7.543  -8.251  1.00  0.00     0.031 C 
ATOM     51  C   UNL     1      11.655  -0.876  -6.616  1.00  0.00     0.029 A 
ATOM     52  C   UNL     1      12.974  -1.447  -6.361  1.00  0.00     0.049 A 
ATOM     53  H   UNL     1      13.613  -3.389  -6.763  1.00  0.00     0.167 HD
ATOM     54  C   UNL     1      14.768  -7.551  -7.546  1.00  0.00     0.037 A 
ATOM     55  C   UNL     1      14.015  -0.793  -5.812  1.00  0.00     0.037 A 
ATOM     56  C   UNL     1      15.958  -6.911  -7.049  1.00  0.00     0.049 A 
ATOM     57  C   UNL     1      15.323  -1.516  -5.641  1.00  0.00     0.074 A 
ATOM     58  C   UNL     1      17.222  -7.450  -6.887  1.00  0.00     0.029 A 
ATOM     59  N   UNL     1      16.031  -5.589  -6.633  1.00  0.00    -0.354 N 
ATOM     60  N   UNL     1      15.623  -2.759  -5.933  1.00  0.00    -0.248 NA
ATOM     61  C   UNL     1      16.438  -0.744  -5.076  1.00  0.00     0.031 C 
ATOM     62  C   UNL     1      18.050  -6.465  -6.337  1.00  0.00     0.029 A 
ATOM     63  C   UNL     1      17.314  -5.299  -6.199  1.00  0.00     0.049 A 
ATOM     64  H   UNL     1      15.281  -4.951  -6.645  1.00  0.00     0.167 HD
ATOM     65  C   UNL     1      16.966  -2.913  -5.608  1.00  0.00     0.074 A 
ATOM     66  C   UNL     1      17.424  -1.630  -5.114  1.00  0.00     0.031 C 
ATOM     67  C   UNL     1      17.750  -4.015  -5.708  1.00  0.00     0.037 A 
BRANCH  54  68
ATOM     68  C   UNL     1      14.832  -9.012  -7.899  1.00  0.00     0.058 A 
ATOM     69  C   UNL     1      14.775  -9.450  -9.233  1.00  0.00     0.135 A 
ATOM     70  C   UNL     1      14.977  -9.985  -6.898  1.00  0.00     0.135 A 
ATOM     71  F   UNL     1      14.621  -8.565 -10.230  1.00  0.00    -0.206 F 
ATOM     72  C   UNL     1      14.828 -10.802  -9.558  1.00  0.00     0.059 A 
ATOM     73  C   UNL     1      15.061 -11.341  -7.202  1.00  0.00     0.059 A 
ATOM     74  F   UNL     1      15.036  -9.623  -5.606  1.00  0.00    -0.206 F 
ATOM     75  C   UNL     1      14.969 -11.740  -8.535  1.00  0.00     0.060 A 
BRANCH  75  76
ATOM     76  S   UNL     1      15.038 -13.490  -8.973  1.00  0.00     0.124 S 
ATOM     77  O   UNL     1      13.644 -13.759  -9.314  1.00  0.00    -0.237 OA
ATOM     78  O   UNL     1      15.976 -13.496 -10.091  1.00  0.00    -0.237 OA
ATOM     79  O   UNL     1      15.519 -14.128  -7.752  1.00  0.00    -0.744 OA
ENDBRANCH  75  76
ENDBRANCH  54  68
BRANCH  55  80
ATOM     80  C   UNL     1      13.870   0.632  -5.416  1.00  0.00     0.058 A 
ATOM     81  C   UNL     1      14.507   1.651  -6.139  1.00  0.00     0.135 A 
ATOM     82  C   UNL     1      13.081   1.006  -4.317  1.00  0.00     0.135 A 
ATOM     83  F   UNL     1      15.276   1.343  -7.196  1.00  0.00    -0.206 F 
ATOM     84  C   UNL     1      14.383   2.988  -5.779  1.00  0.00     0.059 A 
ATOM     85  C   UNL     1      12.921   2.339  -3.952  1.00  0.00     0.059 A 
ATOM     86  F   UNL     1      12.436   0.070  -3.603  1.00  0.00    -0.206 F 
ATOM     87  C   UNL     1      13.585   3.323  -4.684  1.00  0.00     0.060 A 
BRANCH  87  88
ATOM     88  S   UNL     1      13.390   5.066  -4.253  1.00  0.00     0.124 S 
ATOM     89  O   UNL     1      14.682   5.365  -3.648  1.00  0.00    -0.237 OA
ATOM     90  O   UNL     1      13.135   5.677  -5.554  1.00  0.00    -0.237 OA
ATOM     91  O   UNL     1      12.250   5.058  -3.340  1.00  0.00    -0.744 OA
ENDBRANCH  87  88
ENDBRANCH  55  80
BRANCH  67  92
ATOM     92  C   UNL     1      19.189  -3.872  -5.297  1.00  0.00     0.058 A 
ATOM     93  C   UNL     1      19.561  -3.750  -3.949  1.00  0.00     0.135 A 
ATOM     94  C   UNL     1      20.210  -3.887  -6.261  1.00  0.00     0.135 A 
ATOM     95  F   UNL     1      18.624  -3.725  -2.989  1.00  0.00    -0.206 F 
ATOM     96  C   UNL     1      20.894  -3.613  -3.574  1.00  0.00     0.059 A 
ATOM     97  C   UNL     1      21.550  -3.780  -5.907  1.00  0.00     0.059 A 
ATOM     98  F   UNL     1      19.909  -4.014  -7.564  1.00  0.00    -0.206 F 
ATOM     99  C   UNL     1      21.881  -3.627  -4.561  1.00  0.00     0.060 A 
BRANCH  99 100
ATOM    100  S   UNL     1      23.608  -3.461  -4.061  1.00  0.00     0.124 S 
ATOM    101  O   UNL     1      23.690  -2.036  -3.759  1.00  0.00    -0.237 OA
ATOM    102  O   UNL     1      23.690  -4.359  -2.913  1.00  0.00    -0.237 OA
ATOM    103  O   UNL     1      24.346  -3.897  -5.243  1.00  0.00    -0.744 OA
ENDBRANCH  99 100
ENDBRANCH  67  92
ENDBRANCH  41  42
ENDBRANCH  33  36
ENDBRANCH  31  32
ENDBRANCH  30  31
ENDBRANCH  29  30
ENDBRANCH   1  29
TORSDOF 22
