REMARK SMILES COc1ccc(NC(=O)C[C@@H](C[NH+]2CCOCC2)C(=O)NCCCCCCNC(=O)c2ccc(-c3c4nc(c(-c5c(F)cc(S(=O)(=O)[O-])cc5F)c5ccc([nH]5)c(-c5c(F)cc(S(=O)(=O)[O-])cc5F)c5nc(c(-c6c(F)cc(S(=O)(=O)[O-])cc6F)c6ccc3[nH]6)C=C5)C=C4)cc2)cc1
REMARK SMILES IDX 24 1 23 2 22 3 21 4 19 5 20 6 11 8 10 9 8 10 7 11 9 13 6 14
REMARK SMILES IDX 3 15 4 16 98 17 5 18 97 19 2 20 1 21 12 22 13 23 14 24 18 25
REMARK SMILES IDX 15 27 17 28 16 29 25 30 26 31 27 32 28 33 29 34 30 36 31 37
REMARK SMILES IDX 32 38 96 39 33 40 95 41 34 42 35 43 36 44 89 45 37 46 94 47
REMARK SMILES IDX 88 48 90 49 38 50 93 51 87 52 86 53 39 55 73 56 52 57 72 58
REMARK SMILES IDX 53 59 56 60 71 61 91 62 54 63 55 64 70 66 92 67 57 68 40 69
REMARK SMILES IDX 41 70 50 71 42 72 43 73 49 74 51 75 44 76 45 77 46 78 47 79
REMARK SMILES IDX 48 80 74 81 75 82 84 83 76 84 77 85 83 86 85 87 78 88 79 89
REMARK SMILES IDX 80 90 81 91 82 92 58 93 59 94 68 95 60 96 61 97 67 98 69 99
REMARK SMILES IDX 62 100 63 101 64 102 65 103 66 104
REMARK H PARENT 21 7 7 12 13 26 28 35 90 54 56 65
REMARK Flexibility Score: inf
ROOT
ATOM      1  C   UNL     1      -4.848   3.101   3.847  1.00  0.00     0.002 C 
ENDROOT
BRANCH   1   2
ATOM      2  C   UNL     1      -3.515   3.400   4.540  1.00  0.00     0.021 C 
BRANCH   2   3
ATOM      3  C   UNL     1      -2.528   4.090   3.611  1.00  0.00     0.116 C 
BRANCH   3   4
ATOM      4  N   UNL     1      -2.578   5.536   3.717  1.00  0.00    -0.356 N 
ATOM      5  C   UNL     1      -1.585   6.440   3.462  1.00  0.00     0.229 C 
ATOM      6  O   UNL     1      -1.897   7.630   3.364  1.00  0.00    -0.275 OA
ATOM      7  H   UNL     1      -3.438   5.915   4.010  1.00  0.00     0.163 HD
BRANCH   5   8
ATOM      8  C   UNL     1      -0.121   6.008   3.350  1.00  0.00     0.142 C 
BRANCH   8   9
ATOM      9  C   UNL     1       0.309   5.421   4.719  1.00  0.00     0.119 C 
BRANCH   9  10
ATOM     10  C   UNL     1       1.796   5.388   5.013  1.00  0.00     0.225 C 
ATOM     11  N   UNL     1       2.599   4.330   4.688  1.00  0.00    -0.326 N 
ATOM     12  H   UNL     1       3.534   4.425   4.981  1.00  0.00     0.169 HD
ATOM     13  O   UNL     1       2.338   6.376   5.521  1.00  0.00    -0.275 OA
BRANCH  11  14
ATOM     14  C   UNL     1       2.323   3.134   4.010  1.00  0.00     0.041 A 
ATOM     15  C   UNL     1       1.623   1.220   2.110  1.00  0.00     0.119 A 
ATOM     16  C   UNL     1       0.790   1.455   3.201  1.00  0.00     0.048 A 
ATOM     17  C   UNL     1       2.881   1.814   2.053  1.00  0.00     0.048 A 
ATOM     18  C   UNL     1       1.149   2.400   4.164  1.00  0.00     0.030 A 
ATOM     19  C   UNL     1       3.245   2.748   3.029  1.00  0.00     0.030 A 
BRANCH  15  20
ATOM     20  O   UNL     1       1.046   0.621   1.026  1.00  0.00    -0.497 OA
ATOM     21  C   UNL     1       1.708  -0.552   0.573  1.00  0.00     0.278 C 
ENDBRANCH  15  20
ENDBRANCH  11  14
ENDBRANCH   9  10
ENDBRANCH   8   9
BRANCH   8  22
ATOM     22  C   UNL     1       0.208   5.192   2.065  1.00  0.00     0.276 C 
BRANCH  22  23
ATOM     23  N   UNL     1      -0.927   4.864   1.194  1.00  0.00    -0.330 N 
ATOM     24  C   UNL     1      -0.861   3.536   0.554  1.00  0.00     0.291 C 
ATOM     25  C   UNL     1      -1.236   5.878   0.173  1.00  0.00     0.291 C 
ATOM     26  H   UNL     1      -1.693   4.849   1.867  1.00  0.00     0.348 HD
ATOM     27  C   UNL     1       0.013   3.476  -0.700  1.00  0.00     0.221 C 
ATOM     28  C   UNL     1      -0.382   5.763  -1.101  1.00  0.00     0.221 C 
ATOM     29  O   UNL     1      -0.424   4.445  -1.662  1.00  0.00    -0.370 OA
ENDBRANCH  22  23
ENDBRANCH   8  22
ENDBRANCH   5   8
ENDBRANCH   3   4
ENDBRANCH   2   3
ENDBRANCH   1   2
BRANCH   1  30
ATOM     30  C   UNL     1      -4.758   2.133   2.656  1.00  0.00     0.002 C 
BRANCH  30  31
ATOM     31  C   UNL     1      -4.094   0.784   2.947  1.00  0.00     0.021 C 
BRANCH  31  32
ATOM     32  C   UNL     1      -4.691   0.017   4.123  1.00  0.00     0.116 C 
BRANCH  32  33
ATOM     33  N   UNL     1      -6.125  -0.174   3.985  1.00  0.00    -0.352 N 
ATOM     34  C   UNL     1      -6.881  -1.298   4.171  1.00  0.00     0.251 C 
ATOM     35  H   UNL     1      -6.629   0.628   3.717  1.00  0.00     0.163 HD
ATOM     36  O   UNL     1      -8.068  -1.293   3.839  1.00  0.00    -0.269 OA
BRANCH  34  37
ATOM     37  C   UNL     1      -6.279  -2.519   4.742  1.00  0.00     0.039 A 
ATOM     38  C   UNL     1      -6.604  -3.752   4.173  1.00  0.00     0.014 A 
ATOM     39  C   UNL     1      -5.411  -2.459   5.838  1.00  0.00     0.014 A 
ATOM     40  C   UNL     1      -6.020  -4.917   4.667  1.00  0.00     0.010 A 
ATOM     41  C   UNL     1      -4.772  -3.615   6.283  1.00  0.00     0.010 A 
ATOM     42  C   UNL     1      -5.072  -4.856   5.703  1.00  0.00    -0.014 A 
BRANCH  42  43
ATOM     43  C   UNL     1      -4.374  -6.085   6.157  1.00  0.00     0.031 A 
ATOM     44  C   UNL     1      -4.564  -6.608   7.554  1.00  0.00     0.074 A 
ATOM     45  C   UNL     1      -3.541  -6.715   5.304  1.00  0.00     0.049 A 
ATOM     46  N   UNL     1      -4.054  -7.678   8.108  1.00  0.00    -0.248 NA
ATOM     47  C   UNL     1      -5.418  -5.817   8.454  1.00  0.00     0.031 C 
ATOM     48  C   UNL     1      -3.228  -6.266   3.945  1.00  0.00     0.029 A 
ATOM     49  N   UNL     1      -2.808  -7.866   5.449  1.00  0.00    -0.354 N 
ATOM     50  C   UNL     1      -4.521  -7.689   9.417  1.00  0.00     0.074 A 
ATOM     51  C   UNL     1      -5.308  -6.487   9.592  1.00  0.00     0.031 C 
ATOM     52  C   UNL     1      -2.400  -7.151   3.369  1.00  0.00     0.029 A 
ATOM     53  C   UNL     1      -2.094  -8.209   4.325  1.00  0.00     0.049 A 
ATOM     54  H   UNL     1      -2.796  -8.396   6.278  1.00  0.00     0.167 HD
ATOM     55  C   UNL     1      -4.333  -8.627  10.376  1.00  0.00     0.037 A 
ATOM     56  C   UNL     1      -1.284  -9.259   4.090  1.00  0.00     0.037 A 
ATOM     57  C   UNL     1      -3.558  -9.827  10.188  1.00  0.00     0.049 A 
ATOM     58  C   UNL     1      -1.095 -10.290   5.169  1.00  0.00     0.074 A 
ATOM     59  C   UNL     1      -3.354 -10.869  11.075  1.00  0.00     0.029 A 
ATOM     60  N   UNL     1      -2.851 -10.143   9.035  1.00  0.00    -0.354 N 
ATOM     61  N   UNL     1      -1.610 -10.324   6.375  1.00  0.00    -0.248 NA
ATOM     62  C   UNL     1      -0.224 -11.428   4.852  1.00  0.00     0.031 C 
ATOM     63  C   UNL     1      -2.484 -11.789  10.480  1.00  0.00     0.029 A 
ATOM     64  C   UNL     1      -2.189 -11.349   9.200  1.00  0.00     0.049 A 
ATOM     65  H   UNL     1      -2.824  -9.591   8.221  1.00  0.00     0.167 HD
ATOM     66  C   UNL     1      -1.140 -11.497   6.955  1.00  0.00     0.074 A 
ATOM     67  C   UNL     1      -0.319 -12.154   5.958  1.00  0.00     0.031 C 
ATOM     68  C   UNL     1      -1.365 -11.985   8.201  1.00  0.00     0.037 A 
BRANCH  55  69
ATOM     69  C   UNL     1      -4.978  -8.396  11.717  1.00  0.00     0.058 A 
ATOM     70  C   UNL     1      -6.371  -8.459  11.887  1.00  0.00     0.135 A 
ATOM     71  C   UNL     1      -4.194  -8.147  12.855  1.00  0.00     0.135 A 
ATOM     72  F   UNL     1      -7.172  -8.679  10.832  1.00  0.00    -0.206 F 
ATOM     73  C   UNL     1      -6.964  -8.254  13.129  1.00  0.00     0.059 A 
ATOM     74  C   UNL     1      -4.764  -7.969  14.113  1.00  0.00     0.059 A 
ATOM     75  F   UNL     1      -2.857  -8.076  12.753  1.00  0.00    -0.206 F 
ATOM     76  C   UNL     1      -6.152  -8.010  14.237  1.00  0.00     0.060 A 
BRANCH  76  77
ATOM     77  S   UNL     1      -6.938  -7.753  15.841  1.00  0.00     0.124 S 
ATOM     78  O   UNL     1      -7.528  -6.429  15.667  1.00  0.00    -0.237 OA
ATOM     79  O   UNL     1      -7.882  -8.864  15.907  1.00  0.00    -0.237 OA
ATOM     80  O   UNL     1      -5.824  -7.823  16.782  1.00  0.00    -0.744 OA
ENDBRANCH  76  77
ENDBRANCH  55  69
BRANCH  56  81
ATOM     81  C   UNL     1      -0.615  -9.398   2.769  1.00  0.00     0.058 A 
ATOM     82  C   UNL     1      -0.990 -10.405   1.869  1.00  0.00     0.135 A 
ATOM     83  C   UNL     1       0.398  -8.511   2.372  1.00  0.00     0.135 A 
ATOM     84  F   UNL     1      -1.951 -11.281   2.204  1.00  0.00    -0.206 F 
ATOM     85  C   UNL     1      -0.376 -10.541   0.628  1.00  0.00     0.059 A 
ATOM     86  C   UNL     1       1.008  -8.608   1.126  1.00  0.00     0.059 A 
ATOM     87  F   UNL     1       0.781  -7.516   3.188  1.00  0.00    -0.206 F 
ATOM     88  C   UNL     1       0.621  -9.633   0.264  1.00  0.00     0.060 A 
BRANCH  88  89
ATOM     89  S   UNL     1       1.375  -9.781  -1.370  1.00  0.00     0.124 S 
ATOM     90  O   UNL     1       2.208 -10.966  -1.203  1.00  0.00    -0.237 OA
ATOM     91  O   UNL     1       0.208  -9.935  -2.233  1.00  0.00    -0.237 OA
ATOM     92  O   UNL     1       2.094  -8.519  -1.522  1.00  0.00    -0.744 OA
ENDBRANCH  88  89
ENDBRANCH  56  81
BRANCH  68  93
ATOM     93  C   UNL     1      -0.725 -13.303   8.546  1.00  0.00     0.058 A 
ATOM     94  C   UNL     1       0.662 -13.422   8.733  1.00  0.00     0.135 A 
ATOM     95  C   UNL     1      -1.509 -14.455   8.714  1.00  0.00     0.135 A 
ATOM     96  F   UNL     1       1.459 -12.352   8.580  1.00  0.00    -0.206 F 
ATOM     97  C   UNL     1       1.252 -14.645   9.036  1.00  0.00     0.059 A 
ATOM     98  C   UNL     1      -0.944 -15.682   9.048  1.00  0.00     0.059 A 
ATOM     99  F   UNL     1      -2.842 -14.396   8.559  1.00  0.00    -0.206 F 
ATOM    100  C   UNL     1       0.440 -15.770   9.189  1.00  0.00     0.060 A 
BRANCH 100 101
ATOM    101  S   UNL     1       1.218 -17.349   9.588  1.00  0.00     0.124 S 
ATOM    102  O   UNL     1       1.833 -17.704   8.313  1.00  0.00    -0.237 OA
ATOM    103  O   UNL     1       2.142 -16.981  10.657  1.00  0.00    -0.237 OA
ATOM    104  O   UNL     1       0.095 -18.187   9.999  1.00  0.00    -0.744 OA
ENDBRANCH 100 101
ENDBRANCH  68  93
ENDBRANCH  42  43
ENDBRANCH  34  37
ENDBRANCH  32  33
ENDBRANCH  31  32
ENDBRANCH  30  31
ENDBRANCH   1  30
TORSDOF 22
