REMARK SMILES O=C(NCCCCCCNC(=O)c1ccccc1-c1ccc(/C=C2/SC(=S)N(Cc3ccccc3)C2=O)o1)c1ccc(-c2c3nc(c(-c4c(F)cc(S(=O)(=O)[O-])cc4F)c4ccc([nH]4)c(-c4c(F)cc(S(=O)(=O)[O-])cc4F)c4nc(c(-c5c(F)cc(S(=O)(=O)[O-])cc5F)c5ccc2[nH]5)C=C4)C=C3)cc1
REMARK SMILES IDX 7 1 6 2 5 3 4 4 3 5 1 6 2 7 39 9 40 10 104 11 41 12 103 13
REMARK SMILES IDX 42 14 43 15 44 16 97 17 45 18 102 19 96 20 98 21 46 22
REMARK SMILES IDX 101 23 95 24 94 25 47 27 81 28 60 29 80 30 61 31 64 32 79 33
REMARK SMILES IDX 99 34 62 35 63 36 78 38 100 39 65 40 48 41 49 42 58 43 50 44
REMARK SMILES IDX 51 45 57 46 59 47 52 48 53 49 54 50 55 51 56 52 82 53 83 54
REMARK SMILES IDX 92 55 84 56 85 57 91 58 93 59 86 60 87 61 88 62 89 63 90 64
REMARK SMILES IDX 66 65 67 66 76 67 68 68 69 69 75 70 77 71 70 72 71 73 72 74
REMARK SMILES IDX 73 75 74 76 8 77 9 78 10 79 11 80 12 82 13 83 14 84 18 85
REMARK SMILES IDX 15 86 17 87 16 88 19 89 20 90 38 91 21 92 22 93 23 94 24 95
REMARK SMILES IDX 25 96 36 97 26 98 28 99 37 100 27 101 29 102 30 103 31 104
REMARK SMILES IDX 35 105 32 106 34 107 33 108
REMARK H PARENT 3 8 98 26 64 37 10 81
REMARK Flexibility Score: inf
ROOT
ATOM      1  C   UNL     1       4.699   4.415  -0.562  1.00  0.00     0.002 C 
ENDROOT
BRANCH   1   2
ATOM      2  C   UNL     1       4.295   3.493  -1.718  1.00  0.00     0.002 C 
BRANCH   2   3
ATOM      3  C   UNL     1       4.815   2.061  -1.630  1.00  0.00     0.021 C 
BRANCH   3   4
ATOM      4  C   UNL     1       4.477   1.321  -0.346  1.00  0.00     0.116 C 
BRANCH   4   5
ATOM      5  N   UNL     1       3.049   1.127  -0.160  1.00  0.00    -0.352 N 
ATOM      6  O   UNL     1       1.129  -0.030   0.076  1.00  0.00    -0.269 OA
ATOM      7  C   UNL     1       2.356  -0.036   0.079  1.00  0.00     0.251 C 
ATOM      8  H   UNL     1       2.501   1.943  -0.214  1.00  0.00     0.163 HD
BRANCH   7   9
ATOM      9  C   UNL     1       3.095  -1.298   0.312  1.00  0.00     0.039 A 
ATOM     10  C   UNL     1       4.224  -1.319   1.134  1.00  0.00     0.014 A 
ATOM     11  C   UNL     1       2.657  -2.474  -0.303  1.00  0.00     0.014 A 
ATOM     12  C   UNL     1       4.998  -2.469   1.216  1.00  0.00     0.010 A 
ATOM     13  C   UNL     1       3.378  -3.660  -0.130  1.00  0.00     0.010 A 
ATOM     14  C   UNL     1       4.569  -3.662   0.613  1.00  0.00    -0.014 A 
BRANCH  14  15
ATOM     15  C   UNL     1       5.332  -4.912   0.865  1.00  0.00     0.031 A 
ATOM     16  C   UNL     1       5.994  -5.670  -0.252  1.00  0.00     0.074 A 
ATOM     17  C   UNL     1       5.439  -5.344   2.138  1.00  0.00     0.049 A 
ATOM     18  N   UNL     1       6.700  -6.770  -0.189  1.00  0.00    -0.248 NA
ATOM     19  C   UNL     1       5.839  -5.136  -1.614  1.00  0.00     0.031 C 
ATOM     20  C   UNL     1       4.822  -4.695   3.300  1.00  0.00     0.029 A 
ATOM     21  N   UNL     1       6.108  -6.412   2.676  1.00  0.00    -0.354 N 
ATOM     22  C   UNL     1       7.063  -7.070  -1.498  1.00  0.00     0.074 A 
ATOM     23  C   UNL     1       6.474  -6.049  -2.338  1.00  0.00     0.031 C 
ATOM     24  C   UNL     1       5.182  -5.347   4.414  1.00  0.00     0.029 A 
ATOM     25  C   UNL     1       5.986  -6.504   4.043  1.00  0.00     0.049 A 
ATOM     26  H   UNL     1       6.627  -7.052   2.137  1.00  0.00     0.167 HD
ATOM     27  C   UNL     1       7.822  -8.099  -1.949  1.00  0.00     0.037 A 
ATOM     28  C   UNL     1       6.444  -7.430   4.905  1.00  0.00     0.037 A 
ATOM     29  C   UNL     1       8.406  -9.106  -1.095  1.00  0.00     0.049 A 
ATOM     30  C   UNL     1       7.251  -8.577   4.372  1.00  0.00     0.074 A 
ATOM     31  C   UNL     1       9.217 -10.170  -1.452  1.00  0.00     0.029 A 
ATOM     32  N   UNL     1       8.235  -9.183   0.280  1.00  0.00    -0.354 N 
ATOM     33  N   UNL     1       7.616  -8.822   3.135  1.00  0.00    -0.248 NA
ATOM     34  C   UNL     1       7.708  -9.575   5.346  1.00  0.00     0.031 C 
ATOM     35  C   UNL     1       9.490 -10.920  -0.303  1.00  0.00     0.029 A 
ATOM     36  C   UNL     1       8.902 -10.290   0.782  1.00  0.00     0.049 A 
ATOM     37  H   UNL     1       7.716  -8.544   0.821  1.00  0.00     0.167 HD
ATOM     38  C   UNL     1       8.362  -9.992   3.186  1.00  0.00     0.074 A 
ATOM     39  C   UNL     1       8.415 -10.392   4.578  1.00  0.00     0.031 C 
ATOM     40  C   UNL     1       8.946 -10.676   2.171  1.00  0.00     0.037 A 
BRANCH  27  41
ATOM     41  C   UNL     1       8.059  -8.206  -3.433  1.00  0.00     0.058 A 
ATOM     42  C   UNL     1       8.884  -7.302  -4.120  1.00  0.00     0.135 A 
ATOM     43  C   UNL     1       7.506  -9.270  -4.168  1.00  0.00     0.135 A 
ATOM     44  F   UNL     1       9.430  -6.258  -3.474  1.00  0.00    -0.206 F 
ATOM     45  C   UNL     1       9.139  -7.437  -5.482  1.00  0.00     0.059 A 
ATOM     46  C   UNL     1       7.770  -9.440  -5.524  1.00  0.00     0.059 A 
ATOM     47  F   UNL     1       6.710 -10.166  -3.564  1.00  0.00    -0.206 F 
ATOM     48  C   UNL     1       8.581  -8.512  -6.175  1.00  0.00     0.060 A 
BRANCH  48  49
ATOM     49  S   UNL     1       8.944  -8.684  -7.936  1.00  0.00     0.124 S 
ATOM     50  O   UNL     1       8.193  -7.567  -8.500  1.00  0.00    -0.237 OA
ATOM     51  O   UNL     1      10.397  -8.548  -7.967  1.00  0.00    -0.237 OA
ATOM     52  O   UNL     1       8.434 -10.012  -8.263  1.00  0.00    -0.744 OA
ENDBRANCH  48  49
ENDBRANCH  27  41
BRANCH  28  53
ATOM     53  C   UNL     1       6.128  -7.314   6.354  1.00  0.00     0.058 A 
ATOM     54  C   UNL     1       7.132  -7.056   7.298  1.00  0.00     0.135 A 
ATOM     55  C   UNL     1       4.810  -7.445   6.821  1.00  0.00     0.135 A 
ATOM     56  F   UNL     1       8.408  -6.924   6.902  1.00  0.00    -0.206 F 
ATOM     57  C   UNL     1       6.846  -6.952   8.655  1.00  0.00     0.059 A 
ATOM     58  C   UNL     1       4.494  -7.312   8.168  1.00  0.00     0.059 A 
ATOM     59  F   UNL     1       3.808  -7.672   5.957  1.00  0.00    -0.206 F 
ATOM     60  C   UNL     1       5.522  -7.080   9.080  1.00  0.00     0.060 A 
BRANCH  60  61
ATOM     61  S   UNL     1       5.157  -6.911  10.839  1.00  0.00     0.124 S 
ATOM     62  O   UNL     1       5.698  -8.156  11.371  1.00  0.00    -0.237 OA
ATOM     63  O   UNL     1       5.888  -5.696  11.188  1.00  0.00    -0.237 OA
ATOM     64  O   UNL     1       3.703  -6.789  10.870  1.00  0.00    -0.744 OA
ENDBRANCH  60  61
ENDBRANCH  28  53
BRANCH  40  65
ATOM     65  C   UNL     1       9.724 -11.911   2.537  1.00  0.00     0.058 A 
ATOM     66  C   UNL     1       9.088 -13.084   2.973  1.00  0.00     0.135 A 
ATOM     67  C   UNL     1      11.123 -11.929   2.422  1.00  0.00     0.135 A 
ATOM     68  F   UNL     1       7.753 -13.118   3.111  1.00  0.00    -0.206 F 
ATOM     69  C   UNL     1       9.814 -14.222   3.312  1.00  0.00     0.059 A 
ATOM     70  C   UNL     1      11.867 -13.066   2.723  1.00  0.00     0.059 A 
ATOM     71  F   UNL     1      11.782 -10.837   2.002  1.00  0.00    -0.206 F 
ATOM     72  C   UNL     1      11.204 -14.203   3.181  1.00  0.00     0.060 A 
BRANCH  72  73
ATOM     73  S   UNL     1      12.131 -15.693   3.600  1.00  0.00     0.124 S 
ATOM     74  O   UNL     1      12.033 -15.702   5.056  1.00  0.00    -0.237 OA
ATOM     75  O   UNL     1      11.378 -16.734   2.907  1.00  0.00    -0.237 OA
ATOM     76  O   UNL     1      13.462 -15.428   3.062  1.00  0.00    -0.744 OA
ENDBRANCH  72  73
ENDBRANCH  40  65
ENDBRANCH  14  15
ENDBRANCH   7   9
ENDBRANCH   4   5
ENDBRANCH   3   4
ENDBRANCH   2   3
ENDBRANCH   1   2
BRANCH   1  77
ATOM     77  C   UNL     1       6.199   4.498  -0.251  1.00  0.00     0.021 C 
BRANCH  77  78
ATOM     78  C   UNL     1       7.084   4.872  -1.433  1.00  0.00     0.116 C 
BRANCH  78  79
ATOM     79  N   UNL     1       6.805   6.193  -1.966  1.00  0.00    -0.352 N 
ATOM     80  C   UNL     1       7.671   7.074  -2.565  1.00  0.00     0.252 C 
ATOM     81  H   UNL     1       5.872   6.497  -1.889  1.00  0.00     0.163 HD
ATOM     82  O   UNL     1       7.265   8.158  -2.977  1.00  0.00    -0.269 OA
BRANCH  80  83
ATOM     83  C   UNL     1       9.112   6.754  -2.676  1.00  0.00     0.050 A 
ATOM     84  C   UNL     1       9.995   7.611  -2.005  1.00  0.00     0.014 A 
ATOM     85  C   UNL     1       9.600   5.669  -3.426  1.00  0.00     0.030 A 
ATOM     86  C   UNL     1      11.367   7.366  -2.039  1.00  0.00     0.001 A 
ATOM     87  C   UNL     1      10.982   5.427  -3.435  1.00  0.00     0.013 A 
ATOM     88  C   UNL     1      11.859   6.269  -2.745  1.00  0.00     0.001 A 
BRANCH  85  89
ATOM     89  C   UNL     1       8.720   4.809  -4.194  1.00  0.00     0.135 A 
ATOM     90  C   UNL     1       7.752   5.044  -5.142  1.00  0.00     0.051 A 
ATOM     91  O   UNL     1       8.741   3.488  -3.858  1.00  0.00    -0.457 OA
ATOM     92  C   UNL     1       7.127   3.800  -5.372  1.00  0.00     0.051 A 
ATOM     93  C   UNL     1       7.757   2.849  -4.573  1.00  0.00     0.128 A 
BRANCH  93  94
ATOM     94  C   UNL     1       7.430   1.475  -4.429  1.00  0.00     0.068 C 
ATOM     95  C   UNL     1       7.528   0.627  -5.458  1.00  0.00     0.084 C 
ATOM     96  S   UNL     1       6.724  -0.889  -5.551  1.00  0.00    -0.054 SA
ATOM     97  C   UNL     1       8.180   0.917  -6.754  1.00  0.00     0.266 C 
ATOM     98  C   UNL     1       6.798  -0.884  -7.320  1.00  0.00     0.148 C 
ATOM     99  N   UNL     1       7.616   0.142  -7.744  1.00  0.00    -0.288 N 
ATOM    100  O   UNL     1       9.098   1.714  -6.895  1.00  0.00    -0.268 OA
ATOM    101  S   UNL     1       5.940  -1.970  -8.246  1.00  0.00    -0.052 S 
BRANCH  99 102
ATOM    102  C   UNL     1       7.975   0.433  -9.127  1.00  0.00     0.163 C 
BRANCH 102 103
ATOM    103  C   UNL     1       7.148   1.558  -9.727  1.00  0.00    -0.028 A 
ATOM    104  C   UNL     1       6.313   1.312 -10.825  1.00  0.00     0.005 A 
ATOM    105  C   UNL     1       7.234   2.873  -9.238  1.00  0.00     0.005 A 
ATOM    106  C   UNL     1       5.591   2.352 -11.418  1.00  0.00     0.000 A 
ATOM    107  C   UNL     1       6.498   3.908  -9.819  1.00  0.00     0.000 A 
ATOM    108  C   UNL     1       5.681   3.648 -10.914  1.00  0.00     0.000 A 
ENDBRANCH 102 103
ENDBRANCH  99 102
ENDBRANCH  93  94
ENDBRANCH  85  89
ENDBRANCH  80  83
ENDBRANCH  78  79
ENDBRANCH  77  78
ENDBRANCH   1  77
TORSDOF 20
