REMARK SMILES CCS(=O)(=O)Nc1ccc(N2CC[NH+](C)CC2)cc1C(=O)NCCCCCCNC(=O)c1ccc(-c2c3nc(c(-c4c(F)cc(S(=O)(=O)[O-])cc4F)c4ccc([nH]4)c(-c4c(F)cc(S(=O)(=O)[O-])cc4F)c4nc(c(-c5c(F)cc(S(=O)(=O)[O-])cc5F)c5ccc2[nH]5)C=C4)C=C3)cc1
REMARK SMILES IDX 25 1 24 2 23 3 22 4 20 5 21 6 19 8 7 9 8 10 9 11 18 12 10 13
REMARK SMILES IDX 6 14 3 16 4 17 5 18 2 19 1 20 11 21 12 22 17 23 13 24 16 25
REMARK SMILES IDX 14 26 15 27 26 29 27 30 28 31 29 32 30 33 31 35 32 36 33 37
REMARK SMILES IDX 97 38 34 39 96 40 35 41 36 42 37 43 90 44 38 45 95 46 89 47
REMARK SMILES IDX 91 48 39 49 94 50 88 51 87 52 40 54 74 55 53 56 73 57 54 58
REMARK SMILES IDX 57 59 72 60 92 61 55 62 56 63 71 65 93 66 58 67 41 68 42 69
REMARK SMILES IDX 51 70 43 71 44 72 50 73 52 74 45 75 46 76 47 77 48 78 49 79
REMARK SMILES IDX 75 80 76 81 85 82 77 83 78 84 84 85 86 86 79 87 80 88 81 89
REMARK SMILES IDX 82 90 83 91 59 92 60 93 69 94 61 95 62 96 68 97 70 98 63 99
REMARK SMILES IDX 64 100 65 101 66 102 67 103
REMARK H PARENT 22 7 6 15 14 28 29 34 91 53 57 64
REMARK Flexibility Score: inf
ROOT
ATOM      1  C   UNL     1       0.744  -2.741   4.392  1.00  0.00     0.002 C 
ENDROOT
BRANCH   1   2
ATOM      2  C   UNL     1       2.225  -2.728   3.982  1.00  0.00     0.021 C 
BRANCH   2   3
ATOM      3  C   UNL     1       2.521  -2.306   2.544  1.00  0.00     0.116 C 
BRANCH   3   4
ATOM      4  N   UNL     1       2.116  -0.944   2.247  1.00  0.00    -0.352 N 
ATOM      5  C   UNL     1       2.391  -0.133   1.175  1.00  0.00     0.253 C 
ATOM      6  O   UNL     1       1.966   1.024   1.199  1.00  0.00    -0.269 OA
ATOM      7  H   UNL     1       1.545  -0.530   2.934  1.00  0.00     0.163 HD
BRANCH   5   8
ATOM      8  C   UNL     1       3.216  -0.561   0.009  1.00  0.00     0.066 A 
ATOM      9  C   UNL     1       3.179  -1.817  -0.599  1.00  0.00     0.061 A 
ATOM     10  C   UNL     1       4.154  -2.132  -1.548  1.00  0.00     0.030 A 
ATOM     11  C   UNL     1       4.963  -1.139  -2.087  1.00  0.00     0.028 A 
ATOM     12  C   UNL     1       4.000   0.453  -0.608  1.00  0.00     0.042 A 
ATOM     13  C   UNL     1       4.795   0.202  -1.737  1.00  0.00     0.038 A 
BRANCH   9  14
ATOM     14  N   UNL     1       2.189  -2.831  -0.427  1.00  0.00    -0.283 N 
ATOM     15  H   UNL     1       2.485  -3.725  -0.140  1.00  0.00     0.180 HD
BRANCH  14  16
ATOM     16  S   UNL     1       0.553  -2.586  -0.685  1.00  0.00     0.232 S 
ATOM     17  O   UNL     1      -0.058  -2.124   0.535  1.00  0.00    -0.207 OA
ATOM     18  O   UNL     1       0.124  -3.845  -1.269  1.00  0.00    -0.207 OA
BRANCH  16  19
ATOM     19  C   UNL     1       0.328  -1.327  -1.941  1.00  0.00     0.156 C 
ATOM     20  C   UNL     1       0.210   0.087  -1.404  1.00  0.00     0.023 C 
ENDBRANCH  16  19
ENDBRANCH  14  16
ENDBRANCH   9  14
BRANCH  13  21
ATOM     21  N   UNL     1       5.291   1.202  -2.550  1.00  0.00    -0.360 N 
ATOM     22  C   UNL     1       5.873   2.460  -2.061  1.00  0.00     0.178 C 
ATOM     23  C   UNL     1       5.494   0.942  -3.989  1.00  0.00     0.178 C 
ATOM     24  C   UNL     1       5.506   3.648  -2.994  1.00  0.00     0.283 C 
ATOM     25  C   UNL     1       5.091   2.163  -4.838  1.00  0.00     0.283 C 
ATOM     26  N   UNL     1       5.796   3.392  -4.426  1.00  0.00    -0.334 N 
ATOM     27  C   UNL     1       5.374   4.516  -5.259  1.00  0.00     0.332 C 
ATOM     28  H   UNL     1       6.802   3.278  -4.548  1.00  0.00     0.347 HD
ENDBRANCH  13  21
ENDBRANCH   5   8
ENDBRANCH   3   4
ENDBRANCH   2   3
ENDBRANCH   1   2
BRANCH   1  29
ATOM     29  C   UNL     1      -0.225  -3.587   3.560  1.00  0.00     0.002 C 
BRANCH  29  30
ATOM     30  C   UNL     1       0.173  -5.034   3.282  1.00  0.00     0.021 C 
BRANCH  30  31
ATOM     31  C   UNL     1       0.514  -5.857   4.515  1.00  0.00     0.116 C 
BRANCH  31  32
ATOM     32  N   UNL     1      -0.555  -5.880   5.500  1.00  0.00    -0.352 N 
ATOM     33  C   UNL     1      -1.020  -6.932   6.250  1.00  0.00     0.251 C 
ATOM     34  H   UNL     1      -1.010  -5.021   5.651  1.00  0.00     0.163 HD
ATOM     35  O   UNL     1      -2.014  -6.793   6.956  1.00  0.00    -0.269 OA
BRANCH  33  36
ATOM     36  C   UNL     1      -0.338  -8.242   6.174  1.00  0.00     0.039 A 
ATOM     37  C   UNL     1      -1.113  -9.396   6.043  1.00  0.00     0.014 A 
ATOM     38  C   UNL     1       1.056  -8.330   6.207  1.00  0.00     0.014 A 
ATOM     39  C   UNL     1      -0.486 -10.632   5.880  1.00  0.00     0.010 A 
ATOM     40  C   UNL     1       1.678  -9.549   5.957  1.00  0.00     0.010 A 
ATOM     41  C   UNL     1       0.914 -10.714   5.796  1.00  0.00    -0.014 A 
BRANCH  41  42
ATOM     42  C   UNL     1       1.594 -12.008   5.536  1.00  0.00     0.031 A 
ATOM     43  C   UNL     1       2.538 -12.584   6.556  1.00  0.00     0.074 A 
ATOM     44  C   UNL     1       1.405 -12.632   4.356  1.00  0.00     0.049 A 
ATOM     45  N   UNL     1       3.264 -13.670   6.488  1.00  0.00    -0.248 NA
ATOM     46  C   UNL     1       2.712 -11.826   7.806  1.00  0.00     0.031 C 
ATOM     47  C   UNL     1       0.553 -12.143   3.268  1.00  0.00     0.029 A 
ATOM     48  N   UNL     1       1.919 -13.807   3.869  1.00  0.00    -0.354 N 
ATOM     49  C   UNL     1       3.983 -13.720   7.676  1.00  0.00     0.074 A 
ATOM     50  C   UNL     1       3.655 -12.524   8.420  1.00  0.00     0.031 C 
ATOM     51  C   UNL     1       0.582 -13.024   2.256  1.00  0.00     0.029 A 
ATOM     52  C   UNL     1       1.486 -14.117   2.600  1.00  0.00     0.049 A 
ATOM     53  H   UNL     1       2.541 -14.375   4.379  1.00  0.00     0.167 HD
ATOM     54  C   UNL     1       4.822 -14.688   8.118  1.00  0.00     0.037 A 
ATOM     55  C   UNL     1       1.790 -15.158   1.801  1.00  0.00     0.037 A 
ATOM     56  C   UNL     1       5.128 -15.884   7.376  1.00  0.00     0.049 A 
ATOM     57  C   UNL     1       2.735 -16.214   2.308  1.00  0.00     0.074 A 
ATOM     58  C   UNL     1       5.920 -16.952   7.756  1.00  0.00     0.029 A 
ATOM     59  N   UNL     1       4.661 -16.167   6.099  1.00  0.00    -0.354 N 
ATOM     60  N   UNL     1       3.354 -16.280   3.464  1.00  0.00    -0.248 NA
ATOM     61  C   UNL     1       3.020 -17.339   1.409  1.00  0.00     0.031 C 
ATOM     62  C   UNL     1       5.980 -17.854   6.689  1.00  0.00     0.029 A 
ATOM     63  C   UNL     1       5.172 -17.380   5.667  1.00  0.00     0.049 A 
ATOM     64  H   UNL     1       4.056 -15.591   5.579  1.00  0.00     0.167 HD
ATOM     65  C   UNL     1       4.078 -17.467   3.441  1.00  0.00     0.074 A 
ATOM     66  C   UNL     1       3.808 -18.093   2.162  1.00  0.00     0.031 C 
ATOM     67  C   UNL     1       4.891 -17.992   4.391  1.00  0.00     0.037 A 
BRANCH  54  68
ATOM     68  C   UNL     1       5.468 -14.494   9.464  1.00  0.00     0.058 A 
ATOM     69  C   UNL     1       4.725 -14.537  10.655  1.00  0.00     0.135 A 
ATOM     70  C   UNL     1       6.856 -14.301   9.568  1.00  0.00     0.135 A 
ATOM     71  F   UNL     1       3.394 -14.704  10.617  1.00  0.00    -0.206 F 
ATOM     72  C   UNL     1       5.328 -14.364  11.897  1.00  0.00     0.059 A 
ATOM     73  C   UNL     1       7.485 -14.159  10.802  1.00  0.00     0.059 A 
ATOM     74  F   UNL     1       7.617 -14.250   8.463  1.00  0.00    -0.206 F 
ATOM     75  C   UNL     1       6.710 -14.177  11.960  1.00  0.00     0.060 A 
BRANCH  75  76
ATOM     76  S   UNL     1       7.476 -13.964  13.581  1.00  0.00     0.124 S 
ATOM     77  O   UNL     1       7.005 -12.634  13.953  1.00  0.00    -0.237 OA
ATOM     78  O   UNL     1       6.909 -15.073  14.341  1.00  0.00    -0.237 OA
ATOM     79  O   UNL     1       8.904 -14.067  13.299  1.00  0.00    -0.744 OA
ENDBRANCH  75  76
ENDBRANCH  54  68
BRANCH  55  80
ATOM     80  C   UNL     1       1.182 -15.259   0.447  1.00  0.00     0.058 A 
ATOM     81  C   UNL     1       0.244 -16.258   0.147  1.00  0.00     0.135 A 
ATOM     82  C   UNL     1       1.515 -14.352  -0.572  1.00  0.00     0.135 A 
ATOM     83  F   UNL     1      -0.104 -17.154   1.084  1.00  0.00    -0.206 F 
ATOM     84  C   UNL     1      -0.328 -16.368  -1.117  1.00  0.00     0.059 A 
ATOM     85  C   UNL     1       0.935 -14.423  -1.835  1.00  0.00     0.059 A 
ATOM     86  F   UNL     1       2.395 -13.367  -0.335  1.00  0.00    -0.206 F 
ATOM     87  C   UNL     1       0.022 -15.442  -2.101  1.00  0.00     0.060 A 
BRANCH  87  88
ATOM     88  S   UNL     1      -0.757 -15.568  -3.725  1.00  0.00     0.124 S 
ATOM     89  O   UNL     1      -0.127 -16.769  -4.261  1.00  0.00    -0.237 OA
ATOM     90  O   UNL     1      -2.170 -15.689  -3.377  1.00  0.00    -0.237 OA
ATOM     91  O   UNL     1      -0.384 -14.316  -4.375  1.00  0.00    -0.744 OA
ENDBRANCH  87  88
ENDBRANCH  55  80
BRANCH  67  92
ATOM     92  C   UNL     1       5.523 -19.327   4.103  1.00  0.00     0.058 A 
ATOM     93  C   UNL     1       6.544 -19.473   3.151  1.00  0.00     0.135 A 
ATOM     94  C   UNL     1       5.137 -20.466   4.829  1.00  0.00     0.135 A 
ATOM     95  F   UNL     1       6.948 -18.419   2.424  1.00  0.00    -0.206 F 
ATOM     96  C   UNL     1       7.142 -20.706   2.910  1.00  0.00     0.059 A 
ATOM     97  C   UNL     1       5.744 -21.701   4.628  1.00  0.00     0.059 A 
ATOM     98  F   UNL     1       4.173 -20.381   5.759  1.00  0.00    -0.206 F 
ATOM     99  C   UNL     1       6.738 -21.814   3.657  1.00  0.00     0.060 A 
BRANCH  99 100
ATOM    100  S   UNL     1       7.547 -23.399   3.358  1.00  0.00     0.124 S 
ATOM    101  O   UNL     1       7.001 -23.768   2.056  1.00  0.00    -0.237 OA
ATOM    102  O   UNL     1       8.960 -23.035   3.373  1.00  0.00    -0.237 OA
ATOM    103  O   UNL     1       7.106 -24.224   4.480  1.00  0.00    -0.744 OA
ENDBRANCH  99 100
ENDBRANCH  67  92
ENDBRANCH  41  42
ENDBRANCH  33  36
ENDBRANCH  31  32
ENDBRANCH  30  31
ENDBRANCH  29  30
ENDBRANCH   1  29
TORSDOF 20
