REMARK SMILES Cc1cc(C(=O)N2CCCO[C@H](C)C2)sc1/C=C/C(=O)NCCCCCCNC(=O)c1ccc(-c2c3nc(c(-c4c(F)cc(S(=O)(=O)[O-])cc4F)c4ccc([nH]4)c(-c4c(F)cc(S(=O)(=O)[O-])cc4F)c4nc(c(-c5c(F)cc(S(=O)(=O)[O-])cc5F)c5ccc2[nH]5)C=C4)C=C3)cc1
REMARK SMILES IDX 22 1 21 2 19 3 20 4 18 6 17 7 16 8 1 9 2 10 3 11 4 12 15 13
REMARK SMILES IDX 5 14 6 15 7 16 8 17 9 18 14 20 12 21 13 22 11 23 10 24 23 26
REMARK SMILES IDX 24 27 25 28 26 29 27 30 28 31 29 32 30 34 31 35 32 36 96 37
REMARK SMILES IDX 33 38 95 39 34 40 35 41 36 42 89 43 37 44 94 45 88 46 90 47
REMARK SMILES IDX 38 48 93 49 87 50 86 51 39 53 73 54 52 55 72 56 53 57 56 58
REMARK SMILES IDX 71 59 91 60 54 61 55 62 70 64 92 65 57 66 40 67 41 68 50 69
REMARK SMILES IDX 42 70 43 71 49 72 51 73 44 74 45 75 46 76 47 77 48 78 74 79
REMARK SMILES IDX 75 80 84 81 76 82 77 83 83 84 85 85 78 86 79 87 80 88 81 89
REMARK SMILES IDX 82 90 58 91 59 92 68 93 60 94 61 95 67 96 69 97 62 98 63 99
REMARK SMILES IDX 64 100 65 101 66 102
REMARK H PARENT 21 5 28 33 90 52 56 63
REMARK Flexibility Score: 80.00
ROOT
ATOM      1  C   UNL     1       2.171  -4.702  -0.303  1.00  0.00     0.116 C 
ENDROOT
BRANCH   1   2
ATOM      2  N   UNL     1       0.857  -5.292  -0.126  1.00  0.00    -0.353 N 
ATOM      3  C   UNL     1      -0.371  -4.719  -0.042  1.00  0.00     0.244 C 
ATOM      4  O   UNL     1      -1.369  -5.428   0.070  1.00  0.00    -0.270 OA
ATOM      5  H   UNL     1       0.856  -6.274  -0.055  1.00  0.00     0.163 HD
BRANCH   3   6
ATOM      6  C   UNL     1      -0.535  -3.259  -0.196  1.00  0.00     0.072 C 
ATOM      7  C   UNL     1       0.198  -2.332   0.439  1.00  0.00     0.025 C 
BRANCH   7   8
ATOM      8  C   UNL     1       0.024  -0.931   0.221  1.00  0.00     0.031 A 
ATOM      9  C   UNL     1       2.479  -0.140   0.179  1.00  0.00     0.046 C 
ATOM     10  C   UNL     1       0.996   0.063   0.156  1.00  0.00    -0.032 A 
ATOM     11  C   UNL     1       0.405   1.366   0.025  1.00  0.00     0.029 A 
ATOM     12  C   UNL     1      -0.973   1.344  -0.063  1.00  0.00     0.093 A 
ATOM     13  S   UNL     1      -1.540  -0.263  -0.021  1.00  0.00    -0.130 S 
BRANCH  12  14
ATOM     14  C   UNL     1      -1.835   2.488  -0.354  1.00  0.00     0.264 C 
ATOM     15  O   UNL     1      -1.368   3.528  -0.825  1.00  0.00    -0.268 OA
BRANCH  14  16
ATOM     16  N   UNL     1      -3.221   2.372  -0.193  1.00  0.00    -0.335 N 
BRANCH  16  17
ATOM     17  C   UNL     1      -4.063   2.959  -1.223  1.00  0.00     0.122 C 
BRANCH  17  18
ATOM     18  C   UNL     1      -5.040   4.015  -0.732  1.00  0.00     0.050 CG0
ATOM     19  G   UNL     1      -6.082   3.420   0.201  1.00  0.00     0.000 G0
ENDBRANCH  17  18
ENDBRANCH  16  17
BRANCH  16  20
ATOM     20  C   UNL     1      -3.863   1.773   0.984  1.00  0.00     0.151 C 
BRANCH  20  21
ATOM     21  C   UNL     1      -4.488   2.796   1.956  1.00  0.00     0.134 C 
ATOM     22  C   UNL     1      -3.495   3.865   2.411  1.00  0.00     0.040 C 
BRANCH  21  23
ATOM     23  O   UNL     1      -5.706   3.433   1.568  1.00  0.00    -0.377 OA
BRANCH  23  24
ATOM     24  C   UNL     1      -6.082   3.420   0.201  1.00  0.00     0.162 CG0
ATOM     25  G   UNL     1      -5.040   4.015  -0.732  1.00  0.00     0.000 G0
ENDBRANCH  23  24
ENDBRANCH  21  23
ENDBRANCH  20  21
ENDBRANCH  16  20
ENDBRANCH  14  16
ENDBRANCH  12  14
ENDBRANCH   7   8
ENDBRANCH   3   6
ENDBRANCH   1   2
BRANCH   1  26
ATOM     26  C   UNL     1       3.004  -4.889   0.965  1.00  0.00     0.021 C 
BRANCH  26  27
ATOM     27  C   UNL     1       3.600  -6.297   1.091  1.00  0.00     0.002 C 
BRANCH  27  28
ATOM     28  C   UNL     1       4.572  -6.682  -0.031  1.00  0.00     0.002 C 
BRANCH  28  29
ATOM     29  C   UNL     1       5.731  -5.704  -0.242  1.00  0.00     0.021 C 
BRANCH  29  30
ATOM     30  C   UNL     1       6.637  -5.538   0.974  1.00  0.00     0.116 C 
BRANCH  30  31
ATOM     31  N   UNL     1       7.309  -6.783   1.312  1.00  0.00    -0.352 N 
ATOM     32  C   UNL     1       8.653  -7.047   1.400  1.00  0.00     0.251 C 
ATOM     33  H   UNL     1       6.716  -7.544   1.505  1.00  0.00     0.163 HD
ATOM     34  O   UNL     1       9.048  -8.207   1.450  1.00  0.00    -0.269 OA
BRANCH  32  35
ATOM     35  C   UNL     1       9.619  -5.928   1.425  1.00  0.00     0.039 A 
ATOM     36  C   UNL     1      10.782  -6.017   0.657  1.00  0.00     0.014 A 
ATOM     37  C   UNL     1       9.382  -4.800   2.216  1.00  0.00     0.014 A 
ATOM     38  C   UNL     1      11.683  -4.951   0.644  1.00  0.00     0.010 A 
ATOM     39  C   UNL     1      10.242  -3.709   2.143  1.00  0.00     0.010 A 
ATOM     40  C   UNL     1      11.406  -3.776   1.363  1.00  0.00    -0.014 A 
BRANCH  40  41
ATOM     41  C   UNL     1      12.322  -2.608   1.312  1.00  0.00     0.031 A 
ATOM     42  C   UNL     1      13.021  -2.141   2.559  1.00  0.00     0.074 A 
ATOM     43  C   UNL     1      12.475  -1.934   0.155  1.00  0.00     0.049 A 
ATOM     44  N   UNL     1      13.809  -1.110   2.727  1.00  0.00    -0.248 NA
ATOM     45  C   UNL     1      12.782  -2.918   3.786  1.00  0.00     0.031 C 
ATOM     46  C   UNL     1      11.812  -2.263  -1.109  1.00  0.00     0.029 A 
ATOM     47  N   UNL     1      13.227  -0.826  -0.144  1.00  0.00    -0.354 N 
ATOM     48  C   UNL     1      14.149  -1.107   4.075  1.00  0.00     0.074 A 
ATOM     49  C   UNL     1      13.436  -2.205   4.691  1.00  0.00     0.031 C 
ATOM     50  C   UNL     1      12.206  -1.393  -2.052  1.00  0.00     0.029 A 
ATOM     51  C   UNL     1      13.116  -0.421  -1.453  1.00  0.00     0.049 A 
ATOM     52  H   UNL     1      13.794  -0.365   0.516  1.00  0.00     0.167 HD
ATOM     53  C   UNL     1      14.997  -0.281   4.734  1.00  0.00     0.037 A 
ATOM     54  C   UNL     1      13.676   0.622  -2.097  1.00  0.00     0.037 A 
ATOM     55  C   UNL     1      15.716   0.798   4.107  1.00  0.00     0.049 A 
ATOM     56  C   UNL     1      14.607   1.532  -1.344  1.00  0.00     0.074 A 
ATOM     57  C   UNL     1      16.643   1.657   4.672  1.00  0.00     0.029 A 
ATOM     58  N   UNL     1      15.587   1.170   2.776  1.00  0.00    -0.354 N 
ATOM     59  N   UNL     1      14.970   1.480  -0.084  1.00  0.00    -0.248 NA
ATOM     60  C   UNL     1      15.210   2.639  -2.099  1.00  0.00     0.031 C 
ATOM     61  C   UNL     1      17.034   2.580   3.696  1.00  0.00     0.029 A 
ATOM     62  C   UNL     1      16.396   2.262   2.508  1.00  0.00     0.049 A 
ATOM     63  H   UNL     1      15.005   0.723   2.119  1.00  0.00     0.167 HD
ATOM     64  C   UNL     1      15.864   2.529   0.098  1.00  0.00     0.074 A 
ATOM     65  C   UNL     1      15.995   3.191  -1.184  1.00  0.00     0.031 C 
ATOM     66  C   UNL     1      16.517   2.909   1.224  1.00  0.00     0.037 A 
BRANCH  53  67
ATOM     67  C   UNL     1      15.189  -0.511   6.209  1.00  0.00     0.058 A 
ATOM     68  C   UNL     1      15.852  -1.647   6.700  1.00  0.00     0.135 A 
ATOM     69  C   UNL     1      14.725   0.428   7.145  1.00  0.00     0.135 A 
ATOM     70  F   UNL     1      16.305  -2.586   5.853  1.00  0.00    -0.206 F 
ATOM     71  C   UNL     1      16.016  -1.863   8.065  1.00  0.00     0.059 A 
ATOM     72  C   UNL     1      14.906   0.249   8.514  1.00  0.00     0.059 A 
ATOM     73  F   UNL     1      14.085   1.534   6.734  1.00  0.00    -0.206 F 
ATOM     74  C   UNL     1      15.537  -0.910   8.964  1.00  0.00     0.060 A 
BRANCH  74  75
ATOM     75  S   UNL     1      15.750  -1.209  10.732  1.00  0.00     0.124 S 
ATOM     76  O   UNL     1      14.780  -2.275  10.965  1.00  0.00    -0.237 OA
ATOM     77  O   UNL     1      17.153  -1.601  10.815  1.00  0.00    -0.237 OA
ATOM     78  O   UNL     1      15.425   0.078  11.337  1.00  0.00    -0.744 OA
ENDBRANCH  74  75
ENDBRANCH  53  67
BRANCH  54  79
ATOM     79  C   UNL     1      13.388   0.842  -3.540  1.00  0.00     0.058 A 
ATOM     80  C   UNL     1      14.374   0.624  -4.514  1.00  0.00     0.135 A 
ATOM     81  C   UNL     1      12.118   1.248  -3.977  1.00  0.00     0.135 A 
ATOM     82  F   UNL     1      15.606   0.240  -4.146  1.00  0.00    -0.206 F 
ATOM     83  C   UNL     1      14.117   0.812  -5.867  1.00  0.00     0.059 A 
ATOM     84  C   UNL     1      11.828   1.417  -5.327  1.00  0.00     0.059 A 
ATOM     85  F   UNL     1      11.134   1.453  -3.087  1.00  0.00    -0.206 F 
ATOM     86  C   UNL     1      12.837   1.205  -6.265  1.00  0.00     0.060 A 
BRANCH  86  87
ATOM     87  S   UNL     1      12.497   1.388  -8.029  1.00  0.00     0.124 S 
ATOM     88  O   UNL     1      13.229   2.610  -8.344  1.00  0.00    -0.237 OA
ATOM     89  O   UNL     1      13.049   0.153  -8.576  1.00  0.00    -0.237 OA
ATOM     90  O   UNL     1      11.042   1.492  -8.081  1.00  0.00    -0.744 OA
ENDBRANCH  86  87
ENDBRANCH  54  79
BRANCH  66  91
ATOM     91  C   UNL     1      17.460   4.077   1.117  1.00  0.00     0.058 A 
ATOM     92  C   UNL     1      16.994   5.392   0.962  1.00  0.00     0.135 A 
ATOM     93  C   UNL     1      18.847   3.882   1.224  1.00  0.00     0.135 A 
ATOM     94  F   UNL     1      15.678   5.634   0.848  1.00  0.00    -0.206 F 
ATOM     95  C   UNL     1      17.871   6.470   0.892  1.00  0.00     0.059 A 
ATOM     96  C   UNL     1      19.740   4.948   1.187  1.00  0.00     0.059 A 
ATOM     97  F   UNL     1      19.346   2.646   1.383  1.00  0.00    -0.206 F 
ATOM     98  C   UNL     1      19.243   6.238   1.009  1.00  0.00     0.060 A 
BRANCH  98  99
ATOM     99  S   UNL     1      20.367   7.649   0.951  1.00  0.00     0.124 S 
ATOM    100  O   UNL     1      20.320   8.004  -0.463  1.00  0.00    -0.237 OA
ATOM    101  O   UNL     1      19.729   8.593   1.863  1.00  0.00    -0.237 OA
ATOM    102  O   UNL     1      21.634   7.094   1.418  1.00  0.00    -0.744 OA
ENDBRANCH  98  99
ENDBRANCH  66  91
ENDBRANCH  40  41
ENDBRANCH  32  35
ENDBRANCH  30  31
ENDBRANCH  29  30
ENDBRANCH  28  29
ENDBRANCH  27  28
ENDBRANCH  26  27
ENDBRANCH   1  26
TORSDOF 19
