REMARK SMILES CC[NH2+][C@]1(C(=O)NCCCCCCNC(=O)c2ccc(-c3c4nc(c(-c5c(F)cc(S(=O)(=O)[O-])cc5F)c5ccc([nH]5)c(-c5c(F)cc(S(=O)(=O)[O-])cc5F)c5nc(c(-c6c(F)cc(S(=O)(=O)[O-])cc6F)c6ccc3[nH]6)C=C5)C=C4)cc2)CCC[C@H]1CC[N@H+]1CCC[C@@H](CC)C1
REMARK SMILES IDX 10 1 9 2 8 3 7 4 5 5 6 6 4 8 83 9 86 10 84 11 85 12 3 13
REMARK SMILES IDX 2 16 1 17 87 18 88 19 89 20 90 21 96 22 91 24 93 25 92 26
REMARK SMILES IDX 94 27 95 28 11 29 12 30 13 31 14 32 15 33 16 35 17 36 18 37
REMARK SMILES IDX 82 38 19 39 81 40 20 41 21 42 22 43 75 44 23 45 80 46 74 47
REMARK SMILES IDX 76 48 24 49 79 50 73 51 72 52 25 54 59 55 38 56 58 57 39 58
REMARK SMILES IDX 42 59 57 60 77 61 40 62 41 63 56 65 78 66 43 67 26 68 27 69
REMARK SMILES IDX 36 70 28 71 29 72 35 73 37 74 30 75 31 76 32 77 33 78 34 79
REMARK SMILES IDX 60 80 61 81 70 82 62 83 63 84 69 85 71 86 64 87 65 88 66 89
REMARK SMILES IDX 67 90 68 91 44 92 45 93 54 94 46 95 47 96 53 97 55 98 48 99
REMARK SMILES IDX 49 100 50 101 51 102 52 103
REMARK H PARENT 7 7 3 14 3 15 89 23 14 34 76 53 42 64
REMARK Flexibility Score: inf
ROOT
ATOM      1  C   UNL     1       4.898   3.021  -0.724  1.00  0.00     0.002 C 
ENDROOT
BRANCH   1   2
ATOM      2  C   UNL     1       4.386   3.595   0.602  1.00  0.00     0.021 C 
BRANCH   2   3
ATOM      3  C   UNL     1       2.975   4.172   0.550  1.00  0.00     0.116 C 
BRANCH   3   4
ATOM      4  N   UNL     1       2.018   3.154   0.196  1.00  0.00    -0.351 N 
ATOM      5  C   UNL     1       1.167   2.432   0.959  1.00  0.00     0.281 C 
ATOM      6  O   UNL     1       0.983   1.290   0.526  1.00  0.00    -0.268 OA
ATOM      7  H   UNL     1       1.978   2.949  -0.766  1.00  0.00     0.163 HD
BRANCH   5   8
ATOM      8  C   UNL     1       0.509   2.933   2.287  1.00  0.00     0.178 C 
ATOM      9  C   UNL     1       0.536   4.467   2.461  1.00  0.00     0.079 C 
ATOM     10  C   UNL     1      -1.041   2.660   2.369  1.00  0.00     0.066 C 
ATOM     11  C   UNL     1      -0.587   4.853   3.406  1.00  0.00     0.008 C 
ATOM     12  C   UNL     1      -1.559   3.690   3.403  1.00  0.00     0.011 C 
BRANCH   8  13
ATOM     13  N   UNL     1       1.236   2.335   3.458  1.00  0.00    -0.334 N 
ATOM     14  H   UNL     1       2.183   2.715   3.477  1.00  0.00     0.347 HD
ATOM     15  H   UNL     1       0.703   2.575   4.294  1.00  0.00     0.347 HD
BRANCH  13  16
ATOM     16  C   UNL     1       1.326   0.867   3.414  1.00  0.00     0.257 C 
ATOM     17  C   UNL     1       1.952   0.327   4.692  1.00  0.00     0.071 C 
ENDBRANCH  13  16
ENDBRANCH   8  13
BRANCH  10  18
ATOM     18  C   UNL     1      -1.872   2.799   1.059  1.00  0.00     0.072 C 
BRANCH  18  19
ATOM     19  C   UNL     1      -1.922   1.562   0.135  1.00  0.00     0.262 C 
BRANCH  19  20
ATOM     20  N   UNL     1      -2.114   0.316   0.889  1.00  0.00    -0.335 N 
ATOM     21  C   UNL     1      -3.527  -0.040   1.035  1.00  0.00     0.262 C 
ATOM     22  C   UNL     1      -1.338  -0.798   0.329  1.00  0.00     0.265 C 
ATOM     23  H   UNL     1      -1.754   0.498   1.826  1.00  0.00     0.348 HD
ATOM     24  C   UNL     1      -3.697  -1.281   1.917  1.00  0.00     0.062 C 
ATOM     25  C   UNL     1      -1.379  -1.997   1.293  1.00  0.00     0.044 C 
ATOM     26  C   UNL     1      -2.836  -2.450   1.439  1.00  0.00     0.015 C 
BRANCH  25  27
ATOM     27  C   UNL     1      -0.466  -3.141   0.820  1.00  0.00     0.006 C 
ATOM     28  C   UNL     1       0.986  -2.922   1.238  1.00  0.00     0.004 C 
ENDBRANCH  25  27
ENDBRANCH  19  20
ENDBRANCH  18  19
ENDBRANCH  10  18
ENDBRANCH   5   8
ENDBRANCH   3   4
ENDBRANCH   2   3
ENDBRANCH   1   2
BRANCH   1  29
ATOM     29  C   UNL     1       4.743   3.937  -1.941  1.00  0.00     0.002 C 
BRANCH  29  30
ATOM     30  C   UNL     1       5.276   5.359  -1.761  1.00  0.00     0.021 C 
BRANCH  30  31
ATOM     31  C   UNL     1       6.726   5.440  -1.311  1.00  0.00     0.116 C 
BRANCH  31  32
ATOM     32  N   UNL     1       7.631   4.885  -2.301  1.00  0.00    -0.352 N 
ATOM     33  C   UNL     1       8.715   5.477  -2.901  1.00  0.00     0.251 C 
ATOM     34  H   UNL     1       7.443   3.959  -2.580  1.00  0.00     0.163 HD
ATOM     35  O   UNL     1       9.245   4.953  -3.872  1.00  0.00    -0.269 OA
BRANCH  33  36
ATOM     36  C   UNL     1       9.218   6.765  -2.375  1.00  0.00     0.039 A 
ATOM     37  C   UNL     1       9.527   7.787  -3.273  1.00  0.00     0.014 A 
ATOM     38  C   UNL     1       9.373   6.963  -0.999  1.00  0.00     0.014 A 
ATOM     39  C   UNL     1       9.945   9.027  -2.788  1.00  0.00     0.010 A 
ATOM     40  C   UNL     1       9.709   8.223  -0.515  1.00  0.00     0.010 A 
ATOM     41  C   UNL     1      10.010   9.266  -1.404  1.00  0.00    -0.014 A 
BRANCH  41  42
ATOM     42  C   UNL     1      10.397  10.597  -0.872  1.00  0.00     0.031 A 
ATOM     43  C   UNL     1      11.643  10.744  -0.040  1.00  0.00     0.074 A 
ATOM     44  C   UNL     1       9.597  11.659  -1.088  1.00  0.00     0.049 A 
ATOM     45  N   UNL     1      12.117  11.808   0.555  1.00  0.00    -0.248 NA
ATOM     46  C   UNL     1      12.447   9.529   0.175  1.00  0.00     0.031 C 
ATOM     47  C   UNL     1       8.336  11.630  -1.833  1.00  0.00     0.029 A 
ATOM     48  N   UNL     1       9.716  12.968  -0.693  1.00  0.00    -0.354 N 
ATOM     49  C   UNL     1      13.261  11.389   1.225  1.00  0.00     0.074 A 
ATOM     50  C   UNL     1      13.380   9.964   1.009  1.00  0.00     0.031 C 
ATOM     51  C   UNL     1       7.811  12.864  -1.859  1.00  0.00     0.029 A 
ATOM     52  C   UNL     1       8.672  13.765  -1.099  1.00  0.00     0.049 A 
ATOM     53  H   UNL     1      10.478  13.304  -0.168  1.00  0.00     0.167 HD
ATOM     54  C   UNL     1      14.144  12.130   1.936  1.00  0.00     0.037 A 
ATOM     55  C   UNL     1       8.428  15.071  -0.875  1.00  0.00     0.037 A 
ATOM     56  C   UNL     1      14.028  13.553   2.126  1.00  0.00     0.049 A 
ATOM     57  C   UNL     1       9.424  15.875  -0.083  1.00  0.00     0.074 A 
ATOM     58  C   UNL     1      14.904  14.408   2.772  1.00  0.00     0.029 A 
ATOM     59  N   UNL     1      12.968  14.330   1.681  1.00  0.00    -0.354 N 
ATOM     60  N   UNL     1      10.541  15.479   0.479  1.00  0.00    -0.248 NA
ATOM     61  C   UNL     1       9.132  17.303   0.099  1.00  0.00     0.031 C 
ATOM     62  C   UNL     1      14.346  15.690   2.768  1.00  0.00     0.029 A 
ATOM     63  C   UNL     1      13.153  15.649   2.063  1.00  0.00     0.049 A 
ATOM     64  H   UNL     1      12.198  13.993   1.168  1.00  0.00     0.167 HD
ATOM     65  C   UNL     1      11.100  16.614   1.057  1.00  0.00     0.074 A 
ATOM     66  C   UNL     1      10.203  17.713   0.765  1.00  0.00     0.031 C 
ATOM     67  C   UNL     1      12.252  16.735   1.762  1.00  0.00     0.037 A 
BRANCH  54  68
ATOM     68  C   UNL     1      15.310  11.416   2.568  1.00  0.00     0.058 A 
ATOM     69  C   UNL     1      16.343  10.856   1.798  1.00  0.00     0.135 A 
ATOM     70  C   UNL     1      15.413  11.320   3.965  1.00  0.00     0.135 A 
ATOM     71  F   UNL     1      16.291  10.905   0.457  1.00  0.00    -0.206 F 
ATOM     72  C   UNL     1      17.417  10.198   2.389  1.00  0.00     0.059 A 
ATOM     73  C   UNL     1      16.495  10.695   4.579  1.00  0.00     0.059 A 
ATOM     74  F   UNL     1      14.456  11.837   4.751  1.00  0.00    -0.206 F 
ATOM     75  C   UNL     1      17.485  10.124   3.781  1.00  0.00     0.060 A 
BRANCH  75  76
ATOM     76  S   UNL     1      18.887   9.270   4.530  1.00  0.00     0.124 S 
ATOM     77  O   UNL     1      18.586   7.878   4.210  1.00  0.00    -0.237 OA
ATOM     78  O   UNL     1      20.022   9.851   3.820  1.00  0.00    -0.237 OA
ATOM     79  O   UNL     1      18.787   9.623   5.943  1.00  0.00    -0.744 OA
ENDBRANCH  75  76
ENDBRANCH  54  68
BRANCH  55  80
ATOM     80  C   UNL     1       7.195  15.698  -1.422  1.00  0.00     0.058 A 
ATOM     81  C   UNL     1       7.257  16.632  -2.467  1.00  0.00     0.135 A 
ATOM     82  C   UNL     1       5.926  15.358  -0.927  1.00  0.00     0.135 A 
ATOM     83  F   UNL     1       8.446  16.996  -2.971  1.00  0.00    -0.206 F 
ATOM     84  C   UNL     1       6.109  17.215  -2.994  1.00  0.00     0.059 A 
ATOM     85  C   UNL     1       4.762  15.906  -1.456  1.00  0.00     0.059 A 
ATOM     86  F   UNL     1       5.809  14.457   0.061  1.00  0.00    -0.206 F 
ATOM     87  C   UNL     1       4.864  16.841  -2.484  1.00  0.00     0.060 A 
BRANCH  87  88
ATOM     88  S   UNL     1       3.378  17.562  -3.214  1.00  0.00     0.124 S 
ATOM     89  O   UNL     1       3.444  18.933  -2.723  1.00  0.00    -0.237 OA
ATOM     90  O   UNL     1       3.620  17.381  -4.642  1.00  0.00    -0.237 OA
ATOM     91  O   UNL     1       2.302  16.744  -2.660  1.00  0.00    -0.744 OA
ENDBRANCH  87  88
ENDBRANCH  55  80
BRANCH  67  92
ATOM     92  C   UNL     1      12.634  18.110   2.241  1.00  0.00     0.058 A 
ATOM     93  C   UNL     1      11.944  18.752   3.280  1.00  0.00     0.135 A 
ATOM     94  C   UNL     1      13.745  18.769   1.687  1.00  0.00     0.135 A 
ATOM     95  F   UNL     1      10.871  18.170   3.840  1.00  0.00    -0.206 F 
ATOM     96  C   UNL     1      12.325  20.009   3.738  1.00  0.00     0.059 A 
ATOM     97  C   UNL     1      14.164  20.011   2.151  1.00  0.00     0.059 A 
ATOM     98  F   UNL     1      14.448  18.195   0.698  1.00  0.00    -0.206 F 
ATOM     99  C   UNL     1      13.440  20.629   3.170  1.00  0.00     0.060 A 
BRANCH  99 100
ATOM    100  S   UNL     1      13.946  22.244   3.798  1.00  0.00     0.124 S 
ATOM    101  O   UNL     1      12.897  23.108   3.267  1.00  0.00    -0.237 OA
ATOM    102  O   UNL     1      13.926  22.036   5.243  1.00  0.00    -0.237 OA
ATOM    103  O   UNL     1      15.271  22.436   3.217  1.00  0.00    -0.744 OA
ENDBRANCH  99 100
ENDBRANCH  67  92
ENDBRANCH  41  42
ENDBRANCH  33  36
ENDBRANCH  31  32
ENDBRANCH  30  31
ENDBRANCH  29  30
ENDBRANCH   1  29
TORSDOF 22
