REMARK SMILES C/C(C(=O)NCCCCCCNC(=O)c1ccc(-c2c3nc(c(-c4c(F)cc(S(=O)(=O)[O-])cc4F)c4ccc([nH]4)c(-c4c(F)cc(S(=O)(=O)[O-])cc4F)c4nc(c(-c5c(F)cc(S(=O)(=O)[O-])cc5F)c5ccc2[nH]5)C=C4)C=C3)cc1)=C1/CCCSC1
REMARK SMILES IDX 10 1 9 2 8 3 7 4 6 5 5 6 3 7 4 8 2 10 1 11 81 12 82 13 86 14
REMARK SMILES IDX 83 15 85 16 84 17 11 18 12 19 13 20 14 22 15 23 16 24 80 25
REMARK SMILES IDX 17 26 79 27 18 28 19 29 20 30 73 31 21 32 78 33 72 34 74 35
REMARK SMILES IDX 22 36 77 37 71 38 70 39 23 41 57 42 36 43 56 44 37 45 40 46
REMARK SMILES IDX 55 47 75 48 38 49 39 50 54 52 76 53 41 54 24 55 25 56 34 57
REMARK SMILES IDX 26 58 27 59 33 60 35 61 28 62 29 63 30 64 31 65 32 66 58 67
REMARK SMILES IDX 59 68 68 69 60 70 61 71 67 72 69 73 62 74 63 75 64 76 65 77
REMARK SMILES IDX 66 78 42 79 43 80 52 81 44 82 45 83 51 84 53 85 46 86 47 87
REMARK SMILES IDX 48 88 49 89 50 90
REMARK H PARENT 5 9 12 21 74 40 40 51
REMARK Flexibility Score: inf
ROOT
ATOM      1  C   UNL     1      -0.977   0.202   5.710  1.00  0.00     0.021 C 
ENDROOT
BRANCH   1   2
ATOM      2  C   UNL     1      -1.638  -0.963   4.969  1.00  0.00     0.002 C 
BRANCH   2   3
ATOM      3  C   UNL     1      -2.243  -0.599   3.607  1.00  0.00     0.002 C 
BRANCH   3   4
ATOM      4  C   UNL     1      -1.287   0.127   2.647  1.00  0.00     0.021 C 
BRANCH   4   5
ATOM      5  C   UNL     1      -0.031  -0.682   2.309  1.00  0.00     0.116 C 
BRANCH   5   6
ATOM      6  N   UNL     1      -0.370  -1.742   1.377  1.00  0.00    -0.352 N 
ATOM      7  C   UNL     1      -0.280  -1.925   0.036  1.00  0.00     0.246 C 
ATOM      8  O   UNL     1      -0.955  -2.863  -0.392  1.00  0.00    -0.270 OA
ATOM      9  H   UNL     1      -0.764  -2.522   1.831  1.00  0.00     0.163 HD
BRANCH   7  10
ATOM     10  C   UNL     1       0.581  -1.081  -0.876  1.00  0.00     0.014 C 
ATOM     11  C   UNL     1       0.917   0.321  -0.446  1.00  0.00     0.050 C 
ATOM     12  C   UNL     1       0.973  -1.536  -2.101  1.00  0.00    -0.052 C 
ATOM     13  C   UNL     1       0.561  -2.834  -2.779  1.00  0.00     0.033 C 
ATOM     14  C   UNL     1       1.908  -0.766  -3.015  1.00  0.00     0.100 C 
ATOM     15  C   UNL     1      -0.370  -2.526  -3.957  1.00  0.00     0.015 C 
ATOM     16  S   UNL     1       0.969  -0.119  -4.426  1.00  0.00    -0.158 SA
ATOM     17  C   UNL     1       0.305  -1.695  -5.046  1.00  0.00     0.070 C 
ENDBRANCH   7  10
ENDBRANCH   5   6
ENDBRANCH   4   5
ENDBRANCH   3   4
ENDBRANCH   2   3
ENDBRANCH   1   2
BRANCH   1  18
ATOM     18  C   UNL     1      -1.923   1.352   6.036  1.00  0.00     0.116 C 
BRANCH  18  19
ATOM     19  N   UNL     1      -2.948   0.950   6.985  1.00  0.00    -0.352 N 
ATOM     20  C   UNL     1      -3.269   1.507   8.197  1.00  0.00     0.251 C 
ATOM     21  H   UNL     1      -3.487   0.169   6.721  1.00  0.00     0.163 HD
ATOM     22  O   UNL     1      -3.997   0.902   8.977  1.00  0.00    -0.269 OA
BRANCH  20  23
ATOM     23  C   UNL     1      -2.727   2.834   8.559  1.00  0.00     0.039 A 
ATOM     24  C   UNL     1      -2.242   3.040   9.853  1.00  0.00     0.014 A 
ATOM     25  C   UNL     1      -2.715   3.878   7.629  1.00  0.00     0.014 A 
ATOM     26  C   UNL     1      -1.708   4.283  10.200  1.00  0.00     0.010 A 
ATOM     27  C   UNL     1      -2.114   5.090   7.954  1.00  0.00     0.010 A 
ATOM     28  C   UNL     1      -1.619   5.311   9.248  1.00  0.00    -0.014 A 
BRANCH  28  29
ATOM     29  C   UNL     1      -1.043   6.636   9.593  1.00  0.00     0.031 A 
ATOM     30  C   UNL     1      -1.909   7.866   9.543  1.00  0.00     0.074 A 
ATOM     31  C   UNL     1       0.266   6.739   9.895  1.00  0.00     0.049 A 
ATOM     32  N   UNL     1      -1.581   9.117   9.739  1.00  0.00    -0.248 NA
ATOM     33  C   UNL     1      -3.327   7.666   9.198  1.00  0.00     0.031 C 
ATOM     34  C   UNL     1       1.216   5.625   9.934  1.00  0.00     0.029 A 
ATOM     35  N   UNL     1       1.027   7.834  10.218  1.00  0.00    -0.354 N 
ATOM     36  C   UNL     1      -2.743   9.851   9.527  1.00  0.00     0.074 A 
ATOM     37  C   UNL     1      -3.770   8.913   9.131  1.00  0.00     0.031 C 
ATOM     38  C   UNL     1       2.426   6.091  10.283  1.00  0.00     0.029 A 
ATOM     39  C   UNL     1       2.349   7.538  10.455  1.00  0.00     0.049 A 
ATOM     40  H   UNL     1       0.661   8.746  10.275  1.00  0.00     0.167 HD
ATOM     41  C   UNL     1      -2.943  11.183   9.675  1.00  0.00     0.037 A 
ATOM     42  C   UNL     1       3.382   8.344  10.769  1.00  0.00     0.037 A 
ATOM     43  C   UNL     1      -1.921  12.106  10.095  1.00  0.00     0.049 A 
ATOM     44  C   UNL     1       3.136   9.820  10.930  1.00  0.00     0.074 A 
ATOM     45  C   UNL     1      -2.032  13.466  10.324  1.00  0.00     0.029 A 
ATOM     46  N   UNL     1      -0.601  11.764  10.351  1.00  0.00    -0.354 N 
ATOM     47  N   UNL     1       2.018  10.491  10.780  1.00  0.00    -0.248 NA
ATOM     48  C   UNL     1       4.287  10.649  11.311  1.00  0.00     0.031 C 
ATOM     49  C   UNL     1      -0.769  13.954  10.675  1.00  0.00     0.029 A 
ATOM     50  C   UNL     1       0.117  12.889  10.720  1.00  0.00     0.049 A 
ATOM     51  H   UNL     1      -0.229  10.855  10.281  1.00  0.00     0.167 HD
ATOM     52  C   UNL     1       2.324  11.813  11.083  1.00  0.00     0.074 A 
ATOM     53  C   UNL     1       3.729  11.845  11.432  1.00  0.00     0.031 C 
ATOM     54  C   UNL     1       1.514  12.901  11.078  1.00  0.00     0.037 A 
BRANCH  41  55
ATOM     55  C   UNL     1      -4.319  11.719   9.383  1.00  0.00     0.058 A 
ATOM     56  C   UNL     1      -5.416  11.429  10.210  1.00  0.00     0.135 A 
ATOM     57  C   UNL     1      -4.539  12.560   8.279  1.00  0.00     0.135 A 
ATOM     58  F   UNL     1      -5.268  10.618  11.271  1.00  0.00    -0.206 F 
ATOM     59  C   UNL     1      -6.686  11.925   9.937  1.00  0.00     0.059 A 
ATOM     60  C   UNL     1      -5.795  13.093   8.004  1.00  0.00     0.059 A 
ATOM     61  F   UNL     1      -3.527  12.871   7.454  1.00  0.00    -0.206 F 
ATOM     62  C   UNL     1      -6.866  12.757   8.831  1.00  0.00     0.060 A 
BRANCH  62  63
ATOM     63  S   UNL     1      -8.520  13.395   8.494  1.00  0.00     0.124 S 
ATOM     64  O   UNL     1      -9.201  12.198   8.009  1.00  0.00    -0.237 OA
ATOM     65  O   UNL     1      -8.942  13.877   9.805  1.00  0.00    -0.237 OA
ATOM     66  O   UNL     1      -8.288  14.432   7.493  1.00  0.00    -0.744 OA
ENDBRANCH  62  63
ENDBRANCH  41  55
BRANCH  42  67
ATOM     67  C   UNL     1       4.738   7.768  10.980  1.00  0.00     0.058 A 
ATOM     68  C   UNL     1       5.316   7.728  12.258  1.00  0.00     0.135 A 
ATOM     69  C   UNL     1       5.478   7.236   9.912  1.00  0.00     0.135 A 
ATOM     70  F   UNL     1       4.650   8.228  13.310  1.00  0.00    -0.206 F 
ATOM     71  C   UNL     1       6.587   7.203  12.468  1.00  0.00     0.059 A 
ATOM     72  C   UNL     1       6.740   6.680  10.102  1.00  0.00     0.059 A 
ATOM     73  F   UNL     1       4.964   7.232   8.672  1.00  0.00    -0.206 F 
ATOM     74  C   UNL     1       7.290   6.678  11.383  1.00  0.00     0.060 A 
BRANCH  74  75
ATOM     75  S   UNL     1       8.921   5.959  11.674  1.00  0.00     0.124 S 
ATOM     76  O   UNL     1       9.728   7.149  11.918  1.00  0.00    -0.237 OA
ATOM     77  O   UNL     1       8.676   5.104  12.831  1.00  0.00    -0.237 OA
ATOM     78  O   UNL     1       9.201   5.250  10.429  1.00  0.00    -0.744 OA
ENDBRANCH  74  75
ENDBRANCH  42  67
BRANCH  54  79
ATOM     79  C   UNL     1       2.111  14.213  11.510  1.00  0.00     0.058 A 
ATOM     80  C   UNL     1       3.026  14.913  10.708  1.00  0.00     0.135 A 
ATOM     81  C   UNL     1       1.722  14.799  12.726  1.00  0.00     0.135 A 
ATOM     82  F   UNL     1       3.435  14.395   9.539  1.00  0.00    -0.206 F 
ATOM     83  C   UNL     1       3.555  16.135  11.109  1.00  0.00     0.059 A 
ATOM     84  C   UNL     1       2.215  16.034  13.133  1.00  0.00     0.059 A 
ATOM     85  F   UNL     1       0.841  14.177  13.526  1.00  0.00    -0.206 F 
ATOM     86  C   UNL     1       3.142  16.689  12.323  1.00  0.00     0.060 A 
BRANCH  86  87
ATOM     87  S   UNL     1       3.816  18.288  12.819  1.00  0.00     0.124 S 
ATOM     88  O   UNL     1       5.176  17.928  13.204  1.00  0.00    -0.237 OA
ATOM     89  O   UNL     1       3.689  19.073  11.595  1.00  0.00    -0.237 OA
ATOM     90  O   UNL     1       2.942  18.701  13.913  1.00  0.00    -0.744 OA
ENDBRANCH  86  87
ENDBRANCH  54  79
ENDBRANCH  28  29
ENDBRANCH  20  23
ENDBRANCH  18  19
ENDBRANCH   1  18
TORSDOF 16
