REMARK SMILES CCN(CC(C)(C)O)C(=O)Nc1ccc(C(=O)NCCCCCCNC(=O)c2ccc(-c3c4nc(c(-c5c(F)cc(S(=O)(=O)[O-])cc5F)c5ccc([nH]5)c(-c5c(F)cc(S(=O)(=O)[O-])cc5F)c5nc(c(-c6c(F)cc(S(=O)(=O)[O-])cc6F)c6ccc3[nH]6)C=C5)C=C4)cc2)c(O)c1
REMARK SMILES IDX 20 1 19 2 18 3 16 4 17 5 15 7 12 8 13 9 96 10 14 11 94 12
REMARK SMILES IDX 11 13 9 14 10 15 3 17 2 18 1 19 4 20 5 21 6 22 7 23 8 24
REMARK SMILES IDX 95 26 21 28 22 29 23 30 24 31 25 32 26 33 27 35 28 36 29 37
REMARK SMILES IDX 93 38 30 39 92 40 31 41 32 42 33 43 86 44 34 45 91 46 85 47
REMARK SMILES IDX 87 48 35 49 90 50 84 51 83 52 36 54 70 55 49 56 69 57 50 58
REMARK SMILES IDX 53 59 68 60 88 61 51 62 52 63 67 65 89 66 54 67 37 68 38 69
REMARK SMILES IDX 47 70 39 71 40 72 46 73 48 74 41 75 42 76 43 77 44 78 45 79
REMARK SMILES IDX 71 80 72 81 81 82 73 83 74 84 80 85 82 86 75 87 76 88 77 89
REMARK SMILES IDX 78 90 79 91 55 92 56 93 65 94 57 95 58 96 64 97 66 98 59 99
REMARK SMILES IDX 60 100 61 101 62 102 63 103
REMARK H PARENT 18 6 11 16 8 25 95 27 25 34 87 53 53 64
REMARK Flexibility Score: inf
ROOT
ATOM      1  C   UNL     1      -0.897  -4.855   8.646  1.00  0.00     0.021 C 
ENDROOT
BRANCH   1   2
ATOM      2  C   UNL     1      -0.012  -5.309   7.496  1.00  0.00     0.116 C 
BRANCH   2   3
ATOM      3  N   UNL     1      -0.501  -6.455   6.760  1.00  0.00    -0.352 N 
ATOM      4  C   UNL     1      -0.059  -6.965   5.565  1.00  0.00     0.255 C 
ATOM      5  O   UNL     1      -0.565  -8.003   5.142  1.00  0.00    -0.269 OA
ATOM      6  H   UNL     1      -1.254  -6.936   7.174  1.00  0.00     0.163 HD
BRANCH   4   7
ATOM      7  C   UNL     1       0.900  -6.216   4.712  1.00  0.00     0.081 A 
ATOM      8  C   UNL     1       2.132  -4.373   2.958  1.00  0.00     0.046 A 
ATOM      9  C   UNL     1       1.278  -5.355   2.492  1.00  0.00     0.027 A 
ATOM     10  C   UNL     1       2.571  -4.507   4.276  1.00  0.00     0.073 A 
ATOM     11  C   UNL     1       0.615  -6.229   3.353  1.00  0.00     0.020 A 
ATOM     12  C   UNL     1       1.997  -5.462   5.126  1.00  0.00     0.130 A 
BRANCH   8  13
ATOM     13  N   UNL     1       2.663  -3.325   2.192  1.00  0.00    -0.308 N 
ATOM     14  C   UNL     1       2.387  -2.568   1.105  1.00  0.00     0.321 C 
ATOM     15  O   UNL     1       3.348  -1.885   0.720  1.00  0.00    -0.248 OA
ATOM     16  H   UNL     1       3.527  -3.047   2.574  1.00  0.00     0.171 HD
BRANCH  14  17
ATOM     17  N   UNL     1       1.160  -2.419   0.509  1.00  0.00    -0.322 N 
BRANCH  17  18
ATOM     18  C   UNL     1       1.038  -1.362  -0.510  1.00  0.00     0.118 C 
ATOM     19  C   UNL     1       1.129   0.048   0.069  1.00  0.00     0.027 C 
ENDBRANCH  17  18
BRANCH  17  20
ATOM     20  C   UNL     1      -0.065  -3.196   0.701  1.00  0.00     0.155 C 
BRANCH  20  21
ATOM     21  C   UNL     1      -0.278  -4.317  -0.377  1.00  0.00     0.077 C 
ATOM     22  C   UNL     1       1.030  -4.900  -0.963  1.00  0.00     0.043 C 
ATOM     23  C   UNL     1      -1.225  -5.402   0.176  1.00  0.00     0.043 C 
BRANCH  21  24
ATOM     24  O   UNL     1      -0.971  -3.741  -1.505  1.00  0.00    -0.389 OA
ATOM     25  H   UNL     1      -0.423  -3.046  -1.901  1.00  0.00     0.211 HD
ENDBRANCH  21  24
ENDBRANCH  20  21
ENDBRANCH  17  20
ENDBRANCH  14  17
ENDBRANCH   8  13
BRANCH  12  26
ATOM     26  O   UNL     1       2.614  -5.624   6.333  1.00  0.00    -0.507 OA
ATOM     27  H   UNL     1       2.282  -6.247   6.949  1.00  0.00     0.293 HD
ENDBRANCH  12  26
ENDBRANCH   4   7
ENDBRANCH   2   3
ENDBRANCH   1   2
BRANCH   1  28
ATOM     28  C   UNL     1      -1.341  -5.937   9.634  1.00  0.00     0.002 C 
BRANCH  28  29
ATOM     29  C   UNL     1      -0.315  -6.998  10.048  1.00  0.00     0.002 C 
BRANCH  29  30
ATOM     30  C   UNL     1       1.025  -6.509  10.599  1.00  0.00     0.021 C 
BRANCH  30  31
ATOM     31  C   UNL     1       0.948  -5.405  11.640  1.00  0.00     0.116 C 
BRANCH  31  32
ATOM     32  N   UNL     1       0.130  -5.772  12.782  1.00  0.00    -0.352 N 
ATOM     33  C   UNL     1       0.415  -5.642  14.116  1.00  0.00     0.251 C 
ATOM     34  H   UNL     1      -0.747  -6.167  12.570  1.00  0.00     0.163 HD
ATOM     35  O   UNL     1      -0.328  -6.144  14.958  1.00  0.00    -0.269 OA
BRANCH  33  36
ATOM     36  C   UNL     1       1.635  -4.921  14.530  1.00  0.00     0.039 A 
ATOM     37  C   UNL     1       2.466  -5.499  15.491  1.00  0.00     0.014 A 
ATOM     38  C   UNL     1       1.969  -3.692  13.953  1.00  0.00     0.014 A 
ATOM     39  C   UNL     1       3.658  -4.864  15.841  1.00  0.00     0.010 A 
ATOM     40  C   UNL     1       3.195  -3.104  14.241  1.00  0.00     0.010 A 
ATOM     41  C   UNL     1       4.045  -3.676  15.199  1.00  0.00    -0.014 A 
BRANCH  41  42
ATOM     42  C   UNL     1       5.325  -3.004  15.537  1.00  0.00     0.031 A 
ATOM     43  C   UNL     1       5.309  -1.631  16.151  1.00  0.00     0.074 A 
ATOM     44  C   UNL     1       6.494  -3.611  15.252  1.00  0.00     0.049 A 
ATOM     45  N   UNL     1       6.314  -0.862  16.481  1.00  0.00    -0.248 NA
ATOM     46  C   UNL     1       3.989  -1.032  16.404  1.00  0.00     0.031 C 
ATOM     47  C   UNL     1       6.633  -4.926  14.623  1.00  0.00     0.029 A 
ATOM     48  N   UNL     1       7.787  -3.202  15.455  1.00  0.00    -0.354 N 
ATOM     49  C   UNL     1       5.749   0.309  16.973  1.00  0.00     0.074 A 
ATOM     50  C   UNL     1       4.316   0.177  16.832  1.00  0.00     0.031 C 
ATOM     51  C   UNL     1       7.937  -5.230  14.524  1.00  0.00     0.029 A 
ATOM     52  C   UNL     1       8.727  -4.117  15.043  1.00  0.00     0.049 A 
ATOM     53  H   UNL     1       8.021  -2.334  15.857  1.00  0.00     0.167 HD
ATOM     54  C   UNL     1       6.365   1.383  17.521  1.00  0.00     0.037 A 
ATOM     55  C   UNL     1      10.072  -4.063  15.079  1.00  0.00     0.037 A 
ATOM     56  C   UNL     1       7.793   1.500  17.666  1.00  0.00     0.049 A 
ATOM     57  C   UNL     1      10.737  -2.845  15.662  1.00  0.00     0.074 A 
ATOM     58  C   UNL     1       8.520   2.528  18.236  1.00  0.00     0.029 A 
ATOM     59  N   UNL     1       8.712   0.554  17.231  1.00  0.00    -0.354 N 
ATOM     60  N   UNL     1      10.187  -1.769  16.173  1.00  0.00    -0.248 NA
ATOM     61  C   UNL     1      12.206  -2.836  15.680  1.00  0.00     0.031 C 
ATOM     62  C   UNL     1       9.880   2.228  18.103  1.00  0.00     0.029 A 
ATOM     63  C   UNL     1      10.000   0.985  17.502  1.00  0.00     0.049 A 
ATOM     64  H   UNL     1       8.482  -0.298  16.794  1.00  0.00     0.167 HD
ATOM     65  C   UNL     1      11.241  -0.971  16.604  1.00  0.00     0.074 A 
ATOM     66  C   UNL     1      12.460  -1.693  16.301  1.00  0.00     0.031 C 
ATOM     67  C   UNL     1      11.203   0.247  17.201  1.00  0.00     0.037 A 
BRANCH  54  68
ATOM     68  C   UNL     1       5.492   2.513  18.000  1.00  0.00     0.058 A 
ATOM     69  C   UNL     1       4.633   2.364  19.102  1.00  0.00     0.135 A 
ATOM     70  C   UNL     1       5.515   3.760  17.356  1.00  0.00     0.135 A 
ATOM     71  F   UNL     1       4.559   1.190  19.749  1.00  0.00    -0.206 F 
ATOM     72  C   UNL     1       3.796   3.394  19.519  1.00  0.00     0.059 A 
ATOM     73  C   UNL     1       4.710   4.816  17.777  1.00  0.00     0.059 A 
ATOM     74  F   UNL     1       6.316   3.961  16.299  1.00  0.00    -0.206 F 
ATOM     75  C   UNL     1       3.838   4.616  18.846  1.00  0.00     0.060 A 
BRANCH  75  76
ATOM     76  S   UNL     1       2.731   5.934  19.386  1.00  0.00     0.124 S 
ATOM     77  O   UNL     1       1.440   5.440  18.917  1.00  0.00    -0.237 OA
ATOM     78  O   UNL     1       2.922   5.930  20.833  1.00  0.00    -0.237 OA
ATOM     79  O   UNL     1       3.240   7.113  18.692  1.00  0.00    -0.744 OA
ENDBRANCH  75  76
ENDBRANCH  54  68
BRANCH  55  80
ATOM     80  C   UNL     1      10.877  -5.212  14.584  1.00  0.00     0.058 A 
ATOM     81  C   UNL     1      11.604  -6.017  15.475  1.00  0.00     0.135 A 
ATOM     82  C   UNL     1      10.924  -5.541  13.221  1.00  0.00     0.135 A 
ATOM     83  F   UNL     1      11.595  -5.741  16.788  1.00  0.00    -0.206 F 
ATOM     84  C   UNL     1      12.361  -7.096  15.032  1.00  0.00     0.059 A 
ATOM     85  C   UNL     1      11.653  -6.632  12.756  1.00  0.00     0.059 A 
ATOM     86  F   UNL     1      10.234  -4.814  12.329  1.00  0.00    -0.206 F 
ATOM     87  C   UNL     1      12.376  -7.398  13.669  1.00  0.00     0.060 A 
BRANCH  87  88
ATOM     88  S   UNL     1      13.322  -8.832  13.112  1.00  0.00     0.124 S 
ATOM     89  O   UNL     1      14.693  -8.364  13.283  1.00  0.00    -0.237 OA
ATOM     90  O   UNL     1      12.880  -9.868  14.040  1.00  0.00    -0.237 OA
ATOM     91  O   UNL     1      12.882  -9.009  11.731  1.00  0.00    -0.744 OA
ENDBRANCH  87  88
ENDBRANCH  55  80
BRANCH  67  92
ATOM     92  C   UNL     1      12.516   0.859  17.608  1.00  0.00     0.058 A 
ATOM     93  C   UNL     1      13.424   1.364  16.665  1.00  0.00     0.135 A 
ATOM     94  C   UNL     1      12.844   0.988  18.968  1.00  0.00     0.135 A 
ATOM     95  F   UNL     1      13.163   1.261  15.352  1.00  0.00    -0.206 F 
ATOM     96  C   UNL     1      14.623   1.952  17.054  1.00  0.00     0.059 A 
ATOM     97  C   UNL     1      14.023   1.600  19.381  1.00  0.00     0.059 A 
ATOM     98  F   UNL     1      12.006   0.532  19.913  1.00  0.00    -0.206 F 
ATOM     99  C   UNL     1      14.912   2.069  18.416  1.00  0.00     0.060 A 
BRANCH  99 100
ATOM    100  S   UNL     1      16.455   2.866  18.907  1.00  0.00     0.124 S 
ATOM    101  O   UNL     1      17.439   1.848  18.552  1.00  0.00    -0.237 OA
ATOM    102  O   UNL     1      16.461   4.069  18.081  1.00  0.00    -0.237 OA
ATOM    103  O   UNL     1      16.279   3.096  20.338  1.00  0.00    -0.744 OA
ENDBRANCH  99 100
ENDBRANCH  67  92
ENDBRANCH  41  42
ENDBRANCH  33  36
ENDBRANCH  31  32
ENDBRANCH  30  31
ENDBRANCH  29  30
ENDBRANCH  28  29
ENDBRANCH   1  28
TORSDOF 23
