REMARK SMILES Cc1ccccc1/C=C1\SC(=S)N(CCC(=O)N[C@@H](C)C(=O)NCCCCCCNC(=O)c2ccc(-c3c4nc(c(-c5c(F)cc(S(=O)(=O)[O-])cc5F)c5ccc([nH]5)c(-c5c(F)cc(S(=O)(=O)[O-])cc5F)c5nc(c(-c6c(F)cc(S(=O)(=O)[O-])cc6F)c6ccc3[nH]6)C=C5)C=C4)cc2)C1=O
REMARK SMILES IDX 25 1 24 2 23 3 21 4 22 5 19 7 20 8 18 9 16 10 17 11 15 13
REMARK SMILES IDX 14 14 13 15 8 16 9 17 10 18 99 19 11 20 100 21 12 22 7 23
REMARK SMILES IDX 1 24 2 25 3 26 4 27 6 28 5 29 26 30 27 31 28 32 29 33 30 34
REMARK SMILES IDX 31 35 32 37 33 38 34 39 98 40 35 41 97 42 36 43 37 44 38 45
REMARK SMILES IDX 91 46 39 47 96 48 90 49 92 50 40 51 95 52 89 53 88 54 41 56
REMARK SMILES IDX 75 57 54 58 74 59 55 60 58 61 73 62 93 63 56 64 57 65 72 67
REMARK SMILES IDX 94 68 59 69 42 70 43 71 52 72 44 73 45 74 51 75 53 76 46 77
REMARK SMILES IDX 47 78 48 79 49 80 50 81 76 82 77 83 86 84 78 85 79 86 85 87
REMARK SMILES IDX 87 88 80 89 81 90 82 91 83 92 84 93 60 94 61 95 70 96 62 97
REMARK SMILES IDX 63 98 69 99 71 100 64 101 65 102 66 103 67 104 68 105
REMARK H PARENT 23 6 18 12 30 36 92 55 58 66
REMARK Flexibility Score: inf
ROOT
ATOM      1  C   UNL     1      -2.293   6.492   1.304  1.00  0.00     0.021 C 
ENDROOT
BRANCH   1   2
ATOM      2  C   UNL     1      -1.248   5.788   0.446  1.00  0.00     0.116 C 
BRANCH   2   3
ATOM      3  N   UNL     1      -1.560   5.821  -0.972  1.00  0.00    -0.354 N 
ATOM      4  C   UNL     1      -0.762   5.640  -2.062  1.00  0.00     0.242 C 
ATOM      5  O   UNL     1      -1.307   5.573  -3.169  1.00  0.00    -0.273 OA
ATOM      6  H   UNL     1      -2.505   6.004  -1.180  1.00  0.00     0.163 HD
BRANCH   4   7
ATOM      7  C   UNL     1       0.762   5.440  -1.949  1.00  0.00     0.168 C 
ATOM      8  C   UNL     1       1.072   4.217  -1.115  1.00  0.00     0.041 C 
BRANCH   7   9
ATOM      9  N   UNL     1       1.544   6.569  -1.454  1.00  0.00    -0.345 N 
ATOM     10  C   UNL     1       2.887   6.786  -1.619  1.00  0.00     0.222 C 
ATOM     11  O   UNL     1       3.449   7.612  -0.900  1.00  0.00    -0.275 OA
ATOM     12  H   UNL     1       1.051   7.252  -0.944  1.00  0.00     0.164 HD
BRANCH  10  13
ATOM     13  C   UNL     1       3.660   6.069  -2.718  1.00  0.00     0.122 C 
BRANCH  13  14
ATOM     14  C   UNL     1       4.689   5.031  -2.235  1.00  0.00     0.137 C 
BRANCH  14  15
ATOM     15  N   UNL     1       4.189   3.643  -2.179  1.00  0.00    -0.292 N 
ATOM     16  C   UNL     1       2.555   1.331  -0.034  1.00  0.00     0.029 C 
ATOM     17  C   UNL     1       3.262   1.777  -1.083  1.00  0.00     0.081 C 
ATOM     18  S   UNL     1       3.133   1.344  -2.736  1.00  0.00    -0.054 SA
ATOM     19  C   UNL     1       4.103   3.001  -0.951  1.00  0.00     0.266 C 
ATOM     20  C   UNL     1       3.845   2.870  -3.273  1.00  0.00     0.148 C 
ATOM     21  O   UNL     1       4.567   3.393   0.109  1.00  0.00    -0.268 OA
ATOM     22  S   UNL     1       4.024   3.235  -4.892  1.00  0.00    -0.052 S 
BRANCH  16  23
ATOM     23  C   UNL     1       1.452   0.355  -0.058  1.00  0.00    -0.021 A 
ATOM     24  C   UNL     1       3.033  -1.623   0.160  1.00  0.00     0.045 C 
ATOM     25  C   UNL     1       1.658  -1.028   0.057  1.00  0.00    -0.044 A 
ATOM     26  C   UNL     1       0.543  -1.887   0.048  1.00  0.00     0.004 A 
ATOM     27  C   UNL     1      -0.756  -1.385  -0.043  1.00  0.00     0.000 A 
ATOM     28  C   UNL     1       0.136   0.845  -0.137  1.00  0.00     0.008 A 
ATOM     29  C   UNL     1      -0.961  -0.016  -0.133  1.00  0.00     0.001 A 
ENDBRANCH  16  23
ENDBRANCH  14  15
ENDBRANCH  13  14
ENDBRANCH  10  13
ENDBRANCH   7   9
ENDBRANCH   4   7
ENDBRANCH   2   3
ENDBRANCH   1   2
BRANCH   1  30
ATOM     30  C   UNL     1      -3.677   5.826   1.326  1.00  0.00     0.002 C 
BRANCH  30  31
ATOM     31  C   UNL     1      -3.738   4.340   1.717  1.00  0.00     0.002 C 
BRANCH  31  32
ATOM     32  C   UNL     1      -3.024   3.935   3.007  1.00  0.00     0.021 C 
BRANCH  32  33
ATOM     33  C   UNL     1      -3.506   4.650   4.264  1.00  0.00     0.116 C 
BRANCH  33  34
ATOM     34  N   UNL     1      -4.399   3.870   5.111  1.00  0.00    -0.352 N 
ATOM     35  C   UNL     1      -4.833   4.194   6.392  1.00  0.00     0.251 C 
ATOM     36  H   UNL     1      -4.731   3.022   4.737  1.00  0.00     0.163 HD
ATOM     37  O   UNL     1      -5.486   3.448   7.095  1.00  0.00    -0.269 OA
BRANCH  35  38
ATOM     38  C   UNL     1      -4.581   5.586   6.827  1.00  0.00     0.039 A 
ATOM     39  C   UNL     1      -5.678   6.454   6.793  1.00  0.00     0.014 A 
ATOM     40  C   UNL     1      -3.274   6.064   6.870  1.00  0.00     0.014 A 
ATOM     41  C   UNL     1      -5.454   7.807   6.577  1.00  0.00     0.010 A 
ATOM     42  C   UNL     1      -3.057   7.394   6.561  1.00  0.00     0.010 A 
ATOM     43  C   UNL     1      -4.147   8.248   6.354  1.00  0.00    -0.014 A 
BRANCH  43  44
ATOM     44  C   UNL     1      -3.869   9.564   5.792  1.00  0.00     0.031 A 
ATOM     45  C   UNL     1      -3.385  10.645   6.673  1.00  0.00     0.074 A 
ATOM     46  C   UNL     1      -4.129   9.827   4.491  1.00  0.00     0.049 A 
ATOM     47  N   UNL     1      -3.711  11.885   6.533  1.00  0.00    -0.248 NA
ATOM     48  C   UNL     1      -2.532  10.392   7.830  1.00  0.00     0.031 C 
ATOM     49  C   UNL     1      -3.804  11.047   3.760  1.00  0.00     0.029 A 
ATOM     50  N   UNL     1      -4.963   9.111   3.626  1.00  0.00    -0.354 N 
ATOM     51  C   UNL     1      -2.942  12.613   7.408  1.00  0.00     0.074 A 
ATOM     52  C   UNL     1      -2.270  11.637   8.236  1.00  0.00     0.031 C 
ATOM     53  C   UNL     1      -4.615  11.140   2.695  1.00  0.00     0.029 A 
ATOM     54  C   UNL     1      -5.562  10.040   2.759  1.00  0.00     0.049 A 
ATOM     55  H   UNL     1      -5.103   8.137   3.625  1.00  0.00     0.167 HD
ATOM     56  C   UNL     1      -2.830  13.963   7.270  1.00  0.00     0.037 A 
ATOM     57  C   UNL     1      -6.917  10.169   2.683  1.00  0.00     0.037 A 
ATOM     58  C   UNL     1      -3.597  14.452   6.132  1.00  0.00     0.049 A 
ATOM     59  C   UNL     1      -7.422  11.534   3.095  1.00  0.00     0.074 A 
ATOM     60  C   UNL     1      -3.246  14.681   4.811  1.00  0.00     0.029 A 
ATOM     61  N   UNL     1      -4.987  14.437   6.172  1.00  0.00    -0.354 N 
ATOM     62  N   UNL     1      -6.709  12.404   3.757  1.00  0.00    -0.248 NA
ATOM     63  C   UNL     1      -8.763  12.033   2.799  1.00  0.00     0.031 C 
ATOM     64  C   UNL     1      -4.431  14.731   4.040  1.00  0.00     0.029 A 
ATOM     65  C   UNL     1      -5.506  14.571   4.896  1.00  0.00     0.049 A 
ATOM     66  H   UNL     1      -5.526  14.344   6.991  1.00  0.00     0.167 HD
ATOM     67  C   UNL     1      -7.449  13.539   3.983  1.00  0.00     0.074 A 
ATOM     68  C   UNL     1      -8.723  13.262   3.346  1.00  0.00     0.031 C 
ATOM     69  C   UNL     1      -6.943  14.610   4.667  1.00  0.00     0.037 A 
BRANCH  56  70
ATOM     70  C   UNL     1      -1.733  14.716   7.976  1.00  0.00     0.058 A 
ATOM     71  C   UNL     1      -0.917  15.635   7.289  1.00  0.00     0.135 A 
ATOM     72  C   UNL     1      -1.382  14.481   9.321  1.00  0.00     0.135 A 
ATOM     73  F   UNL     1      -1.183  16.004   6.030  1.00  0.00    -0.206 F 
ATOM     74  C   UNL     1       0.236  16.182   7.851  1.00  0.00     0.059 A 
ATOM     75  C   UNL     1      -0.206  14.977   9.891  1.00  0.00     0.059 A 
ATOM     76  F   UNL     1      -2.168  13.730  10.110  1.00  0.00    -0.206 F 
ATOM     77  C   UNL     1       0.608  15.816   9.139  1.00  0.00     0.060 A 
BRANCH  77  78
ATOM     78  S   UNL     1       2.192  16.396   9.780  1.00  0.00     0.124 S 
ATOM     79  O   UNL     1       3.091  16.156   8.654  1.00  0.00    -0.237 OA
ATOM     80  O   UNL     1       1.904  17.794  10.075  1.00  0.00    -0.237 OA
ATOM     81  O   UNL     1       2.420  15.539  10.940  1.00  0.00    -0.744 OA
ENDBRANCH  77  78
ENDBRANCH  56  70
BRANCH  57  82
ATOM     82  C   UNL     1      -7.649   8.878   2.775  1.00  0.00     0.058 A 
ATOM     83  C   UNL     1      -7.544   7.987   1.688  1.00  0.00     0.135 A 
ATOM     84  C   UNL     1      -8.105   8.352   3.991  1.00  0.00     0.135 A 
ATOM     85  F   UNL     1      -7.122   8.435   0.494  1.00  0.00    -0.206 F 
ATOM     86  C   UNL     1      -7.763   6.619   1.826  1.00  0.00     0.059 A 
ATOM     87  C   UNL     1      -8.327   6.979   4.154  1.00  0.00     0.059 A 
ATOM     88  F   UNL     1      -8.236   9.148   5.062  1.00  0.00    -0.206 F 
ATOM     89  C   UNL     1      -8.098   6.116   3.081  1.00  0.00     0.060 A 
BRANCH  89  90
ATOM     90  S   UNL     1      -8.191   4.320   3.299  1.00  0.00     0.124 S 
ATOM     91  O   UNL     1      -8.779   3.879   2.037  1.00  0.00    -0.237 OA
ATOM     92  O   UNL     1      -6.785   3.967   3.484  1.00  0.00    -0.237 OA
ATOM     93  O   UNL     1      -9.045   4.175   4.471  1.00  0.00    -0.744 OA
ENDBRANCH  89  90
ENDBRANCH  57  82
BRANCH  69  94
ATOM     94  C   UNL     1      -7.694  15.850   5.109  1.00  0.00     0.058 A 
ATOM     95  C   UNL     1      -9.058  15.878   5.438  1.00  0.00     0.135 A 
ATOM     96  C   UNL     1      -6.983  17.052   5.367  1.00  0.00     0.135 A 
ATOM     97  F   UNL     1      -9.825  14.785   5.323  1.00  0.00    -0.206 F 
ATOM     98  C   UNL     1      -9.681  17.020   5.954  1.00  0.00     0.059 A 
ATOM     99  C   UNL     1      -7.571  18.180   5.932  1.00  0.00     0.059 A 
ATOM    100  F   UNL     1      -5.675  17.169   5.092  1.00  0.00    -0.206 F 
ATOM    101  C   UNL     1      -8.928  18.163   6.208  1.00  0.00     0.060 A 
BRANCH 101 102
ATOM    102  S   UNL     1      -9.690  19.606   6.974  1.00  0.00     0.124 S 
ATOM    103  O   UNL     1     -10.042  20.405   5.805  1.00  0.00    -0.237 OA
ATOM    104  O   UNL     1     -10.814  19.032   7.707  1.00  0.00    -0.237 OA
ATOM    105  O   UNL     1      -8.618  20.141   7.808  1.00  0.00    -0.744 OA
ENDBRANCH 101 102
ENDBRANCH  69  94
ENDBRANCH  43  44
ENDBRANCH  35  38
ENDBRANCH  33  34
ENDBRANCH  32  33
ENDBRANCH  31  32
ENDBRANCH  30  31
ENDBRANCH   1  30
TORSDOF 21
