REMARK SMILES O=C(NCCCCCCNC(=O)[C@@H](Cc1ccccc1)NC(=O)c1ccccc1[N+](=O)[O-])c1ccc(-c2c3nc(c(-c4c(F)cc(S(=O)(=O)[O-])cc4F)c4ccc([nH]4)c(-c4c(F)cc(S(=O)(=O)[O-])cc4F)c4nc(c(-c5c(F)cc(S(=O)(=O)[O-])cc5F)c5ccc2[nH]5)C=C4)C=C3)cc1
REMARK SMILES IDX 6 1 5 2 4 3 3 4 1 5 2 6 33 8 34 9 98 10 35 11 97 12 36 13
REMARK SMILES IDX 37 14 38 15 91 16 39 17 96 18 90 19 92 20 40 21 95 22 89 23
REMARK SMILES IDX 88 24 41 26 75 27 54 28 74 29 55 30 58 31 73 32 93 33 56 34
REMARK SMILES IDX 57 35 72 37 94 38 59 39 42 40 43 41 52 42 44 43 45 44 51 45
REMARK SMILES IDX 53 46 46 47 47 48 48 49 49 50 50 51 76 52 77 53 86 54 78 55
REMARK SMILES IDX 79 56 85 57 87 58 80 59 81 60 82 61 83 62 84 63 60 64 61 65
REMARK SMILES IDX 70 66 62 67 63 68 69 69 71 70 64 71 65 72 66 73 67 74 68 75
REMARK SMILES IDX 7 76 8 77 9 78 10 79 11 80 12 82 13 83 14 84 15 85 16 86
REMARK SMILES IDX 20 87 17 88 19 89 18 90 21 91 22 92 23 94 24 95 25 96 29 97
REMARK SMILES IDX 26 98 28 99 27 100 30 101 31 102 32 103
REMARK H PARENT 3 7 92 25 58 36 10 81 21 93
REMARK Flexibility Score: inf
ROOT
ATOM      1  C   UNL     1       3.666  -2.140  -3.094  1.00  0.00     0.002 C 
ENDROOT
BRANCH   1   2
ATOM      2  C   UNL     1       4.382  -1.894  -1.763  1.00  0.00     0.021 C 
BRANCH   2   3
ATOM      3  C   UNL     1       4.307  -0.455  -1.263  1.00  0.00     0.116 C 
BRANCH   3   4
ATOM      4  N   UNL     1       2.930  -0.036  -1.041  1.00  0.00    -0.352 N 
ATOM      5  O   UNL     1       1.046   0.308   0.145  1.00  0.00    -0.269 OA
ATOM      6  C   UNL     1       2.278   0.231   0.134  1.00  0.00     0.251 C 
ATOM      7  H   UNL     1       2.388   0.070  -1.855  1.00  0.00     0.163 HD
BRANCH   6   8
ATOM      8  C   UNL     1       3.043   0.427   1.381  1.00  0.00     0.039 A 
ATOM      9  C   UNL     1       4.218   1.182   1.377  1.00  0.00     0.014 A 
ATOM     10  C   UNL     1       2.562  -0.111   2.579  1.00  0.00     0.014 A 
ATOM     11  C   UNL     1       4.978   1.288   2.535  1.00  0.00     0.010 A 
ATOM     12  C   UNL     1       3.281   0.075   3.763  1.00  0.00     0.010 A 
ATOM     13  C   UNL     1       4.507   0.758   3.747  1.00  0.00    -0.014 A 
BRANCH  13  14
ATOM     14  C   UNL     1       5.278   1.005   4.992  1.00  0.00     0.031 A 
ATOM     15  C   UNL     1       5.893  -0.127   5.767  1.00  0.00     0.074 A 
ATOM     16  C   UNL     1       5.438   2.278   5.406  1.00  0.00     0.049 A 
ATOM     17  N   UNL     1       6.613  -0.079   6.858  1.00  0.00    -0.248 NA
ATOM     18  C   UNL     1       5.666  -1.489   5.259  1.00  0.00     0.031 C 
ATOM     19  C   UNL     1       4.871   3.455   4.740  1.00  0.00     0.029 A 
ATOM     20  N   UNL     1       6.131   2.801   6.466  1.00  0.00    -0.354 N 
ATOM     21  C   UNL     1       6.915  -1.398   7.177  1.00  0.00     0.074 A 
ATOM     22  C   UNL     1       6.272  -2.227   6.179  1.00  0.00     0.031 C 
ATOM     23  C   UNL     1       5.277   4.561   5.379  1.00  0.00     0.029 A 
ATOM     24  C   UNL     1       6.075   4.173   6.536  1.00  0.00     0.049 A 
ATOM     25  H   UNL     1       6.622   2.248   7.115  1.00  0.00     0.167 HD
ATOM     26  C   UNL     1       7.666  -1.869   8.203  1.00  0.00     0.037 A 
ATOM     27  C   UNL     1       6.590   5.027   7.440  1.00  0.00     0.037 A 
ATOM     28  C   UNL     1       8.304  -1.030   9.187  1.00  0.00     0.049 A 
ATOM     29  C   UNL     1       7.392   4.475   8.583  1.00  0.00     0.074 A 
ATOM     30  C   UNL     1       9.111  -1.408  10.246  1.00  0.00     0.029 A 
ATOM     31  N   UNL     1       8.200   0.354   9.242  1.00  0.00    -0.354 N 
ATOM     32  N   UNL     1       7.699   3.227   8.846  1.00  0.00    -0.248 NA
ATOM     33  C   UNL     1       7.918   5.444   9.552  1.00  0.00     0.031 C 
ATOM     34  C   UNL     1       9.451  -0.260  10.971  1.00  0.00     0.029 A 
ATOM     35  C   UNL     1       8.908   0.841  10.330  1.00  0.00     0.049 A 
ATOM     36  H   UNL     1       7.699   0.907   8.601  1.00  0.00     0.167 HD
ATOM     37  C   UNL     1       8.473   3.263  10.000  1.00  0.00     0.074 A 
ATOM     38  C   UNL     1       8.601   4.658  10.371  1.00  0.00     0.031 C 
ATOM     39  C   UNL     1       9.027   2.234  10.688  1.00  0.00     0.037 A 
BRANCH  26  40
ATOM     40  C   UNL     1       7.827  -3.361   8.329  1.00  0.00     0.058 A 
ATOM     41  C   UNL     1       8.595  -4.105   7.418  1.00  0.00     0.135 A 
ATOM     42  C   UNL     1       7.241  -4.053   9.403  1.00  0.00     0.135 A 
ATOM     43  F   UNL     1       9.167  -3.501   6.364  1.00  0.00    -0.206 F 
ATOM     44  C   UNL     1       8.753  -5.481   7.551  1.00  0.00     0.059 A 
ATOM     45  C   UNL     1       7.410  -5.424   9.572  1.00  0.00     0.059 A 
ATOM     46  F   UNL     1       6.497  -3.394  10.306  1.00  0.00    -0.206 F 
ATOM     47  C   UNL     1       8.156  -6.133   8.632  1.00  0.00     0.060 A 
BRANCH  47  48
ATOM     48  S   UNL     1       8.372  -7.918   8.790  1.00  0.00     0.124 S 
ATOM     49  O   UNL     1       7.538  -8.409   7.697  1.00  0.00    -0.237 OA
ATOM     50  O   UNL     1       9.811  -8.076   8.608  1.00  0.00    -0.237 OA
ATOM     51  O   UNL     1       7.877  -8.205  10.133  1.00  0.00    -0.744 OA
ENDBRANCH  47  48
ENDBRANCH  26  40
BRANCH  27  52
ATOM     52  C   UNL     1       6.356   6.488   7.295  1.00  0.00     0.058 A 
ATOM     53  C   UNL     1       7.404   7.363   6.978  1.00  0.00     0.135 A 
ATOM     54  C   UNL     1       5.071   7.035   7.446  1.00  0.00     0.135 A 
ATOM     55  F   UNL     1       8.651   6.889   6.827  1.00  0.00    -0.206 F 
ATOM     56  C   UNL     1       7.193   8.730   6.833  1.00  0.00     0.059 A 
ATOM     57  C   UNL     1       4.829   8.393   7.274  1.00  0.00     0.059 A 
ATOM     58  F   UNL     1       4.029   6.237   7.729  1.00  0.00    -0.206 F 
ATOM     59  C   UNL     1       5.899   9.235   6.979  1.00  0.00     0.060 A 
BRANCH  59  60
ATOM     60  S   UNL     1       5.628  11.004   6.743  1.00  0.00     0.124 S 
ATOM     61  O   UNL     1       6.229  11.556   7.952  1.00  0.00    -0.237 OA
ATOM     62  O   UNL     1       6.346  11.260   5.498  1.00  0.00    -0.237 OA
ATOM     63  O   UNL     1       4.175  11.111   6.653  1.00  0.00    -0.744 OA
ENDBRANCH  59  60
ENDBRANCH  27  52
BRANCH  39  64
ATOM     64  C   UNL     1       9.854   2.583  11.895  1.00  0.00     0.058 A 
ATOM     65  C   UNL     1       9.272   3.060  13.080  1.00  0.00     0.135 A 
ATOM     66  C   UNL     1      11.248   2.406  11.875  1.00  0.00     0.135 A 
ATOM     67  F   UNL     1       7.946   3.256  13.150  1.00  0.00    -0.206 F 
ATOM     68  C   UNL     1      10.045   3.379  14.192  1.00  0.00     0.059 A 
ATOM     69  C   UNL     1      12.036   2.688  12.985  1.00  0.00     0.059 A 
ATOM     70  F   UNL     1      11.855   1.943  10.770  1.00  0.00    -0.206 F 
ATOM     71  C   UNL     1      11.427   3.189  14.135  1.00  0.00     0.060 A 
BRANCH  71  72
ATOM     72  S   UNL     1      12.415   3.584  15.592  1.00  0.00     0.124 S 
ATOM     73  O   UNL     1      12.395   5.043  15.575  1.00  0.00    -0.237 OA
ATOM     74  O   UNL     1      11.655   2.952  16.666  1.00  0.00    -0.237 OA
ATOM     75  O   UNL     1      13.708   2.970  15.303  1.00  0.00    -0.744 OA
ENDBRANCH  71  72
ENDBRANCH  39  64
ENDBRANCH  13  14
ENDBRANCH   6   8
ENDBRANCH   3   4
ENDBRANCH   2   3
ENDBRANCH   1   2
BRANCH   1  76
ATOM     76  C   UNL     1       4.149  -1.280  -4.270  1.00  0.00     0.002 C 
BRANCH  76  77
ATOM     77  C   UNL     1       5.661  -1.312  -4.503  1.00  0.00     0.021 C 
BRANCH  77  78
ATOM     78  C   UNL     1       6.210  -2.696  -4.850  1.00  0.00     0.116 C 
BRANCH  78  79
ATOM     79  N   UNL     1       6.383  -2.852  -6.275  1.00  0.00    -0.354 N 
ATOM     80  C   UNL     1       7.506  -2.843  -7.038  1.00  0.00     0.242 C 
ATOM     81  H   UNL     1       5.548  -2.987  -6.778  1.00  0.00     0.163 HD
ATOM     82  O   UNL     1       7.355  -3.051  -8.249  1.00  0.00    -0.273 OA
BRANCH  80  83
ATOM     83  C   UNL     1       8.933  -2.652  -6.466  1.00  0.00     0.176 C 
BRANCH  83  84
ATOM     84  C   UNL     1       9.241  -1.272  -5.823  1.00  0.00     0.070 C 
BRANCH  84  85
ATOM     85  C   UNL     1       9.012  -0.931  -4.363  1.00  0.00    -0.045 A 
ATOM     86  C   UNL     1       8.648   0.391  -4.043  1.00  0.00     0.004 A 
ATOM     87  C   UNL     1       9.235  -1.813  -3.298  1.00  0.00     0.004 A 
ATOM     88  C   UNL     1       8.400   0.779  -2.724  1.00  0.00     0.000 A 
ATOM     89  C   UNL     1       8.945  -1.440  -1.980  1.00  0.00     0.000 A 
ATOM     90  C   UNL     1       8.516  -0.148  -1.694  1.00  0.00     0.000 A 
ENDBRANCH  84  85
ENDBRANCH  83  84
BRANCH  83  91
ATOM     91  N   UNL     1       9.390  -3.826  -5.723  1.00  0.00    -0.340 N 
ATOM     92  C   UNL     1      10.283  -4.822  -6.012  1.00  0.00     0.258 C 
ATOM     93  H   UNL     1       8.971  -3.918  -4.837  1.00  0.00     0.164 HD
ATOM     94  O   UNL     1      10.392  -5.758  -5.221  1.00  0.00    -0.269 OA
BRANCH  92  95
ATOM     95  C   UNL     1      11.039  -4.894  -7.281  1.00  0.00     0.117 A 
ATOM     96  C   UNL     1      10.953  -6.119  -7.968  1.00  0.00     0.021 A 
ATOM     97  C   UNL     1      11.866  -3.906  -7.814  1.00  0.00     0.282 A 
ATOM     98  C   UNL     1      11.618  -6.312  -9.183  1.00  0.00     0.001 A 
ATOM     99  C   UNL     1      12.505  -4.076  -9.055  1.00  0.00     0.086 A 
ATOM    100  C   UNL     1      12.373  -5.283  -9.739  1.00  0.00     0.007 A 
BRANCH  97 101
ATOM    101  N   UNL     1      12.173  -2.698  -7.079  1.00  0.00     0.063 N 
ATOM    102  O   UNL     1      12.142  -1.634  -7.716  1.00  0.00    -0.258 OA
ATOM    103  O   UNL     1      12.459  -2.807  -5.883  1.00  0.00    -0.258 OA
ENDBRANCH  97 101
ENDBRANCH  92  95
ENDBRANCH  83  91
ENDBRANCH  80  83
ENDBRANCH  78  79
ENDBRANCH  77  78
ENDBRANCH  76  77
ENDBRANCH   1  76
TORSDOF 21
