REMARK SMILES Cc1ccc(C(=O)C[C@@H](C(=O)NCCCCCCNC(=O)c2ccc(-c3c4nc(c(-c5c(F)cc(S(=O)(=O)[O-])cc5F)c5ccc([nH]5)c(-c5c(F)cc(S(=O)(=O)[O-])cc5F)c5nc(c(-c6c(F)cc(S(=O)(=O)[O-])cc6F)c6ccc3[nH]6)C=C5)C=C4)cc2)[NH+]2CC[NH+](Cc3ccccc3)CC2)cc1
REMARK SMILES IDX 15 1 14 2 13 3 12 4 10 5 11 6 9 8 8 9 6 10 7 11 5 12 1 13
REMARK SMILES IDX 2 14 3 15 102 16 4 17 101 18 88 19 89 20 100 21 90 23 99 24
REMARK SMILES IDX 91 25 92 27 93 28 94 29 98 30 95 31 97 32 96 33 16 34 17 35
REMARK SMILES IDX 18 36 19 37 20 38 21 40 22 41 23 42 87 43 24 44 86 45 25 46
REMARK SMILES IDX 26 47 27 48 80 49 28 50 85 51 79 52 81 53 29 54 84 55 78 56
REMARK SMILES IDX 77 57 30 59 64 60 43 61 63 62 44 63 47 64 62 65 82 66 45 67
REMARK SMILES IDX 46 68 61 70 83 71 48 72 31 73 32 74 41 75 33 76 34 77 40 78
REMARK SMILES IDX 42 79 35 80 36 81 37 82 38 83 39 84 65 85 66 86 75 87 67 88
REMARK SMILES IDX 68 89 74 90 76 91 69 92 70 93 71 94 72 95 73 96 49 97 50 98
REMARK SMILES IDX 59 99 51 100 52 101 58 102 60 103 53 104 54 105 55 106
REMARK SMILES IDX 56 107 57 108
REMARK H PARENT 12 7 88 22 91 26 19 39 81 58 47 69
REMARK Flexibility Score: inf
ROOT
ATOM      1  C   UNL     1       0.397  -1.081   1.821  1.00  0.00     0.002 C 
ENDROOT
BRANCH   1   2
ATOM      2  C   UNL     1      -1.133  -0.955   1.858  1.00  0.00     0.021 C 
BRANCH   2   3
ATOM      3  C   UNL     1      -1.641   0.126   2.807  1.00  0.00     0.116 C 
BRANCH   3   4
ATOM      4  N   UNL     1      -1.281   1.444   2.316  1.00  0.00    -0.351 N 
ATOM      5  C   UNL     1      -1.871   2.193   1.341  1.00  0.00     0.278 C 
ATOM      6  O   UNL     1      -1.210   3.129   0.877  1.00  0.00    -0.268 OA
ATOM      7  H   UNL     1      -0.499   1.856   2.748  1.00  0.00     0.163 HD
BRANCH   5   8
ATOM      8  C   UNL     1      -3.351   1.951   0.928  1.00  0.00     0.282 C 
BRANCH   8   9
ATOM      9  C   UNL     1      -3.544   2.038  -0.599  1.00  0.00     0.156 C 
BRANCH   9  10
ATOM     10  C   UNL     1      -3.041   0.777  -1.291  1.00  0.00     0.169 C 
ATOM     11  O   UNL     1      -3.786  -0.192  -1.439  1.00  0.00    -0.294 OA
BRANCH  10  12
ATOM     12  C   UNL     1      -1.597   0.653  -1.658  1.00  0.00     0.018 A 
ATOM     13  C   UNL     1       2.650   0.115  -1.407  1.00  0.00     0.044 C 
ATOM     14  C   UNL     1       1.180   0.304  -1.629  1.00  0.00    -0.051 A 
ATOM     15  C   UNL     1       0.335  -0.801  -1.770  1.00  0.00     0.004 A 
ATOM     16  C   UNL     1       0.632   1.587  -1.670  1.00  0.00     0.004 A 
ATOM     17  C   UNL     1      -1.051  -0.629  -1.788  1.00  0.00     0.012 A 
ATOM     18  C   UNL     1      -0.751   1.762  -1.702  1.00  0.00     0.012 A 
ENDBRANCH  10  12
ENDBRANCH   9  10
ENDBRANCH   8   9
BRANCH   8  19
ATOM     19  N   UNL     1      -4.231   2.964   1.597  1.00  0.00    -0.315 N 
ATOM     20  C   UNL     1      -4.747   2.506   2.893  1.00  0.00     0.325 C 
ATOM     21  C   UNL     1      -3.706   4.340   1.632  1.00  0.00     0.325 C 
ATOM     22  H   UNL     1      -5.035   3.038   0.973  1.00  0.00     0.349 HD
ATOM     23  C   UNL     1      -5.028   3.607   3.935  1.00  0.00     0.324 C 
ATOM     24  C   UNL     1      -4.591   5.398   2.345  1.00  0.00     0.324 C 
ATOM     25  N   UNL     1      -5.453   4.901   3.414  1.00  0.00    -0.322 N 
ATOM     26  H   UNL     1      -5.295   5.541   4.192  1.00  0.00     0.348 HD
BRANCH  25  27
ATOM     27  C   UNL     1      -6.889   5.100   3.232  1.00  0.00     0.299 C 
BRANCH  27  28
ATOM     28  C   UNL     1      -7.667   4.307   2.199  1.00  0.00     0.006 A 
ATOM     29  C   UNL     1      -8.980   3.909   2.508  1.00  0.00     0.009 A 
ATOM     30  C   UNL     1      -7.211   4.057   0.898  1.00  0.00     0.009 A 
ATOM     31  C   UNL     1      -9.780   3.252   1.568  1.00  0.00     0.001 A 
ATOM     32  C   UNL     1      -7.997   3.377  -0.036  1.00  0.00     0.001 A 
ATOM     33  C   UNL     1      -9.283   2.975   0.299  1.00  0.00     0.000 A 
ENDBRANCH  27  28
ENDBRANCH  25  27
ENDBRANCH   8  19
ENDBRANCH   5   8
ENDBRANCH   3   4
ENDBRANCH   2   3
ENDBRANCH   1   2
BRANCH   1  34
ATOM     34  C   UNL     1       1.031  -1.860   2.981  1.00  0.00     0.002 C 
BRANCH  34  35
ATOM     35  C   UNL     1       0.512  -3.284   3.189  1.00  0.00     0.021 C 
BRANCH  35  36
ATOM     36  C   UNL     1       0.634  -4.198   1.983  1.00  0.00     0.116 C 
BRANCH  36  37
ATOM     37  N   UNL     1       1.916  -4.856   1.809  1.00  0.00    -0.352 N 
ATOM     38  C   UNL     1       1.899  -6.169   1.352  1.00  0.00     0.251 C 
ATOM     39  H   UNL     1       2.762  -4.392   2.007  1.00  0.00     0.163 HD
ATOM     40  O   UNL     1       1.791  -7.160   2.063  1.00  0.00    -0.269 OA
BRANCH  38  41
ATOM     41  C   UNL     1       1.709  -6.264  -0.110  1.00  0.00     0.039 A 
ATOM     42  C   UNL     1       2.756  -6.554  -0.982  1.00  0.00     0.014 A 
ATOM     43  C   UNL     1       0.452  -5.884  -0.591  1.00  0.00     0.014 A 
ATOM     44  C   UNL     1       2.570  -6.347  -2.352  1.00  0.00     0.010 A 
ATOM     45  C   UNL     1       0.295  -5.604  -1.926  1.00  0.00     0.010 A 
ATOM     46  C   UNL     1       1.360  -5.815  -2.805  1.00  0.00    -0.014 A 
BRANCH  46  47
ATOM     47  C   UNL     1       1.081  -5.402  -4.170  1.00  0.00     0.031 A 
ATOM     48  C   UNL     1       0.280  -6.261  -5.063  1.00  0.00     0.074 A 
ATOM     49  C   UNL     1       1.370  -4.136  -4.536  1.00  0.00     0.049 A 
ATOM     50  N   UNL     1       0.257  -6.131  -6.346  1.00  0.00    -0.248 NA
ATOM     51  C   UNL     1      -0.559  -7.352  -4.574  1.00  0.00     0.031 C 
ATOM     52  C   UNL     1       0.836  -3.392  -5.671  1.00  0.00     0.029 A 
ATOM     53  N   UNL     1       2.380  -3.318  -4.028  1.00  0.00    -0.354 N 
ATOM     54  C   UNL     1      -0.784  -6.896  -6.815  1.00  0.00     0.074 A 
ATOM     55  C   UNL     1      -1.214  -7.695  -5.689  1.00  0.00     0.031 C 
ATOM     56  C   UNL     1       1.661  -2.369  -5.943  1.00  0.00     0.029 A 
ATOM     57  C   UNL     1       2.836  -2.527  -5.103  1.00  0.00     0.049 A 
ATOM     58  H   UNL     1       2.709  -3.297  -3.101  1.00  0.00     0.167 HD
ATOM     59  C   UNL     1      -1.277  -6.679  -8.065  1.00  0.00     0.037 A 
ATOM     60  C   UNL     1       4.114  -2.688  -5.562  1.00  0.00     0.037 A 
ATOM     61  C   UNL     1      -0.564  -5.611  -8.760  1.00  0.00     0.049 A 
ATOM     62  C   UNL     1       4.210  -3.213  -6.982  1.00  0.00     0.074 A 
ATOM     63  C   UNL     1      -0.816  -4.268  -8.989  1.00  0.00     0.029 A 
ATOM     64  N   UNL     1       0.771  -5.798  -9.071  1.00  0.00    -0.354 N 
ATOM     65  N   UNL     1       3.188  -3.544  -7.723  1.00  0.00    -0.248 NA
ATOM     66  C   UNL     1       5.483  -3.470  -7.655  1.00  0.00     0.031 C 
ATOM     67  C   UNL     1       0.386  -3.655  -9.445  1.00  0.00     0.029 A 
ATOM     68  C   UNL     1       1.368  -4.625  -9.493  1.00  0.00     0.049 A 
ATOM     69  H   UNL     1       1.239  -6.661  -8.999  1.00  0.00     0.167 HD
ATOM     70  C   UNL     1       3.630  -4.106  -8.893  1.00  0.00     0.074 A 
ATOM     71  C   UNL     1       5.076  -4.021  -8.812  1.00  0.00     0.031 C 
ATOM     72  C   UNL     1       2.783  -4.639  -9.822  1.00  0.00     0.037 A 
BRANCH  59  73
ATOM     73  C   UNL     1      -2.576  -7.287  -8.521  1.00  0.00     0.058 A 
ATOM     74  C   UNL     1      -3.516  -6.530  -9.248  1.00  0.00     0.135 A 
ATOM     75  C   UNL     1      -2.964  -8.609  -8.224  1.00  0.00     0.135 A 
ATOM     76  F   UNL     1      -3.254  -5.278  -9.643  1.00  0.00    -0.206 F 
ATOM     77  C   UNL     1      -4.782  -7.013  -9.571  1.00  0.00     0.059 A 
ATOM     78  C   UNL     1      -4.245  -9.100  -8.495  1.00  0.00     0.059 A 
ATOM     79  F   UNL     1      -2.101  -9.467  -7.655  1.00  0.00    -0.206 F 
ATOM     80  C   UNL     1      -5.153  -8.288  -9.164  1.00  0.00     0.060 A 
BRANCH  80  81
ATOM     81  S   UNL     1      -6.840  -8.836  -9.488  1.00  0.00     0.124 S 
ATOM     82  O   UNL     1      -7.631  -7.705  -9.012  1.00  0.00    -0.237 OA
ATOM     83  O   UNL     1      -6.821  -9.032 -10.933  1.00  0.00    -0.237 OA
ATOM     84  O   UNL     1      -6.961 -10.053  -8.689  1.00  0.00    -0.744 OA
ENDBRANCH  80  81
ENDBRANCH  59  73
BRANCH  60  85
ATOM     85  C   UNL     1       5.069  -2.999  -4.455  1.00  0.00     0.058 A 
ATOM     86  C   UNL     1       5.271  -2.009  -3.471  1.00  0.00     0.135 A 
ATOM     87  C   UNL     1       5.365  -4.324  -4.106  1.00  0.00     0.135 A 
ATOM     88  F   UNL     1       5.035  -0.719  -3.761  1.00  0.00    -0.206 F 
ATOM     89  C   UNL     1       5.551  -2.338  -2.148  1.00  0.00     0.059 A 
ATOM     90  C   UNL     1       5.670  -4.673  -2.788  1.00  0.00     0.059 A 
ATOM     91  F   UNL     1       5.210  -5.309  -5.002  1.00  0.00    -0.206 F 
ATOM     92  C   UNL     1       5.669  -3.683  -1.805  1.00  0.00     0.060 A 
BRANCH  92  93
ATOM     93  S   UNL     1       5.650  -4.116  -0.047  1.00  0.00     0.124 S 
ATOM     94  O   UNL     1       6.742  -3.304   0.478  1.00  0.00    -0.237 OA
ATOM     95  O   UNL     1       4.303  -3.707   0.356  1.00  0.00    -0.237 OA
ATOM     96  O   UNL     1       5.884  -5.556  -0.054  1.00  0.00    -0.744 OA
ENDBRANCH  92  93
ENDBRANCH  60  85
BRANCH  72  97
ATOM     97  C   UNL     1       3.229  -5.237 -11.130  1.00  0.00     0.058 A 
ATOM     98  C   UNL     1       4.178  -4.619 -11.959  1.00  0.00     0.135 A 
ATOM     99  C   UNL     1       2.612  -6.396 -11.655  1.00  0.00     0.135 A 
ATOM    100  F   UNL     1       4.770  -3.472 -11.589  1.00  0.00    -0.206 F 
ATOM    101  C   UNL     1       4.534  -5.146 -13.203  1.00  0.00     0.059 A 
ATOM    102  C   UNL     1       2.912  -6.908 -12.913  1.00  0.00     0.059 A 
ATOM    103  F   UNL     1       1.710  -7.092 -10.949  1.00  0.00    -0.206 F 
ATOM    104  C   UNL     1       3.896  -6.293 -13.670  1.00  0.00     0.060 A 
BRANCH 104 105
ATOM    105  S   UNL     1       4.345  -6.969 -15.279  1.00  0.00     0.124 S 
ATOM    106  O   UNL     1       4.531  -5.768 -16.088  1.00  0.00    -0.237 OA
ATOM    107  O   UNL     1       5.563  -7.705 -14.954  1.00  0.00    -0.237 OA
ATOM    108  O   UNL     1       3.191  -7.787 -15.639  1.00  0.00    -0.744 OA
ENDBRANCH 104 105
ENDBRANCH  72  97
ENDBRANCH  46  47
ENDBRANCH  38  41
ENDBRANCH  36  37
ENDBRANCH  35  36
ENDBRANCH  34  35
ENDBRANCH   1  34
TORSDOF 22
