REMARK SMILES C[NH+](C)CCc1nc(Nc2ccc(O)c(C(=O)NCCCCCCNC(=O)c3ccc(-c4c5nc(c(-c6c(F)cc(S(=O)(=O)[O-])cc6F)c6ccc([nH]6)c(-c6c(F)cc(S(=O)(=O)[O-])cc6F)c6nc(c(-c7c(F)cc(S(=O)(=O)[O-])cc7F)c7ccc4[nH]7)C=C6)C=C5)cc3)c2)c2ccccc2n1
REMARK SMILES IDX 20 1 19 2 18 3 16 4 17 5 15 7 10 8 11 9 94 10 12 11 13 12
REMARK SMILES IDX 9 13 8 15 6 16 7 17 101 18 100 19 95 20 99 21 96 22 98 23
REMARK SMILES IDX 97 24 5 25 4 26 2 27 1 28 3 29 14 31 21 33 22 34 23 35 24 36
REMARK SMILES IDX 25 37 26 38 27 40 28 41 29 42 93 43 30 44 92 45 31 46 32 47
REMARK SMILES IDX 33 48 86 49 34 50 91 51 85 52 87 53 35 54 90 55 84 56 83 57
REMARK SMILES IDX 36 59 70 60 49 61 69 62 50 63 53 64 68 65 88 66 51 67 52 68
REMARK SMILES IDX 67 70 89 71 54 72 37 73 38 74 47 75 39 76 40 77 46 78 48 79
REMARK SMILES IDX 41 80 42 81 43 82 44 83 45 84 71 85 72 86 81 87 73 88 74 89
REMARK SMILES IDX 80 90 82 91 75 92 76 93 77 94 78 95 79 96 55 97 56 98 65 99
REMARK SMILES IDX 57 100 58 101 64 102 66 103 59 104 60 105 61 106 62 107
REMARK SMILES IDX 63 108
REMARK H PARENT 18 6 9 14 2 30 14 32 25 39 87 58 53 69
REMARK Flexibility Score: inf
ROOT
ATOM      1  C   UNL     1       8.961   4.147   6.574  1.00  0.00     0.021 C 
ENDROOT
BRANCH   1   2
ATOM      2  C   UNL     1       8.287   3.909   5.218  1.00  0.00     0.116 C 
BRANCH   2   3
ATOM      3  N   UNL     1       8.525   2.545   4.799  1.00  0.00    -0.352 N 
ATOM      4  C   UNL     1       7.788   1.401   4.944  1.00  0.00     0.255 C 
ATOM      5  O   UNL     1       8.339   0.346   4.611  1.00  0.00    -0.269 OA
ATOM      6  H   UNL     1       9.376   2.415   4.320  1.00  0.00     0.163 HD
BRANCH   4   7
ATOM      7  C   UNL     1       6.352   1.352   5.346  1.00  0.00     0.083 A 
ATOM      8  C   UNL     1       4.254   0.142   4.907  1.00  0.00     0.041 A 
ATOM      9  C   UNL     1       3.592   1.004   5.780  1.00  0.00     0.030 A 
ATOM     10  C   UNL     1       5.621   0.341   4.690  1.00  0.00     0.043 A 
ATOM     11  C   UNL     1       4.298   1.983   6.480  1.00  0.00     0.049 A 
ATOM     12  C   UNL     1       5.677   2.135   6.287  1.00  0.00     0.128 A 
BRANCH   8  13
ATOM     13  N   UNL     1       3.588  -0.874   4.205  1.00  0.00    -0.340 N 
ATOM     14  H   UNL     1       4.047  -1.744   4.158  1.00  0.00     0.168 HD
BRANCH  13  15
ATOM     15  C   UNL     1       2.338  -0.796   3.559  1.00  0.00     0.142 A 
ATOM     16  C   UNL     1       0.707   0.502   2.597  1.00  0.00     0.137 A 
ATOM     17  N   UNL     1       1.864   0.428   3.263  1.00  0.00    -0.215 NA
ATOM     18  N   UNL     1      -0.043  -0.556   2.255  1.00  0.00    -0.233 NA
ATOM     19  C   UNL     1       0.437  -1.768   2.541  1.00  0.00     0.076 A 
ATOM     20  C   UNL     1       1.650  -1.969   3.209  1.00  0.00     0.043 A 
ATOM     21  C   UNL     1      -0.285  -2.876   2.118  1.00  0.00     0.029 A 
ATOM     22  C   UNL     1       2.092  -3.294   3.465  1.00  0.00     0.014 A 
ATOM     23  C   UNL     1       0.163  -4.180   2.341  1.00  0.00     0.002 A 
ATOM     24  C   UNL     1       1.353  -4.390   3.024  1.00  0.00     0.001 A 
BRANCH  16  25
ATOM     25  C   UNL     1       0.278   1.857   2.119  1.00  0.00     0.138 C 
BRANCH  25  26
ATOM     26  C   UNL     1       0.932   2.264   0.784  1.00  0.00     0.269 C 
BRANCH  26  27
ATOM     27  N   UNL     1       0.510   1.632  -0.482  1.00  0.00    -0.339 N 
ATOM     28  C   UNL     1       1.183   0.366  -0.751  1.00  0.00     0.332 C 
ATOM     29  C   UNL     1      -0.936   1.498  -0.609  1.00  0.00     0.332 C 
ATOM     30  H   UNL     1       0.812   2.288  -1.203  1.00  0.00     0.347 HD
ENDBRANCH  26  27
ENDBRANCH  25  26
ENDBRANCH  16  25
ENDBRANCH  13  15
ENDBRANCH   8  13
BRANCH  12  31
ATOM     31  O   UNL     1       6.324   3.026   7.093  1.00  0.00    -0.507 OA
ATOM     32  H   UNL     1       5.840   3.535   7.713  1.00  0.00     0.293 HD
ENDBRANCH  12  31
ENDBRANCH   4   7
ENDBRANCH   2   3
ENDBRANCH   1   2
BRANCH   1  33
ATOM     33  C   UNL     1      10.460   4.449   6.462  1.00  0.00     0.002 C 
BRANCH  33  34
ATOM     34  C   UNL     1      10.788   5.809   5.838  1.00  0.00     0.002 C 
BRANCH  34  35
ATOM     35  C   UNL     1      10.151   7.015   6.537  1.00  0.00     0.021 C 
BRANCH  35  36
ATOM     36  C   UNL     1      10.507   7.158   8.016  1.00  0.00     0.116 C 
BRANCH  36  37
ATOM     37  N   UNL     1      11.932   7.369   8.206  1.00  0.00    -0.352 N 
ATOM     38  C   UNL     1      12.590   8.400   8.827  1.00  0.00     0.251 C 
ATOM     39  H   UNL     1      12.513   6.666   7.833  1.00  0.00     0.163 HD
ATOM     40  O   UNL     1      13.801   8.527   8.674  1.00  0.00    -0.269 OA
BRANCH  38  41
ATOM     41  C   UNL     1      11.846   9.359   9.674  1.00  0.00     0.039 A 
ATOM     42  C   UNL     1      12.166  10.716   9.590  1.00  0.00     0.014 A 
ATOM     43  C   UNL     1      10.871   8.924  10.578  1.00  0.00     0.014 A 
ATOM     44  C   UNL     1      11.481  11.640  10.381  1.00  0.00     0.010 A 
ATOM     45  C   UNL     1      10.144   9.854  11.321  1.00  0.00     0.010 A 
ATOM     46  C   UNL     1      10.449  11.219  11.237  1.00  0.00    -0.014 A 
BRANCH  46  47
ATOM     47  C   UNL     1       9.682  12.210  12.033  1.00  0.00     0.031 A 
ATOM     48  C   UNL     1       9.780  12.234  13.534  1.00  0.00     0.074 A 
ATOM     49  C   UNL     1       8.873  13.079  11.396  1.00  0.00     0.049 A 
ATOM     50  N   UNL     1       9.220  13.057  14.384  1.00  0.00    -0.248 NA
ATOM     51  C   UNL     1      10.591  11.181  14.163  1.00  0.00     0.031 C 
ATOM     52  C   UNL     1       8.645  13.114   9.950  1.00  0.00     0.029 A 
ATOM     53  N   UNL     1       8.100  14.103  11.880  1.00  0.00    -0.354 N 
ATOM     54  C   UNL     1       9.608  12.622  15.646  1.00  0.00     0.074 A 
ATOM     55  C   UNL     1      10.402  11.427  15.451  1.00  0.00     0.031 C 
ATOM     56  C   UNL     1       7.826  14.136   9.659  1.00  0.00     0.029 A 
ATOM     57  C   UNL     1       7.452  14.813  10.897  1.00  0.00     0.049 A 
ATOM     58  H   UNL     1       8.016  14.310  12.839  1.00  0.00     0.167 HD
ATOM     59  C   UNL     1       9.348  13.179  16.854  1.00  0.00     0.037 A 
ATOM     60  C   UNL     1       6.662  15.900  10.982  1.00  0.00     0.037 A 
ATOM     61  C   UNL     1       8.566  14.375  17.040  1.00  0.00     0.049 A 
ATOM     62  C   UNL     1       6.406  16.517  12.328  1.00  0.00     0.074 A 
ATOM     63  C   UNL     1       8.291  15.054  18.214  1.00  0.00     0.029 A 
ATOM     64  N   UNL     1       7.928  15.069  16.021  1.00  0.00    -0.354 N 
ATOM     65  N   UNL     1       6.839  16.134  13.505  1.00  0.00    -0.248 NA
ATOM     66  C   UNL     1       5.564  17.719  12.353  1.00  0.00     0.031 C 
ATOM     67  C   UNL     1       7.456  16.137  17.910  1.00  0.00     0.029 A 
ATOM     68  C   UNL     1       7.244  16.157  16.540  1.00  0.00     0.049 A 
ATOM     69  H   UNL     1       7.957  14.824  15.068  1.00  0.00     0.167 HD
ATOM     70  C   UNL     1       6.334  17.058  14.413  1.00  0.00     0.074 A 
ATOM     71  C   UNL     1       5.580  18.028  13.643  1.00  0.00     0.031 C 
ATOM     72  C   UNL     1       6.480  17.100  15.761  1.00  0.00     0.037 A 
BRANCH  59  73
ATOM     73  C   UNL     1       9.918  12.490  18.065  1.00  0.00     0.058 A 
ATOM     74  C   UNL     1      11.299  12.483  18.326  1.00  0.00     0.135 A 
ATOM     75  C   UNL     1       9.080  11.819  18.969  1.00  0.00     0.135 A 
ATOM     76  F   UNL     1      12.148  13.099  17.488  1.00  0.00    -0.206 F 
ATOM     77  C   UNL     1      11.832  11.796  19.412  1.00  0.00     0.059 A 
ATOM     78  C   UNL     1       9.590  11.148  20.078  1.00  0.00     0.059 A 
ATOM     79  F   UNL     1       7.753  11.795  18.772  1.00  0.00    -0.206 F 
ATOM     80  C   UNL     1      10.970  11.122  20.277  1.00  0.00     0.060 A 
BRANCH  80  81
ATOM     81  S   UNL     1      11.676  10.203  21.661  1.00  0.00     0.124 S 
ATOM     82  O   UNL     1      12.189   9.014  20.988  1.00  0.00    -0.237 OA
ATOM     83  O   UNL     1      12.685  11.126  22.171  1.00  0.00    -0.237 OA
ATOM     84  O   UNL     1      10.532   9.983  22.540  1.00  0.00    -0.744 OA
ENDBRANCH  80  81
ENDBRANCH  59  73
BRANCH  60  85
ATOM     85  C   UNL     1       6.113  16.504   9.741  1.00  0.00     0.058 A 
ATOM     86  C   UNL     1       6.637  17.703   9.237  1.00  0.00     0.135 A 
ATOM     87  C   UNL     1       5.097  15.872   9.008  1.00  0.00     0.135 A 
ATOM     88  F   UNL     1       7.606  18.345   9.907  1.00  0.00    -0.206 F 
ATOM     89  C   UNL     1       6.173  18.258   8.049  1.00  0.00     0.059 A 
ATOM     90  C   UNL     1       4.631  16.396   7.807  1.00  0.00     0.059 A 
ATOM     91  F   UNL     1       4.577  14.713   9.442  1.00  0.00    -0.206 F 
ATOM     92  C   UNL     1       5.174  17.592   7.337  1.00  0.00     0.060 A 
BRANCH  92  93
ATOM     93  S   UNL     1       4.638  18.275   5.753  1.00  0.00     0.124 S 
ATOM     94  O   UNL     1       3.826  19.408   6.180  1.00  0.00    -0.237 OA
ATOM     95  O   UNL     1       5.909  18.603   5.114  1.00  0.00    -0.237 OA
ATOM     96  O   UNL     1       3.908  17.168   5.142  1.00  0.00    -0.744 OA
ENDBRANCH  92  93
ENDBRANCH  60  85
BRANCH  72  97
ATOM     97  C   UNL     1       5.810  18.239  16.479  1.00  0.00     0.058 A 
ATOM     98  C   UNL     1       4.416  18.291  16.634  1.00  0.00     0.135 A 
ATOM     99  C   UNL     1       6.569  19.291  17.015  1.00  0.00     0.135 A 
ATOM    100  F   UNL     1       3.644  17.312  16.135  1.00  0.00    -0.206 F 
ATOM    101  C   UNL     1       3.793  19.367  17.256  1.00  0.00     0.059 A 
ATOM    102  C   UNL     1       5.969  20.366  17.665  1.00  0.00     0.059 A 
ATOM    103  F   UNL     1       7.907  19.285  16.906  1.00  0.00    -0.206 F 
ATOM    104  C   UNL     1       4.579  20.405  17.761  1.00  0.00     0.060 A 
BRANCH 104 105
ATOM    105  S   UNL     1       3.762  21.805  18.556  1.00  0.00     0.124 S 
ATOM    106  O   UNL     1       3.286  22.560  17.401  1.00  0.00    -0.237 OA
ATOM    107  O   UNL     1       2.730  21.156  19.358  1.00  0.00    -0.237 OA
ATOM    108  O   UNL     1       4.837  22.434  19.319  1.00  0.00    -0.744 OA
ENDBRANCH 104 105
ENDBRANCH  72  97
ENDBRANCH  46  47
ENDBRANCH  38  41
ENDBRANCH  36  37
ENDBRANCH  35  36
ENDBRANCH  34  35
ENDBRANCH  33  34
ENDBRANCH   1  33
TORSDOF 22
