REMARK SMILES COc1cc(/C=C2/C(=O)N(c3ccccc3)C(=O)[NH+]=C2NCCCCCCNC(=O)c2ccc(-c3c4nc(c(-c5c(F)cc(S(=O)(=O)[O-])cc5F)c5ccc([nH]5)c(-c5c(F)cc(S(=O)(=O)[O-])cc5F)c5nc(c(-c6c(F)cc(S(=O)(=O)[O-])cc6F)c6ccc3[nH]6)C=C5)C=C4)cc2)ccc1OCC(=O)[O-]
REMARK SMILES IDX 24 1 23 2 22 3 21 4 6 5 7 6 8 7 20 8 9 9 10 10 19 11 17 12
REMARK SMILES IDX 18 15 5 16 3 17 4 18 99 19 98 20 97 21 2 22 1 23 100 24
REMARK SMILES IDX 101 25 102 26 103 27 104 28 11 29 12 30 16 31 13 32 15 33
REMARK SMILES IDX 14 34 25 35 26 36 27 37 28 38 29 39 30 41 31 42 32 43 96 44
REMARK SMILES IDX 33 45 95 46 34 47 35 48 36 49 89 50 37 51 94 52 88 53 90 54
REMARK SMILES IDX 38 55 93 56 87 57 86 58 39 60 73 61 52 62 72 63 53 64 56 65
REMARK SMILES IDX 71 66 91 67 54 68 55 69 70 71 92 72 57 73 40 74 41 75 50 76
REMARK SMILES IDX 42 77 43 78 49 79 51 80 44 81 45 82 46 83 47 84 48 85 74 86
REMARK SMILES IDX 75 87 84 88 76 89 77 90 83 91 85 92 78 93 79 94 80 95 81 96
REMARK SMILES IDX 82 97 58 98 59 99 68 100 60 101 61 102 67 103 69 104 62 105
REMARK SMILES IDX 63 106 64 107 65 108 66 109
REMARK H PARENT 19 13 21 14 28 40 90 59 56 70
REMARK Flexibility Score: inf
ROOT
ATOM      1  C   UNL     1       0.052  -2.653   1.874  1.00  0.00     0.003 C 
ENDROOT
BRANCH   1   2
ATOM      2  C   UNL     1       0.842  -1.607   3.024  1.00  0.00     0.037 C 
BRANCH   2   3
ATOM      3  C   UNL     1       0.428   0.382   3.858  1.00  0.00     0.194 C 
BRANCH   3   4
ATOM      4  N   UNL     1      -0.949   1.052   4.288  1.00  0.00    -0.305 N 
ATOM      5  C   UNL     1      -0.740  -1.307   6.197  1.00  0.00     0.030 C 
ATOM      6  C   UNL     1      -1.578  -0.271   6.376  1.00  0.00     0.129 C 
ATOM      7  C   UNL     1      -2.401  -0.158   7.595  1.00  0.00     0.328 C 
ATOM      8  C   UNL     1      -1.815   0.748   5.315  1.00  0.00     0.236 C 
ATOM      9  O   UNL     1      -2.061  -0.720   8.635  1.00  0.00    -0.249 OA
ATOM     10  N   UNL     1      -3.584   0.545   7.390  1.00  0.00    -0.155 N 
ATOM     11  N   UNL     1      -2.957   1.365   5.257  1.00  0.00    -0.209 N 
ATOM     12  C   UNL     1      -3.956   1.032   6.134  1.00  0.00     0.448 C 
ATOM     13  H   UNL     1      -3.104   2.070   4.586  1.00  0.00     0.270 HD
ATOM     14  H   UNL     1      -1.228   1.811   3.727  1.00  0.00     0.256 HD
ATOM     15  O   UNL     1      -5.127   1.191   5.795  1.00  0.00    -0.212 OA
BRANCH   5  16
ATOM     16  C   UNL     1      -0.055  -1.357   4.914  1.00  0.00    -0.021 A 
ATOM     17  C   UNL     1      -0.348  -0.215   2.002  1.00  0.00     0.161 A 
ATOM     18  C   UNL     1      -1.075  -1.050   3.445  1.00  0.00     0.058 A 
ATOM     19  C   UNL     1       1.412   0.139   1.949  1.00  0.00     0.161 A 
ATOM     20  C   UNL     1       2.430  -0.199   3.403  1.00  0.00     0.051 A 
ATOM     21  C   UNL     1       1.720  -0.994   4.862  1.00  0.00     0.012 A 
BRANCH  17  22
ATOM     22  O   UNL     1      -1.313   0.215   1.135  1.00  0.00    -0.493 OA
ATOM     23  C   UNL     1      -0.932   1.171   0.166  1.00  0.00     0.278 C 
ENDBRANCH  17  22
BRANCH  19  24
ATOM     24  O   UNL     1       1.884   1.089   1.072  1.00  0.00    -0.484 OA
BRANCH  24  25
ATOM     25  C   UNL     1       2.693   0.578   0.023  1.00  0.00     0.282 C 
BRANCH  25  26
ATOM     26  C   UNL     1       1.985   0.648  -1.320  1.00  0.00     0.079 C 
ATOM     27  O   UNL     1       1.598   1.659  -1.885  1.00  0.00    -0.546 OA
ATOM     28  O   UNL     1       1.753  -0.561  -1.864  1.00  0.00    -0.546 OA
ENDBRANCH  25  26
ENDBRANCH  24  25
ENDBRANCH  19  24
ENDBRANCH   5  16
BRANCH  10  29
ATOM     29  C   UNL     1      -4.505   0.639   8.467  1.00  0.00     0.111 A 
ATOM     30  C   UNL     1      -5.804   0.125   8.371  1.00  0.00     0.044 A 
ATOM     31  C   UNL     1      -4.111   1.302   9.636  1.00  0.00     0.044 A 
ATOM     32  C   UNL     1      -6.692   0.262   9.438  1.00  0.00     0.004 A 
ATOM     33  C   UNL     1      -5.011   1.468  10.687  1.00  0.00     0.004 A 
ATOM     34  C   UNL     1      -6.298   0.941  10.590  1.00  0.00     0.000 A 
ENDBRANCH  10  29
ENDBRANCH   3   4
ENDBRANCH   2   3
ENDBRANCH   1   2
BRANCH   1  35
ATOM     35  C   UNL     1       0.761  -2.798   0.529  1.00  0.00     0.002 C 
BRANCH  35  36
ATOM     36  C   UNL     1       2.217  -3.192   0.698  1.00  0.00     0.021 C 
BRANCH  36  37
ATOM     37  C   UNL     1       2.794  -3.937  -0.477  1.00  0.00     0.116 C 
BRANCH  37  38
ATOM     38  N   UNL     1       2.655  -3.263  -1.758  1.00  0.00    -0.352 N 
ATOM     39  C   UNL     1       3.565  -3.093  -2.778  1.00  0.00     0.251 C 
ATOM     40  H   UNL     1       1.769  -2.865  -1.923  1.00  0.00     0.163 HD
ATOM     41  O   UNL     1       3.257  -2.445  -3.775  1.00  0.00    -0.269 OA
BRANCH  39  42
ATOM     42  C   UNL     1       4.942  -3.612  -2.612  1.00  0.00     0.039 A 
ATOM     43  C   UNL     1       6.026  -2.835  -3.029  1.00  0.00     0.014 A 
ATOM     44  C   UNL     1       5.166  -4.801  -1.927  1.00  0.00     0.014 A 
ATOM     45  C   UNL     1       7.321  -3.209  -2.661  1.00  0.00     0.010 A 
ATOM     46  C   UNL     1       6.415  -5.049  -1.390  1.00  0.00     0.010 A 
ATOM     47  C   UNL     1       7.521  -4.288  -1.786  1.00  0.00    -0.014 A 
BRANCH  47  48
ATOM     48  C   UNL     1       8.865  -4.714  -1.317  1.00  0.00     0.031 A 
ATOM     49  C   UNL     1       9.270  -6.160  -1.498  1.00  0.00     0.074 A 
ATOM     50  C   UNL     1       9.657  -3.857  -0.641  1.00  0.00     0.049 A 
ATOM     51  N   UNL     1      10.284  -6.807  -0.988  1.00  0.00    -0.248 NA
ATOM     52  C   UNL     1       8.363  -7.016  -2.288  1.00  0.00     0.031 C 
ATOM     53  C   UNL     1       9.332  -2.463  -0.318  1.00  0.00     0.029 A 
ATOM     54  N   UNL     1      10.900  -4.035  -0.091  1.00  0.00    -0.354 N 
ATOM     55  C   UNL     1      10.086  -8.142  -1.329  1.00  0.00     0.074 A 
ATOM     56  C   UNL     1       8.820  -8.226  -2.015  1.00  0.00     0.031 C 
ATOM     57  C   UNL     1      10.367  -1.905   0.331  1.00  0.00     0.029 A 
ATOM     58  C   UNL     1      11.410  -2.907   0.510  1.00  0.00     0.049 A 
ATOM     59  H   UNL     1      11.384  -4.892  -0.122  1.00  0.00     0.167 HD
ATOM     60  C   UNL     1      10.910  -9.196  -1.134  1.00  0.00     0.037 A 
ATOM     61  C   UNL     1      12.589  -2.712   1.132  1.00  0.00     0.037 A 
ATOM     62  C   UNL     1      12.228  -9.061  -0.580  1.00  0.00     0.049 A 
ATOM     63  C   UNL     1      13.550  -3.869   1.215  1.00  0.00     0.074 A 
ATOM     64  C   UNL     1      13.216 -10.021  -0.461  1.00  0.00     0.029 A 
ATOM     65  N   UNL     1      12.752  -7.876  -0.085  1.00  0.00    -0.354 N 
ATOM     66  N   UNL     1      13.381  -5.109   0.817  1.00  0.00    -0.248 NA
ATOM     67  C   UNL     1      14.864  -3.603   1.815  1.00  0.00     0.031 C 
ATOM     68  C   UNL     1      14.331  -9.420   0.130  1.00  0.00     0.029 A 
ATOM     69  C   UNL     1      14.050  -8.079   0.344  1.00  0.00     0.049 A 
ATOM     70  H   UNL     1      12.271  -7.018  -0.045  1.00  0.00     0.167 HD
ATOM     71  C   UNL     1      14.573  -5.764   1.097  1.00  0.00     0.074 A 
ATOM     72  C   UNL     1      15.462  -4.779   1.679  1.00  0.00     0.031 C 
ATOM     73  C   UNL     1      14.908  -7.064   0.899  1.00  0.00     0.037 A 
BRANCH  60  74
ATOM     74  C   UNL     1      10.437 -10.560  -1.561  1.00  0.00     0.058 A 
ATOM     75  C   UNL     1      10.249 -10.895  -2.912  1.00  0.00     0.135 A 
ATOM     76  C   UNL     1      10.195 -11.559  -0.604  1.00  0.00     0.135 A 
ATOM     77  F   UNL     1      10.446  -9.976  -3.872  1.00  0.00    -0.206 F 
ATOM     78  C   UNL     1       9.806 -12.156  -3.297  1.00  0.00     0.059 A 
ATOM     79  C   UNL     1       9.785 -12.839  -0.968  1.00  0.00     0.059 A 
ATOM     80  F   UNL     1      10.354 -11.296   0.703  1.00  0.00    -0.206 F 
ATOM     81  C   UNL     1       9.580 -13.123  -2.318  1.00  0.00     0.060 A 
BRANCH  81  82
ATOM     82  S   UNL     1       9.033 -14.763  -2.838  1.00  0.00     0.124 S 
ATOM     83  O   UNL     1       7.643 -14.505  -3.199  1.00  0.00    -0.237 OA
ATOM     84  O   UNL     1       9.933 -15.053  -3.950  1.00  0.00    -0.237 OA
ATOM     85  O   UNL     1       9.231 -15.581  -1.645  1.00  0.00    -0.744 OA
ENDBRANCH  81  82
ENDBRANCH  60  74
BRANCH  61  86
ATOM     86  C   UNL     1      12.944  -1.374   1.679  1.00  0.00     0.058 A 
ATOM     87  C   UNL     1      13.942  -0.591   1.077  1.00  0.00     0.135 A 
ATOM     88  C   UNL     1      12.296  -0.844   2.805  1.00  0.00     0.135 A 
ATOM     89  F   UNL     1      14.592  -1.050  -0.003  1.00  0.00    -0.206 F 
ATOM     90  C   UNL     1      14.306   0.652   1.587  1.00  0.00     0.059 A 
ATOM     91  C   UNL     1      12.623   0.408   3.319  1.00  0.00     0.059 A 
ATOM     92  F   UNL     1      11.315  -1.537   3.405  1.00  0.00    -0.206 F 
ATOM     93  C   UNL     1      13.641   1.143   2.711  1.00  0.00     0.060 A 
BRANCH  93  94
ATOM     94  S   UNL     1      14.098   2.771   3.348  1.00  0.00     0.124 S 
ATOM     95  O   UNL     1      15.376   2.486   3.989  1.00  0.00    -0.237 OA
ATOM     96  O   UNL     1      14.158   3.572   2.130  1.00  0.00    -0.237 OA
ATOM     97  O   UNL     1      12.997   3.098   4.250  1.00  0.00    -0.744 OA
ENDBRANCH  93  94
ENDBRANCH  61  86
BRANCH  73  98
ATOM     98  C   UNL     1      16.298  -7.479   1.279  1.00  0.00     0.058 A 
ATOM     99  C   UNL     1      16.671  -7.642   2.621  1.00  0.00     0.135 A 
ATOM    100  C   UNL     1      17.242  -7.781   0.286  1.00  0.00     0.135 A 
ATOM    101  F   UNL     1      15.801  -7.361   3.604  1.00  0.00    -0.206 F 
ATOM    102  C   UNL     1      17.946  -8.071   2.967  1.00  0.00     0.059 A 
ATOM    103  C   UNL     1      18.514  -8.238   0.609  1.00  0.00     0.059 A 
ATOM    104  F   UNL     1      16.924  -7.654  -1.013  1.00  0.00    -0.206 F 
ATOM    105  C   UNL     1      18.859  -8.368   1.954  1.00  0.00     0.060 A 
BRANCH 105 106
ATOM    106  S   UNL     1      20.500  -8.959   2.417  1.00  0.00     0.124 S 
ATOM    107  O   UNL     1      21.136  -7.728   2.872  1.00  0.00    -0.237 OA
ATOM    108  O   UNL     1      20.198  -9.939   3.455  1.00  0.00    -0.237 OA
ATOM    109  O   UNL     1      21.023  -9.515   1.172  1.00  0.00    -0.744 OA
ENDBRANCH 105 106
ENDBRANCH  73  98
ENDBRANCH  47  48
ENDBRANCH  39  42
ENDBRANCH  37  38
ENDBRANCH  36  37
ENDBRANCH  35  36
ENDBRANCH   1  35
TORSDOF 21
