REMARK SMILES CCCc1cc(S(F)(F)(F)(F)F)cc2c1O[C@@H](C(F)(F)F)C(C(=O)NCCCCCCNC(=O)c1ccc(-c3c4nc(c(-c5c(F)cc(S(=O)(=O)[O-])cc5F)c5ccc([nH]5)c(-c5c(F)cc(S(=O)(=O)[O-])cc5F)c5nc(c(-c6c(F)cc(S(=O)(=O)[O-])cc6F)c6ccc3[nH]6)C=C5)C=C4)cc1)=C2
REMARK SMILES IDX 29 1 28 2 27 3 26 4 25 5 23 6 24 7 22 9 4 10 5 11 15 12 6 13
REMARK SMILES IDX 14 14 16 15 13 16 101 17 17 18 3 19 2 20 1 21 7 22 8 23 9 24
REMARK SMILES IDX 10 25 11 26 12 27 18 28 19 29 20 30 21 31 30 32 31 33 32 34
REMARK SMILES IDX 33 35 34 37 35 38 36 39 100 40 37 41 99 42 38 43 39 44 40 45
REMARK SMILES IDX 93 46 41 47 98 48 92 49 94 50 42 51 97 52 91 53 90 54 43 56
REMARK SMILES IDX 77 57 56 58 76 59 57 60 60 61 75 62 95 63 58 64 59 65 74 67
REMARK SMILES IDX 96 68 61 69 44 70 45 71 54 72 46 73 47 74 53 75 55 76 48 77
REMARK SMILES IDX 49 78 50 79 51 80 52 81 78 82 79 83 88 84 80 85 81 86 87 87
REMARK SMILES IDX 89 88 82 89 83 90 84 91 85 92 86 93 62 94 63 95 72 96 64 97
REMARK SMILES IDX 65 98 71 99 73 100 66 101 67 102 68 103 69 104 70 105
REMARK H PARENT 25 8 32 36 94 55 60 66
REMARK Flexibility Score: inf
ROOT
ATOM      1  C   UNL     1      -1.971   1.607  11.319  1.00  0.00     0.002 C 
ENDROOT
BRANCH   1   2
ATOM      2  C   UNL     1      -3.125   1.346  10.365  1.00  0.00     0.002 C 
BRANCH   2   3
ATOM      3  C   UNL     1      -2.643   1.504   8.932  1.00  0.00     0.021 C 
BRANCH   3   4
ATOM      4  C   UNL     1      -1.526   0.510   8.660  1.00  0.00     0.116 C 
BRANCH   4   5
ATOM      5  N   UNL     1      -2.028  -0.857   8.860  1.00  0.00    -0.352 N 
ATOM      6  C   UNL     1      -2.004  -1.819   7.748  1.00  0.00     0.251 C 
ATOM      7  O   UNL     1      -2.438  -3.001   7.921  1.00  0.00    -0.270 OA
ATOM      8  H   UNL     1      -2.380  -1.129   9.739  1.00  0.00     0.163 HD
BRANCH   6   9
ATOM      9  C   UNL     1      -1.461  -1.399   6.392  1.00  0.00     0.067 C 
ATOM     10  C   UNL     1       0.468  -0.480   2.803  1.00  0.00    -0.004 A 
ATOM     11  C   UNL     1       0.774   0.835   2.501  1.00  0.00     0.032 A 
ATOM     12  C   UNL     1      -0.118  -0.760   4.013  1.00  0.00     0.131 A 
ATOM     13  C   UNL     1       0.506   1.842   3.390  1.00  0.00     0.108 A 
ATOM     14  C   UNL     1      -0.421   0.234   4.927  1.00  0.00     0.019 A 
ATOM     15  O   UNL     1      -0.313  -2.078   4.346  1.00  0.00    -0.475 OA
ATOM     16  C   UNL     1      -0.095   1.543   4.595  1.00  0.00     0.036 A 
ATOM     17  C   UNL     1      -1.004  -0.169   6.196  1.00  0.00     0.025 C 
ATOM     18  C   UNL     1      -1.429  -2.382   5.229  1.00  0.00     0.314 C 
BRANCH  10  19
ATOM     19  C   UNL     1       0.974  -1.552   1.851  1.00  0.00     0.039 C 
BRANCH  19  20
ATOM     20  C   UNL     1       0.468  -1.263   0.447  1.00  0.00     0.001 C 
ATOM     21  C   UNL     1       0.974   0.097  -0.005  1.00  0.00     0.004 C 
ENDBRANCH  19  20
ENDBRANCH  10  19
BRANCH  13  22
ATOM     22  S   UNL     1       0.937   3.553   2.985  1.00  0.00     0.310 S 
ATOM     23  F   UNL     1       2.158   3.628   3.994  1.00  0.00    -0.094 F 
ATOM     24  F   UNL     1       0.009   3.981   4.184  1.00  0.00    -0.094 F 
ATOM     25  F   UNL     1       1.216   5.042   2.633  1.00  0.00    -0.094 F 
ATOM     26  F   UNL     1       1.972   3.106   1.879  1.00  0.00    -0.094 F 
ATOM     27  F   UNL     1       0.751   2.040   3.403  1.00  0.00    -0.094 F 
ENDBRANCH  13  22
BRANCH  18  28
ATOM     28  C   UNL     1      -1.260  -3.791   5.775  1.00  0.00     0.429 C 
ATOM     29  F   UNL     1      -2.278  -4.079   6.581  1.00  0.00    -0.167 F 
ATOM     30  F   UNL     1      -1.235  -4.657   4.766  1.00  0.00    -0.167 F 
ATOM     31  F   UNL     1      -0.120  -3.869   6.455  1.00  0.00    -0.167 F 
ENDBRANCH  18  28
ENDBRANCH   6   9
ENDBRANCH   4   5
ENDBRANCH   3   4
ENDBRANCH   2   3
ENDBRANCH   1   2
BRANCH   1  32
ATOM     32  C   UNL     1      -1.452   3.020  11.113  1.00  0.00     0.021 C 
BRANCH  32  33
ATOM     33  C   UNL     1      -2.569   4.015  11.384  1.00  0.00     0.116 C 
BRANCH  33  34
ATOM     34  N   UNL     1      -3.035   3.862  12.770  1.00  0.00    -0.352 N 
ATOM     35  C   UNL     1      -2.950   4.994  13.704  1.00  0.00     0.251 C 
ATOM     36  H   UNL     1      -3.404   3.001  13.073  1.00  0.00     0.163 HD
ATOM     37  O   UNL     1      -3.353   4.862  14.902  1.00  0.00    -0.269 OA
BRANCH  35  38
ATOM     38  C   UNL     1      -2.379   6.323  13.236  1.00  0.00     0.039 A 
ATOM     39  C   UNL     1      -1.437   7.029  13.966  1.00  0.00     0.014 A 
ATOM     40  C   UNL     1      -2.805   6.760  12.056  1.00  0.00     0.014 A 
ATOM     41  C   UNL     1      -1.215   8.344  13.495  1.00  0.00     0.010 A 
ATOM     42  C   UNL     1      -2.438   8.001  11.596  1.00  0.00     0.010 A 
ATOM     43  C   UNL     1      -1.556   8.778  12.295  1.00  0.00    -0.014 A 
BRANCH  43  44
ATOM     44  C   UNL     1      -1.000  10.071  11.722  1.00  0.00     0.031 A 
ATOM     45  C   UNL     1      -1.972  11.026  11.417  1.00  0.00     0.074 A 
ATOM     46  C   UNL     1       0.349  10.225  11.451  1.00  0.00     0.049 A 
ATOM     47  N   UNL     1      -1.788  12.225  10.864  1.00  0.00    -0.248 NA
ATOM     48  C   UNL     1      -3.409  10.850  11.674  1.00  0.00     0.031 C 
ATOM     49  C   UNL     1       1.337   9.271  11.763  1.00  0.00     0.029 A 
ATOM     50  N   UNL     1       0.972  11.294  10.846  1.00  0.00    -0.354 N 
ATOM     51  C   UNL     1      -2.955  12.862  10.745  1.00  0.00     0.074 A 
ATOM     52  C   UNL     1      -4.015  11.984  11.259  1.00  0.00     0.031 C 
ATOM     53  C   UNL     1       2.536   9.752  11.343  1.00  0.00     0.029 A 
ATOM     54  C   UNL     1       2.319  11.016  10.761  1.00  0.00     0.049 A 
ATOM     55  H   UNL     1       0.532  12.116  10.530  1.00  0.00     0.167 HD
ATOM     56  C   UNL     1      -3.177  14.140  10.231  1.00  0.00     0.037 A 
ATOM     57  C   UNL     1       3.316  11.805  10.210  1.00  0.00     0.037 A 
ATOM     58  C   UNL     1      -2.173  14.947   9.719  1.00  0.00     0.049 A 
ATOM     59  C   UNL     1       3.086  13.060   9.642  1.00  0.00     0.074 A 
ATOM     60  C   UNL     1      -2.378  16.242   9.204  1.00  0.00     0.029 A 
ATOM     61  N   UNL     1      -0.831  14.658   9.612  1.00  0.00    -0.354 N 
ATOM     62  N   UNL     1       1.925  13.712   9.560  1.00  0.00    -0.248 NA
ATOM     63  C   UNL     1       4.129  13.891   9.026  1.00  0.00     0.031 C 
ATOM     64  C   UNL     1      -1.178  16.723   8.784  1.00  0.00     0.029 A 
ATOM     65  C   UNL     1      -0.204  15.737   9.028  1.00  0.00     0.049 A 
ATOM     66  H   UNL     1      -0.395  13.825   9.903  1.00  0.00     0.167 HD
ATOM     67  C   UNL     1       2.103  14.895   8.969  1.00  0.00     0.074 A 
ATOM     68  C   UNL     1       3.522  15.024   8.610  1.00  0.00     0.031 C 
ATOM     69  C   UNL     1       1.140  15.874   8.716  1.00  0.00     0.037 A 
BRANCH  56  70
ATOM     70  C   UNL     1      -4.599  14.678  10.233  1.00  0.00     0.058 A 
ATOM     71  C   UNL     1      -5.274  14.815  11.434  1.00  0.00     0.135 A 
ATOM     72  C   UNL     1      -5.169  15.007   9.080  1.00  0.00     0.135 A 
ATOM     73  F   UNL     1      -4.672  14.742  12.618  1.00  0.00    -0.206 F 
ATOM     74  C   UNL     1      -6.664  15.040  11.288  1.00  0.00     0.059 A 
ATOM     75  C   UNL     1      -6.499  15.348   9.030  1.00  0.00     0.059 A 
ATOM     76  F   UNL     1      -4.446  15.007   7.963  1.00  0.00    -0.206 F 
ATOM     77  C   UNL     1      -7.243  15.446  10.172  1.00  0.00     0.060 A 
BRANCH  77  78
ATOM     78  S   UNL     1      -8.932  16.097  10.158  1.00  0.00     0.124 S 
ATOM     79  O   UNL     1      -9.896  15.028  10.677  1.00  0.00    -0.237 OA
ATOM     80  O   UNL     1      -9.010  17.334  11.057  1.00  0.00    -0.237 OA
ATOM     81  O   UNL     1      -9.364  16.526   8.560  1.00  0.00    -0.744 OA
ENDBRANCH  77  78
ENDBRANCH  56  70
BRANCH  57  82
ATOM     82  C   UNL     1       4.740  11.274  10.224  1.00  0.00     0.058 A 
ATOM     83  C   UNL     1       5.727  11.986  10.884  1.00  0.00     0.135 A 
ATOM     84  C   UNL     1       5.013  10.133   9.601  1.00  0.00     0.135 A 
ATOM     85  F   UNL     1       5.463  12.983  11.724  1.00  0.00    -0.206 F 
ATOM     86  C   UNL     1       7.042  11.558  10.585  1.00  0.00     0.059 A 
ATOM     87  C   UNL     1       6.312   9.706   9.463  1.00  0.00     0.059 A 
ATOM     88  F   UNL     1       4.021   9.398   9.107  1.00  0.00    -0.206 F 
ATOM     89  C   UNL     1       7.344  10.393  10.040  1.00  0.00     0.060 A 
BRANCH  89  90
ATOM     90  S   UNL     1       9.032   9.742  10.055  1.00  0.00     0.124 S 
ATOM     91  O   UNL     1       9.961  10.716   9.325  1.00  0.00    -0.237 OA
ATOM     92  O   UNL     1       9.502   9.577  11.503  1.00  0.00    -0.237 OA
ATOM     93  O   UNL     1       9.066   8.224   9.269  1.00  0.00    -0.744 OA
ENDBRANCH  89  90
ENDBRANCH  57  82
BRANCH  69  94
ATOM     94  C   UNL     1       1.593  17.168   8.060  1.00  0.00     0.058 A 
ATOM     95  C   UNL     1       2.112  17.241   6.778  1.00  0.00     0.135 A 
ATOM     96  C   UNL     1       1.368  18.264   8.776  1.00  0.00     0.135 A 
ATOM     97  F   UNL     1       2.118  16.211   5.938  1.00  0.00    -0.206 F 
ATOM     98  C   UNL     1       2.637  18.512   6.444  1.00  0.00     0.059 A 
ATOM     99  C   UNL     1       1.788  19.492   8.326  1.00  0.00     0.059 A 
ATOM    100  F   UNL     1       0.731  18.171   9.940  1.00  0.00    -0.206 F 
ATOM    101  C   UNL     1       2.364  19.629   7.093  1.00  0.00     0.060 A 
BRANCH 101 102
ATOM    102  S   UNL     1       2.731  21.256   6.388  1.00  0.00     0.124 S 
ATOM    103  O   UNL     1       4.234  21.370   6.125  1.00  0.00    -0.237 OA
ATOM    104  O   UNL     1       1.968  21.426   5.073  1.00  0.00    -0.237 OA
ATOM    105  O   UNL     1       2.251  22.475   7.487  1.00  0.00    -0.744 OA
ENDBRANCH 101 102
ENDBRANCH  69  94
ENDBRANCH  43  44
ENDBRANCH  35  38
ENDBRANCH  33  34
ENDBRANCH  32  33
ENDBRANCH   1  32
TORSDOF 20
