REMARK SMILES CCC(CC)[C@H](C(=O)NCCCCCCNC(=O)c1ccc(-c2c3nc(c(-c4c(F)cc(S(=O)(=O)[O-])cc4F)c4ccc([nH]4)c(-c4c(F)cc(S(=O)(=O)[O-])cc4F)c4nc(c(-c5c(F)cc(S(=O)(=O)[O-])cc5F)c5ccc2[nH]5)C=C4)C=C3)cc1)c1ccc(OC(F)F)cc1
REMARK SMILES IDX 12 1 11 2 10 3 9 4 7 5 8 6 6 8 3 9 2 10 1 11 4 12 5 13 85 14
REMARK SMILES IDX 86 15 94 16 87 17 93 18 88 19 89 20 90 21 91 22 92 23 13 24
REMARK SMILES IDX 14 25 15 26 16 27 17 28 18 30 19 31 20 32 84 33 21 34 83 35
REMARK SMILES IDX 22 36 23 37 24 38 77 39 25 40 82 41 76 42 78 43 26 44 81 45
REMARK SMILES IDX 75 46 74 47 27 49 61 50 40 51 60 52 41 53 44 54 59 55 79 56
REMARK SMILES IDX 42 57 43 58 58 60 80 61 45 62 28 63 29 64 38 65 30 66 31 67
REMARK SMILES IDX 37 68 39 69 32 70 33 71 34 72 35 73 36 74 62 75 63 76 72 77
REMARK SMILES IDX 64 78 65 79 71 80 73 81 66 82 67 83 68 84 69 85 70 86 46 87
REMARK SMILES IDX 47 88 56 89 48 90 49 91 55 92 57 93 50 94 51 95 52 96 53 97
REMARK SMILES IDX 54 98
REMARK H PARENT 9 7 16 29 78 48 44 59
REMARK Flexibility Score: inf
ROOT
ATOM      1  C   UNL     1      -1.789   0.291  -0.624  1.00  0.00     0.002 C 
ENDROOT
BRANCH   1   2
ATOM      2  C   UNL     1      -2.052   0.220   0.887  1.00  0.00     0.021 C 
BRANCH   2   3
ATOM      3  C   UNL     1      -0.921  -0.422   1.691  1.00  0.00     0.116 C 
BRANCH   3   4
ATOM      4  N   UNL     1       0.290   0.375   1.594  1.00  0.00    -0.356 N 
ATOM      5  C   UNL     1       1.022   1.004   2.560  1.00  0.00     0.227 C 
ATOM      6  O   UNL     1       1.973   1.693   2.184  1.00  0.00    -0.274 OA
ATOM      7  H   UNL     1       0.641   0.478   0.680  1.00  0.00     0.163 HD
BRANCH   5   8
ATOM      8  C   UNL     1       0.698   0.760   4.051  1.00  0.00     0.111 C 
BRANCH   8   9
ATOM      9  C   UNL     1       1.369  -0.624   4.396  1.00  0.00     0.005 C 
BRANCH   9  10
ATOM     10  C   UNL     1       2.909  -0.522   4.542  1.00  0.00     0.001 C 
ATOM     11  C   UNL     1       3.611  -1.772   5.040  1.00  0.00     0.004 C 
ENDBRANCH   9  10
BRANCH   9  12
ATOM     12  C   UNL     1       0.581  -1.510   5.398  1.00  0.00     0.001 C 
ATOM     13  C   UNL     1       0.245  -0.977   6.777  1.00  0.00     0.004 C 
ENDBRANCH   9  12
ENDBRANCH   8   9
BRANCH   8  14
ATOM     14  C   UNL     1       0.975   1.998   4.922  1.00  0.00    -0.035 A 
ATOM     15  C   UNL     1       1.533   1.932   6.203  1.00  0.00     0.008 A 
ATOM     16  C   UNL     1       0.586   3.276   4.476  1.00  0.00     0.008 A 
ATOM     17  C   UNL     1       1.702   3.067   6.999  1.00  0.00     0.047 A 
ATOM     18  C   UNL     1       0.780   4.426   5.262  1.00  0.00     0.047 A 
ATOM     19  C   UNL     1       1.339   4.324   6.532  1.00  0.00     0.126 A 
BRANCH  19  20
ATOM     20  O   UNL     1       1.565   5.335   7.417  1.00  0.00    -0.435 OA
BRANCH  20  21
ATOM     21  C   UNL     1       1.506   6.669   6.941  1.00  0.00     0.542 C 
ATOM     22  F   UNL     1       2.341   6.829   5.887  1.00  0.00    -0.167 F 
ATOM     23  F   UNL     1       0.248   6.969   6.543  1.00  0.00    -0.167 F 
ENDBRANCH  20  21
ENDBRANCH  19  20
ENDBRANCH   8  14
ENDBRANCH   5   8
ENDBRANCH   3   4
ENDBRANCH   2   3
ENDBRANCH   1   2
BRANCH   1  24
ATOM     24  C   UNL     1      -1.561  -1.059  -1.312  1.00  0.00     0.002 C 
BRANCH  24  25
ATOM     25  C   UNL     1      -2.693  -2.073  -1.138  1.00  0.00     0.021 C 
BRANCH  25  26
ATOM     26  C   UNL     1      -4.056  -1.597  -1.630  1.00  0.00     0.116 C 
BRANCH  26  27
ATOM     27  N   UNL     1      -4.073  -1.360  -3.065  1.00  0.00    -0.352 N 
ATOM     28  C   UNL     1      -4.936  -1.852  -4.017  1.00  0.00     0.251 C 
ATOM     29  H   UNL     1      -3.367  -0.763  -3.403  1.00  0.00     0.163 HD
ATOM     30  O   UNL     1      -4.693  -1.695  -5.206  1.00  0.00    -0.269 OA
BRANCH  28  31
ATOM     31  C   UNL     1      -6.144  -2.595  -3.593  1.00  0.00     0.039 A 
ATOM     32  C   UNL     1      -6.455  -3.800  -4.227  1.00  0.00     0.014 A 
ATOM     33  C   UNL     1      -6.957  -2.111  -2.564  1.00  0.00     0.014 A 
ATOM     34  C   UNL     1      -7.542  -4.555  -3.780  1.00  0.00     0.010 A 
ATOM     35  C   UNL     1      -7.994  -2.899  -2.073  1.00  0.00     0.010 A 
ATOM     36  C   UNL     1      -8.296  -4.131  -2.672  1.00  0.00    -0.014 A 
BRANCH  36  37
ATOM     37  C   UNL     1      -9.388  -4.971  -2.114  1.00  0.00     0.031 A 
ATOM     38  C   UNL     1     -10.806  -4.468  -2.114  1.00  0.00     0.074 A 
ATOM     39  C   UNL     1      -9.091  -6.156  -1.543  1.00  0.00     0.049 A 
ATOM     40  N   UNL     1     -11.877  -5.017  -1.601  1.00  0.00    -0.248 NA
ATOM     41  C   UNL     1     -11.049  -3.164  -2.753  1.00  0.00     0.031 C 
ATOM     42  C   UNL     1      -7.748  -6.733  -1.442  1.00  0.00     0.029 A 
ATOM     43  N   UNL     1      -9.895  -7.083  -0.928  1.00  0.00    -0.354 N 
ATOM     44  C   UNL     1     -12.915  -4.126  -1.844  1.00  0.00     0.074 A 
ATOM     45  C   UNL     1     -12.337  -2.975  -2.503  1.00  0.00     0.031 C 
ATOM     46  C   UNL     1      -7.825  -7.921  -0.822  1.00  0.00     0.029 A 
ATOM     47  C   UNL     1      -9.211  -8.172  -0.440  1.00  0.00     0.049 A 
ATOM     48  H   UNL     1     -10.870  -6.978  -0.844  1.00  0.00     0.167 HD
ATOM     49  C   UNL     1     -14.233  -4.264  -1.564  1.00  0.00     0.037 A 
ATOM     50  C   UNL     1      -9.646  -9.245   0.251  1.00  0.00     0.037 A 
ATOM     51  C   UNL     1     -14.804  -5.422  -0.924  1.00  0.00     0.049 A 
ATOM     52  C   UNL     1     -11.111  -9.365   0.571  1.00  0.00     0.074 A 
ATOM     53  C   UNL     1     -16.135  -5.682  -0.647  1.00  0.00     0.029 A 
ATOM     54  N   UNL     1     -14.079  -6.508  -0.454  1.00  0.00    -0.354 N 
ATOM     55  N   UNL     1     -12.090  -8.542   0.274  1.00  0.00    -0.248 NA
ATOM     56  C   UNL     1     -11.535 -10.558   1.317  1.00  0.00     0.031 C 
ATOM     57  C   UNL     1     -16.209  -6.898   0.038  1.00  0.00     0.029 A 
ATOM     58  C   UNL     1     -14.932  -7.426   0.137  1.00  0.00     0.049 A 
ATOM     59  H   UNL     1     -13.103  -6.610  -0.529  1.00  0.00     0.167 HD
ATOM     60  C   UNL     1     -13.247  -9.132   0.772  1.00  0.00     0.074 A 
ATOM     61  C   UNL     1     -12.849 -10.386   1.377  1.00  0.00     0.031 C 
ATOM     62  C   UNL     1     -14.523  -8.675   0.731  1.00  0.00     0.037 A 
BRANCH  49  63
ATOM     63  C   UNL     1     -15.154  -3.137  -1.948  1.00  0.00     0.058 A 
ATOM     64  C   UNL     1     -15.444  -2.845  -3.290  1.00  0.00     0.135 A 
ATOM     65  C   UNL     1     -15.792  -2.368  -0.960  1.00  0.00     0.135 A 
ATOM     66  F   UNL     1     -14.854  -3.538  -4.277  1.00  0.00    -0.206 F 
ATOM     67  C   UNL     1     -16.310  -1.814  -3.641  1.00  0.00     0.059 A 
ATOM     68  C   UNL     1     -16.685  -1.351  -1.287  1.00  0.00     0.059 A 
ATOM     69  F   UNL     1     -15.552  -2.602   0.340  1.00  0.00    -0.206 F 
ATOM     70  C   UNL     1     -16.927  -1.074  -2.631  1.00  0.00     0.060 A 
BRANCH  70  71
ATOM     71  S   UNL     1     -18.055   0.254  -3.106  1.00  0.00     0.124 S 
ATOM     72  O   UNL     1     -17.128   1.249  -3.635  1.00  0.00    -0.237 OA
ATOM     73  O   UNL     1     -18.910  -0.402  -4.090  1.00  0.00    -0.237 OA
ATOM     74  O   UNL     1     -18.708   0.611  -1.850  1.00  0.00    -0.744 OA
ENDBRANCH  70  71
ENDBRANCH  49  63
BRANCH  50  75
ATOM     75  C   UNL     1      -8.682 -10.295   0.680  1.00  0.00     0.058 A 
ATOM     76  C   UNL     1      -8.709 -11.577   0.110  1.00  0.00     0.135 A 
ATOM     77  C   UNL     1      -7.711 -10.037   1.661  1.00  0.00     0.135 A 
ATOM     78  F   UNL     1      -9.623 -11.875  -0.826  1.00  0.00    -0.206 F 
ATOM     79  C   UNL     1      -7.821 -12.571   0.509  1.00  0.00     0.059 A 
ATOM     80  C   UNL     1      -6.794 -11.006   2.055  1.00  0.00     0.059 A 
ATOM     81  F   UNL     1      -7.631  -8.823   2.226  1.00  0.00    -0.206 F 
ATOM     82  C   UNL     1      -6.865 -12.275   1.481  1.00  0.00     0.060 A 
BRANCH  82  83
ATOM     83  S   UNL     1      -5.689 -13.559   1.959  1.00  0.00     0.124 S 
ATOM     84  O   UNL     1      -6.539 -14.466   2.721  1.00  0.00    -0.237 OA
ATOM     85  O   UNL     1      -5.229 -14.050   0.664  1.00  0.00    -0.237 OA
ATOM     86  O   UNL     1      -4.690 -12.828   2.734  1.00  0.00    -0.744 OA
ENDBRANCH  82  83
ENDBRANCH  50  75
BRANCH  62  87
ATOM     87  C   UNL     1     -15.594  -9.547   1.328  1.00  0.00     0.058 A 
ATOM     88  C   UNL     1     -15.722  -9.715   2.716  1.00  0.00     0.135 A 
ATOM     89  C   UNL     1     -16.546 -10.169   0.503  1.00  0.00     0.135 A 
ATOM     90  F   UNL     1     -14.835  -9.149   3.550  1.00  0.00    -0.206 F 
ATOM     91  C   UNL     1     -16.745 -10.483   3.263  1.00  0.00     0.059 A 
ATOM     92  C   UNL     1     -17.594 -10.917   1.030  1.00  0.00     0.059 A 
ATOM     93  F   UNL     1     -16.475 -10.034  -0.831  1.00  0.00    -0.206 F 
ATOM     94  C   UNL     1     -17.680 -11.075   2.412  1.00  0.00     0.060 A 
BRANCH  94  95
ATOM     95  S   UNL     1     -19.029 -12.028   3.140  1.00  0.00     0.124 S 
ATOM     96  O   UNL     1     -18.330 -13.224   3.600  1.00  0.00    -0.237 OA
ATOM     97  O   UNL     1     -19.512 -11.134   4.187  1.00  0.00    -0.237 OA
ATOM     98  O   UNL     1     -19.947 -12.229   2.022  1.00  0.00    -0.744 OA
ENDBRANCH  94  95
ENDBRANCH  62  87
ENDBRANCH  36  37
ENDBRANCH  28  31
ENDBRANCH  26  27
ENDBRANCH  25  26
ENDBRANCH  24  25
ENDBRANCH   1  24
TORSDOF 22
