REMARK SMILES [NH3+]C1CC[NH+](CC(=O)N2CCO[C@H](CC(=O)NCCCCCCNC(=O)c3ccc(-c4c5nc(c(-c6c(F)cc(S(=O)(=O)[O-])cc6F)c6ccc([nH]6)c(-c6c(F)cc(S(=O)(=O)[O-])cc6F)c6nc(c(-c7c(F)cc(S(=O)(=O)[O-])cc7F)c7ccc4[nH]7)C=C6)C=C5)cc3)C2)CC1
REMARK SMILES IDX 19 1 18 2 17 3 15 4 16 5 14 7 13 8 9 9 10 10 93 11 11 12
REMARK SMILES IDX 12 13 7 14 8 15 6 16 5 17 2 18 3 19 95 20 4 21 94 22 1 24
REMARK SMILES IDX 20 28 21 29 22 30 23 31 24 32 25 33 26 35 27 36 28 37 92 38
REMARK SMILES IDX 29 39 91 40 30 41 31 42 32 43 85 44 33 45 90 46 84 47 86 48
REMARK SMILES IDX 34 49 89 50 83 51 82 52 35 54 69 55 48 56 68 57 49 58 52 59
REMARK SMILES IDX 67 60 87 61 50 62 51 63 66 65 88 66 53 67 36 68 37 69 46 70
REMARK SMILES IDX 38 71 39 72 45 73 47 74 40 75 41 76 42 77 43 78 44 79 70 80
REMARK SMILES IDX 71 81 80 82 72 83 73 84 79 85 81 86 74 87 75 88 76 89 77 90
REMARK SMILES IDX 78 91 54 92 55 93 64 94 56 95 57 96 63 97 65 98 58 99 59 100
REMARK SMILES IDX 60 101 61 102 62 103
REMARK H PARENT 17 6 5 23 1 25 1 26 1 27 24 34 86 53 52 64
REMARK Flexibility Score: inf
ROOT
ATOM      1  C   UNL     1       2.863  -8.031  -1.135  1.00  0.00     0.021 C 
ENDROOT
BRANCH   1   2
ATOM      2  C   UNL     1       3.958  -6.991  -0.919  1.00  0.00     0.116 C 
BRANCH   2   3
ATOM      3  N   UNL     1       4.148  -6.237  -2.139  1.00  0.00    -0.356 N 
ATOM      4  C   UNL     1       3.450  -5.130  -2.508  1.00  0.00     0.222 C 
ATOM      5  O   UNL     1       3.513  -4.725  -3.669  1.00  0.00    -0.275 OA
ATOM      6  H   UNL     1       4.846  -6.554  -2.757  1.00  0.00     0.163 HD
BRANCH   4   7
ATOM      7  C   UNL     1       2.653  -4.395  -1.464  1.00  0.00     0.133 C 
BRANCH   7   8
ATOM      8  C   UNL     1       1.224  -4.932  -1.258  1.00  0.00     0.147 C 
ATOM      9  N   UNL     1      -0.950  -3.864  -0.479  1.00  0.00    -0.333 N 
ATOM     10  C   UNL     1      -1.017  -4.855   0.595  1.00  0.00     0.148 C 
ATOM     11  C   UNL     1       0.365  -3.691  -1.047  1.00  0.00     0.152 C 
ATOM     12  C   UNL     1      -0.187  -6.101   0.260  1.00  0.00     0.182 C 
ATOM     13  O   UNL     1       1.171  -5.750  -0.073  1.00  0.00    -0.374 OA
BRANCH   9  14
ATOM     14  C   UNL     1      -1.857  -2.798  -0.482  1.00  0.00     0.277 C 
ATOM     15  O   UNL     1      -2.675  -2.648   0.430  1.00  0.00    -0.268 OA
BRANCH  14  16
ATOM     16  C   UNL     1      -1.879  -1.877  -1.720  1.00  0.00     0.363 C 
BRANCH  16  17
ATOM     17  N   UNL     1      -1.243  -0.560  -1.603  1.00  0.00    -0.327 N 
ATOM     18  C   UNL     1       0.433   0.637   0.535  1.00  0.00     0.192 C 
ATOM     19  C   UNL     1      -1.087   0.482   0.670  1.00  0.00     0.126 C 
ATOM     20  C   UNL     1       0.974  -0.374  -0.466  1.00  0.00     0.126 C 
ATOM     21  C   UNL     1      -1.819   0.400  -0.671  1.00  0.00     0.268 C 
ATOM     22  C   UNL     1       0.191  -0.409  -1.778  1.00  0.00     0.268 C 
ATOM     23  H   UNL     1      -1.575  -0.276  -2.525  1.00  0.00     0.348 HD
BRANCH  18  24
ATOM     24  N   UNL     1       0.841   1.990   0.151  1.00  0.00    -0.355 N 
ATOM     25  H   UNL     1       0.474   2.661   0.827  1.00  0.00     0.344 HD
ATOM     26  H   UNL     1       0.473   2.206  -0.776  1.00  0.00     0.344 HD
ATOM     27  H   UNL     1       1.859   2.047   0.134  1.00  0.00     0.344 HD
ENDBRANCH  18  24
ENDBRANCH  16  17
ENDBRANCH  14  16
ENDBRANCH   9  14
ENDBRANCH   7   8
ENDBRANCH   4   7
ENDBRANCH   2   3
ENDBRANCH   1   2
BRANCH   1  28
ATOM     28  C   UNL     1       3.396  -9.345  -1.702  1.00  0.00     0.002 C 
BRANCH  28  29
ATOM     29  C   UNL     1       4.363 -10.079  -0.769  1.00  0.00     0.002 C 
BRANCH  29  30
ATOM     30  C   UNL     1       3.865 -10.244   0.671  1.00  0.00     0.021 C 
BRANCH  30  31
ATOM     31  C   UNL     1       2.486 -10.888   0.791  1.00  0.00     0.116 C 
BRANCH  31  32
ATOM     32  N   UNL     1       2.462 -12.197   0.165  1.00  0.00    -0.352 N 
ATOM     33  C   UNL     1       2.285 -13.426   0.742  1.00  0.00     0.251 C 
ATOM     34  H   UNL     1       2.590 -12.202  -0.811  1.00  0.00     0.163 HD
ATOM     35  O   UNL     1       2.580 -14.442   0.124  1.00  0.00    -0.269 OA
BRANCH  33  36
ATOM     36  C   UNL     1       1.734 -13.515   2.110  1.00  0.00     0.039 A 
ATOM     37  C   UNL     1       2.313 -14.407   3.014  1.00  0.00     0.014 A 
ATOM     38  C   UNL     1       0.621 -12.752   2.480  1.00  0.00     0.014 A 
ATOM     39  C   UNL     1       1.790 -14.516   4.303  1.00  0.00     0.010 A 
ATOM     40  C   UNL     1       0.141 -12.816   3.784  1.00  0.00     0.010 A 
ATOM     41  C   UNL     1       0.708 -13.714   4.700  1.00  0.00    -0.014 A 
BRANCH  41  42
ATOM     42  C   UNL     1       0.135 -13.830   6.063  1.00  0.00     0.031 A 
ATOM     43  C   UNL     1      -1.261 -14.360   6.247  1.00  0.00     0.074 A 
ATOM     44  C   UNL     1       0.853 -13.416   7.124  1.00  0.00     0.049 A 
ATOM     45  N   UNL     1      -1.950 -14.503   7.349  1.00  0.00    -0.248 NA
ATOM     46  C   UNL     1      -1.988 -14.756   5.030  1.00  0.00     0.031 C 
ATOM     47  C   UNL     1       2.196 -12.835   7.061  1.00  0.00     0.029 A 
ATOM     48  N   UNL     1       0.552 -13.413   8.461  1.00  0.00    -0.354 N 
ATOM     49  C   UNL     1      -3.193 -14.987   6.958  1.00  0.00     0.074 A 
ATOM     50  C   UNL     1      -3.181 -15.068   5.514  1.00  0.00     0.031 C 
ATOM     51  C   UNL     1       2.609 -12.548   8.306  1.00  0.00     0.029 A 
ATOM     52  C   UNL     1       1.553 -12.901   9.251  1.00  0.00     0.049 A 
ATOM     53  H   UNL     1      -0.302 -13.747   8.822  1.00  0.00     0.167 HD
ATOM     54  C   UNL     1      -4.242 -15.351   7.735  1.00  0.00     0.037 A 
ATOM     55  C   UNL     1       1.612 -12.735  10.586  1.00  0.00     0.037 A 
ATOM     56  C   UNL     1      -4.232 -15.301   9.173  1.00  0.00     0.049 A 
ATOM     57  C   UNL     1       0.450 -13.180  11.430  1.00  0.00     0.074 A 
ATOM     58  C   UNL     1      -5.216 -15.710  10.056  1.00  0.00     0.029 A 
ATOM     59  N   UNL     1      -3.185 -14.811   9.940  1.00  0.00    -0.354 N 
ATOM     60  N   UNL     1      -0.693 -13.699  11.049  1.00  0.00    -0.248 NA
ATOM     61  C   UNL     1       0.589 -13.028  12.884  1.00  0.00     0.031 C 
ATOM     62  C   UNL     1      -4.776 -15.438  11.356  1.00  0.00     0.029 A 
ATOM     63  C   UNL     1      -3.503 -14.895  11.285  1.00  0.00     0.049 A 
ATOM     64  H   UNL     1      -2.340 -14.456   9.580  1.00  0.00     0.167 HD
ATOM     65  C   UNL     1      -1.401 -13.957  12.217  1.00  0.00     0.074 A 
ATOM     66  C   UNL     1      -0.552 -13.547  13.318  1.00  0.00     0.031 C 
ATOM     67  C   UNL     1      -2.641 -14.485  12.366  1.00  0.00     0.037 A 
BRANCH  54  68
ATOM     68  C   UNL     1      -5.482 -15.843   7.041  1.00  0.00     0.058 A 
ATOM     69  C   UNL     1      -5.520 -17.089   6.395  1.00  0.00     0.135 A 
ATOM     70  C   UNL     1      -6.654 -15.069   7.039  1.00  0.00     0.135 A 
ATOM     71  F   UNL     1      -4.424 -17.863   6.353  1.00  0.00    -0.206 F 
ATOM     72  C   UNL     1      -6.665 -17.536   5.743  1.00  0.00     0.059 A 
ATOM     73  C   UNL     1      -7.819 -15.508   6.416  1.00  0.00     0.059 A 
ATOM     74  F   UNL     1      -6.673 -13.869   7.641  1.00  0.00    -0.206 F 
ATOM     75  C   UNL     1      -7.809 -16.736   5.756  1.00  0.00     0.060 A 
BRANCH  75  76
ATOM     76  S   UNL     1      -9.286 -17.327   4.902  1.00  0.00     0.124 S 
ATOM     77  O   UNL     1      -8.924 -17.099   3.507  1.00  0.00    -0.237 OA
ATOM     78  O   UNL     1      -9.352 -18.724   5.319  1.00  0.00    -0.237 OA
ATOM     79  O   UNL     1     -10.345 -16.470   5.425  1.00  0.00    -0.744 OA
ENDBRANCH  75  76
ENDBRANCH  54  68
BRANCH  55  80
ATOM     80  C   UNL     1       2.830 -12.150  11.202  1.00  0.00     0.058 A 
ATOM     81  C   UNL     1       3.725 -12.949  11.928  1.00  0.00     0.135 A 
ATOM     82  C   UNL     1       3.140 -10.789  11.052  1.00  0.00     0.135 A 
ATOM     83  F   UNL     1       3.470 -14.255  12.100  1.00  0.00    -0.206 F 
ATOM     84  C   UNL     1       4.880 -12.420  12.494  1.00  0.00     0.059 A 
ATOM     85  C   UNL     1       4.300 -10.241  11.590  1.00  0.00     0.059 A 
ATOM     86  F   UNL     1       2.324  -9.987  10.350  1.00  0.00    -0.206 F 
ATOM     87  C   UNL     1       5.160 -11.063  12.317  1.00  0.00     0.060 A 
BRANCH  87  88
ATOM     88  S   UNL     1       6.693 -10.397  13.002  1.00  0.00     0.124 S 
ATOM     89  O   UNL     1       6.369 -10.314  14.421  1.00  0.00    -0.237 OA
ATOM     90  O   UNL     1       7.667 -11.417  12.627  1.00  0.00    -0.237 OA
ATOM     91  O   UNL     1       6.840  -9.119  12.310  1.00  0.00    -0.744 OA
ENDBRANCH  87  88
ENDBRANCH  55  80
BRANCH  67  92
ATOM     92  C   UNL     1      -3.144 -14.674  13.769  1.00  0.00     0.058 A 
ATOM     93  C   UNL     1      -3.568 -13.589  14.550  1.00  0.00     0.135 A 
ATOM     94  C   UNL     1      -3.245 -15.962  14.319  1.00  0.00     0.135 A 
ATOM     95  F   UNL     1      -3.485 -12.338  14.071  1.00  0.00    -0.206 F 
ATOM     96  C   UNL     1      -4.053 -13.771  15.841  1.00  0.00     0.059 A 
ATOM     97  C   UNL     1      -3.750 -16.169  15.598  1.00  0.00     0.059 A 
ATOM     98  F   UNL     1      -2.863 -17.034  13.607  1.00  0.00    -0.206 F 
ATOM     99  C   UNL     1      -4.140 -15.066  16.357  1.00  0.00     0.060 A 
BRANCH  99 100
ATOM    100  S   UNL     1      -4.798 -15.294  18.022  1.00  0.00     0.124 S 
ATOM    101  O   UNL     1      -3.664 -14.883  18.844  1.00  0.00    -0.237 OA
ATOM    102  O   UNL     1      -5.948 -14.395  18.033  1.00  0.00    -0.237 OA
ATOM    103  O   UNL     1      -5.123 -16.717  18.066  1.00  0.00    -0.744 OA
ENDBRANCH  99 100
ENDBRANCH  67  92
ENDBRANCH  41  42
ENDBRANCH  33  36
ENDBRANCH  31  32
ENDBRANCH  30  31
ENDBRANCH  29  30
ENDBRANCH  28  29
ENDBRANCH   1  28
TORSDOF 21
