REMARK SMILES O=C(/C=C/c1ccc(O)c(O)c1)NCCCCCCNC(=O)c1ccc(-c2c3nc(c(-c4c(F)cc(S(=O)(=O)[O-])cc4F)c4ccc([nH]4)c(-c4c(F)cc(S(=O)(=O)[O-])cc4F)c4nc(c(-c5c(F)cc(S(=O)(=O)[O-])cc5F)c5ccc2[nH]5)C=C4)C=C3)cc1
REMARK SMILES IDX 17 1 16 2 15 3 14 4 13 5 1 6 2 7 3 9 4 10 5 11 6 12 12 13
REMARK SMILES IDX 7 14 10 15 8 16 11 17 9 19 18 21 19 22 20 23 21 24 22 26
REMARK SMILES IDX 23 27 24 28 88 29 25 30 87 31 26 32 27 33 28 34 81 35 29 36
REMARK SMILES IDX 86 37 80 38 82 39 30 40 85 41 79 42 78 43 31 45 65 46 44 47
REMARK SMILES IDX 64 48 45 49 48 50 63 51 83 52 46 53 47 54 62 56 84 57 49 58
REMARK SMILES IDX 32 59 33 60 42 61 34 62 35 63 41 64 43 65 36 66 37 67 38 68
REMARK SMILES IDX 39 69 40 70 66 71 67 72 76 73 68 74 69 75 75 76 77 77 70 78
REMARK SMILES IDX 71 79 72 80 73 81 74 82 50 83 51 84 60 85 52 86 53 87 59 88
REMARK SMILES IDX 61 89 54 90 55 91 56 92 57 93 58 94
REMARK H PARENT 13 8 11 18 9 20 20 25 82 44 48 55
REMARK Flexibility Score: inf
ROOT
ATOM      1  C   UNL     1       4.652  -0.409   4.160  1.00  0.00     0.002 C 
ENDROOT
BRANCH   1   2
ATOM      2  C   UNL     1       4.190  -1.538   3.232  1.00  0.00     0.002 C 
BRANCH   2   3
ATOM      3  C   UNL     1       2.691  -1.547   2.904  1.00  0.00     0.021 C 
BRANCH   3   4
ATOM      4  C   UNL     1       2.171  -0.261   2.259  1.00  0.00     0.116 C 
BRANCH   4   5
ATOM      5  N   UNL     1       2.848   0.017   1.007  1.00  0.00    -0.353 N 
ATOM      6  O   UNL     1       1.020  -0.290  -0.349  1.00  0.00    -0.270 OA
ATOM      7  C   UNL     1       2.218  -0.072  -0.204  1.00  0.00     0.243 C 
ATOM      8  H   UNL     1       3.796   0.280   1.029  1.00  0.00     0.163 HD
BRANCH   7   9
ATOM      9  C   UNL     1       3.062   0.141  -1.407  1.00  0.00     0.072 C 
ATOM     10  C   UNL     1       4.402   0.069  -1.464  1.00  0.00     0.014 C 
BRANCH  10  11
ATOM     11  C   UNL     1       5.154   0.201  -2.721  1.00  0.00    -0.022 A 
ATOM     12  C   UNL     1       4.808   1.142  -3.706  1.00  0.00     0.012 A 
ATOM     13  C   UNL     1       6.271  -0.620  -2.926  1.00  0.00     0.058 A 
ATOM     14  C   UNL     1       5.541   1.241  -4.895  1.00  0.00     0.051 A 
ATOM     15  C   UNL     1       6.992  -0.516  -4.108  1.00  0.00     0.157 A 
ATOM     16  C   UNL     1       6.630   0.402  -5.089  1.00  0.00     0.157 A 
BRANCH  15  17
ATOM     17  O   UNL     1       8.069  -1.333  -4.305  1.00  0.00    -0.504 OA
ATOM     18  H   UNL     1       8.564  -1.273  -5.098  1.00  0.00     0.293 HD
ENDBRANCH  15  17
BRANCH  16  19
ATOM     19  O   UNL     1       7.380   0.445  -6.231  1.00  0.00    -0.504 OA
ATOM     20  H   UNL     1       7.164   1.051  -6.912  1.00  0.00     0.293 HD
ENDBRANCH  16  19
ENDBRANCH  10  11
ENDBRANCH   7   9
ENDBRANCH   4   5
ENDBRANCH   3   4
ENDBRANCH   2   3
ENDBRANCH   1   2
BRANCH   1  21
ATOM     21  C   UNL     1       3.961  -0.361   5.524  1.00  0.00     0.021 C 
BRANCH  21  22
ATOM     22  C   UNL     1       4.108  -1.625   6.366  1.00  0.00     0.116 C 
BRANCH  22  23
ATOM     23  N   UNL     1       5.492  -1.893   6.728  1.00  0.00    -0.352 N 
ATOM     24  C   UNL     1       6.040  -2.129   7.965  1.00  0.00     0.251 C 
ATOM     25  H   UNL     1       6.129  -1.907   5.977  1.00  0.00     0.163 HD
ATOM     26  O   UNL     1       7.262  -2.159   8.097  1.00  0.00    -0.269 OA
BRANCH  24  27
ATOM     27  C   UNL     1       5.163  -2.320   9.142  1.00  0.00     0.039 A 
ATOM     28  C   UNL     1       5.486  -1.676  10.339  1.00  0.00     0.014 A 
ATOM     29  C   UNL     1       4.027  -3.131   9.069  1.00  0.00     0.014 A 
ATOM     30  C   UNL     1       4.635  -1.793  11.441  1.00  0.00     0.010 A 
ATOM     31  C   UNL     1       3.141  -3.184  10.143  1.00  0.00     0.010 A 
ATOM     32  C   UNL     1       3.435  -2.517  11.341  1.00  0.00    -0.014 A 
BRANCH  32  33
ATOM     33  C   UNL     1       2.474  -2.576  12.475  1.00  0.00     0.031 A 
ATOM     34  C   UNL     1       2.145  -3.894  13.126  1.00  0.00     0.074 A 
ATOM     35  C   UNL     1       1.849  -1.451  12.878  1.00  0.00     0.049 A 
ATOM     36  N   UNL     1       1.289  -4.152  14.081  1.00  0.00    -0.248 NA
ATOM     37  C   UNL     1       2.854  -5.081  12.620  1.00  0.00     0.031 C 
ATOM     38  C   UNL     1       2.043  -0.122  12.295  1.00  0.00     0.029 A 
ATOM     39  N   UNL     1       0.915  -1.245  13.864  1.00  0.00    -0.354 N 
ATOM     40  C   UNL     1       1.347  -5.526  14.282  1.00  0.00     0.074 A 
ATOM     41  C   UNL     1       2.282  -6.055  13.313  1.00  0.00     0.031 C 
ATOM     42  C   UNL     1       1.271   0.762  12.946  1.00  0.00     0.029 A 
ATOM     43  C   UNL     1       0.493   0.060  13.962  1.00  0.00     0.049 A 
ATOM     44  H   UNL     1       0.580  -1.965  14.445  1.00  0.00     0.167 HD
ATOM     45  C   UNL     1       0.696  -6.276  15.204  1.00  0.00     0.037 A 
ATOM     46  C   UNL     1      -0.424   0.628  14.769  1.00  0.00     0.037 A 
ATOM     47  C   UNL     1      -0.220  -5.739  16.178  1.00  0.00     0.049 A 
ATOM     48  C   UNL     1      -1.139  -0.227  15.781  1.00  0.00     0.074 A 
ATOM     49  C   UNL     1      -0.884  -6.408  17.192  1.00  0.00     0.029 A 
ATOM     50  N   UNL     1      -0.607  -4.409  16.258  1.00  0.00    -0.354 N 
ATOM     51  N   UNL     1      -1.021  -1.514  16.003  1.00  0.00    -0.248 NA
ATOM     52  C   UNL     1      -2.106   0.448  16.659  1.00  0.00     0.031 C 
ATOM     53  C   UNL     1      -1.714  -5.494  17.849  1.00  0.00     0.029 A 
ATOM     54  C   UNL     1      -1.520  -4.242  17.287  1.00  0.00     0.049 A 
ATOM     55  H   UNL     1      -0.281  -3.690  15.671  1.00  0.00     0.167 HD
ATOM     56  C   UNL     1      -1.877  -1.798  17.062  1.00  0.00     0.074 A 
ATOM     57  C   UNL     1      -2.494  -0.546  17.446  1.00  0.00     0.031 C 
ATOM     58  C   UNL     1      -2.126  -2.988  17.664  1.00  0.00     0.037 A 
BRANCH  45  59
ATOM     59  C   UNL     1       0.951  -7.760  15.209  1.00  0.00     0.058 A 
ATOM     60  C   UNL     1       2.186  -8.297  15.605  1.00  0.00     0.135 A 
ATOM     61  C   UNL     1      -0.070  -8.660  14.862  1.00  0.00     0.135 A 
ATOM     62  F   UNL     1       3.203  -7.485  15.934  1.00  0.00    -0.206 F 
ATOM     63  C   UNL     1       2.410  -9.670  15.630  1.00  0.00     0.059 A 
ATOM     64  C   UNL     1       0.121 -10.038  14.910  1.00  0.00     0.059 A 
ATOM     65  F   UNL     1      -1.272  -8.204  14.476  1.00  0.00    -0.206 F 
ATOM     66  C   UNL     1       1.369 -10.533  15.283  1.00  0.00     0.060 A 
BRANCH  66  67
ATOM     67  S   UNL     1       1.672 -12.312  15.337  1.00  0.00     0.124 S 
ATOM     68  O   UNL     1       2.561 -12.491  14.193  1.00  0.00    -0.237 OA
ATOM     69  O   UNL     1       2.287 -12.483  16.649  1.00  0.00    -0.237 OA
ATOM     70  O   UNL     1       0.340 -12.890  15.191  1.00  0.00    -0.744 OA
ENDBRANCH  66  67
ENDBRANCH  45  59
BRANCH  46  71
ATOM     71  C   UNL     1      -0.710   2.085  14.660  1.00  0.00     0.058 A 
ATOM     72  C   UNL     1      -0.335   2.975  15.677  1.00  0.00     0.135 A 
ATOM     73  C   UNL     1      -1.349   2.618  13.530  1.00  0.00     0.135 A 
ATOM     74  F   UNL     1       0.272   2.515  16.782  1.00  0.00    -0.206 F 
ATOM     75  C   UNL     1      -0.598   4.339  15.587  1.00  0.00     0.059 A 
ATOM     76  C   UNL     1      -1.596   3.981  13.402  1.00  0.00     0.059 A 
ATOM     77  F   UNL     1      -1.714   1.812  12.520  1.00  0.00    -0.206 F 
ATOM     78  C   UNL     1      -1.225   4.833  14.442  1.00  0.00     0.060 A 
BRANCH  78  79
ATOM     79  S   UNL     1      -1.514   6.611  14.312  1.00  0.00     0.124 S 
ATOM     80  O   UNL     1      -2.583   6.807  15.285  1.00  0.00    -0.237 OA
ATOM     81  O   UNL     1      -0.211   7.159  14.675  1.00  0.00    -0.237 OA
ATOM     82  O   UNL     1      -1.893   6.788  12.913  1.00  0.00    -0.744 OA
ENDBRANCH  78  79
ENDBRANCH  46  71
BRANCH  58  83
ATOM     83  C   UNL     1      -3.080  -2.994  18.827  1.00  0.00     0.058 A 
ATOM     84  C   UNL     1      -4.460  -2.802  18.656  1.00  0.00     0.135 A 
ATOM     85  C   UNL     1      -2.612  -3.251  20.127  1.00  0.00     0.135 A 
ATOM     86  F   UNL     1      -4.961  -2.547  17.437  1.00  0.00    -0.206 F 
ATOM     87  C   UNL     1      -5.338  -2.838  19.735  1.00  0.00     0.059 A 
ATOM     88  C   UNL     1      -3.475  -3.323  21.215  1.00  0.00     0.059 A 
ATOM     89  F   UNL     1      -1.303  -3.453  20.346  1.00  0.00    -0.206 F 
ATOM     90  C   UNL     1      -4.836  -3.103  21.011  1.00  0.00     0.060 A 
BRANCH  90  91
ATOM     91  S   UNL     1      -5.992  -3.180  22.396  1.00  0.00     0.124 S 
ATOM     92  O   UNL     1      -6.343  -1.774  22.565  1.00  0.00    -0.237 OA
ATOM     93  O   UNL     1      -7.049  -4.040  21.872  1.00  0.00    -0.237 OA
ATOM     94  O   UNL     1      -5.195  -3.762  23.472  1.00  0.00    -0.744 OA
ENDBRANCH  90  91
ENDBRANCH  58  83
ENDBRANCH  32  33
ENDBRANCH  24  27
ENDBRANCH  22  23
ENDBRANCH  21  22
ENDBRANCH   1  21
TORSDOF 19
