REMARK SMILES CC[C@@H](C)c1nc2cc(C(=O)NCCCCCCNC(=O)c3ccc(-c4c5nc(c(-c6c(F)cc(S(=O)(=O)[O-])cc6F)c6ccc([nH]6)c(-c6c(F)cc(S(=O)(=O)[O-])cc6F)c6nc(c(-c7c(F)cc(S(=O)(=O)[O-])cc7F)c7ccc4[nH]7)C=C6)C=C5)cc3)ccc2n1[C@@H](C)CC
REMARK SMILES IDX 16 1 15 2 14 3 13 4 12 5 10 6 11 7 9 9 5 10 6 11 91 12 7 13
REMARK SMILES IDX 90 14 8 15 89 16 88 17 3 18 4 19 2 20 1 21 92 22 93 23 94 24
REMARK SMILES IDX 95 25 17 26 18 27 19 28 20 29 21 31 22 32 23 33 87 34 24 35
REMARK SMILES IDX 86 36 25 37 26 38 27 39 80 40 28 41 85 42 79 43 81 44 29 45
REMARK SMILES IDX 84 46 78 47 77 48 30 50 64 51 43 52 63 53 44 54 47 55 62 56
REMARK SMILES IDX 82 57 45 58 46 59 61 61 83 62 48 63 31 64 32 65 41 66 33 67
REMARK SMILES IDX 34 68 40 69 42 70 35 71 36 72 37 73 38 74 39 75 65 76 66 77
REMARK SMILES IDX 75 78 67 79 68 80 74 81 76 82 69 83 70 84 71 85 72 86 73 87
REMARK SMILES IDX 49 88 50 89 59 90 51 91 52 92 58 93 60 94 53 95 54 96 55 97
REMARK SMILES IDX 56 98 57 99
REMARK H PARENT 12 8 19 30 81 49 47 60
REMARK Flexibility Score: inf
ROOT
ATOM      1  C   UNL     1      -2.424   2.405 -13.192  1.00  0.00     0.002 C 
ENDROOT
BRANCH   1   2
ATOM      2  C   UNL     1      -1.274   1.520 -12.695  1.00  0.00     0.002 C 
BRANCH   2   3
ATOM      3  C   UNL     1      -0.987   1.634 -11.193  1.00  0.00     0.021 C 
BRANCH   3   4
ATOM      4  C   UNL     1      -2.107   1.054 -10.321  1.00  0.00     0.116 C 
BRANCH   4   5
ATOM      5  N   UNL     1      -1.905  -0.373 -10.130  1.00  0.00    -0.352 N 
ATOM      6  C   UNL     1      -1.381  -1.115  -9.101  1.00  0.00     0.251 C 
ATOM      7  O   UNL     1      -1.352  -2.339  -9.239  1.00  0.00    -0.269 OA
ATOM      8  H   UNL     1      -2.206  -0.918 -10.893  1.00  0.00     0.163 HD
BRANCH   6   9
ATOM      9  C   UNL     1      -0.879  -0.522  -7.828  1.00  0.00     0.042 A 
ATOM     10  C   UNL     1       0.291  -0.577  -3.424  1.00  0.00     0.112 A 
ATOM     11  N   UNL     1      -0.255  -1.458  -4.253  1.00  0.00    -0.233 NA
ATOM     12  N   UNL     1       0.374   0.660  -4.059  1.00  0.00    -0.325 N 
ATOM     13  C   UNL     1      -0.409  -0.842  -5.463  1.00  0.00     0.090 A 
ATOM     14  C   UNL     1       0.006   0.476  -5.386  1.00  0.00     0.068 A 
ATOM     15  C   UNL     1      -0.873  -1.351  -6.688  1.00  0.00     0.044 A 
ATOM     16  C   UNL     1       0.026   1.317  -6.504  1.00  0.00     0.029 A 
ATOM     17  C   UNL     1      -0.375   0.775  -7.727  1.00  0.00     0.016 A 
BRANCH  10  18
ATOM     18  C   UNL     1       0.869  -0.998  -2.070  1.00  0.00     0.052 C 
ATOM     19  C   UNL     1       0.515  -2.474  -1.790  1.00  0.00     0.016 C 
BRANCH  18  20
ATOM     20  C   UNL     1       0.436  -0.127  -0.881  1.00  0.00     0.008 C 
ATOM     21  C   UNL     1       1.010  -0.536   0.470  1.00  0.00     0.004 C 
ENDBRANCH  18  20
ENDBRANCH  10  18
BRANCH  12  22
ATOM     22  C   UNL     1       0.816   1.965  -3.573  1.00  0.00     0.085 C 
ATOM     23  C   UNL     1      -0.224   2.656  -2.684  1.00  0.00     0.031 C 
BRANCH  22  24
ATOM     24  C   UNL     1       2.275   2.004  -3.091  1.00  0.00     0.022 C 
ATOM     25  C   UNL     1       3.246   1.728  -4.240  1.00  0.00     0.006 C 
ENDBRANCH  22  24
ENDBRANCH  12  22
ENDBRANCH   6   9
ENDBRANCH   4   5
ENDBRANCH   3   4
ENDBRANCH   2   3
ENDBRANCH   1   2
BRANCH   1  26
ATOM     26  C   UNL     1      -2.261   3.905 -12.916  1.00  0.00     0.021 C 
BRANCH  26  27
ATOM     27  C   UNL     1      -0.995   4.513 -13.521  1.00  0.00     0.116 C 
BRANCH  27  28
ATOM     28  N   UNL     1      -0.929   4.377 -14.961  1.00  0.00    -0.352 N 
ATOM     29  C   UNL     1      -1.489   5.042 -16.016  1.00  0.00     0.251 C 
ATOM     30  H   UNL     1      -0.346   3.635 -15.245  1.00  0.00     0.163 HD
ATOM     31  O   UNL     1      -1.166   4.639 -17.137  1.00  0.00    -0.269 OA
BRANCH  29  32
ATOM     32  C   UNL     1      -2.468   6.160 -15.907  1.00  0.00     0.039 A 
ATOM     33  C   UNL     1      -2.840   6.806 -14.728  1.00  0.00     0.014 A 
ATOM     34  C   UNL     1      -3.074   6.571 -17.111  1.00  0.00     0.014 A 
ATOM     35  C   UNL     1      -3.840   7.773 -14.735  1.00  0.00     0.010 A 
ATOM     36  C   UNL     1      -4.056   7.557 -17.128  1.00  0.00     0.010 A 
ATOM     37  C   UNL     1      -4.467   8.130 -15.930  1.00  0.00    -0.014 A 
BRANCH  37  38
ATOM     38  C   UNL     1      -5.487   9.175 -15.868  1.00  0.00     0.031 A 
ATOM     39  C   UNL     1      -5.023  10.496 -15.348  1.00  0.00     0.074 A 
ATOM     40  C   UNL     1      -6.742   9.023 -16.332  1.00  0.00     0.049 A 
ATOM     41  N   UNL     1      -5.414  11.133 -14.291  1.00  0.00    -0.248 NA
ATOM     42  C   UNL     1      -3.904  11.141 -16.052  1.00  0.00     0.031 C 
ATOM     43  C   UNL     1      -7.294   7.914 -17.114  1.00  0.00     0.029 A 
ATOM     44  N   UNL     1      -7.782   9.900 -16.262  1.00  0.00    -0.354 N 
ATOM     45  C   UNL     1      -4.729  12.348 -14.294  1.00  0.00     0.074 A 
ATOM     46  C   UNL     1      -3.721  12.238 -15.317  1.00  0.00     0.031 C 
ATOM     47  C   UNL     1      -8.493   8.281 -17.620  1.00  0.00     0.029 A 
ATOM     48  C   UNL     1      -8.851   9.585 -17.088  1.00  0.00     0.049 A 
ATOM     49  H   UNL     1      -7.775  10.691 -15.676  1.00  0.00     0.167 HD
ATOM     50  C   UNL     1      -5.155  13.428 -13.578  1.00  0.00     0.037 A 
ATOM     51  C   UNL     1      -9.924  10.370 -17.359  1.00  0.00     0.037 A 
ATOM     52  C   UNL     1      -6.052  13.040 -12.521  1.00  0.00     0.049 A 
ATOM     53  C   UNL     1     -10.043  11.348 -16.246  1.00  0.00     0.074 A 
ATOM     54  C   UNL     1      -5.948  12.233 -11.405  1.00  0.00     0.029 A 
ATOM     55  N   UNL     1      -7.398  13.249 -12.697  1.00  0.00    -0.354 N 
ATOM     56  N   UNL     1     -10.339  11.026 -15.016  1.00  0.00    -0.248 NA
ATOM     57  C   UNL     1      -9.424  12.653 -16.415  1.00  0.00     0.031 C 
ATOM     58  C   UNL     1      -7.222  11.607 -11.279  1.00  0.00     0.029 A 
ATOM     59  C   UNL     1      -8.034  12.100 -12.303  1.00  0.00     0.049 A 
ATOM     60  H   UNL     1      -7.825  14.068 -13.040  1.00  0.00     0.167 HD
ATOM     61  C   UNL     1      -9.589  11.888 -14.229  1.00  0.00     0.074 A 
ATOM     62  C   UNL     1      -9.124  12.927 -15.143  1.00  0.00     0.031 C 
ATOM     63  C   UNL     1      -9.192  11.541 -12.969  1.00  0.00     0.037 A 
BRANCH  50  64
ATOM     64  C   UNL     1      -5.010  14.866 -14.030  1.00  0.00     0.058 A 
ATOM     65  C   UNL     1      -5.385  15.913 -13.159  1.00  0.00     0.135 A 
ATOM     66  C   UNL     1      -4.793  15.248 -15.373  1.00  0.00     0.135 A 
ATOM     67  F   UNL     1      -5.614  15.674 -11.858  1.00  0.00    -0.206 F 
ATOM     68  C   UNL     1      -5.616  17.216 -13.608  1.00  0.00     0.059 A 
ATOM     69  C   UNL     1      -4.966  16.550 -15.830  1.00  0.00     0.059 A 
ATOM     70  F   UNL     1      -4.500  14.361 -16.330  1.00  0.00    -0.206 F 
ATOM     71  C   UNL     1      -5.426  17.517 -14.952  1.00  0.00     0.060 A 
BRANCH  71  72
ATOM     72  S   UNL     1      -5.865  19.153 -15.565  1.00  0.00     0.124 S 
ATOM     73  O   UNL     1      -7.317  19.134 -15.422  1.00  0.00    -0.237 OA
ATOM     74  O   UNL     1      -5.143  20.025 -14.646  1.00  0.00    -0.237 OA
ATOM     75  O   UNL     1      -5.365  19.144 -16.936  1.00  0.00    -0.744 OA
ENDBRANCH  71  72
ENDBRANCH  50  64
BRANCH  51  76
ATOM     76  C   UNL     1     -10.610  10.541 -18.668  1.00  0.00     0.058 A 
ATOM     77  C   UNL     1     -11.828  11.238 -18.769  1.00  0.00     0.135 A 
ATOM     78  C   UNL     1      -9.952  10.267 -19.885  1.00  0.00     0.135 A 
ATOM     79  F   UNL     1     -12.512  11.565 -17.662  1.00  0.00    -0.206 F 
ATOM     80  C   UNL     1     -12.338  11.675 -19.997  1.00  0.00     0.059 A 
ATOM     81  C   UNL     1     -10.448  10.680 -21.120  1.00  0.00     0.059 A 
ATOM     82  F   UNL     1      -8.754   9.666 -19.908  1.00  0.00    -0.206 F 
ATOM     83  C   UNL     1     -11.628  11.408 -21.168  1.00  0.00     0.060 A 
BRANCH  83  84
ATOM     84  S   UNL     1     -12.193  12.112 -22.734  1.00  0.00     0.124 S 
ATOM     85  O   UNL     1     -13.445  11.397 -22.953  1.00  0.00    -0.237 OA
ATOM     86  O   UNL     1     -12.316  13.529 -22.406  1.00  0.00    -0.237 OA
ATOM     87  O   UNL     1     -11.116  11.782 -23.663  1.00  0.00    -0.744 OA
ENDBRANCH  83  84
ENDBRANCH  51  76
BRANCH  63  88
ATOM     88  C   UNL     1      -9.801  10.319 -12.330  1.00  0.00     0.058 A 
ATOM     89  C   UNL     1      -9.590   9.009 -12.795  1.00  0.00     0.135 A 
ATOM     90  C   UNL     1     -10.445  10.460 -11.091  1.00  0.00     0.135 A 
ATOM     91  F   UNL     1      -8.898   8.780 -13.919  1.00  0.00    -0.206 F 
ATOM     92  C   UNL     1     -10.010   7.893 -12.070  1.00  0.00     0.059 A 
ATOM     93  C   UNL     1     -10.847   9.360 -10.335  1.00  0.00     0.059 A 
ATOM     94  F   UNL     1     -10.624  11.682 -10.562  1.00  0.00    -0.206 F 
ATOM     95  C   UNL     1     -10.624   8.077 -10.833  1.00  0.00     0.060 A 
BRANCH  95  96
ATOM     96  S   UNL     1     -11.031   6.629  -9.831  1.00  0.00     0.124 S 
ATOM     97  O   UNL     1     -12.138   6.037 -10.581  1.00  0.00    -0.237 OA
ATOM     98  O   UNL     1      -9.779   5.871  -9.853  1.00  0.00    -0.237 OA
ATOM     99  O   UNL     1     -11.383   7.192  -8.537  1.00  0.00    -0.744 OA
ENDBRANCH  95  96
ENDBRANCH  63  88
ENDBRANCH  37  38
ENDBRANCH  29  32
ENDBRANCH  27  28
ENDBRANCH  26  27
ENDBRANCH   1  26
TORSDOF 20
