REMARK SMILES Cc1ccc2c(c1)c(-c1ccnc3c(C)cccc13)c(C)n2CC(=O)NCCCCCCNC(=O)c1ccc(-c2c3nc(c(-c4c(F)cc(S(=O)(=O)[O-])cc4F)c4ccc([nH]4)c(-c4c(F)cc(S(=O)(=O)[O-])cc4F)c4nc(c(-c5c(F)cc(S(=O)(=O)[O-])cc5F)c5ccc2[nH]5)C=C4)C=C3)cc1
REMARK SMILES IDX 30 1 29 2 28 3 27 4 26 5 24 6 25 7 23 9 22 10 1 11 2 12 3 13
REMARK SMILES IDX 7 14 4 15 6 16 5 17 8 18 20 19 21 20 9 21 10 22 19 23 11 24
REMARK SMILES IDX 13 25 18 26 12 27 14 28 17 29 15 30 16 31 31 32 32 33 33 34
REMARK SMILES IDX 34 35 35 37 36 38 37 39 101 40 38 41 100 42 39 43 40 44
REMARK SMILES IDX 41 45 94 46 42 47 99 48 93 49 95 50 43 51 98 52 92 53 91 54
REMARK SMILES IDX 44 56 78 57 57 58 77 59 58 60 61 61 76 62 96 63 59 64 60 65
REMARK SMILES IDX 75 67 97 68 62 69 45 70 46 71 55 72 47 73 48 74 54 75 56 76
REMARK SMILES IDX 49 77 50 78 51 79 52 80 53 81 79 82 80 83 89 84 81 85 82 86
REMARK SMILES IDX 88 87 90 88 83 89 84 90 85 91 86 92 87 93 63 94 64 95 73 96
REMARK SMILES IDX 65 97 66 98 72 99 74 100 67 101 68 102 69 103 70 104 71 105
REMARK H PARENT 26 8 33 36 95 55 61 66
REMARK Flexibility Score: inf
ROOT
ATOM      1  C   UNL     1      -5.882   4.378  -0.868  1.00  0.00     0.002 C 
ENDROOT
BRANCH   1   2
ATOM      2  C   UNL     1      -4.545   5.123  -0.788  1.00  0.00     0.002 C 
BRANCH   2   3
ATOM      3  C   UNL     1      -3.345   4.343  -1.337  1.00  0.00     0.021 C 
BRANCH   3   4
ATOM      4  C   UNL     1      -3.437   4.047  -2.831  1.00  0.00     0.116 C 
BRANCH   4   5
ATOM      5  N   UNL     1      -3.230   5.251  -3.614  1.00  0.00    -0.355 N 
ATOM      6  C   UNL     1      -2.123   5.650  -4.304  1.00  0.00     0.239 C 
ATOM      7  O   UNL     1      -2.145   6.758  -4.848  1.00  0.00    -0.273 OA
ATOM      8  H   UNL     1      -3.997   5.867  -3.653  1.00  0.00     0.163 HD
BRANCH   6   9
ATOM      9  C   UNL     1      -0.929   4.727  -4.458  1.00  0.00     0.222 C 
BRANCH   9  10
ATOM     10  N   UNL     1      -0.160   4.529  -3.232  1.00  0.00    -0.335 N 
ATOM     11  C   UNL     1       0.913  -0.007  -0.019  1.00  0.00     0.044 C 
ATOM     12  C   UNL     1       0.620   1.141  -0.940  1.00  0.00    -0.050 A 
ATOM     13  C   UNL     1      -0.040   0.933  -2.151  1.00  0.00     0.005 A 
ATOM     14  C   UNL     1       1.021   2.439  -0.587  1.00  0.00     0.014 A 
ATOM     15  C   UNL     1      -0.325   1.995  -3.014  1.00  0.00     0.027 A 
ATOM     16  C   UNL     1       0.738   3.530  -1.439  1.00  0.00     0.008 A 
ATOM     17  C   UNL     1       0.052   3.295  -2.632  1.00  0.00     0.049 A 
ATOM     18  C   UNL     1       1.004   4.928  -1.374  1.00  0.00     0.011 A 
ATOM     19  C   UNL     1       0.494   5.520  -2.520  1.00  0.00     0.024 A 
ATOM     20  C   UNL     1       0.556   6.950  -2.947  1.00  0.00     0.065 C 
BRANCH  18  21
ATOM     21  C   UNL     1       1.720   5.671  -0.344  1.00  0.00    -0.005 A 
ATOM     22  C   UNL     1       3.108   5.560  -0.317  1.00  0.00     0.029 A 
ATOM     23  C   UNL     1       1.053   6.492   0.601  1.00  0.00     0.008 A 
ATOM     24  C   UNL     1       3.791   6.287   0.630  1.00  0.00     0.112 A 
ATOM     25  C   UNL     1       1.850   7.208   1.524  1.00  0.00     0.074 A 
ATOM     26  C   UNL     1      -0.354   6.623   0.661  1.00  0.00     0.011 A 
ATOM     27  N   UNL     1       3.196   7.099   1.527  1.00  0.00    -0.256 NA
ATOM     28  C   UNL     1       1.211   8.047   2.451  1.00  0.00    -0.025 A 
ATOM     29  C   UNL     1      -0.973   7.443   1.595  1.00  0.00     0.001 A 
ATOM     30  C   UNL     1       1.994   8.863   3.447  1.00  0.00     0.047 C 
ATOM     31  C   UNL     1      -0.191   8.157   2.487  1.00  0.00     0.005 A 
ENDBRANCH  18  21
ENDBRANCH   9  10
ENDBRANCH   6   9
ENDBRANCH   4   5
ENDBRANCH   3   4
ENDBRANCH   2   3
ENDBRANCH   1   2
BRANCH   1  32
ATOM     32  C   UNL     1      -5.908   3.011  -0.171  1.00  0.00     0.021 C 
BRANCH  32  33
ATOM     33  C   UNL     1      -5.478   3.049   1.297  1.00  0.00     0.116 C 
BRANCH  33  34
ATOM     34  N   UNL     1      -6.262   3.961   2.101  1.00  0.00    -0.352 N 
ATOM     35  C   UNL     1      -7.447   3.878   2.775  1.00  0.00     0.251 C 
ATOM     36  H   UNL     1      -5.844   4.849   2.181  1.00  0.00     0.163 HD
ATOM     37  O   UNL     1      -7.764   4.877   3.427  1.00  0.00    -0.269 OA
BRANCH  35  38
ATOM     38  C   UNL     1      -8.384   2.722   2.728  1.00  0.00     0.039 A 
ATOM     39  C   UNL     1      -8.156   1.512   2.071  1.00  0.00     0.014 A 
ATOM     40  C   UNL     1      -9.631   2.920   3.352  1.00  0.00     0.014 A 
ATOM     41  C   UNL     1      -9.180   0.582   1.930  1.00  0.00     0.010 A 
ATOM     42  C   UNL     1     -10.649   1.983   3.236  1.00  0.00     0.010 A 
ATOM     43  C   UNL     1     -10.440   0.844   2.466  1.00  0.00    -0.014 A 
BRANCH  43  44
ATOM     44  C   UNL     1     -11.508  -0.111   2.191  1.00  0.00     0.031 A 
ATOM     45  C   UNL     1     -11.303  -1.492   2.719  1.00  0.00     0.074 A 
ATOM     46  C   UNL     1     -12.649   0.244   1.567  1.00  0.00     0.049 A 
ATOM     47  N   UNL     1     -11.195  -2.601   2.061  1.00  0.00    -0.248 NA
ATOM     48  C   UNL     1     -11.098  -1.637   4.168  1.00  0.00     0.031 C 
ATOM     49  C   UNL     1     -13.125   1.590   1.231  1.00  0.00     0.029 A 
ATOM     50  N   UNL     1     -13.685  -0.548   1.181  1.00  0.00    -0.354 N 
ATOM     51  C   UNL     1     -11.084  -3.612   3.016  1.00  0.00     0.074 A 
ATOM     52  C   UNL     1     -10.906  -2.951   4.285  1.00  0.00     0.031 C 
ATOM     53  C   UNL     1     -14.438   1.533   0.914  1.00  0.00     0.029 A 
ATOM     54  C   UNL     1     -14.852   0.141   0.880  1.00  0.00     0.049 A 
ATOM     55  H   UNL     1     -13.614  -1.528   1.120  1.00  0.00     0.167 HD
ATOM     56  C   UNL     1     -11.311  -4.925   2.730  1.00  0.00     0.037 A 
ATOM     57  C   UNL     1     -16.081  -0.401   0.695  1.00  0.00     0.037 A 
ATOM     58  C   UNL     1     -11.291  -5.179   1.316  1.00  0.00     0.049 A 
ATOM     59  C   UNL     1     -15.880  -1.833   0.351  1.00  0.00     0.074 A 
ATOM     60  C   UNL     1     -10.330  -5.103   0.327  1.00  0.00     0.029 A 
ATOM     61  N   UNL     1     -12.492  -5.269   0.658  1.00  0.00    -0.354 N 
ATOM     62  N   UNL     1     -15.311  -2.250  -0.747  1.00  0.00    -0.248 NA
ATOM     63  C   UNL     1     -15.920  -2.801   1.437  1.00  0.00     0.031 C 
ATOM     64  C   UNL     1     -11.028  -4.655  -0.832  1.00  0.00     0.029 A 
ATOM     65  C   UNL     1     -12.375  -4.526  -0.491  1.00  0.00     0.049 A 
ATOM     66  H   UNL     1     -13.286  -5.771   0.953  1.00  0.00     0.167 HD
ATOM     67  C   UNL     1     -14.565  -3.357  -0.367  1.00  0.00     0.074 A 
ATOM     68  C   UNL     1     -15.047  -3.697   0.969  1.00  0.00     0.031 C 
ATOM     69  C   UNL     1     -13.445  -3.732  -1.054  1.00  0.00     0.037 A 
BRANCH  56  70
ATOM     70  C   UNL     1     -11.838  -5.934   3.719  1.00  0.00     0.058 A 
ATOM     71  C   UNL     1     -11.775  -7.313   3.429  1.00  0.00     0.135 A 
ATOM     72  C   UNL     1     -12.649  -5.578   4.819  1.00  0.00     0.135 A 
ATOM     73  F   UNL     1     -11.045  -7.761   2.395  1.00  0.00    -0.206 F 
ATOM     74  C   UNL     1     -12.509  -8.261   4.145  1.00  0.00     0.059 A 
ATOM     75  C   UNL     1     -13.348  -6.510   5.578  1.00  0.00     0.059 A 
ATOM     76  F   UNL     1     -12.874  -4.298   5.144  1.00  0.00    -0.206 F 
ATOM     77  C   UNL     1     -13.305  -7.846   5.210  1.00  0.00     0.060 A 
BRANCH  77  78
ATOM     78  S   UNL     1     -14.344  -9.050   6.058  1.00  0.00     0.124 S 
ATOM     79  O   UNL     1     -15.303  -9.394   5.015  1.00  0.00    -0.237 OA
ATOM     80  O   UNL     1     -13.380 -10.088   6.409  1.00  0.00    -0.237 OA
ATOM     81  O   UNL     1     -14.882  -8.295   7.186  1.00  0.00    -0.744 OA
ENDBRANCH  77  78
ENDBRANCH  56  70
BRANCH  57  82
ATOM     82  C   UNL     1     -17.375   0.123   1.211  1.00  0.00     0.058 A 
ATOM     83  C   UNL     1     -18.599  -0.414   0.777  1.00  0.00     0.135 A 
ATOM     84  C   UNL     1     -17.429   0.950   2.352  1.00  0.00     0.135 A 
ATOM     85  F   UNL     1     -18.637  -1.230  -0.288  1.00  0.00    -0.206 F 
ATOM     86  C   UNL     1     -19.797  -0.191   1.465  1.00  0.00     0.059 A 
ATOM     87  C   UNL     1     -18.611   1.195   3.047  1.00  0.00     0.059 A 
ATOM     88  F   UNL     1     -16.314   1.469   2.886  1.00  0.00    -0.206 F 
ATOM     89  C   UNL     1     -19.788   0.598   2.615  1.00  0.00     0.060 A 
BRANCH  89  90
ATOM     90  S   UNL     1     -21.293   0.739   3.609  1.00  0.00     0.124 S 
ATOM     91  O   UNL     1     -22.171   1.492   2.721  1.00  0.00    -0.237 OA
ATOM     92  O   UNL     1     -21.649  -0.660   3.823  1.00  0.00    -0.237 OA
ATOM     93  O   UNL     1     -20.847   1.456   4.801  1.00  0.00    -0.744 OA
ENDBRANCH  89  90
ENDBRANCH  57  82
BRANCH  69  94
ATOM     94  C   UNL     1     -13.178  -3.084  -2.389  1.00  0.00     0.058 A 
ATOM     95  C   UNL     1     -12.899  -1.716  -2.561  1.00  0.00     0.135 A 
ATOM     96  C   UNL     1     -13.045  -3.907  -3.518  1.00  0.00     0.135 A 
ATOM     97  F   UNL     1     -12.897  -0.877  -1.516  1.00  0.00    -0.206 F 
ATOM     98  C   UNL     1     -12.543  -1.185  -3.803  1.00  0.00     0.059 A 
ATOM     99  C   UNL     1     -12.662  -3.405  -4.760  1.00  0.00     0.059 A 
ATOM    100  F   UNL     1     -13.235  -5.233  -3.408  1.00  0.00    -0.206 F 
ATOM    101  C   UNL     1     -12.423  -2.040  -4.898  1.00  0.00     0.060 A 
BRANCH 101 102
ATOM    102  S   UNL     1     -11.880  -1.362  -6.482  1.00  0.00     0.124 S 
ATOM    103  O   UNL     1     -13.025  -0.553  -6.881  1.00  0.00    -0.237 OA
ATOM    104  O   UNL     1     -10.677  -0.623  -6.114  1.00  0.00    -0.237 OA
ATOM    105  O   UNL     1     -11.642  -2.552  -7.299  1.00  0.00    -0.744 OA
ENDBRANCH 101 102
ENDBRANCH  69  94
ENDBRANCH  43  44
ENDBRANCH  35  38
ENDBRANCH  33  34
ENDBRANCH  32  33
ENDBRANCH   1  32
TORSDOF 18
