REMARK SMILES COCC[C@@]1(C(=O)NCCCCCCNC(=O)c2ccc(-c3c4nc(c(-c5c(F)cc(S(=O)(=O)[O-])cc5F)c5ccc([nH]5)c(-c5c(F)cc(S(=O)(=O)[O-])cc5F)c5nc(c(-c6c(F)cc(S(=O)(=O)[O-])cc6F)c6ccc3[nH]6)C=C5)C=C4)cc2)CCC[N@@H+](Cc2cccc3c2OC(C)(C)C3)C1
REMARK SMILES IDX 11 1 10 2 9 3 8 4 6 5 7 6 5 8 84 9 100 10 85 11 87 12 86 13
REMARK SMILES IDX 4 15 3 16 2 17 1 18 88 19 89 20 90 21 94 22 91 23 93 24
REMARK SMILES IDX 95 25 92 26 99 27 96 28 97 29 98 30 12 31 13 32 14 33 15 34
REMARK SMILES IDX 16 35 17 37 18 38 19 39 83 40 20 41 82 42 21 43 22 44 23 45
REMARK SMILES IDX 76 46 24 47 81 48 75 49 77 50 25 51 80 52 74 53 73 54 26 56
REMARK SMILES IDX 60 57 39 58 59 59 40 60 43 61 58 62 78 63 41 64 42 65 57 67
REMARK SMILES IDX 79 68 44 69 27 70 28 71 37 72 29 73 30 74 36 75 38 76 31 77
REMARK SMILES IDX 32 78 33 79 34 80 35 81 61 82 62 83 71 84 63 85 64 86 70 87
REMARK SMILES IDX 72 88 65 89 66 90 67 91 68 92 69 93 45 94 46 95 55 96 47 97
REMARK SMILES IDX 48 98 54 99 56 100 49 101 50 102 51 103 52 104 53 105
REMARK H PARENT 8 7 87 14 15 36 77 55 43 66
REMARK Flexibility Score: inf
ROOT
ATOM      1  C   UNL     1      -3.353  -4.062   2.454  1.00  0.00     0.002 C 
ENDROOT
BRANCH   1   2
ATOM      2  C   UNL     1      -2.559  -3.829   1.165  1.00  0.00     0.021 C 
BRANCH   2   3
ATOM      3  C   UNL     1      -2.055  -2.386   1.006  1.00  0.00     0.116 C 
BRANCH   3   4
ATOM      4  N   UNL     1      -0.862  -2.176   1.799  1.00  0.00    -0.355 N 
ATOM      5  C   UNL     1       0.466  -2.270   1.527  1.00  0.00     0.232 C 
ATOM      6  O   UNL     1       1.179  -2.337   2.537  1.00  0.00    -0.274 OA
ATOM      7  H   UNL     1      -1.052  -1.909   2.727  1.00  0.00     0.163 HD
BRANCH   5   8
ATOM      8  C   UNL     1       1.088  -2.222   0.092  1.00  0.00     0.100 C 
ATOM      9  C   UNL     1       2.488  -2.906   0.200  1.00  0.00     0.029 C 
ATOM     10  C   UNL     1       1.213  -0.691  -0.321  1.00  0.00     0.279 C 
ATOM     11  C   UNL     1       3.585  -2.009   0.736  1.00  0.00     0.063 C 
ATOM     12  N   UNL     1       2.463   0.051  -0.036  1.00  0.00    -0.330 N 
ATOM     13  C   UNL     1       3.679  -0.750  -0.110  1.00  0.00     0.262 C 
ATOM     14  H   UNL     1       2.365   0.273   0.955  1.00  0.00     0.348 HD
BRANCH   8  15
ATOM     15  C   UNL     1       0.292  -3.164  -0.900  1.00  0.00     0.051 C 
BRANCH  15  16
ATOM     16  C   UNL     1      -0.492  -2.550  -2.067  1.00  0.00     0.161 C 
BRANCH  16  17
ATOM     17  O   UNL     1       0.123  -2.815  -3.328  1.00  0.00    -0.385 OA
ATOM     18  C   UNL     1       1.430  -2.286  -3.453  1.00  0.00     0.194 C 
ENDBRANCH  16  17
ENDBRANCH  15  16
ENDBRANCH   8  15
BRANCH  12  19
ATOM     19  C   UNL     1       2.579   1.410  -0.684  1.00  0.00     0.303 C 
BRANCH  19  20
ATOM     20  C   UNL     1       3.201   1.476  -2.079  1.00  0.00     0.049 A 
ATOM     21  C   UNL     1       4.578   1.303  -2.257  1.00  0.00     0.013 A 
ATOM     22  C   UNL     1       2.458   1.444  -3.247  1.00  0.00     0.132 A 
ATOM     23  C   UNL     1       5.082   0.821  -3.477  1.00  0.00     0.001 A 
ATOM     24  C   UNL     1       2.875   0.742  -4.358  1.00  0.00    -0.001 A 
ATOM     25  O   UNL     1       1.503   2.372  -3.621  1.00  0.00    -0.487 OA
ATOM     26  C   UNL     1       4.209   0.426  -4.498  1.00  0.00     0.008 A 
ATOM     27  C   UNL     1       1.707   0.585  -5.259  1.00  0.00     0.087 C 
ATOM     28  C   UNL     1       0.955   1.879  -4.891  1.00  0.00     0.108 C 
ATOM     29  C   UNL     1       1.101   2.791  -6.126  1.00  0.00     0.057 C 
ATOM     30  C   UNL     1      -0.527   1.751  -4.534  1.00  0.00     0.057 C 
ENDBRANCH  19  20
ENDBRANCH  12  19
ENDBRANCH   5   8
ENDBRANCH   3   4
ENDBRANCH   2   3
ENDBRANCH   1   2
BRANCH   1  31
ATOM     31  C   UNL     1      -4.614  -3.202   2.583  1.00  0.00     0.002 C 
BRANCH  31  32
ATOM     32  C   UNL     1      -5.589  -3.328   1.409  1.00  0.00     0.021 C 
BRANCH  32  33
ATOM     33  C   UNL     1      -6.144  -4.735   1.216  1.00  0.00     0.116 C 
BRANCH  33  34
ATOM     34  N   UNL     1      -6.901  -5.165   2.382  1.00  0.00    -0.352 N 
ATOM     35  C   UNL     1      -8.223  -5.503   2.467  1.00  0.00     0.251 C 
ATOM     36  H   UNL     1      -6.393  -5.220   3.224  1.00  0.00     0.163 HD
ATOM     37  O   UNL     1      -8.779  -5.553   3.571  1.00  0.00    -0.269 OA
BRANCH  35  38
ATOM     38  C   UNL     1      -8.980  -5.806   1.240  1.00  0.00     0.039 A 
ATOM     39  C   UNL     1     -10.270  -5.297   1.084  1.00  0.00     0.014 A 
ATOM     40  C   UNL     1      -8.410  -6.608   0.245  1.00  0.00     0.014 A 
ATOM     41  C   UNL     1     -10.973  -5.554  -0.093  1.00  0.00     0.010 A 
ATOM     42  C   UNL     1      -9.080  -6.796  -0.958  1.00  0.00     0.010 A 
ATOM     43  C   UNL     1     -10.373  -6.282  -1.135  1.00  0.00    -0.014 A 
BRANCH  43  44
ATOM     44  C   UNL     1     -11.085  -6.525  -2.413  1.00  0.00     0.031 A 
ATOM     45  C   UNL     1     -11.422  -7.931  -2.832  1.00  0.00     0.074 A 
ATOM     46  C   UNL     1     -11.371  -5.486  -3.221  1.00  0.00     0.049 A 
ATOM     47  N   UNL     1     -11.982  -8.350  -3.937  1.00  0.00    -0.248 NA
ATOM     48  C   UNL     1     -11.056  -9.009  -1.899  1.00  0.00     0.031 C 
ATOM     49  C   UNL     1     -11.048  -4.084  -2.942  1.00  0.00     0.029 A 
ATOM     50  N   UNL     1     -11.988  -5.446  -4.446  1.00  0.00    -0.354 N 
ATOM     51  C   UNL     1     -12.024  -9.736  -3.838  1.00  0.00     0.074 A 
ATOM     52  C   UNL     1     -11.381 -10.091  -2.592  1.00  0.00     0.031 C 
ATOM     53  C   UNL     1     -11.490  -3.321  -3.955  1.00  0.00     0.029 A 
ATOM     54  C   UNL     1     -12.087  -4.179  -4.973  1.00  0.00     0.049 A 
ATOM     55  H   UNL     1     -12.327  -6.248  -4.905  1.00  0.00     0.167 HD
ATOM     56  C   UNL     1     -12.570 -10.629  -4.697  1.00  0.00     0.037 A 
ATOM     57  C   UNL     1     -12.592  -3.759  -6.149  1.00  0.00     0.037 A 
ATOM     58  C   UNL     1     -13.225 -10.262  -5.926  1.00  0.00     0.049 A 
ATOM     59  C   UNL     1     -13.188  -4.770  -7.090  1.00  0.00     0.074 A 
ATOM     60  C   UNL     1     -13.864 -11.083  -6.838  1.00  0.00     0.029 A 
ATOM     61  N   UNL     1     -13.322  -8.968  -6.417  1.00  0.00    -0.354 N 
ATOM     62  N   UNL     1     -13.281  -6.072  -6.950  1.00  0.00    -0.248 NA
ATOM     63  C   UNL     1     -13.753  -4.259  -8.345  1.00  0.00     0.031 C 
ATOM     64  C   UNL     1     -14.297 -10.293  -7.907  1.00  0.00     0.029 A 
ATOM     65  C   UNL     1     -13.986  -8.971  -7.632  1.00  0.00     0.049 A 
ATOM     66  H   UNL     1     -12.971  -8.165  -5.968  1.00  0.00     0.167 HD
ATOM     67  C   UNL     1     -13.941  -6.530  -8.084  1.00  0.00     0.074 A 
ATOM     68  C   UNL     1     -14.235  -5.366  -8.894  1.00  0.00     0.031 C 
ATOM     69  C   UNL     1     -14.277  -7.800  -8.424  1.00  0.00     0.037 A 
BRANCH  56  70
ATOM     70  C   UNL     1     -12.482 -12.089  -4.340  1.00  0.00     0.058 A 
ATOM     71  C   UNL     1     -13.202 -12.633  -3.264  1.00  0.00     0.135 A 
ATOM     72  C   UNL     1     -11.699 -12.966  -5.110  1.00  0.00     0.135 A 
ATOM     73  F   UNL     1     -13.955 -11.840  -2.484  1.00  0.00    -0.206 F 
ATOM     74  C   UNL     1     -13.125 -13.984  -2.944  1.00  0.00     0.059 A 
ATOM     75  C   UNL     1     -11.633 -14.327  -4.828  1.00  0.00     0.059 A 
ATOM     76  F   UNL     1     -10.989 -12.502  -6.150  1.00  0.00    -0.206 F 
ATOM     77  C   UNL     1     -12.339 -14.825  -3.734  1.00  0.00     0.060 A 
BRANCH  77  78
ATOM     78  S   UNL     1     -12.260 -16.577  -3.311  1.00  0.00     0.124 S 
ATOM     79  O   UNL     1     -11.465 -16.546  -2.087  1.00  0.00    -0.237 OA
ATOM     80  O   UNL     1     -13.668 -16.921  -3.143  1.00  0.00    -0.237 OA
ATOM     81  O   UNL     1     -11.604 -17.178  -4.468  1.00  0.00    -0.744 OA
ENDBRANCH  77  78
ENDBRANCH  56  70
BRANCH  57  82
ATOM     82  C   UNL     1     -12.572  -2.311  -6.490  1.00  0.00     0.058 A 
ATOM     83  C   UNL     1     -13.757  -1.563  -6.546  1.00  0.00     0.135 A 
ATOM     84  C   UNL     1     -11.365  -1.641  -6.750  1.00  0.00     0.135 A 
ATOM     85  F   UNL     1     -14.936  -2.157  -6.310  1.00  0.00    -0.206 F 
ATOM     86  C   UNL     1     -13.751  -0.208  -6.864  1.00  0.00     0.059 A 
ATOM     87  C   UNL     1     -11.330  -0.282  -7.042  1.00  0.00     0.059 A 
ATOM     88  F   UNL     1     -10.200  -2.306  -6.692  1.00  0.00    -0.206 F 
ATOM     89  C   UNL     1     -12.530   0.424  -7.107  1.00  0.00     0.060 A 
BRANCH  89  90
ATOM     90  S   UNL     1     -12.530   2.193  -7.472  1.00  0.00     0.124 S 
ATOM     91  O   UNL     1     -13.094   2.216  -8.816  1.00  0.00    -0.237 OA
ATOM     92  O   UNL     1     -13.381   2.723  -6.411  1.00  0.00    -0.237 OA
ATOM     93  O   UNL     1     -11.119   2.555  -7.373  1.00  0.00    -0.744 OA
ENDBRANCH  89  90
ENDBRANCH  57  82
BRANCH  69  94
ATOM     94  C   UNL     1     -15.034  -7.998  -9.709  1.00  0.00     0.058 A 
ATOM     95  C   UNL     1     -14.422  -7.836 -10.962  1.00  0.00     0.135 A 
ATOM     96  C   UNL     1     -16.376  -8.412  -9.683  1.00  0.00     0.135 A 
ATOM     97  F   UNL     1     -13.144  -7.436 -11.044  1.00  0.00    -0.206 F 
ATOM     98  C   UNL     1     -15.122  -8.054 -12.144  1.00  0.00     0.059 A 
ATOM     99  C   UNL     1     -17.085  -8.667 -10.852  1.00  0.00     0.059 A 
ATOM    100  F   UNL     1     -17.006  -8.593  -8.511  1.00  0.00    -0.206 F 
ATOM    101  C   UNL     1     -16.452  -8.473 -12.079  1.00  0.00     0.060 A 
BRANCH 101 102
ATOM    102  S   UNL     1     -17.336  -8.787 -13.621  1.00  0.00     0.124 S 
ATOM    103  O   UNL     1     -17.538  -7.433 -14.125  1.00  0.00    -0.237 OA
ATOM    104  O   UNL     1     -16.384  -9.605 -14.365  1.00  0.00    -0.237 OA
ATOM    105  O   UNL     1     -18.544  -9.481 -13.186  1.00  0.00    -0.744 OA
ENDBRANCH 101 102
ENDBRANCH  69  94
ENDBRANCH  43  44
ENDBRANCH  35  38
ENDBRANCH  33  34
ENDBRANCH  32  33
ENDBRANCH  31  32
ENDBRANCH   1  31
TORSDOF 21
