REMARK SMILES CO[C@H]1C[C@H](C(=O)NCCCCCCNC(=O)c2ccc(-c3c4nc(c(-c5c(F)cc(S(=O)(=O)[O-])cc5F)c5ccc([nH]5)c(-c5c(F)cc(S(=O)(=O)[O-])cc5F)c5nc(c(-c6c(F)cc(S(=O)(=O)[O-])cc6F)c6ccc3[nH]6)C=C5)C=C4)cc2)N(C(=O)c2cc(Cl)c(Cl)n2C)C1
REMARK SMILES IDX 12 1 11 2 10 3 9 4 8 5 6 6 7 7 5 9 3 10 4 11 95 12 84 13
REMARK SMILES IDX 2 14 1 15 85 16 86 17 87 18 88 19 93 20 89 21 91 22 94 23
REMARK SMILES IDX 90 24 92 25 13 26 14 27 15 28 16 29 17 31 18 32 19 33 83 34
REMARK SMILES IDX 20 35 82 36 21 37 22 38 23 39 76 40 24 41 81 42 75 43 77 44
REMARK SMILES IDX 25 45 80 46 74 47 73 48 26 50 60 51 39 52 59 53 40 54 43 55
REMARK SMILES IDX 58 56 78 57 41 58 42 59 57 61 79 62 44 63 27 64 28 65 37 66
REMARK SMILES IDX 29 67 30 68 36 69 38 70 31 71 32 72 33 73 34 74 35 75 61 76
REMARK SMILES IDX 62 77 71 78 63 79 64 80 70 81 72 82 65 83 66 84 67 85 68 86
REMARK SMILES IDX 69 87 45 88 46 89 55 90 47 91 48 92 54 93 56 94 49 95 50 96
REMARK SMILES IDX 51 97 52 98 53 99
REMARK H PARENT 8 8 15 30 77 49 43 60
REMARK Flexibility Score: inf
ROOT
ATOM      1  C   UNL     1      -1.312  -0.048   4.050  1.00  0.00     0.002 C 
ENDROOT
BRANCH   1   2
ATOM      2  C   UNL     1      -1.382  -0.049   2.519  1.00  0.00     0.002 C 
BRANCH   2   3
ATOM      3  C   UNL     1      -0.352  -0.934   1.808  1.00  0.00     0.021 C 
BRANCH   3   4
ATOM      4  C   UNL     1      -0.564  -2.440   1.983  1.00  0.00     0.116 C 
BRANCH   4   5
ATOM      5  N   UNL     1      -1.644  -2.923   1.145  1.00  0.00    -0.354 N 
ATOM      6  C   UNL     1      -1.661  -3.518  -0.078  1.00  0.00     0.242 C 
ATOM      7  O   UNL     1      -2.773  -3.634  -0.608  1.00  0.00    -0.273 OA
ATOM      8  H   UNL     1      -2.539  -2.796   1.536  1.00  0.00     0.163 HD
BRANCH   6   9
ATOM      9  C   UNL     1      -0.398  -3.901  -0.884  1.00  0.00     0.177 C 
ATOM     10  C   UNL     1       1.566  -2.450  -0.850  1.00  0.00     0.139 C 
ATOM     11  C   UNL     1       0.241  -2.694  -1.574  1.00  0.00     0.069 C 
ATOM     12  C   UNL     1       1.936  -3.819  -0.289  1.00  0.00     0.152 C 
ATOM     13  N   UNL     1       0.688  -4.550  -0.158  1.00  0.00    -0.323 N 
BRANCH  10  14
ATOM     14  O   UNL     1       2.574  -1.987  -1.743  1.00  0.00    -0.380 OA
ATOM     15  C   UNL     1       2.423  -0.615  -2.087  1.00  0.00     0.195 C 
ENDBRANCH  10  14
BRANCH  13  16
ATOM     16  C   UNL     1       0.684  -5.802   0.428  1.00  0.00     0.271 C 
ATOM     17  O   UNL     1       1.606  -6.160   1.159  1.00  0.00    -0.267 OA
BRANCH  16  18
ATOM     18  C   UNL     1      -0.440  -6.678   0.166  1.00  0.00     0.109 A 
ATOM     19  C   UNL     1      -0.915  -7.125  -1.063  1.00  0.00     0.055 A 
ATOM     20  N   UNL     1      -1.159  -7.360   1.138  1.00  0.00    -0.329 N 
ATOM     21  C   UNL     1      -1.943  -8.065  -0.831  1.00  0.00     0.078 A 
ATOM     22  C   UNL     1      -2.062  -8.190   0.527  1.00  0.00     0.128 A 
ATOM     23  C   UNL     1      -0.960  -7.215   2.566  1.00  0.00     0.151 C 
ATOM     24  Cl  UNL     1      -2.794  -8.885  -2.050  1.00  0.00    -0.081 Cl
ATOM     25  Cl  UNL     1      -3.084  -9.202   1.448  1.00  0.00    -0.063 Cl
ENDBRANCH  16  18
ENDBRANCH  13  16
ENDBRANCH   6   9
ENDBRANCH   4   5
ENDBRANCH   3   4
ENDBRANCH   2   3
ENDBRANCH   1   2
BRANCH   1  26
ATOM     26  C   UNL     1       0.048   0.304   4.667  1.00  0.00     0.021 C 
BRANCH  26  27
ATOM     27  C   UNL     1       0.670   1.629   4.220  1.00  0.00     0.116 C 
BRANCH  27  28
ATOM     28  N   UNL     1      -0.137   2.776   4.591  1.00  0.00    -0.352 N 
ATOM     29  C   UNL     1       0.257   3.994   5.090  1.00  0.00     0.251 C 
ATOM     30  H   UNL     1      -1.107   2.667   4.467  1.00  0.00     0.163 HD
ATOM     31  O   UNL     1      -0.592   4.792   5.477  1.00  0.00    -0.269 OA
BRANCH  29  32
ATOM     32  C   UNL     1       1.693   4.346   5.187  1.00  0.00     0.039 A 
ATOM     33  C   UNL     1       2.166   4.893   6.385  1.00  0.00     0.014 A 
ATOM     34  C   UNL     1       2.556   4.203   4.096  1.00  0.00     0.014 A 
ATOM     35  C   UNL     1       3.511   5.252   6.508  1.00  0.00     0.010 A 
ATOM     36  C   UNL     1       3.904   4.552   4.223  1.00  0.00     0.010 A 
ATOM     37  C   UNL     1       4.391   5.074   5.431  1.00  0.00    -0.014 A 
BRANCH  37  38
ATOM     38  C   UNL     1       5.825   5.428   5.560  1.00  0.00     0.031 A 
ATOM     39  C   UNL     1       6.346   6.716   4.994  1.00  0.00     0.074 A 
ATOM     40  C   UNL     1       6.670   4.573   6.166  1.00  0.00     0.049 A 
ATOM     41  N   UNL     1       7.581   7.140   4.914  1.00  0.00    -0.248 NA
ATOM     42  C   UNL     1       5.350   7.643   4.439  1.00  0.00     0.031 C 
ATOM     43  C   UNL     1       6.294   3.287   6.754  1.00  0.00     0.029 A 
ATOM     44  N   UNL     1       8.022   4.659   6.379  1.00  0.00    -0.354 N 
ATOM     45  C   UNL     1       7.519   8.368   4.271  1.00  0.00     0.074 A 
ATOM     46  C   UNL     1       6.120   8.631   4.000  1.00  0.00     0.031 C 
ATOM     47  C   UNL     1       7.391   2.705   7.266  1.00  0.00     0.029 A 
ATOM     48  C   UNL     1       8.545   3.569   7.029  1.00  0.00     0.049 A 
ATOM     49  H   UNL     1       8.565   5.429   6.094  1.00  0.00     0.167 HD
ATOM     50  C   UNL     1       8.535   9.194   3.923  1.00  0.00     0.037 A 
ATOM     51  C   UNL     1       9.813   3.294   7.388  1.00  0.00     0.037 A 
ATOM     52  C   UNL     1       9.925   8.948   4.197  1.00  0.00     0.049 A 
ATOM     53  C   UNL     1      10.909   4.268   7.076  1.00  0.00     0.074 A 
ATOM     54  C   UNL     1      11.029   9.694   3.820  1.00  0.00     0.029 A 
ATOM     55  N   UNL     1      10.402   7.880   4.942  1.00  0.00    -0.354 N 
ATOM     56  N   UNL     1      10.839   5.396   6.414  1.00  0.00    -0.248 NA
ATOM     57  C   UNL     1      12.255   3.933   7.563  1.00  0.00     0.031 C 
ATOM     58  C   UNL     1      12.175   9.083   4.351  1.00  0.00     0.029 A 
ATOM     59  C   UNL     1      11.780   7.960   5.059  1.00  0.00     0.049 A 
ATOM     60  H   UNL     1       9.843   7.169   5.330  1.00  0.00     0.167 HD
ATOM     61  C   UNL     1      12.133   5.902   6.392  1.00  0.00     0.074 A 
ATOM     62  C   UNL     1      12.963   4.967   7.125  1.00  0.00     0.031 C 
ATOM     63  C   UNL     1      12.591   7.033   5.803  1.00  0.00     0.037 A 
BRANCH  50  64
ATOM     64  C   UNL     1       8.161  10.435   3.174  1.00  0.00     0.058 A 
ATOM     65  C   UNL     1       7.787  11.606   3.848  1.00  0.00     0.135 A 
ATOM     66  C   UNL     1       8.150  10.444   1.771  1.00  0.00     0.135 A 
ATOM     67  F   UNL     1       7.766  11.635   5.190  1.00  0.00    -0.206 F 
ATOM     68  C   UNL     1       7.389  12.745   3.155  1.00  0.00     0.059 A 
ATOM     69  C   UNL     1       7.760  11.572   1.058  1.00  0.00     0.059 A 
ATOM     70  F   UNL     1       8.490   9.342   1.085  1.00  0.00    -0.206 F 
ATOM     71  C   UNL     1       7.363  12.712   1.759  1.00  0.00     0.060 A 
BRANCH  71  72
ATOM     72  S   UNL     1       6.808  14.163   0.839  1.00  0.00     0.124 S 
ATOM     73  O   UNL     1       5.391  13.862   0.656  1.00  0.00    -0.237 OA
ATOM     74  O   UNL     1       7.106  15.265   1.748  1.00  0.00    -0.237 OA
ATOM     75  O   UNL     1       7.626  14.115  -0.369  1.00  0.00    -0.744 OA
ENDBRANCH  71  72
ENDBRANCH  50  64
BRANCH  51  76
ATOM     76  C   UNL     1      10.105   2.026   8.094  1.00  0.00     0.058 A 
ATOM     77  C   UNL     1      10.133   1.976   9.494  1.00  0.00     0.135 A 
ATOM     78  C   UNL     1      10.312   0.838   7.382  1.00  0.00     0.135 A 
ATOM     79  F   UNL     1       9.940   3.095  10.210  1.00  0.00    -0.206 F 
ATOM     80  C   UNL     1      10.349   0.781  10.172  1.00  0.00     0.059 A 
ATOM     81  C   UNL     1      10.525  -0.369   8.037  1.00  0.00     0.059 A 
ATOM     82  F   UNL     1      10.283   0.844   6.041  1.00  0.00    -0.206 F 
ATOM     83  C   UNL     1      10.542  -0.387   9.433  1.00  0.00     0.060 A 
BRANCH  83  84
ATOM     84  S   UNL     1      10.734  -1.967  10.288  1.00  0.00     0.124 S 
ATOM     85  O   UNL     1      12.185  -2.110  10.315  1.00  0.00    -0.237 OA
ATOM     86  O   UNL     1      10.095  -1.721  11.577  1.00  0.00    -0.237 OA
ATOM     87  O   UNL     1      10.018  -2.889   9.411  1.00  0.00    -0.744 OA
ENDBRANCH  83  84
ENDBRANCH  51  76
BRANCH  63  88
ATOM     88  C   UNL     1      14.056   7.317   5.931  1.00  0.00     0.058 A 
ATOM     89  C   UNL     1      14.974   6.800   5.006  1.00  0.00     0.135 A 
ATOM     90  C   UNL     1      14.544   8.120   6.972  1.00  0.00     0.135 A 
ATOM     91  F   UNL     1      14.551   6.024   3.996  1.00  0.00    -0.206 F 
ATOM     92  C   UNL     1      16.336   7.062   5.113  1.00  0.00     0.059 A 
ATOM     93  C   UNL     1      15.902   8.396   7.098  1.00  0.00     0.059 A 
ATOM     94  F   UNL     1      13.701   8.631   7.883  1.00  0.00    -0.206 F 
ATOM     95  C   UNL     1      16.792   7.854   6.169  1.00  0.00     0.060 A 
BRANCH  95  96
ATOM     96  S   UNL     1      18.556   8.216   6.312  1.00  0.00     0.124 S 
ATOM     97  O   UNL     1      19.012   7.116   7.155  1.00  0.00    -0.237 OA
ATOM     98  O   UNL     1      19.011   8.179   4.925  1.00  0.00    -0.237 OA
ATOM     99  O   UNL     1      18.570   9.537   6.932  1.00  0.00    -0.744 OA
ENDBRANCH  95  96
ENDBRANCH  63  88
ENDBRANCH  37  38
ENDBRANCH  29  32
ENDBRANCH  27  28
ENDBRANCH  26  27
ENDBRANCH   1  26
TORSDOF 19
