REMARK SMILES CC(C)Cc1ccc([C@H](C)C(=O)NCCCCCCNC(=O)c2ccc(-c3c4nc(c(-c5c(F)cc(S(=O)(=O)[O-])cc5F)c5ccc([nH]5)c(-c5c(F)cc(S(=O)(=O)[O-])cc5F)c5nc(c(-c6c(F)cc(S(=O)(=O)[O-])cc6F)c6ccc3[nH]6)C=C5)C=C4)cc2)cc1
REMARK SMILES IDX 16 1 15 2 14 3 13 4 11 5 12 6 9 8 10 9 8 10 5 11 6 12 90 13
REMARK SMILES IDX 7 14 89 15 4 16 2 17 1 18 3 19 17 20 18 21 19 22 20 23 21 24
REMARK SMILES IDX 22 26 23 27 24 28 88 29 25 30 87 31 26 32 27 33 28 34 81 35
REMARK SMILES IDX 29 36 86 37 80 38 82 39 30 40 85 41 79 42 78 43 31 45 65 46
REMARK SMILES IDX 44 47 64 48 45 49 48 50 63 51 83 52 46 53 47 54 62 56 84 57
REMARK SMILES IDX 49 58 32 59 33 60 42 61 34 62 35 63 41 64 43 65 36 66 37 67
REMARK SMILES IDX 38 68 39 69 40 70 66 71 67 72 76 73 68 74 69 75 75 76 77 77
REMARK SMILES IDX 70 78 71 79 72 80 73 81 74 82 50 83 51 84 60 85 52 86 53 87
REMARK SMILES IDX 59 88 61 89 54 90 55 91 56 92 57 93 58 94
REMARK H PARENT 13 7 20 25 82 44 48 55
REMARK Flexibility Score: inf
ROOT
ATOM      1  C   UNL     1      -1.014   2.932  -4.269  1.00  0.00     0.002 C 
ENDROOT
BRANCH   1   2
ATOM      2  C   UNL     1      -1.712   1.867  -3.418  1.00  0.00     0.021 C 
BRANCH   2   3
ATOM      3  C   UNL     1      -2.810   1.098  -4.146  1.00  0.00     0.116 C 
BRANCH   3   4
ATOM      4  N   UNL     1      -2.263   0.192  -5.135  1.00  0.00    -0.356 N 
ATOM      5  C   UNL     1      -2.435  -1.150  -5.287  1.00  0.00     0.227 C 
ATOM      6  O   UNL     1      -1.900  -1.684  -6.265  1.00  0.00    -0.274 OA
ATOM      7  H   UNL     1      -1.675   0.613  -5.802  1.00  0.00     0.163 HD
BRANCH   5   8
ATOM      8  C   UNL     1      -3.254  -1.988  -4.295  1.00  0.00     0.105 C 
ATOM      9  C   UNL     1      -2.615  -2.014  -2.903  1.00  0.00     0.023 C 
BRANCH   8  10
ATOM     10  C   UNL     1      -4.746  -1.699  -4.392  1.00  0.00    -0.036 A 
ATOM     11  C   UNL     1      -7.486  -1.081  -4.774  1.00  0.00    -0.048 A 
ATOM     12  C   UNL     1      -6.775  -1.789  -5.747  1.00  0.00     0.004 A 
ATOM     13  C   UNL     1      -6.827  -0.709  -3.598  1.00  0.00     0.004 A 
ATOM     14  C   UNL     1      -5.422  -2.083  -5.563  1.00  0.00     0.005 A 
ATOM     15  C   UNL     1      -5.480  -1.035  -3.400  1.00  0.00     0.005 A 
BRANCH  11  16
ATOM     16  C   UNL     1      -8.934  -0.715  -4.994  1.00  0.00     0.038 C 
BRANCH  16  17
ATOM     17  C   UNL     1      -9.148   0.683  -5.609  1.00  0.00    -0.013 C 
ATOM     18  C   UNL     1      -8.607   0.784  -7.038  1.00  0.00     0.008 C 
ATOM     19  C   UNL     1     -10.642   1.021  -5.607  1.00  0.00     0.008 C 
ENDBRANCH  16  17
ENDBRANCH  11  16
ENDBRANCH   8  10
ENDBRANCH   5   8
ENDBRANCH   3   4
ENDBRANCH   2   3
ENDBRANCH   1   2
BRANCH   1  20
ATOM     20  C   UNL     1      -1.939   3.988  -4.882  1.00  0.00     0.002 C 
BRANCH  20  21
ATOM     21  C   UNL     1      -2.869   4.702  -3.897  1.00  0.00     0.021 C 
BRANCH  21  22
ATOM     22  C   UNL     1      -2.170   5.395  -2.731  1.00  0.00     0.116 C 
BRANCH  22  23
ATOM     23  N   UNL     1      -1.245   6.424  -3.176  1.00  0.00    -0.352 N 
ATOM     24  C   UNL     1      -1.143   7.733  -2.787  1.00  0.00     0.251 C 
ATOM     25  H   UNL     1      -0.595   6.137  -3.858  1.00  0.00     0.163 HD
ATOM     26  O   UNL     1      -0.408   8.498  -3.416  1.00  0.00    -0.269 OA
BRANCH  24  27
ATOM     27  C   UNL     1      -1.920   8.238  -1.635  1.00  0.00     0.039 A 
ATOM     28  C   UNL     1      -2.541   9.485  -1.737  1.00  0.00     0.014 A 
ATOM     29  C   UNL     1      -2.021   7.503  -0.449  1.00  0.00     0.014 A 
ATOM     30  C   UNL     1      -3.302   9.972  -0.672  1.00  0.00     0.010 A 
ATOM     31  C   UNL     1      -2.837   7.957   0.585  1.00  0.00     0.010 A 
ATOM     32  C   UNL     1      -3.482   9.199   0.487  1.00  0.00    -0.014 A 
BRANCH  32  33
ATOM     33  C   UNL     1      -4.346   9.681   1.596  1.00  0.00     0.031 A 
ATOM     34  C   UNL     1      -3.758   9.981   2.949  1.00  0.00     0.074 A 
ATOM     35  C   UNL     1      -5.673   9.808   1.394  1.00  0.00     0.049 A 
ATOM     36  N   UNL     1      -4.358  10.390   4.037  1.00  0.00    -0.248 NA
ATOM     37  C   UNL     1      -2.311   9.769   3.107  1.00  0.00     0.031 C 
ATOM     38  C   UNL     1      -6.371   9.494   0.145  1.00  0.00     0.029 A 
ATOM     39  N   UNL     1      -6.673  10.229   2.234  1.00  0.00    -0.354 N 
ATOM     40  C   UNL     1      -3.367  10.478   5.009  1.00  0.00     0.074 A 
ATOM     41  C   UNL     1      -2.137  10.025   4.396  1.00  0.00     0.031 C 
ATOM     42  C   UNL     1      -7.678   9.761   0.292  1.00  0.00     0.029 A 
ATOM     43  C   UNL     1      -7.919  10.232   1.652  1.00  0.00     0.049 A 
ATOM     44  H   UNL     1      -6.513  10.505   3.166  1.00  0.00     0.167 HD
ATOM     45  C   UNL     1      -3.468  10.918   6.286  1.00  0.00     0.037 A 
ATOM     46  C   UNL     1      -9.120  10.574   2.157  1.00  0.00     0.037 A 
ATOM     47  C   UNL     1      -4.692  11.387   6.884  1.00  0.00     0.049 A 
ATOM     48  C   UNL     1      -9.204  11.070   3.575  1.00  0.00     0.074 A 
ATOM     49  C   UNL     1      -4.887  11.908   8.152  1.00  0.00     0.029 A 
ATOM     50  N   UNL     1      -5.930  11.392   6.258  1.00  0.00    -0.354 N 
ATOM     51  N   UNL     1      -8.245  11.210   4.458  1.00  0.00    -0.248 NA
ATOM     52  C   UNL     1     -10.533  11.466   4.061  1.00  0.00     0.031 C 
ATOM     53  C   UNL     1      -6.250  12.186   8.307  1.00  0.00     0.029 A 
ATOM     54  C   UNL     1      -6.897  11.887   7.119  1.00  0.00     0.049 A 
ATOM     55  H   UNL     1      -6.098  11.089   5.336  1.00  0.00     0.167 HD
ATOM     56  C   UNL     1      -8.849  11.732   5.596  1.00  0.00     0.074 A 
ATOM     57  C   UNL     1     -10.253  11.900   5.282  1.00  0.00     0.031 C 
ATOM     58  C   UNL     1      -8.293  12.045   6.793  1.00  0.00     0.037 A 
BRANCH  45  59
ATOM     59  C   UNL     1      -2.218  10.918   7.125  1.00  0.00     0.058 A 
ATOM     60  C   UNL     1      -1.164  11.813   6.876  1.00  0.00     0.135 A 
ATOM     61  C   UNL     1      -2.084  10.038   8.211  1.00  0.00     0.135 A 
ATOM     62  F   UNL     1      -1.231  12.667   5.843  1.00  0.00    -0.206 F 
ATOM     63  C   UNL     1      -0.010  11.814   7.654  1.00  0.00     0.059 A 
ATOM     64  C   UNL     1      -0.951  10.041   9.020  1.00  0.00     0.059 A 
ATOM     65  F   UNL     1      -3.060   9.162   8.495  1.00  0.00    -0.206 F 
ATOM     66  C   UNL     1       0.087  10.923   8.724  1.00  0.00     0.060 A 
BRANCH  66  67
ATOM     67  S   UNL     1       1.590  10.939   9.725  1.00  0.00     0.124 S 
ATOM     68  O   UNL     1       2.549  10.313   8.819  1.00  0.00    -0.237 OA
ATOM     69  O   UNL     1       1.787  12.364   9.970  1.00  0.00    -0.237 OA
ATOM     70  O   UNL     1       1.226  10.149  10.897  1.00  0.00    -0.744 OA
ENDBRANCH  66  67
ENDBRANCH  45  59
BRANCH  46  71
ATOM     71  C   UNL     1     -10.336  10.485   1.305  1.00  0.00     0.058 A 
ATOM     72  C   UNL     1     -10.987  11.642   0.852  1.00  0.00     0.135 A 
ATOM     73  C   UNL     1     -10.862   9.244   0.914  1.00  0.00     0.135 A 
ATOM     74  F   UNL     1     -10.524  12.852   1.203  1.00  0.00    -0.206 F 
ATOM     75  C   UNL     1     -12.126  11.574   0.057  1.00  0.00     0.059 A 
ATOM     76  C   UNL     1     -11.985   9.150   0.099  1.00  0.00     0.059 A 
ATOM     77  F   UNL     1     -10.266   8.107   1.306  1.00  0.00    -0.206 F 
ATOM     78  C   UNL     1     -12.617  10.322  -0.316  1.00  0.00     0.060 A 
BRANCH  78  79
ATOM     79  S   UNL     1     -14.068  10.244  -1.389  1.00  0.00     0.124 S 
ATOM     80  O   UNL     1     -15.135  10.615  -0.467  1.00  0.00    -0.237 OA
ATOM     81  O   UNL     1     -13.742  11.226  -2.418  1.00  0.00    -0.237 OA
ATOM     82  O   UNL     1     -14.076   8.855  -1.839  1.00  0.00    -0.744 OA
ENDBRANCH  78  79
ENDBRANCH  46  71
BRANCH  58  83
ATOM     83  C   UNL     1      -9.201  12.625   7.842  1.00  0.00     0.058 A 
ATOM     84  C   UNL     1     -10.168  11.845   8.496  1.00  0.00     0.135 A 
ATOM     85  C   UNL     1      -9.089  13.975   8.213  1.00  0.00     0.135 A 
ATOM     86  F   UNL     1     -10.320  10.550   8.176  1.00  0.00    -0.206 F 
ATOM     87  C   UNL     1     -11.016  12.390   9.454  1.00  0.00     0.059 A 
ATOM     88  C   UNL     1      -9.907  14.535   9.189  1.00  0.00     0.059 A 
ATOM     89  F   UNL     1      -8.174  14.764   7.628  1.00  0.00    -0.206 F 
ATOM     90  C   UNL     1     -10.880  13.738   9.791  1.00  0.00     0.060 A 
BRANCH  90  91
ATOM     91  S   UNL     1     -11.982  14.434  11.040  1.00  0.00     0.124 S 
ATOM     92  O   UNL     1     -13.230  14.556  10.294  1.00  0.00    -0.237 OA
ATOM     93  O   UNL     1     -11.963  13.411  12.081  1.00  0.00    -0.237 OA
ATOM     94  O   UNL     1     -11.338  15.695  11.397  1.00  0.00    -0.744 OA
ENDBRANCH  90  91
ENDBRANCH  58  83
ENDBRANCH  32  33
ENDBRANCH  24  27
ENDBRANCH  22  23
ENDBRANCH  21  22
ENDBRANCH  20  21
ENDBRANCH   1  20
TORSDOF 19
