REMARK SMILES Cc1cc(C)c2c(O[C@@H](C)C(=O)NCCCCCCNC(=O)c3ccc(-c4c5nc(c(-c6c(F)cc(S(=O)(=O)[O-])cc6F)c6ccc([nH]6)c(-c6c(F)cc(S(=O)(=O)[O-])cc6F)c6nc(c(-c7c(F)cc(S(=O)(=O)[O-])cc7F)c7ccc4[nH]7)C=C6)C=C5)cc3)nsc2n1
REMARK SMILES IDX 17 1 16 2 15 3 14 4 13 5 11 6 12 7 9 9 10 10 8 11 7 12 1 13
REMARK SMILES IDX 2 14 3 15 92 16 4 17 91 18 5 19 6 20 90 21 89 22 18 23 19 24
REMARK SMILES IDX 20 25 21 26 22 28 23 29 24 30 88 31 25 32 87 33 26 34 27 35
REMARK SMILES IDX 28 36 81 37 29 38 86 39 80 40 82 41 30 42 85 43 79 44 78 45
REMARK SMILES IDX 31 47 65 48 44 49 64 50 45 51 48 52 63 53 83 54 46 55 47 56
REMARK SMILES IDX 62 58 84 59 49 60 32 61 33 62 42 63 34 64 35 65 41 66 43 67
REMARK SMILES IDX 36 68 37 69 38 70 39 71 40 72 66 73 67 74 76 75 68 76 69 77
REMARK SMILES IDX 75 78 77 79 70 80 71 81 72 82 73 83 74 84 50 85 51 86 60 87
REMARK SMILES IDX 52 88 53 89 59 90 61 91 54 92 55 93 56 94 57 95 58 96
REMARK H PARENT 13 8 20 27 82 46 48 57
REMARK Flexibility Score: inf
ROOT
ATOM      1  C   UNL     1       3.275  -0.867   1.819  1.00  0.00     0.002 C 
ENDROOT
BRANCH   1   2
ATOM      2  C   UNL     1       3.259  -1.627   3.162  1.00  0.00     0.002 C 
BRANCH   2   3
ATOM      3  C   UNL     1       2.132  -2.635   3.406  1.00  0.00     0.021 C 
BRANCH   3   4
ATOM      4  C   UNL     1       1.929  -3.671   2.313  1.00  0.00     0.116 C 
BRANCH   4   5
ATOM      5  N   UNL     1       2.447  -4.999   2.526  1.00  0.00    -0.353 N 
ATOM      6  C   UNL     1       1.893  -6.172   2.078  1.00  0.00     0.260 C 
ATOM      7  O   UNL     1       2.685  -7.087   1.813  1.00  0.00    -0.271 OA
ATOM      8  H   UNL     1       3.282  -5.072   3.044  1.00  0.00     0.163 HD
BRANCH   6   9
ATOM      9  C   UNL     1       0.335  -6.427   1.972  1.00  0.00     0.260 C 
ATOM     10  C   UNL     1      -0.119  -7.228   0.742  1.00  0.00     0.064 C 
BRANCH   9  11
ATOM     11  O   UNL     1      -0.707  -5.658   2.488  1.00  0.00    -0.463 OA
BRANCH  11  12
ATOM     12  C   UNL     1      -1.278  -4.586   1.891  1.00  0.00     0.235 A 
ATOM     13  C   UNL     1      -0.439   0.006  -1.332  1.00  0.00     0.067 C 
ATOM     14  C   UNL     1      -0.694  -1.320  -0.678  1.00  0.00     0.039 A 
ATOM     15  C   UNL     1       0.021  -2.434  -1.081  1.00  0.00     0.027 A 
ATOM     16  N   UNL     1      -1.583  -1.347   0.317  1.00  0.00    -0.240 NA
ATOM     17  C   UNL     1      -0.064  -3.657  -0.375  1.00  0.00    -0.034 A 
ATOM     18  C   UNL     1      -1.681  -2.523   0.964  1.00  0.00     0.147 A 
ATOM     19  C   UNL     1       0.823  -4.744  -0.924  1.00  0.00     0.045 C 
ATOM     20  C   UNL     1      -0.956  -3.709   0.750  1.00  0.00     0.078 A 
ATOM     21  S   UNL     1      -2.758  -2.687   2.265  1.00  0.00    -0.012 S 
ATOM     22  N   UNL     1      -2.274  -4.192   2.684  1.00  0.00    -0.153 NA
ENDBRANCH  11  12
ENDBRANCH   9  11
ENDBRANCH   6   9
ENDBRANCH   4   5
ENDBRANCH   3   4
ENDBRANCH   2   3
ENDBRANCH   1   2
BRANCH   1  23
ATOM     23  C   UNL     1       1.986  -0.169   1.370  1.00  0.00     0.021 C 
BRANCH  23  24
ATOM     24  C   UNL     1       1.491   0.926   2.296  1.00  0.00     0.116 C 
BRANCH  24  25
ATOM     25  N   UNL     1       2.304   2.142   2.272  1.00  0.00    -0.352 N 
ATOM     26  C   UNL     1       2.022   3.377   2.846  1.00  0.00     0.251 C 
ATOM     27  H   UNL     1       3.159   2.079   1.788  1.00  0.00     0.163 HD
ATOM     28  O   UNL     1       2.618   4.376   2.482  1.00  0.00    -0.269 OA
BRANCH  26  29
ATOM     29  C   UNL     1       0.981   3.459   3.900  1.00  0.00     0.039 A 
ATOM     30  C   UNL     1       0.183   4.593   4.073  1.00  0.00     0.014 A 
ATOM     31  C   UNL     1       0.804   2.358   4.729  1.00  0.00     0.014 A 
ATOM     32  C   UNL     1      -0.827   4.562   5.038  1.00  0.00     0.010 A 
ATOM     33  C   UNL     1      -0.316   2.242   5.500  1.00  0.00     0.010 A 
ATOM     34  C   UNL     1      -1.081   3.369   5.737  1.00  0.00    -0.014 A 
BRANCH  34  35
ATOM     35  C   UNL     1      -2.200   3.235   6.662  1.00  0.00     0.031 A 
ATOM     36  C   UNL     1      -3.502   3.611   6.065  1.00  0.00     0.074 A 
ATOM     37  C   UNL     1      -2.108   2.628   7.868  1.00  0.00     0.049 A 
ATOM     38  N   UNL     1      -4.157   4.707   6.253  1.00  0.00    -0.248 NA
ATOM     39  C   UNL     1      -4.048   2.772   4.986  1.00  0.00     0.031 C 
ATOM     40  C   UNL     1      -0.950   1.924   8.442  1.00  0.00     0.029 A 
ATOM     41  N   UNL     1      -3.068   2.432   8.817  1.00  0.00    -0.354 N 
ATOM     42  C   UNL     1      -5.340   4.556   5.540  1.00  0.00     0.074 A 
ATOM     43  C   UNL     1      -5.107   3.491   4.602  1.00  0.00     0.031 C 
ATOM     44  C   UNL     1      -1.337   1.197   9.514  1.00  0.00     0.029 A 
ATOM     45  C   UNL     1      -2.711   1.538   9.824  1.00  0.00     0.049 A 
ATOM     46  H   UNL     1      -3.942   2.885   8.792  1.00  0.00     0.167 HD
ATOM     47  C   UNL     1      -6.498   5.096   6.013  1.00  0.00     0.037 A 
ATOM     48  C   UNL     1      -3.478   1.130  10.865  1.00  0.00     0.037 A 
ATOM     49  C   UNL     1      -6.223   5.994   7.108  1.00  0.00     0.049 A 
ATOM     50  C   UNL     1      -4.493   2.189  11.077  1.00  0.00     0.074 A 
ATOM     51  C   UNL     1      -5.685   7.253   7.256  1.00  0.00     0.029 A 
ATOM     52  N   UNL     1      -6.161   5.373   8.331  1.00  0.00    -0.354 N 
ATOM     53  N   UNL     1      -4.195   3.404  11.455  1.00  0.00    -0.248 NA
ATOM     54  C   UNL     1      -5.831   2.018  10.525  1.00  0.00     0.031 C 
ATOM     55  C   UNL     1      -5.124   7.293   8.567  1.00  0.00     0.029 A 
ATOM     56  C   UNL     1      -5.369   6.076   9.201  1.00  0.00     0.049 A 
ATOM     57  H   UNL     1      -6.624   4.534   8.553  1.00  0.00     0.167 HD
ATOM     58  C   UNL     1      -5.117   4.199  10.806  1.00  0.00     0.074 A 
ATOM     59  C   UNL     1      -6.190   3.299  10.405  1.00  0.00     0.031 C 
ATOM     60  C   UNL     1      -4.783   5.446  10.366  1.00  0.00     0.037 A 
BRANCH  47  61
ATOM     61  C   UNL     1      -7.877   4.490   5.846  1.00  0.00     0.058 A 
ATOM     62  C   UNL     1      -9.003   5.229   6.269  1.00  0.00     0.135 A 
ATOM     63  C   UNL     1      -8.120   3.127   5.564  1.00  0.00     0.135 A 
ATOM     64  F   UNL     1      -8.890   6.531   6.578  1.00  0.00    -0.206 F 
ATOM     65  C   UNL     1     -10.258   4.644   6.454  1.00  0.00     0.059 A 
ATOM     66  C   UNL     1      -9.373   2.538   5.689  1.00  0.00     0.059 A 
ATOM     67  F   UNL     1      -7.140   2.273   5.251  1.00  0.00    -0.206 F 
ATOM     68  C   UNL     1     -10.429   3.294   6.168  1.00  0.00     0.060 A 
BRANCH  68  69
ATOM     69  S   UNL     1     -12.026   2.519   6.471  1.00  0.00     0.124 S 
ATOM     70  O   UNL     1     -12.107   2.572   7.926  1.00  0.00    -0.237 OA
ATOM     71  O   UNL     1     -12.932   3.403   5.745  1.00  0.00    -0.237 OA
ATOM     72  O   UNL     1     -11.868   1.186   5.895  1.00  0.00    -0.744 OA
ENDBRANCH  68  69
ENDBRANCH  47  61
BRANCH  48  73
ATOM     73  C   UNL     1      -3.547  -0.188  11.547  1.00  0.00     0.058 A 
ATOM     74  C   UNL     1      -4.265  -0.341  12.748  1.00  0.00     0.135 A 
ATOM     75  C   UNL     1      -3.192  -1.377  10.880  1.00  0.00     0.135 A 
ATOM     76  F   UNL     1      -4.641   0.738  13.453  1.00  0.00    -0.206 F 
ATOM     77  C   UNL     1      -4.689  -1.590  13.212  1.00  0.00     0.059 A 
ATOM     78  C   UNL     1      -3.598  -2.636  11.328  1.00  0.00     0.059 A 
ATOM     79  F   UNL     1      -2.522  -1.341   9.719  1.00  0.00    -0.206 F 
ATOM     80  C   UNL     1      -4.379  -2.731  12.475  1.00  0.00     0.060 A 
BRANCH  80  81
ATOM     81  S   UNL     1      -5.113  -4.314  12.956  1.00  0.00     0.124 S 
ATOM     82  O   UNL     1      -4.455  -4.578  14.231  1.00  0.00    -0.237 OA
ATOM     83  O   UNL     1      -6.532  -3.984  13.028  1.00  0.00    -0.237 OA
ATOM     84  O   UNL     1      -4.738  -5.208  11.863  1.00  0.00    -0.744 OA
ENDBRANCH  80  81
ENDBRANCH  48  73
BRANCH  60  85
ATOM     85  C   UNL     1      -3.633   6.143  11.035  1.00  0.00     0.058 A 
ATOM     86  C   UNL     1      -2.282   5.790  10.890  1.00  0.00     0.135 A 
ATOM     87  C   UNL     1      -3.920   7.307  11.764  1.00  0.00     0.135 A 
ATOM     88  F   UNL     1      -1.921   4.729  10.157  1.00  0.00    -0.206 F 
ATOM     89  C   UNL     1      -1.260   6.560  11.451  1.00  0.00     0.059 A 
ATOM     90  C   UNL     1      -2.919   8.104  12.308  1.00  0.00     0.059 A 
ATOM     91  F   UNL     1      -5.192   7.715  11.904  1.00  0.00    -0.206 F 
ATOM     92  C   UNL     1      -1.589   7.723  12.149  1.00  0.00     0.060 A 
BRANCH  92  93
ATOM     93  S   UNL     1      -0.265   8.776  12.782  1.00  0.00     0.124 S 
ATOM     94  O   UNL     1       0.294   7.959  13.854  1.00  0.00    -0.237 OA
ATOM     95  O   UNL     1       0.587   8.951  11.609  1.00  0.00    -0.237 OA
ATOM     96  O   UNL     1      -0.965   9.982  13.217  1.00  0.00    -0.744 OA
ENDBRANCH  92  93
ENDBRANCH  60  85
ENDBRANCH  34  35
ENDBRANCH  26  29
ENDBRANCH  24  25
ENDBRANCH  23  24
ENDBRANCH   1  23
TORSDOF 18
