REMARK SMILES Cc1cccc2c1[C@H]1c3c(C)cccc3[C@H](CC(=O)NCCCCCCNC(=O)c3ccc(-c4c5nc(c(-c6c(F)cc(S(=O)(=O)[O-])cc6F)c6ccc([nH]6)c(-c6c(F)cc(S(=O)(=O)[O-])cc6F)c6nc(c(-c7c(F)cc(S(=O)(=O)[O-])cc7F)c7ccc4[nH]7)C=C6)C=C5)cc3)C[C@H]1CC2
REMARK SMILES IDX 24 1 23 2 22 3 21 4 20 5 18 6 19 7 17 9 16 10 1 11 2 12 3 13
REMARK SMILES IDX 7 14 4 15 6 16 8 17 5 18 99 19 9 20 97 21 98 22 10 23 15 24
REMARK SMILES IDX 96 25 12 26 11 27 14 28 13 29 25 30 26 31 27 32 28 33 29 35
REMARK SMILES IDX 30 36 31 37 95 38 32 39 94 40 33 41 34 42 35 43 88 44 36 45
REMARK SMILES IDX 93 46 87 47 89 48 37 49 92 50 86 51 85 52 38 54 72 55 51 56
REMARK SMILES IDX 71 57 52 58 55 59 70 60 90 61 53 62 54 63 69 65 91 66 56 67
REMARK SMILES IDX 39 68 40 69 49 70 41 71 42 72 48 73 50 74 43 75 44 76 45 77
REMARK SMILES IDX 46 78 47 79 73 80 74 81 83 82 75 83 76 84 82 85 84 86 77 87
REMARK SMILES IDX 78 88 79 89 80 90 81 91 57 92 58 93 67 94 59 95 60 96 66 97
REMARK SMILES IDX 68 98 61 99 62 100 63 101 64 102 65 103
REMARK H PARENT 20 8 27 34 89 53 55 64
REMARK Flexibility Score: inf
ROOT
ATOM      1  C   UNL     1       3.588  -2.294   1.971  1.00  0.00     0.002 C 
ENDROOT
BRANCH   1   2
ATOM      2  C   UNL     1       2.375  -2.867   1.221  1.00  0.00     0.002 C 
BRANCH   2   3
ATOM      3  C   UNL     1       2.333  -2.585  -0.284  1.00  0.00     0.021 C 
BRANCH   3   4
ATOM      4  C   UNL     1       3.381  -3.323  -1.114  1.00  0.00     0.116 C 
BRANCH   4   5
ATOM      5  N   UNL     1       2.901  -4.620  -1.537  1.00  0.00    -0.356 N 
ATOM      6  C   UNL     1       2.645  -5.094  -2.786  1.00  0.00     0.220 C 
ATOM      7  O   UNL     1       2.233  -6.254  -2.889  1.00  0.00    -0.275 OA
ATOM      8  H   UNL     1       2.732  -5.260  -0.808  1.00  0.00     0.163 HD
BRANCH   6   9
ATOM      9  C   UNL     1       2.927  -4.264  -4.032  1.00  0.00     0.108 C 
BRANCH   9  10
ATOM     10  C   UNL     1       1.966  -3.111  -4.443  1.00  0.00     0.029 C 
ATOM     11  C   UNL     1       0.812   0.860  -0.546  1.00  0.00     0.044 C 
ATOM     12  C   UNL     1       0.275   1.469  -1.804  1.00  0.00    -0.047 A 
ATOM     13  C   UNL     1      -0.313   2.740  -1.707  1.00  0.00     0.004 A 
ATOM     14  C   UNL     1       0.413   0.839  -3.067  1.00  0.00    -0.034 A 
ATOM     15  C   UNL     1      -0.743   3.410  -2.842  1.00  0.00     0.001 A 
ATOM     16  C   UNL     1       0.043   1.567  -4.223  1.00  0.00    -0.044 A 
ATOM     17  C   UNL     1       1.019  -0.560  -3.203  1.00  0.00     0.053 C 
ATOM     18  C   UNL     1      -0.548   2.837  -4.093  1.00  0.00     0.004 A 
ATOM     19  C   UNL     1       0.406   1.112  -5.619  1.00  0.00     0.036 C 
ATOM     20  C   UNL     1       0.102  -1.812  -3.164  1.00  0.00    -0.034 A 
ATOM     21  C   UNL     1       1.899  -0.540  -4.476  1.00  0.00     0.002 C 
ATOM     22  C   UNL     1       1.029  -0.280  -5.708  1.00  0.00     0.009 C 
ATOM     23  C   UNL     1      -1.191  -1.885  -2.563  1.00  0.00    -0.047 A 
ATOM     24  C   UNL     1       0.627  -3.023  -3.723  1.00  0.00    -0.040 A 
ATOM     25  C   UNL     1       2.748  -1.798  -4.560  1.00  0.00     0.013 C 
ATOM     26  C   UNL     1      -1.888  -3.115  -2.527  1.00  0.00     0.004 A 
ATOM     27  C   UNL     1      -1.938  -0.750  -1.913  1.00  0.00     0.044 C 
ATOM     28  C   UNL     1      -0.147  -4.204  -3.726  1.00  0.00     0.004 A 
ATOM     29  C   UNL     1      -1.382  -4.261  -3.111  1.00  0.00     0.001 A 
ENDBRANCH   9  10
ENDBRANCH   6   9
ENDBRANCH   4   5
ENDBRANCH   3   4
ENDBRANCH   2   3
ENDBRANCH   1   2
BRANCH   1  30
ATOM     30  C   UNL     1       3.894  -0.807   1.748  1.00  0.00     0.021 C 
BRANCH  30  31
ATOM     31  C   UNL     1       2.756   0.159   2.071  1.00  0.00     0.116 C 
BRANCH  31  32
ATOM     32  N   UNL     1       2.512   0.329   3.486  1.00  0.00    -0.352 N 
ATOM     33  C   UNL     1       2.411   1.492   4.211  1.00  0.00     0.251 C 
ATOM     34  H   UNL     1       2.402  -0.503   4.002  1.00  0.00     0.163 HD
ATOM     35  O   UNL     1       2.213   1.442   5.423  1.00  0.00    -0.269 OA
BRANCH  33  36
ATOM     36  C   UNL     1       2.587   2.807   3.553  1.00  0.00     0.039 A 
ATOM     37  C   UNL     1       3.580   3.658   4.041  1.00  0.00     0.014 A 
ATOM     38  C   UNL     1       1.766   3.223   2.499  1.00  0.00     0.014 A 
ATOM     39  C   UNL     1       3.775   4.911   3.454  1.00  0.00     0.010 A 
ATOM     40  C   UNL     1       1.988   4.462   1.885  1.00  0.00     0.010 A 
ATOM     41  C   UNL     1       2.988   5.323   2.366  1.00  0.00    -0.014 A 
BRANCH  41  42
ATOM     42  C   UNL     1       3.199   6.672   1.775  1.00  0.00     0.031 A 
ATOM     43  C   UNL     1       2.204   7.773   2.020  1.00  0.00     0.074 A 
ATOM     44  C   UNL     1       4.302   6.923   1.043  1.00  0.00     0.049 A 
ATOM     45  N   UNL     1       2.268   9.034   1.673  1.00  0.00    -0.248 NA
ATOM     46  C   UNL     1       0.977   7.410   2.744  1.00  0.00     0.031 C 
ATOM     47  C   UNL     1       5.331   5.939   0.707  1.00  0.00     0.029 A 
ATOM     48  N   UNL     1       4.746   8.083   0.457  1.00  0.00    -0.354 N 
ATOM     49  C   UNL     1       1.099   9.618   2.146  1.00  0.00     0.074 A 
ATOM     50  C   UNL     1       0.319   8.562   2.756  1.00  0.00     0.031 C 
ATOM     51  C   UNL     1       6.297   6.541  -0.006  1.00  0.00     0.029 A 
ATOM     52  C   UNL     1       5.950   7.949  -0.194  1.00  0.00     0.049 A 
ATOM     53  H   UNL     1       4.249   8.932   0.499  1.00  0.00     0.167 HD
ATOM     54  C   UNL     1       0.722  10.918   2.102  1.00  0.00     0.037 A 
ATOM     55  C   UNL     1       6.695   8.854  -0.859  1.00  0.00     0.037 A 
ATOM     56  C   UNL     1       1.499  11.971   1.502  1.00  0.00     0.049 A 
ATOM     57  C   UNL     1       6.241  10.287  -0.928  1.00  0.00     0.074 A 
ATOM     58  C   UNL     1       1.225  13.328   1.466  1.00  0.00     0.029 A 
ATOM     59  N   UNL     1       2.692  11.787   0.819  1.00  0.00    -0.354 N 
ATOM     60  N   UNL     1       5.173  10.838  -0.401  1.00  0.00    -0.248 NA
ATOM     61  C   UNL     1       7.093  11.223  -1.676  1.00  0.00     0.031 C 
ATOM     62  C   UNL     1       2.226  13.957   0.719  1.00  0.00     0.029 A 
ATOM     63  C   UNL     1       3.148  12.999   0.326  1.00  0.00     0.049 A 
ATOM     64  H   UNL     1       3.148  10.923   0.702  1.00  0.00     0.167 HD
ATOM     65  C   UNL     1       5.229  12.184  -0.745  1.00  0.00     0.074 A 
ATOM     66  C   UNL     1       6.445  12.370  -1.511  1.00  0.00     0.031 C 
ATOM     67  C   UNL     1       4.351  13.175  -0.451  1.00  0.00     0.037 A 
BRANCH  54  68
ATOM     68  C   UNL     1      -0.598  11.277   2.726  1.00  0.00     0.058 A 
ATOM     69  C   UNL     1      -0.773  11.283   4.119  1.00  0.00     0.135 A 
ATOM     70  C   UNL     1      -1.690  11.649   1.927  1.00  0.00     0.135 A 
ATOM     71  F   UNL     1       0.236  10.924   4.929  1.00  0.00    -0.206 F 
ATOM     72  C   UNL     1      -1.993  11.615   4.697  1.00  0.00     0.059 A 
ATOM     73  C   UNL     1      -2.914  12.009   2.485  1.00  0.00     0.059 A 
ATOM     74  F   UNL     1      -1.577  11.661   0.589  1.00  0.00    -0.206 F 
ATOM     75  C   UNL     1      -3.059  11.974   3.871  1.00  0.00     0.060 A 
BRANCH  75  76
ATOM     76  S   UNL     1      -4.639  12.392   4.638  1.00  0.00     0.124 S 
ATOM     77  O   UNL     1      -5.097  11.083   5.092  1.00  0.00    -0.237 OA
ATOM     78  O   UNL     1      -4.239  13.323   5.689  1.00  0.00    -0.237 OA
ATOM     79  O   UNL     1      -5.405  12.979   3.543  1.00  0.00    -0.744 OA
ENDBRANCH  75  76
ENDBRANCH  54  68
BRANCH  55  80
ATOM     80  C   UNL     1       7.970   8.426  -1.493  1.00  0.00     0.058 A 
ATOM     81  C   UNL     1       9.209   8.782  -0.942  1.00  0.00     0.135 A 
ATOM     82  C   UNL     1       7.971   7.610  -2.636  1.00  0.00     0.135 A 
ATOM     83  F   UNL     1       9.258   9.571   0.142  1.00  0.00    -0.206 F 
ATOM     84  C   UNL     1      10.406   8.337  -1.494  1.00  0.00     0.059 A 
ATOM     85  C   UNL     1       9.154   7.137  -3.194  1.00  0.00     0.059 A 
ATOM     86  F   UNL     1       6.810   7.236  -3.196  1.00  0.00    -0.206 F 
ATOM     87  C   UNL     1      10.367   7.505  -2.614  1.00  0.00     0.060 A 
BRANCH  87  88
ATOM     88  S   UNL     1      11.924   6.857  -3.264  1.00  0.00     0.124 S 
ATOM     89  O   UNL     1      12.517   8.050  -3.855  1.00  0.00    -0.237 OA
ATOM     90  O   UNL     1      12.570   6.352  -2.057  1.00  0.00    -0.237 OA
ATOM     91  O   UNL     1      11.492   5.831  -4.209  1.00  0.00    -0.744 OA
ENDBRANCH  87  88
ENDBRANCH  55  80
BRANCH  67  92
ATOM     92  C   UNL     1       4.653  14.556  -0.966  1.00  0.00     0.058 A 
ATOM     93  C   UNL     1       4.484  14.882  -2.320  1.00  0.00     0.135 A 
ATOM     94  C   UNL     1       5.034  15.583  -0.087  1.00  0.00     0.135 A 
ATOM     95  F   UNL     1       4.129  13.936  -3.204  1.00  0.00    -0.206 F 
ATOM     96  C   UNL     1       4.689  16.177  -2.787  1.00  0.00     0.059 A 
ATOM     97  C   UNL     1       5.221  16.890  -0.527  1.00  0.00     0.059 A 
ATOM     98  F   UNL     1       5.201  15.327   1.220  1.00  0.00    -0.206 F 
ATOM     99  C   UNL     1       5.050  17.177  -1.881  1.00  0.00     0.060 A 
BRANCH  99 100
ATOM    100  S   UNL     1       5.257  18.863  -2.494  1.00  0.00     0.124 S 
ATOM    101  O   UNL     1       6.505  18.753  -3.242  1.00  0.00    -0.237 OA
ATOM    102  O   UNL     1       4.052  19.053  -3.296  1.00  0.00    -0.237 OA
ATOM    103  O   UNL     1       5.325  19.663  -1.275  1.00  0.00    -0.744 OA
ENDBRANCH  99 100
ENDBRANCH  67  92
ENDBRANCH  41  42
ENDBRANCH  33  36
ENDBRANCH  31  32
ENDBRANCH  30  31
ENDBRANCH   1  30
TORSDOF 17
