REMARK SMILES NC(=O)[C@@H]1CCC[N@@H+]1[C@@H](C(=O)NCCCCCCNC(=O)c1ccc(-c2c3nc(c(-c4c(F)cc(S(=O)(=O)[O-])cc4F)c4ccc([nH]4)c(-c4c(F)cc(S(=O)(=O)[O-])cc4F)c4nc(c(-c5c(F)cc(S(=O)(=O)[O-])cc5F)c5ccc2[nH]5)C=C4)C=C3)cc1)c1c[nH]c2cc(OCc3ccccc3)ccc12
REMARK SMILES IDX 15 1 14 2 13 3 12 4 10 5 11 6 9 8 8 9 4 10 5 11 6 12 7 13
REMARK SMILES IDX 2 15 1 16 3 19 88 20 89 21 104 22 90 23 91 24 103 25 92 27
REMARK SMILES IDX 102 28 93 29 94 30 95 31 96 32 97 33 101 34 98 35 100 36
REMARK SMILES IDX 99 37 16 38 17 39 18 40 19 41 20 42 21 44 22 45 23 46 87 47
REMARK SMILES IDX 24 48 86 49 25 50 26 51 27 52 80 53 28 54 85 55 79 56 81 57
REMARK SMILES IDX 29 58 84 59 78 60 77 61 30 63 64 64 43 65 63 66 44 67 47 68
REMARK SMILES IDX 62 69 82 70 45 71 46 72 61 74 83 75 48 76 31 77 32 78 41 79
REMARK SMILES IDX 33 80 34 81 40 82 42 83 35 84 36 85 37 86 38 87 39 88 65 89
REMARK SMILES IDX 66 90 75 91 67 92 68 93 74 94 76 95 69 96 70 97 71 98 72 99
REMARK SMILES IDX 73 100 49 101 50 102 59 103 51 104 52 105 58 106 60 107
REMARK SMILES IDX 53 108 54 109 55 110 56 111 57 112
REMARK H PARENT 12 7 8 14 1 17 1 18 90 26 19 43 81 62 47 73
REMARK Flexibility Score: inf
ROOT
ATOM      1  C   UNL     1      -3.041  -3.555   0.281  1.00  0.00     0.002 C 
ENDROOT
BRANCH   1   2
ATOM      2  C   UNL     1      -1.977  -2.452   0.255  1.00  0.00     0.021 C 
BRANCH   2   3
ATOM      3  C   UNL     1      -1.151  -2.284   1.544  1.00  0.00     0.116 C 
BRANCH   3   4
ATOM      4  N   UNL     1      -0.547  -3.522   2.007  1.00  0.00    -0.351 N 
ATOM      5  C   UNL     1       0.703  -4.066   2.062  1.00  0.00     0.283 C 
ATOM      6  O   UNL     1       0.674  -5.236   2.463  1.00  0.00    -0.268 OA
ATOM      7  H   UNL     1      -1.222  -4.133   2.382  1.00  0.00     0.163 HD
BRANCH   5   8
ATOM      8  C   UNL     1       2.034  -3.295   1.769  1.00  0.00     0.308 C 
BRANCH   8   9
ATOM      9  N   UNL     1       2.504  -3.115   0.318  1.00  0.00    -0.311 N 
ATOM     10  C   UNL     1       1.535  -2.684  -0.728  1.00  0.00     0.275 C 
ATOM     11  C   UNL     1       0.763  -3.952  -1.095  1.00  0.00     0.081 C 
ATOM     12  C   UNL     1       1.789  -5.059  -0.895  1.00  0.00     0.068 C 
ATOM     13  C   UNL     1       3.000  -4.313  -0.386  1.00  0.00     0.264 C 
ATOM     14  H   UNL     1       3.191  -2.407   0.577  1.00  0.00     0.349 HD
BRANCH  10  15
ATOM     15  C   UNL     1       0.948  -1.286  -0.614  1.00  0.00     0.275 C 
ATOM     16  N   UNL     1       1.672  -0.400   0.129  1.00  0.00    -0.365 N 
ATOM     17  H   UNL     1       1.350   0.523   0.245  1.00  0.00     0.159 HD
ATOM     18  H   UNL     1       2.516  -0.684   0.549  1.00  0.00     0.159 HD
ATOM     19  O   UNL     1      -0.027  -0.894  -1.251  1.00  0.00    -0.268 OA
ENDBRANCH  10  15
ENDBRANCH   8   9
BRANCH   8  20
ATOM     20  C   UNL     1       3.266  -3.854   2.632  1.00  0.00     0.044 A 
ATOM     21  C   UNL     1       4.532  -3.266   2.631  1.00  0.00     0.094 A 
ATOM     22  C   UNL     1       3.629  -5.243   2.853  1.00  0.00     0.009 A 
ATOM     23  N   UNL     1       5.293  -4.145   1.890  1.00  0.00    -0.361 N 
ATOM     24  C   UNL     1       4.751  -5.401   2.040  1.00  0.00     0.050 A 
ATOM     25  C   UNL     1       3.051  -6.418   3.384  1.00  0.00     0.015 A 
ATOM     26  H   UNL     1       6.084  -3.916   1.349  1.00  0.00     0.166 HD
ATOM     27  C   UNL     1       5.033  -6.613   1.411  1.00  0.00     0.073 A 
ATOM     28  C   UNL     1       3.448  -7.678   2.896  1.00  0.00     0.047 A 
ATOM     29  C   UNL     1       4.331  -7.748   1.826  1.00  0.00     0.121 A 
BRANCH  29  30
ATOM     30  O   UNL     1       4.504  -8.838   1.016  1.00  0.00    -0.489 OA
BRANCH  30  31
ATOM     31  C   UNL     1       4.763 -10.097   1.633  1.00  0.00     0.265 C 
BRANCH  31  32
ATOM     32  C   UNL     1       6.243 -10.351   1.843  1.00  0.00    -0.011 A 
ATOM     33  C   UNL     1       6.700 -11.661   2.040  1.00  0.00     0.007 A 
ATOM     34  C   UNL     1       7.186  -9.314   1.893  1.00  0.00     0.007 A 
ATOM     35  C   UNL     1       8.052 -11.911   2.292  1.00  0.00     0.000 A 
ATOM     36  C   UNL     1       8.532  -9.558   2.147  1.00  0.00     0.000 A 
ATOM     37  C   UNL     1       8.965 -10.860   2.353  1.00  0.00     0.000 A 
ENDBRANCH  31  32
ENDBRANCH  30  31
ENDBRANCH  29  30
ENDBRANCH   8  20
ENDBRANCH   5   8
ENDBRANCH   3   4
ENDBRANCH   2   3
ENDBRANCH   1   2
BRANCH   1  38
ATOM     38  C   UNL     1      -4.462  -3.010   0.140  1.00  0.00     0.002 C 
BRANCH  38  39
ATOM     39  C   UNL     1      -4.755  -2.282  -1.177  1.00  0.00     0.021 C 
BRANCH  39  40
ATOM     40  C   UNL     1      -4.583  -3.135  -2.430  1.00  0.00     0.116 C 
BRANCH  40  41
ATOM     41  N   UNL     1      -5.586  -4.188  -2.487  1.00  0.00    -0.352 N 
ATOM     42  C   UNL     1      -6.683  -4.274  -3.313  1.00  0.00     0.251 C 
ATOM     43  H   UNL     1      -5.465  -4.932  -1.854  1.00  0.00     0.163 HD
ATOM     44  O   UNL     1      -7.614  -5.016  -3.034  1.00  0.00    -0.269 OA
BRANCH  42  45
ATOM     45  C   UNL     1      -6.716  -3.458  -4.546  1.00  0.00     0.039 A 
ATOM     46  C   UNL     1      -7.868  -2.738  -4.866  1.00  0.00     0.014 A 
ATOM     47  C   UNL     1      -5.601  -3.420  -5.389  1.00  0.00     0.014 A 
ATOM     48  C   UNL     1      -7.886  -1.942  -6.014  1.00  0.00     0.010 A 
ATOM     49  C   UNL     1      -5.596  -2.575  -6.494  1.00  0.00     0.010 A 
ATOM     50  C   UNL     1      -6.742  -1.837  -6.825  1.00  0.00    -0.014 A 
BRANCH  50  51
ATOM     51  C   UNL     1      -6.732  -0.977  -8.037  1.00  0.00     0.031 A 
ATOM     52  C   UNL     1      -6.559  -1.601  -9.397  1.00  0.00     0.074 A 
ATOM     53  C   UNL     1      -6.822   0.361  -7.910  1.00  0.00     0.049 A 
ATOM     54  N   UNL     1      -6.444  -1.020 -10.564  1.00  0.00    -0.248 NA
ATOM     55  C   UNL     1      -6.480  -3.070  -9.449  1.00  0.00     0.031 C 
ATOM     56  C   UNL     1      -6.943   1.085  -6.643  1.00  0.00     0.029 A 
ATOM     57  N   UNL     1      -6.808   1.355  -8.857  1.00  0.00    -0.354 N 
ATOM     58  C   UNL     1      -6.279  -2.049 -11.484  1.00  0.00     0.074 A 
ATOM     59  C   UNL     1      -6.242  -3.285 -10.734  1.00  0.00     0.031 C 
ATOM     60  C   UNL     1      -7.001   2.403  -6.891  1.00  0.00     0.029 A 
ATOM     61  C   UNL     1      -6.883   2.623  -8.329  1.00  0.00     0.049 A 
ATOM     62  H   UNL     1      -6.749   1.177  -9.824  1.00  0.00     0.167 HD
ATOM     63  C   UNL     1      -6.196  -1.973 -12.834  1.00  0.00     0.037 A 
ATOM     64  C   UNL     1      -6.846   3.827  -8.935  1.00  0.00     0.037 A 
ATOM     65  C   UNL     1      -6.245  -0.739 -13.574  1.00  0.00     0.049 A 
ATOM     66  C   UNL     1      -6.738   3.886 -10.436  1.00  0.00     0.074 A 
ATOM     67  C   UNL     1      -6.196  -0.555 -14.945  1.00  0.00     0.029 A 
ATOM     68  N   UNL     1      -6.356   0.522 -13.006  1.00  0.00    -0.354 N 
ATOM     69  N   UNL     1      -6.635   2.900 -11.295  1.00  0.00    -0.248 NA
ATOM     70  C   UNL     1      -6.752   5.220 -11.052  1.00  0.00     0.031 C 
ATOM     71  C   UNL     1      -6.237   0.819 -15.204  1.00  0.00     0.029 A 
ATOM     72  C   UNL     1      -6.366   1.488 -13.997  1.00  0.00     0.049 A 
ATOM     73  H   UNL     1      -6.418   0.702 -12.040  1.00  0.00     0.167 HD
ATOM     74  C   UNL     1      -6.601   3.492 -12.553  1.00  0.00     0.074 A 
ATOM     75  C   UNL     1      -6.710   4.921 -12.343  1.00  0.00     0.031 C 
ATOM     76  C   UNL     1      -6.491   2.907 -13.771  1.00  0.00     0.037 A 
BRANCH  63  77
ATOM     77  C   UNL     1      -6.062  -3.262 -13.599  1.00  0.00     0.058 A 
ATOM     78  C   UNL     1      -7.125  -4.177 -13.684  1.00  0.00     0.135 A 
ATOM     79  C   UNL     1      -4.880  -3.570 -14.292  1.00  0.00     0.135 A 
ATOM     80  F   UNL     1      -8.274  -3.942 -13.029  1.00  0.00    -0.206 F 
ATOM     81  C   UNL     1      -7.013  -5.360 -14.407  1.00  0.00     0.059 A 
ATOM     82  C   UNL     1      -4.756  -4.734 -15.047  1.00  0.00     0.059 A 
ATOM     83  F   UNL     1      -3.832  -2.733 -14.245  1.00  0.00    -0.206 F 
ATOM     84  C   UNL     1      -5.825  -5.628 -15.088  1.00  0.00     0.060 A 
BRANCH  84  85
ATOM     85  S   UNL     1      -5.706  -7.160 -16.036  1.00  0.00     0.124 S 
ATOM     86  O   UNL     1      -5.628  -8.156 -14.972  1.00  0.00    -0.237 OA
ATOM     87  O   UNL     1      -6.947  -7.149 -16.803  1.00  0.00    -0.237 OA
ATOM     88  O   UNL     1      -4.486  -6.982 -16.818  1.00  0.00    -0.744 OA
ENDBRANCH  84  85
ENDBRANCH  63  77
BRANCH  64  89
ATOM     89  C   UNL     1      -6.911   5.073  -8.123  1.00  0.00     0.058 A 
ATOM     90  C   UNL     1      -8.027   5.920  -8.177  1.00  0.00     0.135 A 
ATOM     91  C   UNL     1      -5.851   5.445  -7.281  1.00  0.00     0.135 A 
ATOM     92  F   UNL     1      -9.065   5.612  -8.970  1.00  0.00    -0.206 F 
ATOM     93  C   UNL     1      -8.080   7.106  -7.450  1.00  0.00     0.059 A 
ATOM     94  C   UNL     1      -5.893   6.610  -6.521  1.00  0.00     0.059 A 
ATOM     95  F   UNL     1      -4.767   4.661  -7.177  1.00  0.00    -0.206 F 
ATOM     96  C   UNL     1      -7.005   7.443  -6.625  1.00  0.00     0.060 A 
BRANCH  96  97
ATOM     97  S   UNL     1      -7.092   8.972  -5.668  1.00  0.00     0.124 S 
ATOM     98  O   UNL     1      -6.898   9.978  -6.705  1.00  0.00    -0.237 OA
ATOM     99  O   UNL     1      -8.431   8.897  -5.091  1.00  0.00    -0.237 OA
ATOM    100  O   UNL     1      -5.997   8.831  -4.712  1.00  0.00    -0.744 OA
ENDBRANCH  96  97
ENDBRANCH  64  89
BRANCH  76 101
ATOM    101  C   UNL     1      -6.528   3.804 -14.979  1.00  0.00     0.058 A 
ATOM    102  C   UNL     1      -5.454   4.644 -15.311  1.00  0.00     0.135 A 
ATOM    103  C   UNL     1      -7.632   3.777 -15.846  1.00  0.00     0.135 A 
ATOM    104  F   UNL     1      -4.376   4.712 -14.513  1.00  0.00    -0.206 F 
ATOM    105  C   UNL     1      -5.483   5.444 -16.448  1.00  0.00     0.059 A 
ATOM    106  C   UNL     1      -7.670   4.546 -17.005  1.00  0.00     0.059 A 
ATOM    107  F   UNL     1      -8.682   2.983 -15.581  1.00  0.00    -0.206 F 
ATOM    108  C   UNL     1      -6.594   5.385 -17.292  1.00  0.00     0.060 A 
BRANCH 108 109
ATOM    109  S   UNL     1      -6.602   6.400 -18.785  1.00  0.00     0.124 S 
ATOM    110  O   UNL     1      -6.810   7.734 -18.232  1.00  0.00    -0.237 OA
ATOM    111  O   UNL     1      -5.277   6.144 -19.342  1.00  0.00    -0.237 OA
ATOM    112  O   UNL     1      -7.716   5.860 -19.558  1.00  0.00    -0.744 OA
ENDBRANCH 108 109
ENDBRANCH  76 101
ENDBRANCH  50  51
ENDBRANCH  42  45
ENDBRANCH  40  41
ENDBRANCH  39  40
ENDBRANCH  38  39
ENDBRANCH   1  38
TORSDOF 22
