REMARK SMILES CC(C)C[C@H](NC(=O)c1cc(Cl)nnc1Cl)C(=O)NCCCCCCNC(=O)c1ccc(-c2c3nc(c(-c4c(F)cc(S(=O)(=O)[O-])cc4F)c4ccc([nH]4)c(-c4c(F)cc(S(=O)(=O)[O-])cc4F)c4nc(c(-c5c(F)cc(S(=O)(=O)[O-])cc5F)c5ccc2[nH]5)C=C4)C=C3)cc1
REMARK SMILES IDX 23 1 22 2 21 3 20 4 19 5 17 6 18 7 5 9 4 10 2 11 1 12 3 13
REMARK SMILES IDX 6 14 7 15 8 17 9 18 10 19 15 20 11 21 14 22 16 23 12 24
REMARK SMILES IDX 13 25 24 26 25 27 26 28 27 29 28 31 29 32 30 33 94 34 31 35
REMARK SMILES IDX 93 36 32 37 33 38 34 39 87 40 35 41 92 42 86 43 88 44 36 45
REMARK SMILES IDX 91 46 85 47 84 48 37 50 71 51 50 52 70 53 51 54 54 55 69 56
REMARK SMILES IDX 89 57 52 58 53 59 68 61 90 62 55 63 38 64 39 65 48 66 40 67
REMARK SMILES IDX 41 68 47 69 49 70 42 71 43 72 44 73 45 74 46 75 72 76 73 77
REMARK SMILES IDX 82 78 74 79 75 80 81 81 83 82 76 83 77 84 78 85 79 86 80 87
REMARK SMILES IDX 56 88 57 89 66 90 58 91 59 92 65 93 67 94 60 95 61 96 62 97
REMARK SMILES IDX 63 98 64 99
REMARK H PARENT 19 8 6 16 26 30 88 49 54 60
REMARK Flexibility Score: inf
ROOT
ATOM      1  C   UNL     1      -5.601  -1.578   4.976  1.00  0.00     0.002 C 
ENDROOT
BRANCH   1   2
ATOM      2  C   UNL     1      -5.179  -0.237   4.368  1.00  0.00     0.002 C 
BRANCH   2   3
ATOM      3  C   UNL     1      -3.675  -0.072   4.124  1.00  0.00     0.021 C 
BRANCH   3   4
ATOM      4  C   UNL     1      -3.061  -1.132   3.217  1.00  0.00     0.116 C 
BRANCH   4   5
ATOM      5  N   UNL     1      -3.547  -1.017   1.855  1.00  0.00    -0.354 N 
ATOM      6  C   UNL     1      -2.885  -1.202   0.676  1.00  0.00     0.242 C 
ATOM      7  O   UNL     1      -3.520  -1.073  -0.372  1.00  0.00    -0.273 OA
ATOM      8  H   UNL     1      -4.496  -0.769   1.768  1.00  0.00     0.163 HD
BRANCH   6   9
ATOM      9  C   UNL     1      -1.381  -1.552   0.666  1.00  0.00     0.171 C 
BRANCH   9  10
ATOM     10  C   UNL     1      -1.063  -2.913   1.312  1.00  0.00     0.038 C 
BRANCH  10  11
ATOM     11  C   UNL     1      -2.084  -4.054   1.120  1.00  0.00    -0.015 C 
ATOM     12  C   UNL     1      -2.372  -4.371  -0.347  1.00  0.00     0.007 C 
ATOM     13  C   UNL     1      -1.565  -5.314   1.821  1.00  0.00     0.007 C 
ENDBRANCH  10  11
ENDBRANCH   9  10
BRANCH   9  14
ATOM     14  N   UNL     1      -0.690  -0.387   1.264  1.00  0.00    -0.340 N 
ATOM     15  C   UNL     1       0.577  -0.173   1.723  1.00  0.00     0.255 C 
ATOM     16  H   UNL     1      -1.269   0.404   1.347  1.00  0.00     0.164 HD
ATOM     17  O   UNL     1       0.895   0.917   2.185  1.00  0.00    -0.269 OA
BRANCH  15  18
ATOM     18  C   UNL     1       1.553  -1.252   1.770  1.00  0.00     0.082 A 
ATOM     19  C   UNL     1       1.859  -1.810   3.013  1.00  0.00     0.060 A 
ATOM     20  C   UNL     1       2.212  -1.693   0.641  1.00  0.00     0.164 A 
ATOM     21  C   UNL     1       2.778  -2.833   3.034  1.00  0.00     0.152 A 
ATOM     22  N   UNL     1       3.101  -2.704   0.702  1.00  0.00    -0.136 NA
ATOM     23  Cl  UNL     1       1.974  -1.056  -0.932  1.00  0.00    -0.059 Cl
ATOM     24  Cl  UNL     1       3.202  -3.630   4.484  1.00  0.00    -0.060 Cl
ATOM     25  N   UNL     1       3.380  -3.289   1.916  1.00  0.00    -0.137 NA
ENDBRANCH  15  18
ENDBRANCH   9  14
ENDBRANCH   6   9
ENDBRANCH   4   5
ENDBRANCH   3   4
ENDBRANCH   2   3
ENDBRANCH   1   2
BRANCH   1  26
ATOM     26  C   UNL     1      -4.868  -1.976   6.260  1.00  0.00     0.021 C 
BRANCH  26  27
ATOM     27  C   UNL     1      -4.905  -0.932   7.372  1.00  0.00     0.116 C 
BRANCH  27  28
ATOM     28  N   UNL     1      -6.258  -0.665   7.828  1.00  0.00    -0.352 N 
ATOM     29  C   UNL     1      -6.737  -0.665   9.114  1.00  0.00     0.251 C 
ATOM     30  H   UNL     1      -6.915  -0.457   7.125  1.00  0.00     0.163 HD
ATOM     31  O   UNL     1      -7.941  -0.576   9.331  1.00  0.00    -0.269 OA
BRANCH  29  32
ATOM     32  C   UNL     1      -5.783  -0.795  10.232  1.00  0.00     0.039 A 
ATOM     33  C   UNL     1      -5.976  -1.809  11.173  1.00  0.00     0.014 A 
ATOM     34  C   UNL     1      -4.690   0.073  10.331  1.00  0.00     0.014 A 
ATOM     35  C   UNL     1      -5.044  -1.982  12.197  1.00  0.00     0.010 A 
ATOM     36  C   UNL     1      -3.740  -0.128  11.328  1.00  0.00     0.010 A 
ATOM     37  C   UNL     1      -3.914  -1.152  12.272  1.00  0.00    -0.014 A 
BRANCH  37  38
ATOM     38  C   UNL     1      -2.921  -1.317  13.360  1.00  0.00     0.031 A 
ATOM     39  C   UNL     1      -2.837  -0.284  14.448  1.00  0.00     0.074 A 
ATOM     40  C   UNL     1      -2.072  -2.362  13.342  1.00  0.00     0.049 A 
ATOM     41  N   UNL     1      -2.011  -0.218  15.458  1.00  0.00    -0.248 NA
ATOM     42  C   UNL     1      -3.797   0.831  14.381  1.00  0.00     0.031 C 
ATOM     43  C   UNL     1      -2.034  -3.405  12.314  1.00  0.00     0.029 A 
ATOM     44  N   UNL     1      -1.066  -2.712  14.207  1.00  0.00    -0.354 N 
ATOM     45  C   UNL     1      -2.345   0.943  16.143  1.00  0.00     0.074 A 
ATOM     46  C   UNL     1      -3.421   1.575  15.411  1.00  0.00     0.031 C 
ATOM     47  C   UNL     1      -1.056  -4.278  12.610  1.00  0.00     0.029 A 
ATOM     48  C   UNL     1      -0.386  -3.847  13.834  1.00  0.00     0.049 A 
ATOM     49  H   UNL     1      -0.851  -2.198  15.018  1.00  0.00     0.167 HD
ATOM     50  C   UNL     1      -1.818   1.425  17.292  1.00  0.00     0.037 A 
ATOM     51  C   UNL     1       0.662  -4.466  14.413  1.00  0.00     0.037 A 
ATOM     52  C   UNL     1      -0.771   0.775  18.034  1.00  0.00     0.049 A 
ATOM     53  C   UNL     1       1.228  -3.910  15.692  1.00  0.00     0.074 A 
ATOM     54  C   UNL     1      -0.217   1.150  19.245  1.00  0.00     0.029 A 
ATOM     55  N   UNL     1      -0.122  -0.384  17.636  1.00  0.00    -0.354 N 
ATOM     56  N   UNL     1       0.855  -2.846  16.363  1.00  0.00    -0.248 NA
ATOM     57  C   UNL     1       2.352  -4.640  16.298  1.00  0.00     0.031 C 
ATOM     58  C   UNL     1       0.791   0.235  19.565  1.00  0.00     0.029 A 
ATOM     59  C   UNL     1       0.841  -0.728  18.570  1.00  0.00     0.049 A 
ATOM     60  H   UNL     1      -0.316  -0.887  16.813  1.00  0.00     0.167 HD
ATOM     61  C   UNL     1       1.684  -2.790  17.477  1.00  0.00     0.074 A 
ATOM     62  C   UNL     1       2.571  -3.932  17.398  1.00  0.00     0.031 C 
ATOM     63  C   UNL     1       1.709  -1.874  18.476  1.00  0.00     0.037 A 
BRANCH  50  64
ATOM     64  C   UNL     1      -2.377   2.707  17.837  1.00  0.00     0.058 A 
ATOM     65  C   UNL     1      -3.630   2.745  18.466  1.00  0.00     0.135 A 
ATOM     66  C   UNL     1      -1.624   3.890  17.795  1.00  0.00     0.135 A 
ATOM     67  F   UNL     1      -4.397   1.644  18.515  1.00  0.00    -0.206 F 
ATOM     68  C   UNL     1      -4.122   3.916  19.032  1.00  0.00     0.059 A 
ATOM     69  C   UNL     1      -2.087   5.069  18.372  1.00  0.00     0.059 A 
ATOM     70  F   UNL     1      -0.422   3.906  17.197  1.00  0.00    -0.206 F 
ATOM     71  C   UNL     1      -3.340   5.072  18.985  1.00  0.00     0.060 A 
BRANCH  71  72
ATOM     72  S   UNL     1      -3.977   6.572  19.762  1.00  0.00     0.124 S 
ATOM     73  O   UNL     1      -5.031   6.958  18.829  1.00  0.00    -0.237 OA
ATOM     74  O   UNL     1      -4.428   6.082  21.060  1.00  0.00    -0.237 OA
ATOM     75  O   UNL     1      -2.816   7.456  19.797  1.00  0.00    -0.744 OA
ENDBRANCH  71  72
ENDBRANCH  50  64
BRANCH  51  76
ATOM     76  C   UNL     1       1.237  -5.689  13.797  1.00  0.00     0.058 A 
ATOM     77  C   UNL     1       1.040  -6.950  14.377  1.00  0.00     0.135 A 
ATOM     78  C   UNL     1       1.991  -5.622  12.616  1.00  0.00     0.135 A 
ATOM     79  F   UNL     1       0.331  -7.063  15.511  1.00  0.00    -0.206 F 
ATOM     80  C   UNL     1       1.583  -8.102  13.818  1.00  0.00     0.059 A 
ATOM     81  C   UNL     1       2.529  -6.762  12.027  1.00  0.00     0.059 A 
ATOM     82  F   UNL     1       2.194  -4.440  12.014  1.00  0.00    -0.206 F 
ATOM     83  C   UNL     1       2.327  -7.997  12.641  1.00  0.00     0.060 A 
BRANCH  83  84
ATOM     84  S   UNL     1       2.990  -9.504  11.898  1.00  0.00     0.124 S 
ATOM     85  O   UNL     1       4.098  -9.810  12.795  1.00  0.00    -0.237 OA
ATOM     86  O   UNL     1       1.846 -10.408  11.963  1.00  0.00    -0.237 OA
ATOM     87  O   UNL     1       3.364  -9.076  10.553  1.00  0.00    -0.744 OA
ENDBRANCH  83  84
ENDBRANCH  51  76
BRANCH  63  88
ATOM     88  C   UNL     1       2.714  -2.069  19.574  1.00  0.00     0.058 A 
ATOM     89  C   UNL     1       4.070  -1.763  19.384  1.00  0.00     0.135 A 
ATOM     90  C   UNL     1       2.303  -2.482  20.851  1.00  0.00     0.135 A 
ATOM     91  F   UNL     1       4.511  -1.370  18.180  1.00  0.00    -0.206 F 
ATOM     92  C   UNL     1       4.987  -1.868  20.424  1.00  0.00     0.059 A 
ATOM     93  C   UNL     1       3.200  -2.574  21.910  1.00  0.00     0.059 A 
ATOM     94  F   UNL     1       1.014  -2.777  21.084  1.00  0.00    -0.206 F 
ATOM     95  C   UNL     1       4.542  -2.270  21.685  1.00  0.00     0.060 A 
BRANCH  95  96
ATOM     96  S   UNL     1       5.733  -2.346  23.039  1.00  0.00     0.124 S 
ATOM     97  O   UNL     1       6.474  -3.559  22.710  1.00  0.00    -0.237 OA
ATOM     98  O   UNL     1       6.466  -1.093  22.882  1.00  0.00    -0.237 OA
ATOM     99  O   UNL     1       4.891  -2.427  24.229  1.00  0.00    -0.744 OA
ENDBRANCH  95  96
ENDBRANCH  63  88
ENDBRANCH  37  38
ENDBRANCH  29  32
ENDBRANCH  27  28
ENDBRANCH  26  27
ENDBRANCH   1  26
TORSDOF 20
