REMARK SMILES Nc1nc2ccccc2nc1N1CCCC[C@@H]1C(=O)NCCCCCCNC(=O)c1ccc(-c2c3nc(c(-c4c(F)cc(S(=O)(=O)[O-])cc4F)c4ccc([nH]4)c(-c4c(F)cc(S(=O)(=O)[O-])cc4F)c4nc(c(-c5c(F)cc(S(=O)(=O)[O-])cc5F)c5ccc2[nH]5)C=C4)C=C3)cc1
REMARK SMILES IDX 24 1 23 2 22 3 21 4 20 5 18 6 19 7 17 9 12 10 13 11 14 12
REMARK SMILES IDX 16 13 15 14 11 15 2 16 3 17 4 18 10 19 5 20 9 21 6 22 8 23
REMARK SMILES IDX 7 24 1 25 25 28 26 29 27 30 28 31 29 33 30 34 31 35 95 36
REMARK SMILES IDX 32 37 94 38 33 39 34 40 35 41 88 42 36 43 93 44 87 45 89 46
REMARK SMILES IDX 37 47 92 48 86 49 85 50 38 52 72 53 51 54 71 55 52 56 55 57
REMARK SMILES IDX 70 58 90 59 53 60 54 61 69 63 91 64 56 65 39 66 40 67 49 68
REMARK SMILES IDX 41 69 42 70 48 71 50 72 43 73 44 74 45 75 46 76 47 77 73 78
REMARK SMILES IDX 74 79 83 80 75 81 76 82 82 83 84 84 77 85 78 86 79 87 80 88
REMARK SMILES IDX 81 89 57 90 58 91 67 92 59 93 60 94 66 95 68 96 61 97 62 98
REMARK SMILES IDX 63 99 64 100 65 101
REMARK H PARENT 20 8 1 26 1 27 27 32 89 51 55 62
REMARK Flexibility Score: inf
ROOT
ATOM      1  C   UNL     1      -4.104   0.290   4.375  1.00  0.00     0.002 C 
ENDROOT
BRANCH   1   2
ATOM      2  C   UNL     1      -3.244   1.473   4.835  1.00  0.00     0.002 C 
BRANCH   2   3
ATOM      3  C   UNL     1      -1.799   1.129   5.214  1.00  0.00     0.021 C 
BRANCH   3   4
ATOM      4  C   UNL     1      -1.007   0.455   4.097  1.00  0.00     0.116 C 
BRANCH   4   5
ATOM      5  N   UNL     1      -0.738   1.381   3.012  1.00  0.00    -0.354 N 
ATOM      6  C   UNL     1       0.441   1.698   2.401  1.00  0.00     0.242 C 
ATOM      7  O   UNL     1       0.413   2.596   1.550  1.00  0.00    -0.273 OA
ATOM      8  H   UNL     1      -1.527   1.855   2.663  1.00  0.00     0.163 HD
BRANCH   6   9
ATOM      9  C   UNL     1       1.785   1.046   2.808  1.00  0.00     0.173 C 
ATOM     10  N   UNL     1       1.812  -0.432   2.815  1.00  0.00    -0.342 N 
ATOM     11  C   UNL     1       2.965  -1.111   3.385  1.00  0.00     0.119 C 
ATOM     12  C   UNL     1       3.225  -0.598   4.795  1.00  0.00     0.022 C 
ATOM     13  C   UNL     1       2.196   1.613   4.184  1.00  0.00     0.035 C 
ATOM     14  C   UNL     1       3.408   0.915   4.791  1.00  0.00     0.004 C 
BRANCH  10  15
ATOM     15  C   UNL     1       0.910  -1.228   2.135  1.00  0.00     0.172 A 
ATOM     16  C   UNL     1       0.535  -1.036   0.783  1.00  0.00     0.167 A 
ATOM     17  N   UNL     1      -0.479  -1.720   0.214  1.00  0.00    -0.226 NA
ATOM     18  C   UNL     1      -1.117  -2.617   0.988  1.00  0.00     0.091 A 
ATOM     19  N   UNL     1       0.319  -2.199   2.870  1.00  0.00    -0.225 NA
ATOM     20  C   UNL     1      -2.219  -3.301   0.488  1.00  0.00     0.031 A 
ATOM     21  C   UNL     1      -0.705  -2.868   2.316  1.00  0.00     0.091 A 
ATOM     22  C   UNL     1      -2.925  -4.216   1.271  1.00  0.00     0.002 A 
ATOM     23  C   UNL     1      -1.405  -3.790   3.083  1.00  0.00     0.031 A 
ATOM     24  C   UNL     1      -2.516  -4.462   2.575  1.00  0.00     0.002 A 
BRANCH  16  25
ATOM     25  N   UNL     1       1.155  -0.108  -0.039  1.00  0.00    -0.381 N 
ATOM     26  H   UNL     1       0.863  -0.006  -0.974  1.00  0.00     0.158 HD
ATOM     27  H   UNL     1       1.887   0.449   0.312  1.00  0.00     0.158 HD
ENDBRANCH  16  25
ENDBRANCH  10  15
ENDBRANCH   6   9
ENDBRANCH   4   5
ENDBRANCH   3   4
ENDBRANCH   2   3
ENDBRANCH   1   2
BRANCH   1  28
ATOM     28  C   UNL     1      -4.147  -0.901   5.334  1.00  0.00     0.021 C 
BRANCH  28  29
ATOM     29  C   UNL     1      -4.604  -0.569   6.750  1.00  0.00     0.116 C 
BRANCH  29  30
ATOM     30  N   UNL     1      -5.961  -0.047   6.798  1.00  0.00    -0.352 N 
ATOM     31  C   UNL     1      -7.001  -0.398   7.625  1.00  0.00     0.251 C 
ATOM     32  H   UNL     1      -6.163   0.660   6.143  1.00  0.00     0.163 HD
ATOM     33  O   UNL     1      -8.125   0.054   7.422  1.00  0.00    -0.269 OA
BRANCH  31  34
ATOM     34  C   UNL     1      -6.771  -1.344   8.739  1.00  0.00     0.039 A 
ATOM     35  C   UNL     1      -5.637  -1.235   9.546  1.00  0.00     0.014 A 
ATOM     36  C   UNL     1      -7.699  -2.364   8.973  1.00  0.00     0.014 A 
ATOM     37  C   UNL     1      -5.349  -2.233  10.470  1.00  0.00     0.010 A 
ATOM     38  C   UNL     1      -7.452  -3.317   9.967  1.00  0.00     0.010 A 
ATOM     39  C   UNL     1      -6.251  -3.288  10.692  1.00  0.00    -0.014 A 
BRANCH  39  40
ATOM     40  C   UNL     1      -5.904  -4.332  11.693  1.00  0.00     0.031 A 
ATOM     41  C   UNL     1      -5.665  -5.759  11.274  1.00  0.00     0.074 A 
ATOM     42  C   UNL     1      -5.724  -3.968  12.979  1.00  0.00     0.049 A 
ATOM     43  N   UNL     1      -5.254  -6.769  11.998  1.00  0.00    -0.248 NA
ATOM     44  C   UNL     1      -5.922  -6.101   9.866  1.00  0.00     0.031 C 
ATOM     45  C   UNL     1      -5.935  -2.617  13.504  1.00  0.00     0.029 A 
ATOM     46  N   UNL     1      -5.285  -4.680  14.066  1.00  0.00    -0.354 N 
ATOM     47  C   UNL     1      -5.211  -7.863  11.141  1.00  0.00     0.074 A 
ATOM     48  C   UNL     1      -5.675  -7.404   9.850  1.00  0.00     0.031 C 
ATOM     49  C   UNL     1      -5.555  -2.580  14.789  1.00  0.00     0.029 A 
ATOM     50  C   UNL     1      -5.128  -3.914  15.197  1.00  0.00     0.049 A 
ATOM     51  H   UNL     1      -5.101  -5.647  14.039  1.00  0.00     0.167 HD
ATOM     52  C   UNL     1      -4.803  -9.128  11.402  1.00  0.00     0.037 A 
ATOM     53  C   UNL     1      -4.685  -4.243  16.427  1.00  0.00     0.037 A 
ATOM     54  C   UNL     1      -4.321  -9.573  12.684  1.00  0.00     0.049 A 
ATOM     55  C   UNL     1      -4.262  -5.658  16.698  1.00  0.00     0.074 A 
ATOM     56  C   UNL     1      -3.865 -10.830  13.040  1.00  0.00     0.029 A 
ATOM     57  N   UNL     1      -4.232  -8.778  13.818  1.00  0.00    -0.354 N 
ATOM     58  N   UNL     1      -4.205  -6.671  15.867  1.00  0.00    -0.248 NA
ATOM     59  C   UNL     1      -3.853  -5.982  18.072  1.00  0.00     0.031 C 
ATOM     60  C   UNL     1      -3.537 -10.807  14.399  1.00  0.00     0.029 A 
ATOM     61  C   UNL     1      -3.746  -9.524  14.879  1.00  0.00     0.049 A 
ATOM     62  H   UNL     1      -4.477  -7.826  13.861  1.00  0.00     0.167 HD
ATOM     63  C   UNL     1      -3.743  -7.748  16.613  1.00  0.00     0.074 A 
ATOM     64  C   UNL     1      -3.524  -7.263  17.960  1.00  0.00     0.031 C 
ATOM     65  C   UNL     1      -3.524  -9.024  16.213  1.00  0.00     0.037 A 
BRANCH  52  66
ATOM     66  C   UNL     1      -4.853 -10.130  10.281  1.00  0.00     0.058 A 
ATOM     67  C   UNL     1      -3.937 -10.088   9.218  1.00  0.00     0.135 A 
ATOM     68  C   UNL     1      -5.787 -11.179  10.299  1.00  0.00     0.135 A 
ATOM     69  F   UNL     1      -3.032  -9.099   9.144  1.00  0.00    -0.206 F 
ATOM     70  C   UNL     1      -3.958 -11.038   8.202  1.00  0.00     0.059 A 
ATOM     71  C   UNL     1      -5.810 -12.155   9.306  1.00  0.00     0.059 A 
ATOM     72  F   UNL     1      -6.684 -11.268  11.294  1.00  0.00    -0.206 F 
ATOM     73  C   UNL     1      -4.898 -12.068   8.255  1.00  0.00     0.060 A 
BRANCH  73  74
ATOM     74  S   UNL     1      -4.905 -13.293   6.929  1.00  0.00     0.124 S 
ATOM     75  O   UNL     1      -5.422 -12.508   5.812  1.00  0.00    -0.237 OA
ATOM     76  O   UNL     1      -3.497 -13.666   6.842  1.00  0.00    -0.237 OA
ATOM     77  O   UNL     1      -5.798 -14.334   7.429  1.00  0.00    -0.744 OA
ENDBRANCH  73  74
ENDBRANCH  52  66
BRANCH  53  78
ATOM     78  C   UNL     1      -4.600  -3.195  17.477  1.00  0.00     0.058 A 
ATOM     79  C   UNL     1      -3.359  -2.706  17.909  1.00  0.00     0.135 A 
ATOM     80  C   UNL     1      -5.758  -2.617  18.023  1.00  0.00     0.135 A 
ATOM     81  F   UNL     1      -2.225  -3.230  17.420  1.00  0.00    -0.206 F 
ATOM     82  C   UNL     1      -3.267  -1.678  18.842  1.00  0.00     0.059 A 
ATOM     83  C   UNL     1      -5.691  -1.572  18.939  1.00  0.00     0.059 A 
ATOM     84  F   UNL     1      -6.969  -3.040  17.630  1.00  0.00    -0.206 F 
ATOM     85  C   UNL     1      -4.440  -1.111  19.344  1.00  0.00     0.060 A 
BRANCH  85  86
ATOM     86  S   UNL     1      -4.307   0.275  20.493  1.00  0.00     0.124 S 
ATOM     87  O   UNL     1      -3.827  -0.388  21.699  1.00  0.00    -0.237 OA
ATOM     88  O   UNL     1      -3.348   1.143  19.816  1.00  0.00    -0.237 OA
ATOM     89  O   UNL     1      -5.671   0.791  20.556  1.00  0.00    -0.744 OA
ENDBRANCH  85  86
ENDBRANCH  53  78
BRANCH  65  90
ATOM     90  C   UNL     1      -3.008 -10.002  17.230  1.00  0.00     0.058 A 
ATOM     91  C   UNL     1      -3.858 -10.571  18.189  1.00  0.00     0.135 A 
ATOM     92  C   UNL     1      -1.686 -10.470  17.158  1.00  0.00     0.135 A 
ATOM     93  F   UNL     1      -5.127 -10.149  18.303  1.00  0.00    -0.206 F 
ATOM     94  C   UNL     1      -3.419 -11.583  19.035  1.00  0.00     0.059 A 
ATOM     95  C   UNL     1      -1.231 -11.495  17.980  1.00  0.00     0.059 A 
ATOM     96  F   UNL     1      -0.837  -9.959  16.253  1.00  0.00    -0.206 F 
ATOM     97  C   UNL     1      -2.108 -12.050  18.913  1.00  0.00     0.060 A 
BRANCH  97  98
ATOM     98  S   UNL     1      -1.585 -13.433  19.948  1.00  0.00     0.124 S 
ATOM     99  O   UNL     1      -1.507 -12.805  21.263  1.00  0.00    -0.237 OA
ATOM    100  O   UNL     1      -2.676 -14.386  19.765  1.00  0.00    -0.237 OA
ATOM    101  O   UNL     1      -0.308 -13.832  19.366  1.00  0.00    -0.744 OA
ENDBRANCH  97  98
ENDBRANCH  65  90
ENDBRANCH  39  40
ENDBRANCH  31  34
ENDBRANCH  29  30
ENDBRANCH  28  29
ENDBRANCH   1  28
TORSDOF 18
