REMARK SMILES C=CCN(CC(=O)NCCCCCCNC(=O)c1ccc(-c2c3nc(c(-c4c(F)cc(S(=O)(=O)[O-])cc4F)c4ccc([nH]4)c(-c4c(F)cc(S(=O)(=O)[O-])cc4F)c4nc(c(-c5c(F)cc(S(=O)(=O)[O-])cc5F)c5ccc2[nH]5)C=C4)C=C3)cc1)C(=O)c1cc(OC)ccc1Br
REMARK SMILES IDX 11 1 10 2 9 3 8 4 6 5 7 6 5 8 4 9 3 10 2 11 1 12 84 13 85 14
REMARK SMILES IDX 86 15 87 16 93 17 88 18 92 19 94 20 91 21 89 22 90 23 12 24
REMARK SMILES IDX 13 25 14 26 15 27 16 28 17 30 18 31 19 32 83 33 20 34 82 35
REMARK SMILES IDX 21 36 22 37 23 38 76 39 24 40 81 41 75 42 77 43 25 44 80 45
REMARK SMILES IDX 74 46 73 47 26 49 60 50 39 51 59 52 40 53 43 54 58 55 78 56
REMARK SMILES IDX 41 57 42 58 57 60 79 61 44 62 27 63 28 64 37 65 29 66 30 67
REMARK SMILES IDX 36 68 38 69 31 70 32 71 33 72 34 73 35 74 61 75 62 76 71 77
REMARK SMILES IDX 63 78 64 79 70 80 72 81 65 82 66 83 67 84 68 85 69 86 45 87
REMARK SMILES IDX 46 88 55 89 47 90 48 91 54 92 56 93 49 94 50 95 51 96 52 97
REMARK SMILES IDX 53 98
REMARK H PARENT 8 7 15 29 77 48 43 59
REMARK Flexibility Score: inf
ROOT
ATOM      1  C   UNL     1      -5.736  -0.446  -1.138  1.00  0.00     0.002 C 
ENDROOT
BRANCH   1   2
ATOM      2  C   UNL     1      -4.364  -0.288  -0.467  1.00  0.00     0.021 C 
BRANCH   2   3
ATOM      3  C   UNL     1      -4.367  -0.493   1.048  1.00  0.00     0.116 C 
BRANCH   3   4
ATOM      4  N   UNL     1      -4.662  -1.853   1.452  1.00  0.00    -0.355 N 
ATOM      5  C   UNL     1      -3.856  -2.882   1.836  1.00  0.00     0.239 C 
ATOM      6  O   UNL     1      -4.415  -3.869   2.330  1.00  0.00    -0.273 OA
ATOM      7  H   UNL     1      -5.621  -2.074   1.449  1.00  0.00     0.163 HD
BRANCH   5   8
ATOM      8  C   UNL     1      -2.318  -2.814   1.812  1.00  0.00     0.220 C 
BRANCH   8   9
ATOM      9  N   UNL     1      -1.674  -2.345   0.578  1.00  0.00    -0.326 N 
BRANCH   9  10
ATOM     10  C   UNL     1      -1.068  -1.014   0.602  1.00  0.00     0.147 C 
BRANCH  10  11
ATOM     11  C   UNL     1       0.418  -1.085   0.780  1.00  0.00    -0.014 C 
ATOM     12  C   UNL     1       1.274  -0.388   0.019  1.00  0.00     0.006 C 
ENDBRANCH  10  11
ENDBRANCH   9  10
BRANCH   9  13
ATOM     13  C   UNL     1      -1.539  -3.117  -0.588  1.00  0.00     0.255 C 
ATOM     14  O   UNL     1      -1.001  -2.702  -1.612  1.00  0.00    -0.269 OA
BRANCH  13  15
ATOM     15  C   UNL     1      -1.988  -4.534  -0.599  1.00  0.00     0.057 A 
ATOM     16  C   UNL     1      -1.002  -5.531  -0.640  1.00  0.00     0.061 A 
ATOM     17  C   UNL     1      -3.323  -4.921  -0.733  1.00  0.00     0.031 A 
ATOM     18  C   UNL     1      -1.375  -6.877  -0.725  1.00  0.00     0.119 A 
ATOM     19  C   UNL     1      -3.691  -6.263  -0.617  1.00  0.00     0.020 A 
ATOM     20  Br  UNL     1      -4.678  -3.784  -1.377  1.00  0.00    -0.050 Br
ATOM     21  C   UNL     1      -2.713  -7.244  -0.592  1.00  0.00     0.047 A 
BRANCH  18  22
ATOM     22  O   UNL     1      -0.387  -7.792  -0.981  1.00  0.00    -0.497 OA
ATOM     23  C   UNL     1      -0.801  -8.805  -1.907  1.00  0.00     0.278 C 
ENDBRANCH  18  22
ENDBRANCH  13  15
ENDBRANCH   9  13
ENDBRANCH   8   9
ENDBRANCH   5   8
ENDBRANCH   3   4
ENDBRANCH   2   3
ENDBRANCH   1   2
BRANCH   1  24
ATOM     24  C   UNL     1      -6.831   0.499  -0.650  1.00  0.00     0.002 C 
BRANCH  24  25
ATOM     25  C   UNL     1      -6.481   1.981  -0.733  1.00  0.00     0.021 C 
BRANCH  25  26
ATOM     26  C   UNL     1      -6.145   2.467  -2.138  1.00  0.00     0.116 C 
BRANCH  26  27
ATOM     27  N   UNL     1      -7.285   2.371  -3.038  1.00  0.00    -0.352 N 
ATOM     28  C   UNL     1      -7.928   3.367  -3.728  1.00  0.00     0.251 C 
ATOM     29  H   UNL     1      -7.646   1.465  -3.169  1.00  0.00     0.163 HD
ATOM     30  O   UNL     1      -9.010   3.142  -4.272  1.00  0.00    -0.269 OA
BRANCH  28  31
ATOM     31  C   UNL     1      -7.329   4.716  -3.798  1.00  0.00     0.039 A 
ATOM     32  C   UNL     1      -8.137   5.833  -3.577  1.00  0.00     0.014 A 
ATOM     33  C   UNL     1      -5.967   4.875  -4.070  1.00  0.00     0.014 A 
ATOM     34  C   UNL     1      -7.565   7.107  -3.566  1.00  0.00     0.010 A 
ATOM     35  C   UNL     1      -5.385   6.136  -3.978  1.00  0.00     0.010 A 
ATOM     36  C   UNL     1      -6.178   7.266  -3.729  1.00  0.00    -0.014 A 
BRANCH  36  37
ATOM     37  C   UNL     1      -5.540   8.605  -3.643  1.00  0.00     0.031 A 
ATOM     38  C   UNL     1      -4.832   9.183  -4.839  1.00  0.00     0.074 A 
ATOM     39  C   UNL     1      -5.546   9.272  -2.472  1.00  0.00     0.049 A 
ATOM     40  N   UNL     1      -4.164  10.303  -4.941  1.00  0.00    -0.248 NA
ATOM     41  C   UNL     1      -4.856   8.385  -6.076  1.00  0.00     0.031 C 
ATOM     42  C   UNL     1      -6.156   8.794  -1.229  1.00  0.00     0.029 A 
ATOM     43  N   UNL     1      -5.013  10.490  -2.130  1.00  0.00    -0.354 N 
ATOM     44  C   UNL     1      -3.680  10.339  -6.244  1.00  0.00     0.074 A 
ATOM     45  C   UNL     1      -4.083   9.103  -6.878  1.00  0.00     0.031 C 
ATOM     46  C   UNL     1      -5.983   9.717  -0.269  1.00  0.00     0.029 A 
ATOM     47  C   UNL     1      -5.216  10.833  -0.814  1.00  0.00     0.049 A 
ATOM     48  H   UNL     1      -4.530  11.064  -2.768  1.00  0.00     0.167 HD
ATOM     49  C   UNL     1      -2.984  11.323  -6.862  1.00  0.00     0.037 A 
ATOM     50  C   UNL     1      -4.822  11.920  -0.121  1.00  0.00     0.037 A 
ATOM     51  C   UNL     1      -2.606  12.560  -6.230  1.00  0.00     0.049 A 
ATOM     52  C   UNL     1      -4.043  12.996  -0.828  1.00  0.00     0.074 A 
ATOM     53  C   UNL     1      -1.951  13.645  -6.788  1.00  0.00     0.029 A 
ATOM     54  N   UNL     1      -2.844  12.878  -4.901  1.00  0.00    -0.354 N 
ATOM     55  N   UNL     1      -3.652  13.043  -2.080  1.00  0.00    -0.248 NA
ATOM     56  C   UNL     1      -3.655  14.169  -0.033  1.00  0.00     0.031 C 
ATOM     57  C   UNL     1      -1.750  14.597  -5.783  1.00  0.00     0.029 A 
ATOM     58  C   UNL     1      -2.328  14.131  -4.614  1.00  0.00     0.049 A 
ATOM     59  H   UNL     1      -3.311  12.298  -4.257  1.00  0.00     0.167 HD
ATOM     60  C   UNL     1      -2.997  14.261  -2.228  1.00  0.00     0.074 A 
ATOM     61  C   UNL     1      -3.057  14.925  -0.943  1.00  0.00     0.031 C 
ATOM     62  C   UNL     1      -2.401  14.782  -3.329  1.00  0.00     0.037 A 
BRANCH  49  63
ATOM     63  C   UNL     1      -2.590  11.105  -8.298  1.00  0.00     0.058 A 
ATOM     64  C   UNL     1      -3.542  11.095  -9.331  1.00  0.00     0.135 A 
ATOM     65  C   UNL     1      -1.241  10.945  -8.653  1.00  0.00     0.135 A 
ATOM     66  F   UNL     1      -4.848  11.228  -9.049  1.00  0.00    -0.206 F 
ATOM     67  C   UNL     1      -3.174  10.907 -10.659  1.00  0.00     0.059 A 
ATOM     68  C   UNL     1      -0.847  10.786  -9.979  1.00  0.00     0.059 A 
ATOM     69  F   UNL     1      -0.288  10.946  -7.708  1.00  0.00    -0.206 F 
ATOM     70  C   UNL     1      -1.823  10.755 -10.974  1.00  0.00     0.060 A 
BRANCH  70  71
ATOM     71  S   UNL     1      -1.363  10.525 -12.704  1.00  0.00     0.124 S 
ATOM     72  O   UNL     1      -1.832   9.165 -12.951  1.00  0.00    -0.237 OA
ATOM     73  O   UNL     1      -2.114  11.584 -13.370  1.00  0.00    -0.237 OA
ATOM     74  O   UNL     1       0.086  10.696 -12.697  1.00  0.00    -0.744 OA
ENDBRANCH  70  71
ENDBRANCH  49  63
BRANCH  50  75
ATOM     75  C   UNL     1      -5.171  12.052   1.320  1.00  0.00     0.058 A 
ATOM     76  C   UNL     1      -6.096  13.012   1.754  1.00  0.00     0.135 A 
ATOM     77  C   UNL     1      -4.593  11.217   2.289  1.00  0.00     0.135 A 
ATOM     78  F   UNL     1      -6.671  13.839   0.867  1.00  0.00    -0.206 F 
ATOM     79  C   UNL     1      -6.421  13.156   3.099  1.00  0.00     0.059 A 
ATOM     80  C   UNL     1      -4.923  11.322   3.636  1.00  0.00     0.059 A 
ATOM     81  F   UNL     1      -3.715  10.269   1.925  1.00  0.00    -0.206 F 
ATOM     82  C   UNL     1      -5.831  12.303   4.033  1.00  0.00     0.060 A 
BRANCH  82  83
ATOM     83  S   UNL     1      -6.292  12.469   5.771  1.00  0.00     0.124 S 
ATOM     84  O   UNL     1      -5.619  13.710   6.137  1.00  0.00    -0.237 OA
ATOM     85  O   UNL     1      -7.749  12.529   5.697  1.00  0.00    -0.237 OA
ATOM     86  O   UNL     1      -5.754  11.255   6.378  1.00  0.00    -0.744 OA
ENDBRANCH  82  83
ENDBRANCH  50  75
BRANCH  62  87
ATOM     87  C   UNL     1      -1.793  16.153  -3.205  1.00  0.00     0.058 A 
ATOM     88  C   UNL     1      -0.611  16.375  -2.481  1.00  0.00     0.135 A 
ATOM     89  C   UNL     1      -2.373  17.249  -3.864  1.00  0.00     0.135 A 
ATOM     90  F   UNL     1      -0.019  15.363  -1.826  1.00  0.00    -0.206 F 
ATOM     91  C   UNL     1      -0.039  17.640  -2.395  1.00  0.00     0.059 A 
ATOM     92  C   UNL     1      -1.802  18.517  -3.817  1.00  0.00     0.059 A 
ATOM     93  F   UNL     1      -3.498  17.090  -4.580  1.00  0.00    -0.206 F 
ATOM     94  C   UNL     1      -0.641  18.705  -3.069  1.00  0.00     0.060 A 
BRANCH  94  95
ATOM     95  S   UNL     1       0.131  20.334  -2.976  1.00  0.00     0.124 S 
ATOM     96  O   UNL     1      -0.185  20.732  -1.608  1.00  0.00    -0.237 OA
ATOM     97  O   UNL     1       1.534  20.030  -3.240  1.00  0.00    -0.237 OA
ATOM     98  O   UNL     1      -0.547  21.092  -4.023  1.00  0.00    -0.744 OA
ENDBRANCH  94  95
ENDBRANCH  62  87
ENDBRANCH  36  37
ENDBRANCH  28  31
ENDBRANCH  26  27
ENDBRANCH  25  26
ENDBRANCH  24  25
ENDBRANCH   1  24
TORSDOF 22
