REMARK SMILES CC[C@](C)(NC(=O)[C@](C)([NH3+])c1ccccc1)C(=O)NCCCCCCNC(=O)c1ccc(-c2c3nc(c(-c4c(F)cc(S(=O)(=O)[O-])cc4F)c4ccc([nH]4)c(-c4c(F)cc(S(=O)(=O)[O-])cc4F)c4nc(c(-c5c(F)cc(S(=O)(=O)[O-])cc5F)c5ccc2[nH]5)C=C4)C=C3)cc1
REMARK SMILES IDX 22 1 21 2 20 3 19 4 17 5 18 6 3 8 4 9 2 10 1 11 5 12 6 13
REMARK SMILES IDX 7 15 8 16 9 17 10 18 11 22 12 23 16 24 13 25 15 26 14 27
REMARK SMILES IDX 23 28 24 29 25 30 26 31 27 32 28 34 29 35 30 36 94 37 31 38
REMARK SMILES IDX 93 39 32 40 33 41 34 42 87 43 35 44 92 45 86 46 88 47 36 48
REMARK SMILES IDX 91 49 85 50 84 51 37 53 71 54 50 55 70 56 51 57 54 58 69 59
REMARK SMILES IDX 89 60 52 61 53 62 68 64 90 65 55 66 38 67 39 68 48 69 40 70
REMARK SMILES IDX 41 71 47 72 49 73 42 74 43 75 44 76 45 77 46 78 72 79 73 80
REMARK SMILES IDX 82 81 74 82 75 83 81 84 83 85 76 86 77 87 78 88 79 89 80 90
REMARK SMILES IDX 56 91 57 92 66 93 58 94 59 95 65 96 67 97 60 98 61 99 62 100
REMARK SMILES IDX 63 101 64 102
REMARK H PARENT 19 7 5 14 10 19 10 20 10 21 26 33 88 52 54 63
REMARK Flexibility Score: inf
ROOT
ATOM      1  C   UNL     1       5.661  -3.861   4.785  1.00  0.00     0.002 C 
ENDROOT
BRANCH   1   2
ATOM      2  C   UNL     1       5.488  -4.415   3.380  1.00  0.00     0.021 C 
BRANCH   2   3
ATOM      3  C   UNL     1       4.533  -5.598   3.175  1.00  0.00     0.116 C 
BRANCH   3   4
ATOM      4  N   UNL     1       3.251  -5.637   3.890  1.00  0.00    -0.354 N 
ATOM      5  C   UNL     1       1.952  -5.471   3.442  1.00  0.00     0.245 C 
ATOM      6  O   UNL     1       1.043  -6.076   4.016  1.00  0.00    -0.272 OA
ATOM      7  H   UNL     1       3.329  -5.812   4.856  1.00  0.00     0.163 HD
BRANCH   5   8
ATOM      8  C   UNL     1       1.684  -4.668   2.160  1.00  0.00     0.116 C 
ATOM      9  C   UNL     1       0.239  -4.222   1.887  1.00  0.00     0.045 C 
BRANCH   8  10
ATOM     10  C   UNL     1       2.009  -5.742   1.047  1.00  0.00     0.035 C 
ATOM     11  C   UNL     1       2.564  -5.277  -0.285  1.00  0.00     0.007 C 
ENDBRANCH   8  10
BRANCH   8  12
ATOM     12  N   UNL     1       2.563  -3.487   2.267  1.00  0.00    -0.336 N 
ATOM     13  C   UNL     1       2.743  -2.478   3.174  1.00  0.00     0.286 C 
ATOM     14  H   UNL     1       3.171  -3.406   1.497  1.00  0.00     0.164 HD
ATOM     15  O   UNL     1       3.608  -1.666   2.773  1.00  0.00    -0.267 OA
BRANCH  13  16
ATOM     16  C   UNL     1       2.003  -2.118   4.597  1.00  0.00     0.196 C 
ATOM     17  C   UNL     1       0.478  -2.107   4.512  1.00  0.00     0.096 C 
BRANCH  16  18
ATOM     18  N   UNL     1       2.333  -0.645   4.751  1.00  0.00    -0.341 N 
ATOM     19  H   UNL     1       1.922  -0.293   5.616  1.00  0.00     0.345 HD
ATOM     20  H   UNL     1       1.955  -0.126   3.959  1.00  0.00     0.345 HD
ATOM     21  H   UNL     1       3.346  -0.525   4.784  1.00  0.00     0.345 HD
ENDBRANCH  16  18
BRANCH  16  22
ATOM     22  C   UNL     1       2.462  -2.835   5.909  1.00  0.00     0.022 A 
ATOM     23  C   UNL     1       1.985  -4.103   6.282  1.00  0.00     0.011 A 
ATOM     24  C   UNL     1       3.294  -2.213   6.873  1.00  0.00     0.011 A 
ATOM     25  C   UNL     1       2.428  -4.780   7.432  1.00  0.00     0.001 A 
ATOM     26  C   UNL     1       3.696  -2.857   8.058  1.00  0.00     0.001 A 
ATOM     27  C   UNL     1       3.293  -4.158   8.320  1.00  0.00     0.000 A 
ENDBRANCH  16  22
ENDBRANCH  13  16
ENDBRANCH   8  12
ENDBRANCH   5   8
ENDBRANCH   3   4
ENDBRANCH   2   3
ENDBRANCH   1   2
BRANCH   1  28
ATOM     28  C   UNL     1       5.925  -4.884   5.883  1.00  0.00     0.002 C 
BRANCH  28  29
ATOM     29  C   UNL     1       7.306  -5.518   5.827  1.00  0.00     0.021 C 
BRANCH  29  30
ATOM     30  C   UNL     1       8.446  -4.547   6.101  1.00  0.00     0.116 C 
BRANCH  30  31
ATOM     31  N   UNL     1       8.433  -3.980   7.449  1.00  0.00    -0.352 N 
ATOM     32  C   UNL     1       9.515  -3.726   8.259  1.00  0.00     0.251 C 
ATOM     33  H   UNL     1       7.549  -3.756   7.819  1.00  0.00     0.163 HD
ATOM     34  O   UNL     1       9.374  -3.314   9.407  1.00  0.00    -0.269 OA
BRANCH  32  35
ATOM     35  C   UNL     1      10.859  -4.015   7.719  1.00  0.00     0.039 A 
ATOM     36  C   UNL     1      11.672  -4.942   8.372  1.00  0.00     0.014 A 
ATOM     37  C   UNL     1      11.219  -3.497   6.472  1.00  0.00     0.014 A 
ATOM     38  C   UNL     1      12.807  -5.427   7.721  1.00  0.00     0.010 A 
ATOM     39  C   UNL     1      12.288  -4.060   5.789  1.00  0.00     0.010 A 
ATOM     40  C   UNL     1      13.092  -5.034   6.402  1.00  0.00    -0.014 A 
BRANCH  40  41
ATOM     41  C   UNL     1      14.221  -5.626   5.638  1.00  0.00     0.031 A 
ATOM     42  C   UNL     1      15.316  -4.735   5.116  1.00  0.00     0.074 A 
ATOM     43  C   UNL     1      14.219  -6.942   5.339  1.00  0.00     0.049 A 
ATOM     44  N   UNL     1      16.338  -5.036   4.359  1.00  0.00    -0.248 NA
ATOM     45  C   UNL     1      15.222  -3.305   5.454  1.00  0.00     0.031 C 
ATOM     46  C   UNL     1      13.180  -7.901   5.724  1.00  0.00     0.029 A 
ATOM     47  N   UNL     1      15.120  -7.702   4.635  1.00  0.00    -0.354 N 
ATOM     48  C   UNL     1      16.986  -3.833   4.104  1.00  0.00     0.074 A 
ATOM     49  C   UNL     1      16.204  -2.790   4.731  1.00  0.00     0.031 C 
ATOM     50  C   UNL     1      13.526  -9.125   5.294  1.00  0.00     0.029 A 
ATOM     51  C   UNL     1      14.789  -9.036   4.569  1.00  0.00     0.049 A 
ATOM     52  H   UNL     1      15.928  -7.327   4.216  1.00  0.00     0.167 HD
ATOM     53  C   UNL     1      18.145  -3.616   3.438  1.00  0.00     0.037 A 
ATOM     54  C   UNL     1      15.437 -10.069   3.996  1.00  0.00     0.037 A 
ATOM     55  C   UNL     1      18.946  -4.664   2.866  1.00  0.00     0.049 A 
ATOM     56  C   UNL     1      16.742  -9.812   3.291  1.00  0.00     0.074 A 
ATOM     57  C   UNL     1      20.179  -4.566   2.248  1.00  0.00     0.029 A 
ATOM     58  N   UNL     1      18.593  -6.006   2.849  1.00  0.00    -0.354 N 
ATOM     59  N   UNL     1      17.380  -8.677   3.125  1.00  0.00    -0.248 NA
ATOM     60  C   UNL     1      17.417 -10.975   2.698  1.00  0.00     0.031 C 
ATOM     61  C   UNL     1      20.556  -5.845   1.824  1.00  0.00     0.029 A 
ATOM     62  C   UNL     1      19.578  -6.746   2.215  1.00  0.00     0.049 A 
ATOM     63  H   UNL     1      17.766  -6.378   3.230  1.00  0.00     0.167 HD
ATOM     64  C   UNL     1      18.547  -8.994   2.438  1.00  0.00     0.074 A 
ATOM     65  C   UNL     1      18.528 -10.427   2.224  1.00  0.00     0.031 C 
ATOM     66  C   UNL     1      19.544  -8.174   2.023  1.00  0.00     0.037 A 
BRANCH  53  67
ATOM     67  C   UNL     1      18.609  -2.191   3.309  1.00  0.00     0.058 A 
ATOM     68  C   UNL     1      19.047  -1.453   4.421  1.00  0.00     0.135 A 
ATOM     69  C   UNL     1      18.603  -1.550   2.060  1.00  0.00     0.135 A 
ATOM     70  F   UNL     1      19.058  -2.011   5.642  1.00  0.00    -0.206 F 
ATOM     71  C   UNL     1      19.411  -0.115   4.309  1.00  0.00     0.059 A 
ATOM     72  C   UNL     1      18.995  -0.221   1.919  1.00  0.00     0.059 A 
ATOM     73  F   UNL     1      18.197  -2.208   0.963  1.00  0.00    -0.206 F 
ATOM     74  C   UNL     1      19.373   0.494   3.055  1.00  0.00     0.060 A 
BRANCH  74  75
ATOM     75  S   UNL     1      19.821   2.238   2.929  1.00  0.00     0.124 S 
ATOM     76  O   UNL     1      18.630   2.882   3.475  1.00  0.00    -0.237 OA
ATOM     77  O   UNL     1      21.019   2.316   3.759  1.00  0.00    -0.237 OA
ATOM     78  O   UNL     1      20.039   2.430   1.499  1.00  0.00    -0.744 OA
ENDBRANCH  74  75
ENDBRANCH  53  67
BRANCH  54  79
ATOM     79  C   UNL     1      14.896 -11.450   4.115  1.00  0.00     0.058 A 
ATOM     80  C   UNL     1      15.526 -12.394   4.941  1.00  0.00     0.135 A 
ATOM     81  C   UNL     1      13.743 -11.853   3.426  1.00  0.00     0.135 A 
ATOM     82  F   UNL     1      16.636 -12.058   5.616  1.00  0.00    -0.206 F 
ATOM     83  C   UNL     1      15.042 -13.691   5.070  1.00  0.00     0.059 A 
ATOM     84  C   UNL     1      13.226 -13.140   3.556  1.00  0.00     0.059 A 
ATOM     85  F   UNL     1      13.093 -10.985   2.636  1.00  0.00    -0.206 F 
ATOM     86  C   UNL     1      13.888 -14.055   4.374  1.00  0.00     0.060 A 
BRANCH  86  87
ATOM     87  S   UNL     1      13.238 -15.726   4.590  1.00  0.00     0.124 S 
ATOM     88  O   UNL     1      14.200 -16.516   3.831  1.00  0.00    -0.237 OA
ATOM     89  O   UNL     1      13.282 -15.887   6.041  1.00  0.00    -0.237 OA
ATOM     90  O   UNL     1      11.898 -15.640   4.018  1.00  0.00    -0.744 OA
ENDBRANCH  86  87
ENDBRANCH  54  79
BRANCH  66  91
ATOM     91  C   UNL     1      20.716  -8.809   1.329  1.00  0.00     0.058 A 
ATOM     92  C   UNL     1      20.625  -9.287   0.013  1.00  0.00     0.135 A 
ATOM     93  C   UNL     1      21.962  -8.889   1.973  1.00  0.00     0.135 A 
ATOM     94  F   UNL     1      19.454  -9.239  -0.643  1.00  0.00    -0.206 F 
ATOM     95  C   UNL     1      21.723  -9.842  -0.634  1.00  0.00     0.059 A 
ATOM     96  C   UNL     1      23.080  -9.417   1.335  1.00  0.00     0.059 A 
ATOM     97  F   UNL     1      22.105  -8.436   3.229  1.00  0.00    -0.206 F 
ATOM     98  C   UNL     1      22.947  -9.901   0.035  1.00  0.00     0.060 A 
BRANCH  98  99
ATOM     99  S   UNL     1      24.374 -10.590  -0.829  1.00  0.00     0.124 S 
ATOM    100  O   UNL     1      24.084 -12.019  -0.782  1.00  0.00    -0.237 OA
ATOM    101  O   UNL     1      24.275  -9.967  -2.145  1.00  0.00    -0.237 OA
ATOM    102  O   UNL     1      25.506 -10.151  -0.019  1.00  0.00    -0.744 OA
ENDBRANCH  98  99
ENDBRANCH  66  91
ENDBRANCH  40  41
ENDBRANCH  32  35
ENDBRANCH  30  31
ENDBRANCH  29  30
ENDBRANCH  28  29
ENDBRANCH   1  28
TORSDOF 21
