REMARK SMILES C[N@@H+]1CCN(C(=O)c2ccc3[nH]c4c(c3c2)CSCC4)C[C@H]1C(=O)NCCCCCCNC(=O)c1ccc(-c2c3nc(c(-c4c(F)cc(S(=O)(=O)[O-])cc4F)c4ccc([nH]4)c(-c4c(F)cc(S(=O)(=O)[O-])cc4F)c4nc(c(-c5c(F)cc(S(=O)(=O)[O-])cc5F)c5ccc2[nH]5)C=C4)C=C3)cc1
REMARK SMILES IDX 29 1 28 2 27 3 26 4 25 5 23 6 24 7 22 9 1 10 2 11 3 12 4 14
REMARK SMILES IDX 21 15 5 16 6 17 7 18 8 19 9 20 16 21 10 22 15 23 11 24 14 25
REMARK SMILES IDX 12 26 13 27 17 28 20 30 18 31 19 32 30 33 31 34 32 35 33 36
REMARK SMILES IDX 34 38 35 39 36 40 100 41 37 42 99 43 38 44 39 45 40 46 93 47
REMARK SMILES IDX 41 48 98 49 92 50 94 51 42 52 97 53 91 54 90 55 43 57 77 58
REMARK SMILES IDX 56 59 76 60 57 61 60 62 75 63 95 64 58 65 59 66 74 68 96 69
REMARK SMILES IDX 61 70 44 71 45 72 54 73 46 74 47 75 53 76 55 77 48 78 49 79
REMARK SMILES IDX 50 80 51 81 52 82 78 83 79 84 88 85 80 86 81 87 87 88 89 89
REMARK SMILES IDX 82 90 83 91 84 92 85 93 86 94 62 95 63 96 72 97 64 98 65 99
REMARK SMILES IDX 71 100 73 101 66 102 67 103 68 104 69 105 70 106
REMARK H PARENT 25 8 2 13 12 29 32 37 94 56 60 67
REMARK Flexibility Score: inf
ROOT
ATOM      1  C   UNL     1       1.369  -3.266  -5.376  1.00  0.00     0.002 C 
ENDROOT
BRANCH   1   2
ATOM      2  C   UNL     1       2.379  -2.571  -4.459  1.00  0.00     0.002 C 
BRANCH   2   3
ATOM      3  C   UNL     1       1.825  -1.395  -3.649  1.00  0.00     0.021 C 
BRANCH   3   4
ATOM      4  C   UNL     1       0.644  -1.752  -2.753  1.00  0.00     0.116 C 
BRANCH   4   5
ATOM      5  N   UNL     1       1.041  -2.644  -1.678  1.00  0.00    -0.351 N 
ATOM      6  C   UNL     1       1.006  -2.443  -0.330  1.00  0.00     0.280 C 
ATOM      7  O   UNL     1       1.481  -3.316   0.404  1.00  0.00    -0.268 OA
ATOM      8  H   UNL     1       1.386  -3.520  -1.963  1.00  0.00     0.163 HD
BRANCH   6   9
ATOM      9  C   UNL     1       0.360  -1.187   0.274  1.00  0.00     0.293 C 
ATOM     10  C   UNL     1       2.422   0.128   0.193  1.00  0.00     0.333 C 
ATOM     11  N   UNL     1       1.011   0.076  -0.197  1.00  0.00    -0.324 N 
ATOM     12  C   UNL     1       0.284   1.236   0.365  1.00  0.00     0.284 C 
ATOM     13  H   UNL     1       0.972   0.102  -1.216  1.00  0.00     0.348 HD
ATOM     14  C   UNL     1      -1.225   1.211   0.056  1.00  0.00     0.181 C 
ATOM     15  C   UNL     1      -1.158  -1.247  -0.003  1.00  0.00     0.195 C 
ATOM     16  N   UNL     1      -1.852  -0.043   0.471  1.00  0.00    -0.326 N 
BRANCH  16  17
ATOM     17  C   UNL     1      -3.151  -0.011   0.971  1.00  0.00     0.254 C 
ATOM     18  O   UNL     1      -3.774   1.031   1.166  1.00  0.00    -0.269 OA
BRANCH  17  19
ATOM     19  C   UNL     1      -3.835  -1.289   1.265  1.00  0.00     0.040 A 
ATOM     20  C   UNL     1      -3.303  -2.182   2.199  1.00  0.00     0.016 A 
ATOM     21  C   UNL     1      -5.034  -1.568   0.595  1.00  0.00     0.024 A 
ATOM     22  C   UNL     1      -3.908  -3.421   2.425  1.00  0.00     0.027 A 
ATOM     23  C   UNL     1      -5.676  -2.799   0.833  1.00  0.00     0.004 A 
ATOM     24  C   UNL     1      -5.088  -3.701   1.724  1.00  0.00     0.046 A 
ATOM     25  C   UNL     1      -6.886  -3.394   0.357  1.00  0.00    -0.009 A 
ATOM     26  N   UNL     1      -5.880  -4.828   1.741  1.00  0.00    -0.358 N 
ATOM     27  C   UNL     1      -6.984  -4.632   0.963  1.00  0.00     0.021 A 
ATOM     28  C   UNL     1      -7.881  -2.791  -0.582  1.00  0.00     0.107 C 
ATOM     29  H   UNL     1      -5.679  -5.652   2.241  1.00  0.00     0.166 HD
ATOM     30  C   UNL     1      -8.086  -5.621   0.812  1.00  0.00     0.065 C 
ATOM     31  S   UNL     1      -9.313  -3.853  -0.983  1.00  0.00    -0.157 SA
ATOM     32  C   UNL     1      -9.402  -4.897   0.514  1.00  0.00     0.076 C 
ENDBRANCH  17  19
ENDBRANCH  16  17
ENDBRANCH   6   9
ENDBRANCH   4   5
ENDBRANCH   3   4
ENDBRANCH   2   3
ENDBRANCH   1   2
BRANCH   1  33
ATOM     33  C   UNL     1       0.630  -2.351  -6.358  1.00  0.00     0.021 C 
BRANCH  33  34
ATOM     34  C   UNL     1       1.536  -1.514  -7.263  1.00  0.00     0.116 C 
BRANCH  34  35
ATOM     35  N   UNL     1       2.468  -2.290  -8.053  1.00  0.00    -0.352 N 
ATOM     36  C   UNL     1       2.403  -2.941  -9.254  1.00  0.00     0.251 C 
ATOM     37  H   UNL     1       3.353  -2.366  -7.628  1.00  0.00     0.163 HD
ATOM     38  O   UNL     1       3.475  -3.372  -9.690  1.00  0.00    -0.269 OA
BRANCH  36  39
ATOM     39  C   UNL     1       1.154  -3.211 -10.020  1.00  0.00     0.039 A 
ATOM     40  C   UNL     1      -0.112  -2.719  -9.708  1.00  0.00     0.014 A 
ATOM     41  C   UNL     1       1.278  -4.083 -11.120  1.00  0.00     0.014 A 
ATOM     42  C   UNL     1      -1.231  -3.160 -10.405  1.00  0.00     0.010 A 
ATOM     43  C   UNL     1       0.164  -4.508 -11.840  1.00  0.00     0.010 A 
ATOM     44  C   UNL     1      -1.099  -4.075 -11.454  1.00  0.00    -0.014 A 
BRANCH  44  45
ATOM     45  C   UNL     1      -2.310  -4.434 -12.188  1.00  0.00     0.031 A 
ATOM     46  C   UNL     1      -3.013  -3.284 -12.821  1.00  0.00     0.074 A 
ATOM     47  C   UNL     1      -2.759  -5.691 -12.368  1.00  0.00     0.049 A 
ATOM     48  N   UNL     1      -4.176  -2.805 -12.521  1.00  0.00    -0.248 NA
ATOM     49  C   UNL     1      -2.280  -2.492 -13.819  1.00  0.00     0.031 C 
ATOM     50  C   UNL     1      -2.085  -6.948 -12.046  1.00  0.00     0.029 A 
ATOM     51  N   UNL     1      -3.913  -6.104 -12.970  1.00  0.00    -0.354 N 
ATOM     52  C   UNL     1      -4.414  -1.772 -13.423  1.00  0.00     0.074 A 
ATOM     53  C   UNL     1      -3.162  -1.528 -14.091  1.00  0.00     0.031 C 
ATOM     54  C   UNL     1      -2.740  -7.969 -12.644  1.00  0.00     0.029 A 
ATOM     55  C   UNL     1      -3.943  -7.457 -13.283  1.00  0.00     0.049 A 
ATOM     56  H   UNL     1      -4.660  -5.494 -13.166  1.00  0.00     0.167 HD
ATOM     57  C   UNL     1      -5.676  -1.329 -13.685  1.00  0.00     0.037 A 
ATOM     58  C   UNL     1      -4.859  -8.097 -14.056  1.00  0.00     0.037 A 
ATOM     59  C   UNL     1      -6.598  -1.739 -12.656  1.00  0.00     0.049 A 
ATOM     60  C   UNL     1      -6.096  -7.271 -14.044  1.00  0.00     0.074 A 
ATOM     61  C   UNL     1      -6.676  -1.538 -11.291  1.00  0.00     0.029 A 
ATOM     62  N   UNL     1      -7.457  -2.776 -12.929  1.00  0.00    -0.354 N 
ATOM     63  N   UNL     1      -6.845  -7.097 -12.989  1.00  0.00    -0.248 NA
ATOM     64  C   UNL     1      -6.269  -6.282 -15.097  1.00  0.00     0.031 C 
ATOM     65  C   UNL     1      -7.178  -2.762 -10.766  1.00  0.00     0.029 A 
ATOM     66  C   UNL     1      -7.430  -3.614 -11.844  1.00  0.00     0.049 A 
ATOM     67  H   UNL     1      -7.991  -2.895 -13.747  1.00  0.00     0.167 HD
ATOM     68  C   UNL     1      -7.249  -5.771 -13.055  1.00  0.00     0.074 A 
ATOM     69  C   UNL     1      -6.946  -5.350 -14.421  1.00  0.00     0.031 C 
ATOM     70  C   UNL     1      -7.535  -5.054 -11.928  1.00  0.00     0.037 A 
BRANCH  57  71
ATOM     71  C   UNL     1      -6.149  -0.823 -15.029  1.00  0.00     0.058 A 
ATOM     72  C   UNL     1      -7.455  -0.299 -15.150  1.00  0.00     0.135 A 
ATOM     73  C   UNL     1      -5.494  -1.103 -16.248  1.00  0.00     0.135 A 
ATOM     74  F   UNL     1      -8.172   0.013 -14.058  1.00  0.00    -0.206 F 
ATOM     75  C   UNL     1      -8.095  -0.160 -16.381  1.00  0.00     0.059 A 
ATOM     76  C   UNL     1      -6.095  -0.920 -17.489  1.00  0.00     0.059 A 
ATOM     77  F   UNL     1      -4.279  -1.659 -16.299  1.00  0.00    -0.206 F 
ATOM     78  C   UNL     1      -7.412  -0.496 -17.544  1.00  0.00     0.060 A 
BRANCH  78  79
ATOM     79  S   UNL     1      -8.277  -0.448 -19.123  1.00  0.00     0.124 S 
ATOM     80  O   UNL     1      -9.230  -1.540 -18.964  1.00  0.00    -0.237 OA
ATOM     81  O   UNL     1      -8.838   0.898 -19.118  1.00  0.00    -0.237 OA
ATOM     82  O   UNL     1      -7.212  -0.675 -20.096  1.00  0.00    -0.744 OA
ENDBRANCH  78  79
ENDBRANCH  57  71
BRANCH  58  83
ATOM     83  C   UNL     1      -4.628  -9.206 -15.026  1.00  0.00     0.058 A 
ATOM     84  C   UNL     1      -5.698  -9.872 -15.653  1.00  0.00     0.135 A 
ATOM     85  C   UNL     1      -3.349  -9.463 -15.564  1.00  0.00     0.135 A 
ATOM     86  F   UNL     1      -6.957  -9.674 -15.232  1.00  0.00    -0.206 F 
ATOM     87  C   UNL     1      -5.517 -10.702 -16.768  1.00  0.00     0.059 A 
ATOM     88  C   UNL     1      -3.142 -10.297 -16.662  1.00  0.00     0.059 A 
ATOM     89  F   UNL     1      -2.259  -8.838 -15.098  1.00  0.00    -0.206 F 
ATOM     90  C   UNL     1      -4.233 -10.893 -17.277  1.00  0.00     0.060 A 
BRANCH  90  91
ATOM     91  S   UNL     1      -4.005 -11.826 -18.810  1.00  0.00     0.124 S 
ATOM     92  O   UNL     1      -4.395 -13.172 -18.407  1.00  0.00    -0.237 OA
ATOM     93  O   UNL     1      -4.915 -11.143 -19.723  1.00  0.00    -0.237 OA
ATOM     94  O   UNL     1      -2.585 -11.652 -19.106  1.00  0.00    -0.744 OA
ENDBRANCH  90  91
ENDBRANCH  58  83
BRANCH  70  95
ATOM     95  C   UNL     1      -7.706  -5.780 -10.619  1.00  0.00     0.058 A 
ATOM     96  C   UNL     1      -6.684  -6.498  -9.975  1.00  0.00     0.135 A 
ATOM     97  C   UNL     1      -8.886  -5.554  -9.891  1.00  0.00     0.135 A 
ATOM     98  F   UNL     1      -5.490  -6.676 -10.558  1.00  0.00    -0.206 F 
ATOM     99  C   UNL     1      -6.834  -6.981  -8.674  1.00  0.00     0.059 A 
ATOM    100  C   UNL     1      -9.044  -5.996  -8.581  1.00  0.00     0.059 A 
ATOM    101  F   UNL     1      -9.879  -4.826 -10.430  1.00  0.00    -0.206 F 
ATOM    102  C   UNL     1      -8.013  -6.711  -7.978  1.00  0.00     0.060 A 
BRANCH 102 103
ATOM    103  S   UNL     1      -8.142  -7.221  -6.250  1.00  0.00     0.124 S 
ATOM    104  O   UNL     1      -8.212  -8.673  -6.361  1.00  0.00    -0.237 OA
ATOM    105  O   UNL     1      -6.914  -6.687  -5.672  1.00  0.00    -0.237 OA
ATOM    106  O   UNL     1      -9.372  -6.571  -5.795  1.00  0.00    -0.744 OA
ENDBRANCH 102 103
ENDBRANCH  70  95
ENDBRANCH  44  45
ENDBRANCH  36  39
ENDBRANCH  34  35
ENDBRANCH  33  34
ENDBRANCH   1  33
TORSDOF 18
