REMARK SMILES COc1cc(F)c(C[N@H+]2CCC[C@@](CC3CC3)(C(=O)NCCCCCCNC(=O)c3ccc(-c4c5nc(c(-c6c(F)cc(S(=O)(=O)[O-])cc6F)c6ccc([nH]6)c(-c6c(F)cc(S(=O)(=O)[O-])cc6F)c6nc(c(-c7c(F)cc(S(=O)(=O)[O-])cc7F)c7ccc4[nH]7)C=C6)C=C5)cc3)C2)cc1OC
REMARK SMILES IDX 23 1 22 2 21 3 20 4 18 5 19 6 13 8 9 9 10 10 96 11 11 13
REMARK SMILES IDX 12 14 8 15 7 16 3 17 4 18 98 19 5 20 97 21 6 22 2 23 1 24
REMARK SMILES IDX 99 25 100 26 14 27 15 28 16 29 17 30 24 31 25 32 26 33 27 34
REMARK SMILES IDX 28 35 29 37 30 38 31 39 95 40 32 41 94 42 33 43 34 44 35 45
REMARK SMILES IDX 88 46 36 47 93 48 87 49 89 50 37 51 92 52 86 53 85 54 38 56
REMARK SMILES IDX 72 57 51 58 71 59 52 60 55 61 70 62 90 63 53 64 54 65 69 67
REMARK SMILES IDX 91 68 56 69 39 70 40 71 49 72 41 73 42 74 48 75 50 76 43 77
REMARK SMILES IDX 44 78 45 79 46 80 47 81 73 82 74 83 83 84 75 85 76 86 82 87
REMARK SMILES IDX 84 88 77 89 78 90 79 91 80 92 81 93 57 94 58 95 67 96 59 97
REMARK SMILES IDX 60 98 66 99 68 100 61 101 62 102 63 103 64 104 65 105
REMARK H PARENT 20 7 9 12 27 36 89 55 55 66
REMARK Flexibility Score: inf
ROOT
ATOM      1  C   UNL     1      -4.227 -11.048   0.218  1.00  0.00     0.002 C 
ENDROOT
BRANCH   1   2
ATOM      2  C   UNL     1      -2.844 -10.451  -0.041  1.00  0.00     0.021 C 
BRANCH   2   3
ATOM      3  C   UNL     1      -2.684  -9.900  -1.446  1.00  0.00     0.116 C 
BRANCH   3   4
ATOM      4  N   UNL     1      -2.804  -8.481  -1.550  1.00  0.00    -0.355 N 
ATOM      5  C   UNL     1      -2.047  -7.677  -2.342  1.00  0.00     0.231 C 
ATOM      6  O   UNL     1      -2.623  -6.657  -2.741  1.00  0.00    -0.274 OA
ATOM      7  H   UNL     1      -3.496  -8.047  -1.000  1.00  0.00     0.163 HD
BRANCH   5   8
ATOM      8  C   UNL     1      -0.558  -8.002  -2.726  1.00  0.00     0.098 C 
ATOM      9  N   UNL     1       1.383  -6.394  -3.381  1.00  0.00    -0.330 N 
ATOM     10  C   UNL     1       2.169  -6.820  -2.220  1.00  0.00     0.262 C 
ATOM     11  C   UNL     1      -0.057  -6.573  -3.152  1.00  0.00     0.279 C 
ATOM     12  H   UNL     1       1.654  -7.003  -4.153  1.00  0.00     0.348 HD
ATOM     13  C   UNL     1       1.802  -8.238  -1.780  1.00  0.00     0.063 C 
ATOM     14  C   UNL     1       0.303  -8.372  -1.502  1.00  0.00     0.028 C 
BRANCH   9  15
ATOM     15  C   UNL     1       1.696  -5.003  -3.804  1.00  0.00     0.302 C 
BRANCH  15  16
ATOM     16  C   UNL     1       1.470  -3.908  -2.776  1.00  0.00     0.046 A 
ATOM     17  C   UNL     1       1.053  -2.077  -0.673  1.00  0.00     0.163 A 
ATOM     18  C   UNL     1       2.350  -2.448  -1.042  1.00  0.00     0.090 A 
ATOM     19  C   UNL     1      -0.048  -2.602  -1.355  1.00  0.00     0.161 A 
ATOM     20  C   UNL     1       2.545  -3.356  -2.080  1.00  0.00     0.136 A 
ATOM     21  C   UNL     1       0.178  -3.463  -2.439  1.00  0.00     0.063 A 
ATOM     22  F   UNL     1       3.800  -3.712  -2.390  1.00  0.00    -0.206 F 
BRANCH  17  23
ATOM     23  O   UNL     1       0.899  -1.247   0.406  1.00  0.00    -0.493 OA
ATOM     24  C   UNL     1       1.214   0.100   0.058  1.00  0.00     0.278 C 
ENDBRANCH  17  23
BRANCH  19  25
ATOM     25  O   UNL     1      -1.374  -2.367  -1.111  1.00  0.00    -0.493 OA
ATOM     26  C   UNL     1      -1.739  -1.974   0.206  1.00  0.00     0.278 C 
ENDBRANCH  19  25
ENDBRANCH  15  16
ENDBRANCH   9  15
BRANCH   8  27
ATOM     27  C   UNL     1      -0.482  -8.943  -3.967  1.00  0.00     0.026 C 
BRANCH  27  28
ATOM     28  C   UNL     1       0.087 -10.354  -3.953  1.00  0.00    -0.010 C 
ATOM     29  C   UNL     1       0.114 -11.454  -2.907  1.00  0.00     0.004 C 
ATOM     30  C   UNL     1      -0.915 -11.496  -3.991  1.00  0.00     0.004 C 
ENDBRANCH  27  28
ENDBRANCH   8  27
ENDBRANCH   5   8
ENDBRANCH   3   4
ENDBRANCH   2   3
ENDBRANCH   1   2
BRANCH   1  31
ATOM     31  C   UNL     1      -4.659 -12.146  -0.765  1.00  0.00     0.002 C 
BRANCH  31  32
ATOM     32  C   UNL     1      -3.710 -13.343  -0.878  1.00  0.00     0.021 C 
BRANCH  32  33
ATOM     33  C   UNL     1      -3.454 -14.078   0.434  1.00  0.00     0.116 C 
BRANCH  33  34
ATOM     34  N   UNL     1      -4.694 -14.461   1.093  1.00  0.00    -0.352 N 
ATOM     35  C   UNL     1      -5.135 -15.693   1.500  1.00  0.00     0.251 C 
ATOM     36  H   UNL     1      -5.313 -13.718   1.275  1.00  0.00     0.163 HD
ATOM     37  O   UNL     1      -6.306 -15.841   1.831  1.00  0.00    -0.269 OA
BRANCH  35  38
ATOM     38  C   UNL     1      -4.201 -16.837   1.536  1.00  0.00     0.039 A 
ATOM     39  C   UNL     1      -4.646 -18.086   1.097  1.00  0.00     0.014 A 
ATOM     40  C   UNL     1      -2.901 -16.685   2.027  1.00  0.00     0.014 A 
ATOM     41  C   UNL     1      -3.768 -19.171   1.101  1.00  0.00     0.010 A 
ATOM     42  C   UNL     1      -2.006 -17.747   1.958  1.00  0.00     0.010 A 
ATOM     43  C   UNL     1      -2.431 -19.002   1.500  1.00  0.00    -0.014 A 
BRANCH  43  44
ATOM     44  C   UNL     1      -1.463 -20.126   1.446  1.00  0.00     0.031 A 
ATOM     45  C   UNL     1      -0.835 -20.643   2.710  1.00  0.00     0.074 A 
ATOM     46  C   UNL     1      -1.112 -20.639   0.251  1.00  0.00     0.049 A 
ATOM     47  N   UNL     1       0.079 -21.567   2.857  1.00  0.00    -0.248 NA
ATOM     48  C   UNL     1      -1.271 -20.026   3.974  1.00  0.00     0.031 C 
ATOM     49  C   UNL     1      -1.628 -20.191  -1.045  1.00  0.00     0.029 A 
ATOM     50  N   UNL     1      -0.236 -21.645  -0.072  1.00  0.00    -0.354 N 
ATOM     51  C   UNL     1       0.331 -21.638   4.222  1.00  0.00     0.074 A 
ATOM     52  C   UNL     1      -0.482 -20.623   4.855  1.00  0.00     0.031 C 
ATOM     53  C   UNL     1      -1.085 -20.940  -2.018  1.00  0.00     0.029 A 
ATOM     54  C   UNL     1      -0.148 -21.888  -1.423  1.00  0.00     0.049 A 
ATOM     55  H   UNL     1       0.281 -22.145   0.600  1.00  0.00     0.167 HD
ATOM     56  C   UNL     1       1.145 -22.491   4.887  1.00  0.00     0.037 A 
ATOM     57  C   UNL     1       0.606 -22.771  -2.107  1.00  0.00     0.037 A 
ATOM     58  C   UNL     1       1.932 -23.512   4.248  1.00  0.00     0.049 A 
ATOM     59  C   UNL     1       1.521 -23.692  -1.347  1.00  0.00     0.074 A 
ATOM     60  C   UNL     1       2.754 -24.457   4.837  1.00  0.00     0.029 A 
ATOM     61  N   UNL     1       1.997 -23.725   2.878  1.00  0.00    -0.354 N 
ATOM     62  N   UNL     1       1.712 -23.777  -0.052  1.00  0.00    -0.248 NA
ATOM     63  C   UNL     1       2.321 -24.637  -2.137  1.00  0.00     0.031 C 
ATOM     64  C   UNL     1       3.355 -25.206   3.822  1.00  0.00     0.029 A 
ATOM     65  C   UNL     1       2.864 -24.769   2.602  1.00  0.00     0.049 A 
ATOM     66  H   UNL     1       1.501 -23.209   2.202  1.00  0.00     0.167 HD
ATOM     67  C   UNL     1       2.636 -24.800   0.131  1.00  0.00     0.074 A 
ATOM     68  C   UNL     1       2.956 -25.311  -1.187  1.00  0.00     0.031 C 
ATOM     69  C   UNL     1       3.170 -25.271   1.284  1.00  0.00     0.037 A 
BRANCH  56  70
ATOM     70  C   UNL     1       1.217 -22.372   6.386  1.00  0.00     0.058 A 
ATOM     71  C   UNL     1       2.400 -21.951   7.014  1.00  0.00     0.135 A 
ATOM     72  C   UNL     1       0.137 -22.739   7.205  1.00  0.00     0.135 A 
ATOM     73  F   UNL     1       3.462 -21.582   6.281  1.00  0.00    -0.206 F 
ATOM     74  C   UNL     1       2.514 -21.913   8.400  1.00  0.00     0.059 A 
ATOM     75  C   UNL     1       0.219 -22.681   8.593  1.00  0.00     0.059 A 
ATOM     76  F   UNL     1      -1.025 -23.129   6.657  1.00  0.00    -0.206 F 
ATOM     77  C   UNL     1       1.418 -22.281   9.182  1.00  0.00     0.060 A 
BRANCH  77  78
ATOM     78  S   UNL     1       1.575 -22.201  10.979  1.00  0.00     0.124 S 
ATOM     79  O   UNL     1       2.515 -23.282  11.247  1.00  0.00    -0.237 OA
ATOM     80  O   UNL     1       2.085 -20.847  11.179  1.00  0.00    -0.237 OA
ATOM     81  O   UNL     1       0.210 -22.422  11.448  1.00  0.00    -0.744 OA
ENDBRANCH  77  78
ENDBRANCH  56  70
BRANCH  57  82
ATOM     82  C   UNL     1       0.495 -22.841  -3.588  1.00  0.00     0.058 A 
ATOM     83  C   UNL     1       0.950 -21.794  -4.406  1.00  0.00     0.135 A 
ATOM     84  C   UNL     1      -0.115 -23.939  -4.213  1.00  0.00     0.135 A 
ATOM     85  F   UNL     1       1.530 -20.715  -3.859  1.00  0.00    -0.206 F 
ATOM     86  C   UNL     1       0.777 -21.820  -5.785  1.00  0.00     0.059 A 
ATOM     87  C   UNL     1      -0.274 -24.001  -5.594  1.00  0.00     0.059 A 
ATOM     88  F   UNL     1      -0.555 -24.969  -3.474  1.00  0.00    -0.206 F 
ATOM     89  C   UNL     1       0.159 -22.927  -6.370  1.00  0.00     0.060 A 
BRANCH  89  90
ATOM     90  S   UNL     1      -0.076 -22.928  -8.160  1.00  0.00     0.124 S 
ATOM     91  O   UNL     1      -1.059 -21.862  -8.326  1.00  0.00    -0.237 OA
ATOM     92  O   UNL     1       1.269 -22.634  -8.644  1.00  0.00    -0.237 OA
ATOM     93  O   UNL     1      -0.559 -24.277  -8.437  1.00  0.00    -0.744 OA
ENDBRANCH  89  90
ENDBRANCH  57  82
BRANCH  69  94
ATOM     94  C   UNL     1       4.146 -26.412   1.191  1.00  0.00     0.058 A 
ATOM     95  C   UNL     1       3.801 -27.683   1.678  1.00  0.00     0.135 A 
ATOM     96  C   UNL     1       5.450 -26.227   0.706  1.00  0.00     0.135 A 
ATOM     97  F   UNL     1       2.569 -27.913   2.159  1.00  0.00    -0.206 F 
ATOM     98  C   UNL     1       4.722 -28.724   1.711  1.00  0.00     0.059 A 
ATOM     99  C   UNL     1       6.380 -27.263   0.702  1.00  0.00     0.059 A 
ATOM    100  F   UNL     1       5.826 -25.034   0.219  1.00  0.00    -0.206 F 
ATOM    101  C   UNL     1       6.011 -28.503   1.225  1.00  0.00     0.060 A 
BRANCH 101 102
ATOM    102  S   UNL     1       7.193 -29.866   1.276  1.00  0.00     0.124 S 
ATOM    103  O   UNL     1       7.432 -30.001   2.709  1.00  0.00    -0.237 OA
ATOM    104  O   UNL     1       6.440 -30.949   0.653  1.00  0.00    -0.237 OA
ATOM    105  O   UNL     1       8.322 -29.366   0.496  1.00  0.00    -0.744 OA
ENDBRANCH 101 102
ENDBRANCH  69  94
ENDBRANCH  43  44
ENDBRANCH  35  38
ENDBRANCH  33  34
ENDBRANCH  32  33
ENDBRANCH  31  32
ENDBRANCH   1  31
TORSDOF 22
