REMARK SMILES C[NH+](C)[C@H]1COC[C@]1(C)C(=O)NCCCCCCNC(=O)c1ccc(-c2c3nc(c(-c4c(F)cc(S(=O)(=O)[O-])cc4F)c4ccc([nH]4)c(-c4c(F)cc(S(=O)(=O)[O-])cc4F)c4nc(c(-c5c(F)cc(S(=O)(=O)[O-])cc5F)c5ccc2[nH]5)C=C4)C=C3)cc1
REMARK SMILES IDX 16 1 15 2 14 3 13 4 12 5 10 6 11 7 8 9 4 10 5 11 6 12 7 13
REMARK SMILES IDX 9 14 2 15 1 16 3 17 17 19 18 20 19 21 20 22 21 24 22 25
REMARK SMILES IDX 23 26 87 27 24 28 86 29 25 30 26 31 27 32 80 33 28 34 85 35
REMARK SMILES IDX 79 36 81 37 29 38 84 39 78 40 77 41 30 43 64 44 43 45 63 46
REMARK SMILES IDX 44 47 47 48 62 49 82 50 45 51 46 52 61 54 83 55 48 56 31 57
REMARK SMILES IDX 32 58 41 59 33 60 34 61 40 62 42 63 35 64 36 65 37 66 38 67
REMARK SMILES IDX 39 68 65 69 66 70 75 71 67 72 68 73 74 74 76 75 69 76 70 77
REMARK SMILES IDX 71 78 72 79 73 80 49 81 50 82 59 83 51 84 52 85 58 86 60 87
REMARK SMILES IDX 53 88 54 89 55 90 56 91 57 92
REMARK H PARENT 12 8 2 18 19 23 81 42 47 53
REMARK Flexibility Score: inf
ROOT
ATOM      1  C   UNL     1       1.767   2.323   4.177  1.00  0.00     0.002 C 
ENDROOT
BRANCH   1   2
ATOM      2  C   UNL     1       0.648   1.353   3.784  1.00  0.00     0.002 C 
BRANCH   2   3
ATOM      3  C   UNL     1       0.763   0.779   2.366  1.00  0.00     0.021 C 
BRANCH   3   4
ATOM      4  C   UNL     1       2.082   0.056   2.097  1.00  0.00     0.116 C 
BRANCH   4   5
ATOM      5  N   UNL     1       2.164  -1.170   2.867  1.00  0.00    -0.355 N 
ATOM      6  C   UNL     1       2.269  -2.474   2.494  1.00  0.00     0.234 C 
ATOM      7  O   UNL     1       2.266  -3.294   3.416  1.00  0.00    -0.274 OA
ATOM      8  H   UNL     1       2.138  -1.034   3.842  1.00  0.00     0.163 HD
BRANCH   6   9
ATOM      9  C   UNL     1       2.457  -2.889   1.016  1.00  0.00     0.123 C 
ATOM     10  C   UNL     1       1.223  -2.495   0.171  1.00  0.00     0.227 C 
ATOM     11  C   UNL     1       0.264  -3.644   0.550  1.00  0.00     0.226 C 
ATOM     12  O   UNL     1       1.056  -4.828   0.705  1.00  0.00    -0.374 OA
ATOM     13  C   UNL     1       2.417  -4.424   0.931  1.00  0.00     0.183 C 
ATOM     14  C   UNL     1       3.844  -2.390   0.598  1.00  0.00     0.031 C 
BRANCH  10  15
ATOM     15  N   UNL     1       1.304  -2.315  -1.299  1.00  0.00    -0.334 N 
ATOM     16  C   UNL     1       1.641  -3.482  -2.103  1.00  0.00     0.332 C 
ATOM     17  C   UNL     1       2.042  -1.138  -1.741  1.00  0.00     0.332 C 
ATOM     18  H   UNL     1       0.317  -2.148  -1.497  1.00  0.00     0.347 HD
ENDBRANCH  10  15
ENDBRANCH   6   9
ENDBRANCH   4   5
ENDBRANCH   3   4
ENDBRANCH   2   3
ENDBRANCH   1   2
BRANCH   1  19
ATOM     19  C   UNL     1       1.966   3.498   3.216  1.00  0.00     0.021 C 
BRANCH  19  20
ATOM     20  C   UNL     1       0.728   4.364   3.016  1.00  0.00     0.116 C 
BRANCH  20  21
ATOM     21  N   UNL     1       0.299   4.994   4.254  1.00  0.00    -0.352 N 
ATOM     22  C   UNL     1       0.058   6.322   4.511  1.00  0.00     0.251 C 
ATOM     23  H   UNL     1       0.163   4.384   5.014  1.00  0.00     0.163 HD
ATOM     24  O   UNL     1      -0.097   6.706   5.664  1.00  0.00    -0.269 OA
BRANCH  22  25
ATOM     25  C   UNL     1       0.008   7.282   3.389  1.00  0.00     0.039 A 
ATOM     26  C   UNL     1       0.684   8.498   3.507  1.00  0.00     0.014 A 
ATOM     27  C   UNL     1      -0.699   6.978   2.221  1.00  0.00     0.014 A 
ATOM     28  C   UNL     1       0.700   9.385   2.428  1.00  0.00     0.010 A 
ATOM     29  C   UNL     1      -0.616   7.827   1.122  1.00  0.00     0.010 A 
ATOM     30  C   UNL     1       0.080   9.042   1.215  1.00  0.00    -0.014 A 
BRANCH  30  31
ATOM     31  C   UNL     1       0.147   9.939   0.033  1.00  0.00     0.031 A 
ATOM     32  C   UNL     1      -1.113  10.530  -0.539  1.00  0.00     0.074 A 
ATOM     33  C   UNL     1       1.334  10.166  -0.564  1.00  0.00     0.049 A 
ATOM     34  N   UNL     1      -1.268  11.269  -1.607  1.00  0.00    -0.248 NA
ATOM     35  C   UNL     1      -2.369  10.227   0.167  1.00  0.00     0.031 C 
ATOM     36  C   UNL     1       2.620   9.614  -0.129  1.00  0.00     0.029 A 
ATOM     37  N   UNL     1       1.654  10.912  -1.671  1.00  0.00    -0.354 N 
ATOM     38  C   UNL     1      -2.633  11.509  -1.708  1.00  0.00     0.074 A 
ATOM     39  C   UNL     1      -3.269  10.790  -0.626  1.00  0.00     0.031 C 
ATOM     40  C   UNL     1       3.588  10.057  -0.946  1.00  0.00     0.029 A 
ATOM     41  C   UNL     1       2.992  10.887  -1.988  1.00  0.00     0.049 A 
ATOM     42  H   UNL     1       0.987  11.418  -2.190  1.00  0.00     0.167 HD
ATOM     43  C   UNL     1      -3.293  12.278  -2.607  1.00  0.00     0.037 A 
ATOM     44  C   UNL     1       3.661  11.457  -3.010  1.00  0.00     0.037 A 
ATOM     45  C   UNL     1      -2.649  13.006  -3.669  1.00  0.00     0.049 A 
ATOM     46  C   UNL     1       2.903  12.295  -4.004  1.00  0.00     0.074 A 
ATOM     47  C   UNL     1      -3.222  13.856  -4.599  1.00  0.00     0.029 A 
ATOM     48  N   UNL     1      -1.290  12.968  -3.948  1.00  0.00    -0.354 N 
ATOM     49  N   UNL     1       1.620  12.562  -4.048  1.00  0.00    -0.248 NA
ATOM     50  C   UNL     1       3.684  12.914  -5.084  1.00  0.00     0.031 C 
ATOM     51  C   UNL     1      -2.220  14.288  -5.473  1.00  0.00     0.029 A 
ATOM     52  C   UNL     1      -1.010  13.759  -5.051  1.00  0.00     0.049 A 
ATOM     53  H   UNL     1      -0.623  12.454  -3.438  1.00  0.00     0.167 HD
ATOM     54  C   UNL     1       1.444  13.406  -5.139  1.00  0.00     0.074 A 
ATOM     55  C   UNL     1       2.754  13.613  -5.721  1.00  0.00     0.031 C 
ATOM     56  C   UNL     1       0.302  13.963  -5.614  1.00  0.00     0.037 A 
BRANCH  43  57
ATOM     57  C   UNL     1      -4.791  12.373  -2.481  1.00  0.00     0.058 A 
ATOM     58  C   UNL     1      -5.402  13.041  -1.408  1.00  0.00     0.135 A 
ATOM     59  C   UNL     1      -5.626  11.822  -3.467  1.00  0.00     0.135 A 
ATOM     60  F   UNL     1      -4.655  13.574  -0.428  1.00  0.00    -0.206 F 
ATOM     61  C   UNL     1      -6.786  13.134  -1.300  1.00  0.00     0.059 A 
ATOM     62  C   UNL     1      -7.012  11.931  -3.397  1.00  0.00     0.059 A 
ATOM     63  F   UNL     1      -5.097  11.172  -4.516  1.00  0.00    -0.206 F 
ATOM     64  C   UNL     1      -7.583  12.576  -2.302  1.00  0.00     0.060 A 
BRANCH  64  65
ATOM     65  S   UNL     1      -9.376  12.713  -2.150  1.00  0.00     0.124 S 
ATOM     66  O   UNL     1      -9.646  11.789  -1.052  1.00  0.00    -0.237 OA
ATOM     67  O   UNL     1      -9.556  14.129  -1.844  1.00  0.00    -0.237 OA
ATOM     68  O   UNL     1      -9.863  12.290  -3.459  1.00  0.00    -0.744 OA
ENDBRANCH  64  65
ENDBRANCH  43  57
BRANCH  44  69
ATOM     69  C   UNL     1       5.132  11.266  -3.134  1.00  0.00     0.058 A 
ATOM     70  C   UNL     1       6.020  12.331  -2.923  1.00  0.00     0.135 A 
ATOM     71  C   UNL     1       5.680  10.014  -3.454  1.00  0.00     0.135 A 
ATOM     72  F   UNL     1       5.545  13.550  -2.621  1.00  0.00    -0.206 F 
ATOM     73  C   UNL     1       7.396  12.169  -3.044  1.00  0.00     0.059 A 
ATOM     74  C   UNL     1       7.054   9.819  -3.551  1.00  0.00     0.059 A 
ATOM     75  F   UNL     1       4.877   8.956  -3.647  1.00  0.00    -0.206 F 
ATOM     76  C   UNL     1       7.904  10.907  -3.355  1.00  0.00     0.060 A 
BRANCH  76  77
ATOM     77  S   UNL     1       9.695  10.697  -3.463  1.00  0.00     0.124 S 
ATOM     78  O   UNL     1       9.999  11.399  -4.704  1.00  0.00    -0.237 OA
ATOM     79  O   UNL     1      10.152  11.340  -2.236  1.00  0.00    -0.237 OA
ATOM     80  O   UNL     1       9.860   9.246  -3.501  1.00  0.00    -0.744 OA
ENDBRANCH  76  77
ENDBRANCH  44  69
BRANCH  56  81
ATOM     81  C   UNL     1       0.417  14.885  -6.798  1.00  0.00     0.058 A 
ATOM     82  C   UNL     1       0.704  14.408  -8.086  1.00  0.00     0.135 A 
ATOM     83  C   UNL     1       0.179  16.262  -6.647  1.00  0.00     0.135 A 
ATOM     84  F   UNL     1       0.946  13.103  -8.285  1.00  0.00    -0.206 F 
ATOM     85  C   UNL     1       0.774  15.266  -9.179  1.00  0.00     0.059 A 
ATOM     86  C   UNL     1       0.212  17.133  -7.731  1.00  0.00     0.059 A 
ATOM     87  F   UNL     1      -0.110  16.770  -5.438  1.00  0.00    -0.206 F 
ATOM     88  C   UNL     1       0.523  16.627  -8.992  1.00  0.00     0.060 A 
BRANCH  88  89
ATOM     89  S   UNL     1       0.581  17.722 -10.425  1.00  0.00     0.124 S 
ATOM     90  O   UNL     1       2.014  17.780 -10.694  1.00  0.00    -0.237 OA
ATOM     91  O   UNL     1      -0.219  16.994 -11.406  1.00  0.00    -0.237 OA
ATOM     92  O   UNL     1      -0.016  18.960  -9.933  1.00  0.00    -0.744 OA
ENDBRANCH  88  89
ENDBRANCH  56  81
ENDBRANCH  30  31
ENDBRANCH  22  25
ENDBRANCH  20  21
ENDBRANCH  19  20
ENDBRANCH   1  19
TORSDOF 17
