REMARK SMILES O=C(NCCCCCCNC(=O)c1ccc(S(=O)(=O)NCC[NH+]2CCCC2)c(F)c1)c1ccc(-c2c3nc(c(-c4c(F)cc(S(=O)(=O)[O-])cc4F)c4ccc([nH]4)c(-c4c(F)cc(S(=O)(=O)[O-])cc4F)c4nc(c(-c5c(F)cc(S(=O)(=O)[O-])cc5F)c5ccc2[nH]5)C=C4)C=C3)cc1
REMARK SMILES IDX 7 1 6 2 5 3 4 4 3 5 1 6 2 7 31 9 32 10 96 11 33 12 95 13
REMARK SMILES IDX 34 14 35 15 36 16 89 17 37 18 94 19 88 20 90 21 38 22 93 23
REMARK SMILES IDX 87 24 86 25 39 27 73 28 52 29 72 30 53 31 56 32 71 33 91 34
REMARK SMILES IDX 54 35 55 36 70 38 92 39 57 40 40 41 41 42 50 43 42 44 43 45
REMARK SMILES IDX 49 46 51 47 44 48 45 49 46 50 47 51 48 52 74 53 75 54 84 55
REMARK SMILES IDX 76 56 77 57 83 58 85 59 78 60 79 61 80 62 81 63 82 64 58 65
REMARK SMILES IDX 59 66 68 67 60 68 61 69 67 70 69 71 62 72 63 73 64 74 65 75
REMARK SMILES IDX 66 76 8 77 9 78 10 79 11 80 12 82 13 83 14 84 30 85 15 86
REMARK SMILES IDX 28 87 16 88 29 89 17 90 18 91 19 92 20 93 21 95 22 96 23 97
REMARK SMILES IDX 24 98 27 99 25 101 26 102
REMARK H PARENT 3 8 90 26 56 37 10 81 20 94 23 100
REMARK Flexibility Score: inf
ROOT
ATOM      1  C   UNL     1       4.629   3.370   2.791  1.00  0.00     0.002 C 
ENDROOT
BRANCH   1   2
ATOM      2  C   UNL     1       4.117   3.700   1.386  1.00  0.00     0.002 C 
BRANCH   2   3
ATOM      3  C   UNL     1       4.623   2.795   0.261  1.00  0.00     0.021 C 
BRANCH   3   4
ATOM      4  C   UNL     1       4.379   1.304   0.462  1.00  0.00     0.116 C 
BRANCH   4   5
ATOM      5  N   UNL     1       2.967   0.973   0.497  1.00  0.00    -0.352 N 
ATOM      6  O   UNL     1       1.070  -0.050  -0.153  1.00  0.00    -0.269 OA
ATOM      7  C   UNL     1       2.297  -0.017  -0.179  1.00  0.00     0.251 C 
ATOM      8  H   UNL     1       2.413   1.534   1.087  1.00  0.00     0.163 HD
BRANCH   7   9
ATOM      9  C   UNL     1       3.053  -1.031  -0.949  1.00  0.00     0.039 A 
ATOM     10  C   UNL     1       4.175  -1.661  -0.401  1.00  0.00     0.014 A 
ATOM     11  C   UNL     1       2.598  -1.391  -2.221  1.00  0.00     0.014 A 
ATOM     12  C   UNL     1       4.887  -2.591  -1.155  1.00  0.00     0.010 A 
ATOM     13  C   UNL     1       3.279  -2.368  -2.954  1.00  0.00     0.010 A 
ATOM     14  C   UNL     1       4.430  -2.972  -2.427  1.00  0.00    -0.014 A 
BRANCH  14  15
ATOM     15  C   UNL     1       5.088  -4.099  -3.133  1.00  0.00     0.031 A 
ATOM     16  C   UNL     1       5.873  -3.882  -4.393  1.00  0.00     0.074 A 
ATOM     17  C   UNL     1       4.955  -5.336  -2.613  1.00  0.00     0.049 A 
ATOM     18  N   UNL     1       6.484  -4.768  -5.137  1.00  0.00    -0.248 NA
ATOM     19  C   UNL     1       5.989  -2.502  -4.889  1.00  0.00     0.031 C 
ATOM     20  C   UNL     1       4.194  -5.660  -1.402  1.00  0.00     0.029 A 
ATOM     21  N   UNL     1       5.449  -6.546  -3.027  1.00  0.00    -0.354 N 
ATOM     22  C   UNL     1       7.048  -4.061  -6.191  1.00  0.00     0.074 A 
ATOM     23  C   UNL     1       6.695  -2.670  -6.001  1.00  0.00     0.031 C 
ATOM     24  C   UNL     1       4.290  -6.976  -1.161  1.00  0.00     0.029 A 
ATOM     25  C   UNL     1       5.071  -7.596  -2.224  1.00  0.00     0.049 A 
ATOM     26  H   UNL     1       6.019  -6.653  -3.822  1.00  0.00     0.167 HD
ATOM     27  C   UNL     1       7.795  -4.536  -7.215  1.00  0.00     0.037 A 
ATOM     28  C   UNL     1       5.301  -8.918  -2.343  1.00  0.00     0.037 A 
ATOM     29  C   UNL     1       8.159  -5.921  -7.378  1.00  0.00     0.049 A 
ATOM     30  C   UNL     1       6.103  -9.416  -3.507  1.00  0.00     0.074 A 
ATOM     31  C   UNL     1       8.975  -6.484  -8.344  1.00  0.00     0.029 A 
ATOM     32  N   UNL     1       7.725  -6.958  -6.567  1.00  0.00    -0.354 N 
ATOM     33  N   UNL     1       6.669  -8.725  -4.466  1.00  0.00    -0.248 NA
ATOM     34  C   UNL     1       6.286 -10.870  -3.619  1.00  0.00     0.031 C 
ATOM     35  C   UNL     1       9.001  -7.868  -8.142  1.00  0.00     0.029 A 
ATOM     36  C   UNL     1       8.228  -8.162  -7.031  1.00  0.00     0.049 A 
ATOM     37  H   UNL     1       7.144  -6.854  -5.778  1.00  0.00     0.167 HD
ATOM     38  C   UNL     1       7.269  -9.658  -5.301  1.00  0.00     0.074 A 
ATOM     39  C   UNL     1       7.020 -10.962  -4.721  1.00  0.00     0.031 C 
ATOM     40  C   UNL     1       7.955  -9.452  -6.450  1.00  0.00     0.037 A 
BRANCH  27  41
ATOM     41  C   UNL     1       8.292  -3.570  -8.252  1.00  0.00     0.058 A 
ATOM     42  C   UNL     1       7.733  -3.560  -9.539  1.00  0.00     0.135 A 
ATOM     43  C   UNL     1       9.409  -2.755  -8.013  1.00  0.00     0.135 A 
ATOM     44  F   UNL     1       6.659  -4.317  -9.815  1.00  0.00    -0.206 F 
ATOM     45  C   UNL     1       8.284  -2.800 -10.566  1.00  0.00     0.059 A 
ATOM     46  C   UNL     1       9.969  -1.975  -9.022  1.00  0.00     0.059 A 
ATOM     47  F   UNL     1       9.969  -2.717  -6.794  1.00  0.00    -0.206 F 
ATOM     48  C   UNL     1       9.412  -2.021 -10.300  1.00  0.00     0.060 A 
BRANCH  48  49
ATOM     49  S   UNL     1      10.133  -1.060 -11.649  1.00  0.00     0.124 S 
ATOM     50  O   UNL     1      10.708  -2.105 -12.488  1.00  0.00    -0.237 OA
ATOM     51  O   UNL     1       8.965  -0.375 -12.195  1.00  0.00    -0.237 OA
ATOM     52  O   UNL     1      11.095  -0.196 -10.971  1.00  0.00    -0.744 OA
ENDBRANCH  48  49
ENDBRANCH  27  41
BRANCH  28  53
ATOM     53  C   UNL     1       4.726  -9.853  -1.343  1.00  0.00     0.058 A 
ATOM     54  C   UNL     1       3.344 -10.090  -1.289  1.00  0.00     0.135 A 
ATOM     55  C   UNL     1       5.540 -10.492  -0.397  1.00  0.00     0.135 A 
ATOM     56  F   UNL     1       2.524  -9.493  -2.168  1.00  0.00    -0.206 F 
ATOM     57  C   UNL     1       2.783 -10.907  -0.316  1.00  0.00     0.059 A 
ATOM     58  C   UNL     1       5.004 -11.333   0.574  1.00  0.00     0.059 A 
ATOM     59  F   UNL     1       6.868 -10.302  -0.418  1.00  0.00    -0.206 F 
ATOM     60  C   UNL     1       3.622 -11.520   0.617  1.00  0.00     0.060 A 
BRANCH  60  61
ATOM     61  S   UNL     1       2.880 -12.578   1.878  1.00  0.00     0.124 S 
ATOM     62  O   UNL     1       2.329 -11.588   2.798  1.00  0.00    -0.237 OA
ATOM     63  O   UNL     1       1.905 -13.342   1.108  1.00  0.00    -0.237 OA
ATOM     64  O   UNL     1       4.016 -13.343   2.381  1.00  0.00    -0.744 OA
ENDBRANCH  60  61
ENDBRANCH  28  53
BRANCH  40  65
ATOM     65  C   UNL     1       8.469 -10.660  -7.175  1.00  0.00     0.058 A 
ATOM     66  C   UNL     1       9.835 -10.981  -7.157  1.00  0.00     0.135 A 
ATOM     67  C   UNL     1       7.613 -11.451  -7.955  1.00  0.00     0.135 A 
ATOM     68  F   UNL     1      10.692 -10.254  -6.425  1.00  0.00    -0.206 F 
ATOM     69  C   UNL     1      10.339 -12.034  -7.912  1.00  0.00     0.059 A 
ATOM     70  C   UNL     1       8.093 -12.521  -8.703  1.00  0.00     0.059 A 
ATOM     71  F   UNL     1       6.296 -11.190  -7.989  1.00  0.00    -0.206 F 
ATOM     72  C   UNL     1       9.462 -12.792  -8.690  1.00  0.00     0.060 A 
BRANCH  72  73
ATOM     73  S   UNL     1      10.133 -14.150  -9.671  1.00  0.00     0.124 S 
ATOM     74  O   UNL     1      10.824 -13.434 -10.738  1.00  0.00    -0.237 OA
ATOM     75  O   UNL     1      10.991 -14.834  -8.707  1.00  0.00    -0.237 OA
ATOM     76  O   UNL     1       8.945 -14.894 -10.078  1.00  0.00    -0.744 OA
ENDBRANCH  72  73
ENDBRANCH  40  65
ENDBRANCH  14  15
ENDBRANCH   7   9
ENDBRANCH   4   5
ENDBRANCH   3   4
ENDBRANCH   2   3
ENDBRANCH   1   2
BRANCH   1  77
ATOM     77  C   UNL     1       6.149   3.279   2.947  1.00  0.00     0.021 C 
BRANCH  77  78
ATOM     78  C   UNL     1       6.943   4.480   2.439  1.00  0.00     0.116 C 
BRANCH  78  79
ATOM     79  N   UNL     1       6.580   5.723   3.100  1.00  0.00    -0.352 N 
ATOM     80  C   UNL     1       7.389   6.720   3.586  1.00  0.00     0.251 C 
ATOM     81  H   UNL     1       5.614   5.872   3.217  1.00  0.00     0.163 HD
ATOM     82  O   UNL     1       6.915   7.659   4.217  1.00  0.00    -0.269 OA
BRANCH  80  83
ATOM     83  C   UNL     1       8.851   6.639   3.392  1.00  0.00     0.042 A 
ATOM     84  C   UNL     1       9.406   6.397   2.131  1.00  0.00     0.015 A 
ATOM     85  C   UNL     1       9.678   6.800   4.507  1.00  0.00     0.054 A 
ATOM     86  C   UNL     1      10.778   6.183   2.015  1.00  0.00     0.026 A 
ATOM     87  C   UNL     1      11.053   6.617   4.378  1.00  0.00     0.144 A 
ATOM     88  C   UNL     1      11.598   6.260   3.151  1.00  0.00     0.118 A 
ATOM     89  F   UNL     1      11.801   6.761   5.478  1.00  0.00    -0.205 F 
BRANCH  88  90
ATOM     90  S   UNL     1      13.272   5.740   2.959  1.00  0.00     0.243 S 
ATOM     91  O   UNL     1      13.228   4.460   2.288  1.00  0.00    -0.207 OA
ATOM     92  O   UNL     1      13.988   6.867   2.400  1.00  0.00    -0.207 OA
BRANCH  90  93
ATOM     93  N   UNL     1      13.909   5.497   4.473  1.00  0.00    -0.205 NA
ATOM     94  H   UNL     1      13.747   6.361   4.990  1.00  0.00     0.141 HD
BRANCH  93  95
ATOM     95  C   UNL     1      13.469   4.413   5.348  1.00  0.00     0.160 C 
BRANCH  95  96
ATOM     96  C   UNL     1      14.133   3.051   5.093  1.00  0.00     0.278 C 
BRANCH  96  97
ATOM     97  N   UNL     1      15.602   2.937   5.024  1.00  0.00    -0.334 N 
ATOM     98  C   UNL     1      16.018   1.577   5.428  1.00  0.00     0.262 C 
ATOM     99  C   UNL     1      16.392   3.823   5.878  1.00  0.00     0.262 C 
ATOM    100  H   UNL     1      15.790   3.190   4.054  1.00  0.00     0.348 HD
ATOM    101  C   UNL     1      16.172   1.667   6.940  1.00  0.00     0.067 C 
ATOM    102  C   UNL     1      16.671   3.081   7.176  1.00  0.00     0.067 C 
ENDBRANCH  96  97
ENDBRANCH  95  96
ENDBRANCH  93  95
ENDBRANCH  90  93
ENDBRANCH  88  90
ENDBRANCH  80  83
ENDBRANCH  78  79
ENDBRANCH  77  78
ENDBRANCH   1  77
TORSDOF 21
