REMARK SMILES CC(C)[C@H](NS(=O)(=O)c1cccc(F)c1)C(=O)NCCCCCCNC(=O)c1ccc(-c2c3nc(c(-c4c(F)cc(S(=O)(=O)[O-])cc4F)c4ccc([nH]4)c(-c4c(F)cc(S(=O)(=O)[O-])cc4F)c4nc(c(-c5c(F)cc(S(=O)(=O)[O-])cc5F)c5ccc2[nH]5)C=C4)C=C3)cc1
REMARK SMILES IDX 21 1 20 2 19 3 18 4 16 5 17 6 4 8 2 9 1 10 3 11 5 12 6 14
REMARK SMILES IDX 7 15 8 16 9 17 10 18 15 19 11 20 13 21 12 22 14 23 22 24
REMARK SMILES IDX 23 25 24 26 25 27 26 28 27 30 28 31 29 32 93 33 30 34 92 35
REMARK SMILES IDX 31 36 32 37 33 38 86 39 34 40 91 41 85 42 87 43 35 44 90 45
REMARK SMILES IDX 84 46 83 47 36 49 70 50 49 51 69 52 50 53 53 54 68 55 88 56
REMARK SMILES IDX 51 57 52 58 67 60 89 61 54 62 37 63 38 64 47 65 39 66 40 67
REMARK SMILES IDX 46 68 48 69 41 70 42 71 43 72 44 73 45 74 71 75 72 76 81 77
REMARK SMILES IDX 73 78 74 79 80 80 82 81 75 82 76 83 77 84 78 85 79 86 55 87
REMARK SMILES IDX 56 88 65 89 57 90 58 91 64 92 66 93 59 94 60 95 61 96 62 97
REMARK SMILES IDX 63 98
REMARK H PARENT 18 7 5 13 25 29 87 48 53 59
REMARK Flexibility Score: inf
ROOT
ATOM      1  C   UNL     1       0.430   4.848   4.055  1.00  0.00     0.002 C 
ENDROOT
BRANCH   1   2
ATOM      2  C   UNL     1       0.813   3.534   3.366  1.00  0.00     0.021 C 
BRANCH   2   3
ATOM      3  C   UNL     1      -0.377   2.642   3.031  1.00  0.00     0.116 C 
BRANCH   3   4
ATOM      4  N   UNL     1      -1.144   3.162   1.916  1.00  0.00    -0.355 N 
ATOM      5  C   UNL     1      -1.593   2.519   0.801  1.00  0.00     0.238 C 
ATOM      6  O   UNL     1      -2.270   3.168  -0.003  1.00  0.00    -0.273 OA
ATOM      7  H   UNL     1      -1.374   4.117   1.972  1.00  0.00     0.163 HD
BRANCH   5   8
ATOM      8  C   UNL     1      -1.271   1.032   0.530  1.00  0.00     0.161 C 
BRANCH   8   9
ATOM      9  C   UNL     1      -2.050   0.016   1.401  1.00  0.00     0.010 C 
ATOM     10  C   UNL     1      -3.142   0.618   2.299  1.00  0.00     0.009 C 
ATOM     11  C   UNL     1      -2.757  -1.010   0.496  1.00  0.00     0.009 C 
ENDBRANCH   8   9
BRANCH   8  12
ATOM     12  N   UNL     1       0.203   0.901   0.432  1.00  0.00    -0.198 NA
ATOM     13  H   UNL     1       0.557   1.746   0.880  1.00  0.00     0.142 HD
BRANCH  12  14
ATOM     14  S   UNL     1       1.209  -0.300   0.978  1.00  0.00     0.241 S 
ATOM     15  O   UNL     1       2.518   0.029   0.458  1.00  0.00    -0.207 OA
ATOM     16  O   UNL     1       0.991  -0.484   2.394  1.00  0.00    -0.207 OA
BRANCH  14  17
ATOM     17  C   UNL     1       0.666  -1.748   0.127  1.00  0.00     0.085 A 
ATOM     18  C   UNL     1       0.242  -2.867   0.855  1.00  0.00     0.022 A 
ATOM     19  C   UNL     1       0.643  -1.746  -1.269  1.00  0.00     0.061 A 
ATOM     20  C   UNL     1      -0.251  -3.982   0.176  1.00  0.00     0.004 A 
ATOM     21  C   UNL     1       0.147  -2.864  -1.925  1.00  0.00     0.124 A 
ATOM     22  C   UNL     1      -0.306  -3.976  -1.218  1.00  0.00     0.039 A 
ATOM     23  F   UNL     1       0.085  -2.866  -3.263  1.00  0.00    -0.207 F 
ENDBRANCH  14  17
ENDBRANCH  12  14
ENDBRANCH   8  12
ENDBRANCH   5   8
ENDBRANCH   3   4
ENDBRANCH   2   3
ENDBRANCH   1   2
BRANCH   1  24
ATOM     24  C   UNL     1      -0.368   4.698   5.356  1.00  0.00     0.002 C 
BRANCH  24  25
ATOM     25  C   UNL     1       0.261   3.786   6.415  1.00  0.00     0.021 C 
BRANCH  25  26
ATOM     26  C   UNL     1       1.675   4.169   6.846  1.00  0.00     0.116 C 
BRANCH  26  27
ATOM     27  N   UNL     1       1.738   5.512   7.395  1.00  0.00    -0.352 N 
ATOM     28  C   UNL     1       2.336   5.964   8.543  1.00  0.00     0.251 C 
ATOM     29  H   UNL     1       1.283   6.203   6.861  1.00  0.00     0.163 HD
ATOM     30  O   UNL     1       2.131   7.116   8.917  1.00  0.00    -0.269 OA
BRANCH  28  31
ATOM     31  C   UNL     1       3.204   5.071   9.342  1.00  0.00     0.039 A 
ATOM     32  C   UNL     1       3.076   5.089  10.734  1.00  0.00     0.014 A 
ATOM     33  C   UNL     1       4.160   4.247   8.739  1.00  0.00     0.014 A 
ATOM     34  C   UNL     1       3.870   4.248  11.515  1.00  0.00     0.010 A 
ATOM     35  C   UNL     1       4.913   3.367   9.516  1.00  0.00     0.010 A 
ATOM     36  C   UNL     1       4.777   3.360  10.912  1.00  0.00    -0.014 A 
BRANCH  36  37
ATOM     37  C   UNL     1       5.564   2.412  11.739  1.00  0.00     0.031 A 
ATOM     38  C   UNL     1       7.056   2.550  11.857  1.00  0.00     0.074 A 
ATOM     39  C   UNL     1       4.926   1.405  12.368  1.00  0.00     0.049 A 
ATOM     40  N   UNL     1       7.898   1.821  12.544  1.00  0.00    -0.248 NA
ATOM     41  C   UNL     1       7.689   3.635  11.091  1.00  0.00     0.031 C 
ATOM     42  C   UNL     1       3.489   1.136  12.287  1.00  0.00     0.029 A 
ATOM     43  N   UNL     1       5.401   0.424  13.202  1.00  0.00    -0.354 N 
ATOM     44  C   UNL     1       9.156   2.355  12.294  1.00  0.00     0.074 A 
ATOM     45  C   UNL     1       8.974   3.440  11.354  1.00  0.00     0.031 C 
ATOM     46  C   UNL     1       3.194   0.084  13.067  1.00  0.00     0.029 A 
ATOM     47  C   UNL     1       4.421  -0.412  13.682  1.00  0.00     0.049 A 
ATOM     48  H   UNL     1       6.352   0.329  13.435  1.00  0.00     0.167 HD
ATOM     49  C   UNL     1      10.350   1.989  12.818  1.00  0.00     0.037 A 
ATOM     50  C   UNL     1       4.499  -1.457  14.529  1.00  0.00     0.037 A 
ATOM     51  C   UNL     1      10.523   0.923  13.772  1.00  0.00     0.049 A 
ATOM     52  C   UNL     1       5.833  -1.834  15.109  1.00  0.00     0.074 A 
ATOM     53  C   UNL     1      11.685   0.515  14.405  1.00  0.00     0.029 A 
ATOM     54  N   UNL     1       9.508   0.097  14.232  1.00  0.00    -0.354 N 
ATOM     55  N   UNL     1       7.005  -1.283  14.902  1.00  0.00    -0.248 NA
ATOM     56  C   UNL     1       5.855  -2.969  16.041  1.00  0.00     0.031 C 
ATOM     57  C   UNL     1      11.379  -0.579  15.222  1.00  0.00     0.029 A 
ATOM     58  C   UNL     1      10.020  -0.829  15.127  1.00  0.00     0.049 A 
ATOM     59  H   UNL     1       8.563   0.160  13.963  1.00  0.00     0.167 HD
ATOM     60  C   UNL     1       7.904  -2.000  15.682  1.00  0.00     0.074 A 
ATOM     61  C   UNL     1       7.136  -3.009  16.383  1.00  0.00     0.031 C 
ATOM     62  C   UNL     1       9.245  -1.840  15.803  1.00  0.00     0.037 A 
BRANCH  49  63
ATOM     63  C   UNL     1      11.568   2.758  12.389  1.00  0.00     0.058 A 
ATOM     64  C   UNL     1      12.538   2.165  11.566  1.00  0.00     0.135 A 
ATOM     65  C   UNL     1      11.804   4.066  12.842  1.00  0.00     0.135 A 
ATOM     66  F   UNL     1      12.360   0.920  11.099  1.00  0.00    -0.206 F 
ATOM     67  C   UNL     1      13.706   2.838  11.217  1.00  0.00     0.059 A 
ATOM     68  C   UNL     1      12.954   4.766  12.488  1.00  0.00     0.059 A 
ATOM     69  F   UNL     1      10.898   4.687  13.614  1.00  0.00    -0.206 F 
ATOM     70  C   UNL     1      13.906   4.137  11.686  1.00  0.00     0.060 A 
BRANCH  70  71
ATOM     71  S   UNL     1      15.411   5.009  11.201  1.00  0.00     0.124 S 
ATOM     72  O   UNL     1      16.424   4.326  11.998  1.00  0.00    -0.237 OA
ATOM     73  O   UNL     1      15.459   4.765   9.763  1.00  0.00    -0.237 OA
ATOM     74  O   UNL     1      15.137   6.392  11.582  1.00  0.00    -0.744 OA
ENDBRANCH  70  71
ENDBRANCH  49  63
BRANCH  50  75
ATOM     75  C   UNL     1       3.263  -2.190  14.904  1.00  0.00     0.058 A 
ATOM     76  C   UNL     1       2.607  -3.027  13.989  1.00  0.00     0.135 A 
ATOM     77  C   UNL     1       2.690  -2.029  16.174  1.00  0.00     0.135 A 
ATOM     78  F   UNL     1       3.111  -3.205  12.758  1.00  0.00    -0.206 F 
ATOM     79  C   UNL     1       1.411  -3.659  14.311  1.00  0.00     0.059 A 
ATOM     80  C   UNL     1       1.505  -2.668  16.527  1.00  0.00     0.059 A 
ATOM     81  F   UNL     1       3.290  -1.248  17.085  1.00  0.00    -0.206 F 
ATOM     82  C   UNL     1       0.863  -3.466  15.581  1.00  0.00     0.060 A 
BRANCH  82  83
ATOM     83  S   UNL     1      -0.703  -4.274  15.972  1.00  0.00     0.124 S 
ATOM     84  O   UNL     1      -1.641  -3.488  15.177  1.00  0.00    -0.237 OA
ATOM     85  O   UNL     1      -0.469  -5.639  15.512  1.00  0.00    -0.237 OA
ATOM     86  O   UNL     1      -0.814  -4.112  17.418  1.00  0.00    -0.744 OA
ENDBRANCH  82  83
ENDBRANCH  50  75
BRANCH  62  87
ATOM     87  C   UNL     1       9.969  -2.783  16.721  1.00  0.00     0.058 A 
ATOM     88  C   UNL     1      10.463  -2.341  17.958  1.00  0.00     0.135 A 
ATOM     89  C   UNL     1      10.204  -4.118  16.357  1.00  0.00     0.135 A 
ATOM     90  F   UNL     1      10.268  -1.073  18.352  1.00  0.00    -0.206 F 
ATOM     91  C   UNL     1      11.170  -3.191  18.802  1.00  0.00     0.059 A 
ATOM     92  C   UNL     1      10.890  -4.992  17.196  1.00  0.00     0.059 A 
ATOM     93  F   UNL     1       9.741  -4.591  15.189  1.00  0.00    -0.206 F 
ATOM     94  C   UNL     1      11.379  -4.515  18.412  1.00  0.00     0.060 A 
BRANCH  94  95
ATOM     95  S   UNL     1      12.257  -5.620  19.538  1.00  0.00     0.124 S 
ATOM     96  O   UNL     1      13.639  -5.187  19.364  1.00  0.00    -0.237 OA
ATOM     97  O   UNL     1      11.648  -5.302  20.826  1.00  0.00    -0.237 OA
ATOM     98  O   UNL     1      11.943  -6.949  19.018  1.00  0.00    -0.744 OA
ENDBRANCH  94  95
ENDBRANCH  62  87
ENDBRANCH  36  37
ENDBRANCH  28  31
ENDBRANCH  26  27
ENDBRANCH  25  26
ENDBRANCH  24  25
ENDBRANCH   1  24
TORSDOF 20
