REMARK SMILES O=C(NCCCCCCNC(=O)c1cc(OCc2ccccc2C(F)(F)F)cs1)c1ccc(-c2c3nc(c(-c4c(F)cc(S(=O)(=O)[O-])cc4F)c4ccc([nH]4)c(-c4c(F)cc(S(=O)(=O)[O-])cc4F)c4nc(c(-c5c(F)cc(S(=O)(=O)[O-])cc5F)c5ccc2[nH]5)C=C4)C=C3)cc1
REMARK SMILES IDX 7 1 6 2 5 3 4 4 3 5 1 6 2 7 30 9 31 10 95 11 32 12 94 13
REMARK SMILES IDX 33 14 34 15 35 16 88 17 36 18 93 19 87 20 89 21 37 22 92 23
REMARK SMILES IDX 86 24 85 25 38 27 72 28 51 29 71 30 52 31 55 32 70 33 90 34
REMARK SMILES IDX 53 35 54 36 69 38 91 39 56 40 39 41 40 42 49 43 41 44 42 45
REMARK SMILES IDX 48 46 50 47 43 48 44 49 45 50 46 51 47 52 73 53 74 54 83 55
REMARK SMILES IDX 75 56 76 57 82 58 84 59 77 60 78 61 79 62 80 63 81 64 57 65
REMARK SMILES IDX 58 66 67 67 59 68 60 69 66 70 68 71 61 72 62 73 63 74 64 75
REMARK SMILES IDX 65 76 8 77 9 78 10 79 11 80 12 82 13 83 14 84 29 85 15 86
REMARK SMILES IDX 28 87 16 88 17 89 18 90 19 91 23 92 20 93 22 94 21 95 24 96
REMARK SMILES IDX 25 97 26 98 27 99
REMARK H PARENT 3 8 89 26 55 37 10 81
REMARK Flexibility Score: inf
ROOT
ATOM      1  C   UNL     1       4.763   2.570  -3.701  1.00  0.00     0.002 C 
ENDROOT
BRANCH   1   2
ATOM      2  C   UNL     1       4.208   1.149  -3.833  1.00  0.00     0.002 C 
BRANCH   2   3
ATOM      3  C   UNL     1       4.698   0.147  -2.789  1.00  0.00     0.021 C 
BRANCH   3   4
ATOM      4  C   UNL     1       4.473   0.557  -1.339  1.00  0.00     0.116 C 
BRANCH   4   5
ATOM      5  N   UNL     1       3.065   0.633  -0.981  1.00  0.00    -0.352 N 
ATOM      6  O   UNL     1       1.181   0.104   0.143  1.00  0.00    -0.269 OA
ATOM      7  C   UNL     1       2.404   0.043   0.073  1.00  0.00     0.251 C 
ATOM      8  H   UNL     1       2.506   1.183  -1.576  1.00  0.00     0.163 HD
BRANCH   7   9
ATOM      9  C   UNL     1       3.174  -0.688   1.105  1.00  0.00     0.039 A 
ATOM     10  C   UNL     1       4.355  -0.150   1.619  1.00  0.00     0.014 A 
ATOM     11  C   UNL     1       2.717  -1.929   1.559  1.00  0.00     0.014 A 
ATOM     12  C   UNL     1       5.156  -0.919   2.453  1.00  0.00     0.010 A 
ATOM     13  C   UNL     1       3.477  -2.659   2.481  1.00  0.00     0.010 A 
ATOM     14  C   UNL     1       4.721  -2.175   2.911  1.00  0.00    -0.014 A 
BRANCH  14  15
ATOM     15  C   UNL     1       5.566  -2.903   3.895  1.00  0.00     0.031 A 
ATOM     16  C   UNL     1       6.196  -4.230   3.569  1.00  0.00     0.074 A 
ATOM     17  C   UNL     1       5.817  -2.308   5.078  1.00  0.00     0.049 A 
ATOM     18  N   UNL     1       7.026  -4.942   4.289  1.00  0.00    -0.248 NA
ATOM     19  C   UNL     1       5.850  -4.843   2.277  1.00  0.00     0.031 C 
ATOM     20  C   UNL     1       5.233  -1.036   5.518  1.00  0.00     0.029 A 
ATOM     21  N   UNL     1       6.644  -2.665   6.111  1.00  0.00    -0.354 N 
ATOM     22  C   UNL     1       7.299  -6.085   3.546  1.00  0.00     0.074 A 
ATOM     23  C   UNL     1       6.519  -5.988   2.330  1.00  0.00     0.031 C 
ATOM     24  C   UNL     1       5.764  -0.691   6.699  1.00  0.00     0.029 A 
ATOM     25  C   UNL     1       6.676  -1.743   7.131  1.00  0.00     0.049 A 
ATOM     26  H   UNL     1       7.164  -3.500   6.122  1.00  0.00     0.167 HD
ATOM     27  C   UNL     1       8.133  -7.111   3.846  1.00  0.00     0.037 A 
ATOM     28  C   UNL     1       7.354  -1.744   8.294  1.00  0.00     0.037 A 
ATOM     29  C   UNL     1       8.907  -7.199   5.061  1.00  0.00     0.049 A 
ATOM     30  C   UNL     1       8.273  -2.891   8.597  1.00  0.00     0.074 A 
ATOM     31  C   UNL     1       9.783  -8.196   5.455  1.00  0.00     0.029 A 
ATOM     32  N   UNL     1       8.900  -6.254   6.078  1.00  0.00    -0.354 N 
ATOM     33  N   UNL     1       8.533  -3.950   7.868  1.00  0.00    -0.248 NA
ATOM     34  C   UNL     1       8.990  -2.845   9.877  1.00  0.00     0.031 C 
ATOM     35  C   UNL     1      10.279  -7.872   6.723  1.00  0.00     0.029 A 
ATOM     36  C   UNL     1       9.748  -6.650   7.101  1.00  0.00     0.049 A 
ATOM     37  H   UNL     1       8.370  -5.424   6.074  1.00  0.00     0.167 HD
ATOM     38  C   UNL     1       9.446  -4.697   8.601  1.00  0.00     0.074 A 
ATOM     39  C   UNL     1       9.720  -3.949   9.812  1.00  0.00     0.031 C 
ATOM     40  C   UNL     1      10.000  -5.899   8.305  1.00  0.00     0.037 A 
BRANCH  27  41
ATOM     41  C   UNL     1       8.259  -8.230   2.846  1.00  0.00     0.058 A 
ATOM     42  C   UNL     1       8.949  -8.058   1.635  1.00  0.00     0.135 A 
ATOM     43  C   UNL     1       7.743  -9.506   3.127  1.00  0.00     0.135 A 
ATOM     44  F   UNL     1       9.450  -6.856   1.308  1.00  0.00    -0.206 F 
ATOM     45  C   UNL     1       9.110  -9.105   0.733  1.00  0.00     0.059 A 
ATOM     46  C   UNL     1       7.912 -10.574   2.249  1.00  0.00     0.059 A 
ATOM     47  F   UNL     1       7.075  -9.728   4.270  1.00  0.00    -0.206 F 
ATOM     48  C   UNL     1       8.589 -10.361   1.050  1.00  0.00     0.060 A 
BRANCH  48  49
ATOM     49  S   UNL     1       8.823 -11.712  -0.125  1.00  0.00     0.124 S 
ATOM     50  O   UNL     1       7.903 -11.331  -1.193  1.00  0.00    -0.237 OA
ATOM     51  O   UNL     1      10.243 -11.606  -0.445  1.00  0.00    -0.237 OA
ATOM     52  O   UNL     1       8.441 -12.897   0.637  1.00  0.00    -0.744 OA
ENDBRANCH  48  49
ENDBRANCH  27  41
BRANCH  28  53
ATOM     53  C   UNL     1       7.168  -0.628   9.257  1.00  0.00     0.058 A 
ATOM     54  C   UNL     1       8.195   0.289   9.523  1.00  0.00     0.135 A 
ATOM     55  C   UNL     1       5.941  -0.447   9.917  1.00  0.00     0.135 A 
ATOM     56  F   UNL     1       9.384   0.158   8.916  1.00  0.00    -0.206 F 
ATOM     57  C   UNL     1       8.021   1.333  10.425  1.00  0.00     0.059 A 
ATOM     58  C   UNL     1       5.734   0.607  10.799  1.00  0.00     0.059 A 
ATOM     59  F   UNL     1       4.920  -1.284   9.680  1.00  0.00    -0.206 F 
ATOM     60  C   UNL     1       6.786   1.484  11.058  1.00  0.00     0.060 A 
BRANCH  60  61
ATOM     61  S   UNL     1       6.551   2.865  12.196  1.00  0.00     0.124 S 
ATOM     62  O   UNL     1       7.260   2.391  13.379  1.00  0.00    -0.237 OA
ATOM     63  O   UNL     1       7.178   3.969  11.476  1.00  0.00    -0.237 OA
ATOM     64  O   UNL     1       5.099   2.952  12.320  1.00  0.00    -0.744 OA
ENDBRANCH  60  61
ENDBRANCH  28  53
BRANCH  40  65
ATOM     65  C   UNL     1      10.965  -6.465   9.308  1.00  0.00     0.058 A 
ATOM     66  C   UNL     1      10.527  -6.971  10.543  1.00  0.00     0.135 A 
ATOM     67  C   UNL     1      12.341  -6.503   9.033  1.00  0.00     0.135 A 
ATOM     68  F   UNL     1       9.222  -6.951  10.857  1.00  0.00    -0.206 F 
ATOM     69  C   UNL     1      11.425  -7.459  11.487  1.00  0.00     0.059 A 
ATOM     70  C   UNL     1      13.254  -7.011   9.952  1.00  0.00     0.059 A 
ATOM     71  F   UNL     1      12.810  -6.040   7.864  1.00  0.00    -0.206 F 
ATOM     72  C   UNL     1      12.787  -7.469  11.184  1.00  0.00     0.060 A 
BRANCH  72  73
ATOM     73  S   UNL     1      13.944  -8.100  12.417  1.00  0.00     0.124 S 
ATOM     74  O   UNL     1      13.995  -6.991  13.365  1.00  0.00    -0.237 OA
ATOM     75  O   UNL     1      13.274  -9.307  12.889  1.00  0.00    -0.237 OA
ATOM     76  O   UNL     1      15.165  -8.327  11.651  1.00  0.00    -0.744 OA
ENDBRANCH  72  73
ENDBRANCH  40  65
ENDBRANCH  14  15
ENDBRANCH   7   9
ENDBRANCH   4   5
ENDBRANCH   3   4
ENDBRANCH   2   3
ENDBRANCH   1   2
BRANCH   1  77
ATOM     77  C   UNL     1       6.288   2.686  -3.636  1.00  0.00     0.021 C 
BRANCH  77  78
ATOM     78  C   UNL     1       7.043   2.064  -4.808  1.00  0.00     0.116 C 
BRANCH  78  79
ATOM     79  N   UNL     1       6.754   2.724  -6.071  1.00  0.00    -0.351 N 
ATOM     80  C   UNL     1       7.631   3.243  -6.998  1.00  0.00     0.261 C 
ATOM     81  H   UNL     1       5.799   2.812  -6.294  1.00  0.00     0.163 HD
ATOM     82  O   UNL     1       7.160   3.909  -7.921  1.00  0.00    -0.268 OA
BRANCH  80  83
ATOM     83  C   UNL     1       9.046   2.984  -6.827  1.00  0.00     0.096 A 
ATOM     84  C   UNL     1       9.684   1.786  -6.557  1.00  0.00     0.072 A 
ATOM     85  S   UNL     1      10.162   4.274  -6.950  1.00  0.00    -0.135 S 
ATOM     86  C   UNL     1      11.059   1.974  -6.239  1.00  0.00     0.131 A 
ATOM     87  C   UNL     1      11.457   3.275  -6.448  1.00  0.00     0.112 A 
BRANCH  86  88
ATOM     88  O   UNL     1      11.954   1.090  -5.725  1.00  0.00    -0.488 OA
BRANCH  88  89
ATOM     89  C   UNL     1      11.460  -0.228  -5.447  1.00  0.00     0.266 C 
BRANCH  89  90
ATOM     90  C   UNL     1      10.603  -0.382  -4.191  1.00  0.00     0.001 A 
ATOM     91  C   UNL     1      10.381   0.715  -3.335  1.00  0.00     0.008 A 
ATOM     92  C   UNL     1      10.018  -1.627  -3.849  1.00  0.00     0.062 A 
ATOM     93  C   UNL     1       9.551   0.614  -2.216  1.00  0.00     0.000 A 
ATOM     94  C   UNL     1       9.188  -1.708  -2.709  1.00  0.00     0.013 A 
ATOM     95  C   UNL     1       8.945  -0.595  -1.908  1.00  0.00     0.001 A 
BRANCH  92  96
ATOM     96  C   UNL     1      10.260  -2.923  -4.603  1.00  0.00     0.416 C 
ATOM     97  F   UNL     1      10.984  -3.814  -3.876  1.00  0.00    -0.166 F 
ATOM     98  F   UNL     1       9.095  -3.552  -4.927  1.00  0.00    -0.166 F 
ATOM     99  F   UNL     1      10.928  -2.780  -5.780  1.00  0.00    -0.166 F 
ENDBRANCH  92  96
ENDBRANCH  89  90
ENDBRANCH  88  89
ENDBRANCH  86  88
ENDBRANCH  80  83
ENDBRANCH  78  79
ENDBRANCH  77  78
ENDBRANCH   1  77
TORSDOF 20
