REMARK SMILES O=C(CCCN1C(=O)/C(=C/c2cc(Br)ccc2O)SC1=S)NCCCCCCNC(=O)c1ccc(-c2c3nc(c(-c4c(F)cc(S(=O)(=O)[O-])cc4F)c4ccc([nH]4)c(-c4c(F)cc(S(=O)(=O)[O-])cc4F)c4nc(c(-c5c(F)cc(S(=O)(=O)[O-])cc5F)c5ccc2[nH]5)C=C4)C=C3)cc1
REMARK SMILES IDX 24 1 23 2 22 3 1 4 2 5 3 7 4 8 5 9 6 10 7 11 20 12 8 13 9 14
REMARK SMILES IDX 19 15 21 16 10 17 11 18 12 19 17 20 13 21 16 22 14 23 15 24
REMARK SMILES IDX 18 25 25 27 26 28 27 29 28 30 29 31 30 32 31 34 32 35 33 36
REMARK SMILES IDX 97 37 34 38 96 39 35 40 36 41 37 42 90 43 38 44 95 45 89 46
REMARK SMILES IDX 91 47 39 48 94 49 88 50 87 51 40 53 74 54 53 55 73 56 54 57
REMARK SMILES IDX 57 58 72 59 92 60 55 61 56 62 71 64 93 65 58 66 41 67 42 68
REMARK SMILES IDX 51 69 43 70 44 71 50 72 52 73 45 74 46 75 47 76 48 77 49 78
REMARK SMILES IDX 75 79 76 80 85 81 77 82 78 83 84 84 86 85 79 86 80 87 81 88
REMARK SMILES IDX 82 89 83 90 59 91 60 92 69 93 61 94 62 95 68 96 70 97 63 98
REMARK SMILES IDX 64 99 65 100 66 101 67 102
REMARK H PARENT 22 6 18 26 29 33 91 52 57 63
REMARK Flexibility Score: inf
ROOT
ATOM      1  C   UNL     1       2.650   0.814   3.369  1.00  0.00     0.021 C 
ENDROOT
BRANCH   1   2
ATOM      2  C   UNL     1       2.071   1.367   2.068  1.00  0.00     0.116 C 
BRANCH   2   3
ATOM      3  N   UNL     1       2.666   0.711   0.924  1.00  0.00    -0.356 N 
ATOM      4  O   UNL     1       0.754   0.601  -0.344  1.00  0.00    -0.275 OA
ATOM      5  C   UNL     1       1.941   0.349  -0.182  1.00  0.00     0.220 C 
ATOM      6  H   UNL     1       3.631   0.516   0.940  1.00  0.00     0.163 HD
BRANCH   5   7
ATOM      7  C   UNL     1       2.735  -0.460  -1.179  1.00  0.00     0.102 C 
BRANCH   7   8
ATOM      8  C   UNL     1       3.742   0.359  -1.984  1.00  0.00     0.032 C 
BRANCH   8   9
ATOM      9  C   UNL     1       5.110   0.633  -1.339  1.00  0.00     0.128 C 
BRANCH   9  10
ATOM     10  N   UNL     1       5.790  -0.453  -0.620  1.00  0.00    -0.293 N 
ATOM     11  C   UNL     1       6.647  -0.095   0.421  1.00  0.00     0.266 C 
ATOM     12  C   UNL     1       5.867  -1.781  -0.988  1.00  0.00     0.148 C 
ATOM     13  O   UNL     1       6.858   1.043   0.823  1.00  0.00    -0.268 OA
ATOM     14  C   UNL     1       7.335  -1.297   0.961  1.00  0.00     0.081 C 
ATOM     15  S   UNL     1       6.563  -2.700   0.334  1.00  0.00    -0.054 SA
ATOM     16  S   UNL     1       5.450  -2.525  -2.420  1.00  0.00    -0.052 S 
ATOM     17  C   UNL     1       8.434  -1.251   1.731  1.00  0.00     0.033 C 
BRANCH  17  18
ATOM     18  C   UNL     1       9.147  -2.455   2.192  1.00  0.00     0.019 A 
ATOM     19  C   UNL     1       9.156  -2.745   3.561  1.00  0.00     0.027 A 
ATOM     20  C   UNL     1       9.738  -3.368   1.299  1.00  0.00     0.122 A 
ATOM     21  C   UNL     1       9.681  -3.958   4.009  1.00  0.00     0.018 A 
ATOM     22  C   UNL     1      10.246  -4.586   1.749  1.00  0.00     0.048 A 
ATOM     23  Br  UNL     1       9.652  -4.367   5.855  1.00  0.00    -0.051 Br
ATOM     24  C   UNL     1      10.205  -4.886   3.110  1.00  0.00     0.019 A 
BRANCH  20  25
ATOM     25  O   UNL     1       9.792  -3.064  -0.036  1.00  0.00    -0.507 OA
ATOM     26  H   UNL     1       9.452  -2.247  -0.344  1.00  0.00     0.293 HD
ENDBRANCH  20  25
ENDBRANCH  17  18
ENDBRANCH   9  10
ENDBRANCH   8   9
ENDBRANCH   7   8
ENDBRANCH   5   7
ENDBRANCH   2   3
ENDBRANCH   1   2
BRANCH   1  27
ATOM     27  C   UNL     1       4.164   1.011   3.531  1.00  0.00     0.002 C 
BRANCH  27  28
ATOM     28  C   UNL     1       4.644   2.462   3.445  1.00  0.00     0.002 C 
BRANCH  28  29
ATOM     29  C   UNL     1       3.986   3.417   4.444  1.00  0.00     0.021 C 
BRANCH  29  30
ATOM     30  C   UNL     1       4.125   3.007   5.907  1.00  0.00     0.116 C 
BRANCH  30  31
ATOM     31  N   UNL     1       5.510   2.981   6.344  1.00  0.00    -0.352 N 
ATOM     32  C   UNL     1       6.086   3.552   7.452  1.00  0.00     0.251 C 
ATOM     33  H   UNL     1       6.126   2.480   5.761  1.00  0.00     0.163 HD
ATOM     34  O   UNL     1       7.309   3.566   7.562  1.00  0.00    -0.269 OA
BRANCH  32  35
ATOM     35  C   UNL     1       5.239   4.170   8.498  1.00  0.00     0.039 A 
ATOM     36  C   UNL     1       5.633   5.395   9.042  1.00  0.00     0.014 A 
ATOM     37  C   UNL     1       4.071   3.549   8.949  1.00  0.00     0.014 A 
ATOM     38  C   UNL     1       4.828   6.021   9.995  1.00  0.00     0.010 A 
ATOM     39  C   UNL     1       3.229   4.212   9.841  1.00  0.00     0.010 A 
ATOM     40  C   UNL     1       3.600   5.453  10.379  1.00  0.00    -0.014 A 
BRANCH  40  41
ATOM     41  C   UNL     1       2.697   6.163  11.323  1.00  0.00     0.031 A 
ATOM     42  C   UNL     1       2.363   5.569  12.665  1.00  0.00     0.074 A 
ATOM     43  C   UNL     1       2.146   7.336  10.951  1.00  0.00     0.049 A 
ATOM     44  N   UNL     1       1.617   6.059  13.622  1.00  0.00    -0.248 NA
ATOM     45  C   UNL     1       2.919   4.240  12.963  1.00  0.00     0.031 C 
ATOM     46  C   UNL     1       2.347   7.990   9.656  1.00  0.00     0.029 A 
ATOM     47  N   UNL     1       1.312   8.191  11.627  1.00  0.00    -0.354 N 
ATOM     48  C   UNL     1       1.602   5.097  14.627  1.00  0.00     0.074 A 
ATOM     49  C   UNL     1       2.371   3.972  14.139  1.00  0.00     0.031 C 
ATOM     50  C   UNL     1       1.696   9.164   9.649  1.00  0.00     0.029 A 
ATOM     51  C   UNL     1       0.999   9.329  10.921  1.00  0.00     0.049 A 
ATOM     52  H   UNL     1       0.969   8.007  12.531  1.00  0.00     0.167 HD
ATOM     53  C   UNL     1       1.020   5.154  15.849  1.00  0.00     0.037 A 
ATOM     54  C   UNL     1       0.242  10.391  11.260  1.00  0.00     0.037 A 
ATOM     55  C   UNL     1       0.268   6.285  16.332  1.00  0.00     0.049 A 
ATOM     56  C   UNL     1      -0.395  10.430  12.622  1.00  0.00     0.074 A 
ATOM     57  C   UNL     1      -0.297   6.473  17.582  1.00  0.00     0.029 A 
ATOM     58  N   UNL     1      -0.038   7.414  15.584  1.00  0.00    -0.354 N 
ATOM     59  N   UNL     1      -0.324   9.550  13.593  1.00  0.00    -0.248 NA
ATOM     60  C   UNL     1      -1.211  11.610  12.935  1.00  0.00     0.031 C 
ATOM     61  C   UNL     1      -0.998   7.685  17.568  1.00  0.00     0.029 A 
ATOM     62  C   UNL     1      -0.816   8.284  16.333  1.00  0.00     0.049 A 
ATOM     63  H   UNL     1       0.254   7.573  14.658  1.00  0.00     0.167 HD
ATOM     64  C   UNL     1      -1.064  10.084  14.643  1.00  0.00     0.074 A 
ATOM     65  C   UNL     1      -1.555  11.371  14.193  1.00  0.00     0.031 C 
ATOM     66  C   UNL     1      -1.312   9.558  15.870  1.00  0.00     0.037 A 
BRANCH  53  67
ATOM     67  C   UNL     1       1.159   3.950  16.745  1.00  0.00     0.058 A 
ATOM     68  C   UNL     1       2.394   3.568  17.296  1.00  0.00     0.135 A 
ATOM     69  C   UNL     1       0.034   3.175  17.075  1.00  0.00     0.135 A 
ATOM     70  F   UNL     1       3.507   4.263  17.009  1.00  0.00    -0.206 F 
ATOM     71  C   UNL     1       2.517   2.440  18.102  1.00  0.00     0.059 A 
ATOM     72  C   UNL     1       0.128   2.062  17.907  1.00  0.00     0.059 A 
ATOM     73  F   UNL     1      -1.173   3.493  16.583  1.00  0.00    -0.206 F 
ATOM     74  C   UNL     1       1.378   1.691  18.399  1.00  0.00     0.060 A 
BRANCH  74  75
ATOM     75  S   UNL     1       1.557   0.221  19.431  1.00  0.00     0.124 S 
ATOM     76  O   UNL     1       2.233  -0.695  18.518  1.00  0.00    -0.237 OA
ATOM     77  O   UNL     1       2.363   0.717  20.543  1.00  0.00    -0.237 OA
ATOM     78  O   UNL     1       0.180  -0.130  19.767  1.00  0.00    -0.744 OA
ENDBRANCH  74  75
ENDBRANCH  53  67
BRANCH  54  79
ATOM     79  C   UNL     1       0.087  11.526  10.310  1.00  0.00     0.058 A 
ATOM     80  C   UNL     1       0.680  12.770  10.575  1.00  0.00     0.135 A 
ATOM     81  C   UNL     1      -0.636  11.388   9.115  1.00  0.00     0.135 A 
ATOM     82  F   UNL     1       1.374  12.954  11.708  1.00  0.00    -0.206 F 
ATOM     83  C   UNL     1       0.553  13.840   9.696  1.00  0.00     0.059 A 
ATOM     84  C   UNL     1      -0.753  12.436   8.207  1.00  0.00     0.059 A 
ATOM     85  F   UNL     1      -1.210  10.215   8.807  1.00  0.00    -0.206 F 
ATOM     86  C   UNL     1      -0.160  13.661   8.510  1.00  0.00     0.060 A 
BRANCH  86  87
ATOM     87  S   UNL     1      -0.265  15.040   7.349  1.00  0.00     0.124 S 
ATOM     88  O   UNL     1      -1.159  15.951   8.053  1.00  0.00    -0.237 OA
ATOM     89  O   UNL     1       1.129  15.461   7.250  1.00  0.00    -0.237 OA
ATOM     90  O   UNL     1      -0.812  14.423   6.144  1.00  0.00    -0.744 OA
ENDBRANCH  86  87
ENDBRANCH  54  79
BRANCH  66  91
ATOM     91  C   UNL     1      -2.134  10.390  16.819  1.00  0.00     0.058 A 
ATOM     92  C   UNL     1      -3.501  10.630  16.603  1.00  0.00     0.135 A 
ATOM     93  C   UNL     1      -1.548  10.949  17.967  1.00  0.00     0.135 A 
ATOM     94  F   UNL     1      -4.113  10.124  15.520  1.00  0.00    -0.206 F 
ATOM     95  C   UNL     1      -4.244  11.433  17.462  1.00  0.00     0.059 A 
ATOM     96  C   UNL     1      -2.281  11.726  18.859  1.00  0.00     0.059 A 
ATOM     97  F   UNL     1      -0.248  10.741  18.233  1.00  0.00    -0.206 F 
ATOM     98  C   UNL     1      -3.623  11.980  18.586  1.00  0.00     0.060 A 
BRANCH  98  99
ATOM     99  S   UNL     1      -4.597  13.025  19.690  1.00  0.00     0.124 S 
ATOM    100  O   UNL     1      -4.731  14.243  18.899  1.00  0.00    -0.237 OA
ATOM    101  O   UNL     1      -5.818  12.244  19.864  1.00  0.00    -0.237 OA
ATOM    102  O   UNL     1      -3.757  13.138  20.880  1.00  0.00    -0.744 OA
ENDBRANCH  98  99
ENDBRANCH  66  91
ENDBRANCH  40  41
ENDBRANCH  32  35
ENDBRANCH  30  31
ENDBRANCH  29  30
ENDBRANCH  28  29
ENDBRANCH  27  28
ENDBRANCH   1  27
TORSDOF 21
