REMARK SMILES Cc1c(-c2nn(-c3ccccc3)cc2/C=N/O)nnn1-c1ccc(C(=O)NCCCCCCNC(=O)c2ccc(-c3c4nc(c(-c5c(F)cc(S(=O)(=O)[O-])cc5F)c5ccc([nH]5)c(-c5c(F)cc(S(=O)(=O)[O-])cc5F)c5nc(c(-c6c(F)cc(S(=O)(=O)[O-])cc6F)c6ccc3[nH]6)C=C5)C=C4)cc2)cc1
REMARK SMILES IDX 30 1 29 2 28 3 27 4 25 5 26 6 24 8 21 9 22 10 104 11 23 12
REMARK SMILES IDX 103 13 20 14 1 15 2 16 3 17 18 18 19 19 4 20 5 21 14 22 6 23
REMARK SMILES IDX 13 24 15 25 16 26 17 27 7 29 8 30 12 31 9 32 11 33 10 34
REMARK SMILES IDX 31 35 32 36 33 37 34 38 35 39 36 41 37 42 38 43 102 44 39 45
REMARK SMILES IDX 101 46 40 47 41 48 42 49 95 50 43 51 100 52 94 53 96 54
REMARK SMILES IDX 44 55 99 56 93 57 92 58 45 60 79 61 58 62 78 63 59 64 62 65
REMARK SMILES IDX 77 66 97 67 60 68 61 69 76 71 98 72 63 73 46 74 47 75 56 76
REMARK SMILES IDX 48 77 49 78 55 79 57 80 50 81 51 82 52 83 53 84 54 85 80 86
REMARK SMILES IDX 81 87 90 88 82 89 83 90 89 91 91 92 84 93 85 94 86 95 87 96
REMARK SMILES IDX 88 97 64 98 65 99 74 100 66 101 67 102 73 103 75 104 68 105
REMARK SMILES IDX 69 106 70 107 71 108 72 109
REMARK H PARENT 27 7 17 28 34 40 96 59 62 70
REMARK Flexibility Score: inf
ROOT
ATOM      1  C   UNL     1       6.669   1.846  -6.651  1.00  0.00     0.002 C 
ENDROOT
BRANCH   1   2
ATOM      2  C   UNL     1       5.444   1.904  -5.727  1.00  0.00     0.021 C 
BRANCH   2   3
ATOM      3  C   UNL     1       5.703   1.287  -4.352  1.00  0.00     0.116 C 
BRANCH   3   4
ATOM      4  N   UNL     1       6.423   2.224  -3.513  1.00  0.00    -0.352 N 
ATOM      5  C   UNL     1       6.065   3.017  -2.455  1.00  0.00     0.251 C 
ATOM      6  O   UNL     1       6.953   3.719  -1.966  1.00  0.00    -0.269 OA
ATOM      7  H   UNL     1       7.373   2.309  -3.755  1.00  0.00     0.163 HD
BRANCH   5   8
ATOM      8  C   UNL     1       4.715   3.006  -1.819  1.00  0.00     0.039 A 
ATOM      9  C   UNL     1       2.328   2.843  -0.353  1.00  0.00     0.067 A 
ATOM     10  C   UNL     1       3.445   3.447   0.221  1.00  0.00     0.029 A 
ATOM     11  C   UNL     1       2.363   2.407  -1.680  1.00  0.00     0.029 A 
ATOM     12  C   UNL     1       4.641   3.489  -0.499  1.00  0.00     0.016 A 
ATOM     13  C   UNL     1       3.538   2.557  -2.424  1.00  0.00     0.016 A 
BRANCH   9  14
ATOM     14  N   UNL     1       1.149   2.701   0.403  1.00  0.00    -0.217 N 
ATOM     15  C   UNL     1       0.705   0.216   0.107  1.00  0.00     0.069 C 
ATOM     16  C   UNL     1       0.341   1.588   0.532  1.00  0.00     0.071 A 
ATOM     17  C   UNL     1      -0.742   2.077   1.235  1.00  0.00     0.137 A 
ATOM     18  N   UNL     1      -0.511   3.363   1.626  1.00  0.00    -0.128 NA
ATOM     19  N   UNL     1       0.693   3.706   1.186  1.00  0.00    -0.061 NA
BRANCH  17  20
ATOM     20  C   UNL     1      -1.916   1.353   1.698  1.00  0.00     0.124 A 
ATOM     21  N   UNL     1      -1.857   0.550   2.765  1.00  0.00    -0.165 NA
ATOM     22  C   UNL     1      -3.198   1.373   1.103  1.00  0.00     0.044 A 
ATOM     23  N   UNL     1      -3.069  -0.038   2.811  1.00  0.00    -0.240 N 
ATOM     24  C   UNL     1      -3.905   0.425   1.822  1.00  0.00     0.125 A 
BRANCH  22  25
ATOM     25  C   UNL     1      -3.733   2.151   0.013  1.00  0.00     0.166 C 
ATOM     26  N   UNL     1      -2.956   2.916  -0.679  1.00  0.00    -0.097 NA
BRANCH  26  27
ATOM     27  O   UNL     1      -3.720   3.583  -1.646  1.00  0.00    -0.411 OA
ATOM     28  H   UNL     1      -3.308   4.181  -2.238  1.00  0.00     0.330 HD
ENDBRANCH  26  27
ENDBRANCH  22  25
BRANCH  23  29
ATOM     29  C   UNL     1      -3.333  -1.036   3.777  1.00  0.00     0.065 A 
ATOM     30  C   UNL     1      -2.695  -0.959   5.023  1.00  0.00     0.028 A 
ATOM     31  C   UNL     1      -4.181  -2.109   3.482  1.00  0.00     0.028 A 
ATOM     32  C   UNL     1      -2.919  -1.947   5.979  1.00  0.00     0.002 A 
ATOM     33  C   UNL     1      -4.357  -3.121   4.428  1.00  0.00     0.002 A 
ATOM     34  C   UNL     1      -3.736  -3.035   5.676  1.00  0.00     0.000 A 
ENDBRANCH  23  29
ENDBRANCH  17  20
ENDBRANCH   9  14
ENDBRANCH   5   8
ENDBRANCH   3   4
ENDBRANCH   2   3
ENDBRANCH   1   2
BRANCH   1  35
ATOM     35  C   UNL     1       7.257   0.442  -6.881  1.00  0.00     0.002 C 
BRANCH  35  36
ATOM     36  C   UNL     1       6.261  -0.646  -7.310  1.00  0.00     0.021 C 
BRANCH  36  37
ATOM     37  C   UNL     1       5.746  -0.450  -8.724  1.00  0.00     0.116 C 
BRANCH  37  38
ATOM     38  N   UNL     1       6.796  -0.660  -9.727  1.00  0.00    -0.352 N 
ATOM     39  C   UNL     1       6.712  -0.544 -11.107  1.00  0.00     0.251 C 
ATOM     40  H   UNL     1       7.678  -0.919  -9.373  1.00  0.00     0.163 HD
ATOM     41  O   UNL     1       7.524  -1.080 -11.836  1.00  0.00    -0.269 OA
BRANCH  39  42
ATOM     42  C   UNL     1       5.616   0.274 -11.655  1.00  0.00     0.039 A 
ATOM     43  C   UNL     1       4.910  -0.072 -12.811  1.00  0.00     0.014 A 
ATOM     44  C   UNL     1       5.282   1.408 -10.928  1.00  0.00     0.014 A 
ATOM     45  C   UNL     1       3.826   0.721 -13.187  1.00  0.00     0.010 A 
ATOM     46  C   UNL     1       4.081   2.008 -11.142  1.00  0.00     0.010 A 
ATOM     47  C   UNL     1       3.424   1.760 -12.337  1.00  0.00    -0.014 A 
BRANCH  47  48
ATOM     48  C   UNL     1       2.296   2.633 -12.618  1.00  0.00     0.031 A 
ATOM     49  C   UNL     1       0.976   1.950 -12.652  1.00  0.00     0.074 A 
ATOM     50  C   UNL     1       2.439   3.977 -12.533  1.00  0.00     0.049 A 
ATOM     51  N   UNL     1       0.181   1.797 -13.657  1.00  0.00    -0.248 NA
ATOM     52  C   UNL     1       0.557   1.204 -11.452  1.00  0.00     0.031 C 
ATOM     53  C   UNL     1       3.630   4.752 -12.141  1.00  0.00     0.029 A 
ATOM     54  N   UNL     1       1.499   4.946 -12.662  1.00  0.00    -0.354 N 
ATOM     55  C   UNL     1      -0.943   1.138 -13.162  1.00  0.00     0.074 A 
ATOM     56  C   UNL     1      -0.563   0.617 -11.877  1.00  0.00     0.031 C 
ATOM     57  C   UNL     1       3.275   6.020 -11.838  1.00  0.00     0.029 A 
ATOM     58  C   UNL     1       1.883   6.200 -12.194  1.00  0.00     0.049 A 
ATOM     59  H   UNL     1       0.613   4.775 -13.056  1.00  0.00     0.167 HD
ATOM     60  C   UNL     1      -2.167   1.280 -13.747  1.00  0.00     0.037 A 
ATOM     61  C   UNL     1       1.090   7.296 -12.089  1.00  0.00     0.037 A 
ATOM     62  C   UNL     1      -2.040   1.893 -15.046  1.00  0.00     0.049 A 
ATOM     63  C   UNL     1      -0.086   7.050 -12.968  1.00  0.00     0.074 A 
ATOM     64  C   UNL     1      -1.434   1.531 -16.233  1.00  0.00     0.029 A 
ATOM     65  N   UNL     1      -2.240   3.252 -15.123  1.00  0.00    -0.354 N 
ATOM     66  N   UNL     1      -0.003   6.923 -14.267  1.00  0.00    -0.248 NA
ATOM     67  C   UNL     1      -1.258   6.440 -12.359  1.00  0.00     0.031 C 
ATOM     68  C   UNL     1      -0.871   2.738 -16.741  1.00  0.00     0.029 A 
ATOM     69  C   UNL     1      -1.230   3.783 -15.886  1.00  0.00     0.049 A 
ATOM     70  H   UNL     1      -2.977   3.753 -14.706  1.00  0.00     0.167 HD
ATOM     71  C   UNL     1      -0.873   5.888 -14.588  1.00  0.00     0.074 A 
ATOM     72  C   UNL     1      -1.667   5.678 -13.377  1.00  0.00     0.031 C 
ATOM     73  C   UNL     1      -0.674   5.109 -15.693  1.00  0.00     0.037 A 
BRANCH  60  74
ATOM     74  C   UNL     1      -3.496   1.193 -13.030  1.00  0.00     0.058 A 
ATOM     75  C   UNL     1      -4.688   1.212 -13.785  1.00  0.00     0.135 A 
ATOM     76  C   UNL     1      -3.663   1.354 -11.636  1.00  0.00     0.135 A 
ATOM     77  F   UNL     1      -4.657   1.064 -15.120  1.00  0.00    -0.206 F 
ATOM     78  C   UNL     1      -5.938   1.454 -13.211  1.00  0.00     0.059 A 
ATOM     79  C   UNL     1      -4.905   1.541 -11.037  1.00  0.00     0.059 A 
ATOM     80  F   UNL     1      -2.628   1.437 -10.793  1.00  0.00    -0.206 F 
ATOM     81  C   UNL     1      -6.032   1.634 -11.835  1.00  0.00     0.060 A 
BRANCH  81  82
ATOM     82  S   UNL     1      -7.622   2.054 -11.102  1.00  0.00     0.124 S 
ATOM     83  O   UNL     1      -7.840   3.397 -11.628  1.00  0.00    -0.237 OA
ATOM     84  O   UNL     1      -8.488   1.008 -11.637  1.00  0.00    -0.237 OA
ATOM     85  O   UNL     1      -7.363   1.972  -9.668  1.00  0.00    -0.744 OA
ENDBRANCH  81  82
ENDBRANCH  60  74
BRANCH  61  86
ATOM     86  C   UNL     1       1.103   8.325 -11.015  1.00  0.00     0.058 A 
ATOM     87  C   UNL     1       0.494   9.581 -11.181  1.00  0.00     0.135 A 
ATOM     88  C   UNL     1       1.485   7.991  -9.699  1.00  0.00     0.135 A 
ATOM     89  F   UNL     1       0.072   9.967 -12.395  1.00  0.00    -0.206 F 
ATOM     90  C   UNL     1       0.253  10.443 -10.103  1.00  0.00     0.059 A 
ATOM     91  C   UNL     1       1.258   8.833  -8.610  1.00  0.00     0.059 A 
ATOM     92  F   UNL     1       2.012   6.788  -9.421  1.00  0.00    -0.206 F 
ATOM     93  C   UNL     1       0.624  10.053  -8.816  1.00  0.00     0.060 A 
BRANCH  93  94
ATOM     94  S   UNL     1       0.182  11.095  -7.402  1.00  0.00     0.124 S 
ATOM     95  O   UNL     1       1.034  12.261  -7.610  1.00  0.00    -0.237 OA
ATOM     96  O   UNL     1      -1.247  11.303  -7.608  1.00  0.00    -0.237 OA
ATOM     97  O   UNL     1       0.529  10.266  -6.250  1.00  0.00    -0.744 OA
ENDBRANCH  93  94
ENDBRANCH  61  86
BRANCH  73  98
ATOM     98  C   UNL     1       0.361   5.551 -16.705  1.00  0.00     0.058 A 
ATOM     99  C   UNL     1       1.748   5.592 -16.466  1.00  0.00     0.135 A 
ATOM    100  C   UNL     1      -0.060   5.762 -18.025  1.00  0.00     0.135 A 
ATOM    101  F   UNL     1       2.247   5.309 -15.257  1.00  0.00    -0.206 F 
ATOM    102  C   UNL     1       2.668   5.857 -17.484  1.00  0.00     0.059 A 
ATOM    103  C   UNL     1       0.840   5.998 -19.062  1.00  0.00     0.059 A 
ATOM    104  F   UNL     1      -1.364   5.676 -18.335  1.00  0.00    -0.206 F 
ATOM    105  C   UNL     1       2.204   6.053 -18.783  1.00  0.00     0.060 A 
BRANCH 105 106
ATOM    106  S   UNL     1       3.394   6.308 -20.119  1.00  0.00     0.124 S 
ATOM    107  O   UNL     1       3.895   7.648 -19.831  1.00  0.00    -0.237 OA
ATOM    108  O   UNL     1       4.343   5.219 -19.912  1.00  0.00    -0.237 OA
ATOM    109  O   UNL     1       2.581   6.192 -21.327  1.00  0.00    -0.744 OA
ENDBRANCH 105 106
ENDBRANCH  73  98
ENDBRANCH  47  48
ENDBRANCH  39  42
ENDBRANCH  37  38
ENDBRANCH  36  37
ENDBRANCH  35  36
ENDBRANCH   1  35
TORSDOF 21
