REMARK SMILES Cc1cscc1-c1noc(SCC(=O)NCCCCCCNC(=O)c2ccc(-c3c4nc(c(-c5c(F)cc(S(=O)(=O)[O-])cc5F)c5ccc([nH]5)c(-c5c(F)cc(S(=O)(=O)[O-])cc5F)c5nc(c(-c6c(F)cc(S(=O)(=O)[O-])cc6F)c6ccc3[nH]6)C=C5)C=C4)cc2)n1
REMARK SMILES IDX 18 1 17 2 16 3 15 4 13 5 14 6 12 8 11 9 10 10 7 11 8 12
REMARK SMILES IDX 91 13 9 14 6 15 1 16 2 17 3 18 4 19 5 20 19 21 20 22 21 23
REMARK SMILES IDX 22 24 23 25 24 27 25 28 26 29 90 30 27 31 89 32 28 33 29 34
REMARK SMILES IDX 30 35 83 36 31 37 88 38 82 39 84 40 32 41 87 42 81 43 80 44
REMARK SMILES IDX 33 46 67 47 46 48 66 49 47 50 50 51 65 52 85 53 48 54 49 55
REMARK SMILES IDX 64 57 86 58 51 59 34 60 35 61 44 62 36 63 37 64 43 65 45 66
REMARK SMILES IDX 38 67 39 68 40 69 41 70 42 71 68 72 69 73 78 74 70 75 71 76
REMARK SMILES IDX 77 77 79 78 72 79 73 80 74 81 75 82 76 83 52 84 53 85 62 86
REMARK SMILES IDX 54 87 55 88 61 89 63 90 56 91 57 92 58 93 59 94 60 95
REMARK H PARENT 15 7 22 26 84 45 50 56
REMARK Flexibility Score: inf
ROOT
ATOM      1  C   UNL     1       7.595   2.484   0.530  1.00  0.00     0.002 C 
ENDROOT
BRANCH   1   2
ATOM      2  C   UNL     1       6.829   3.707   0.004  1.00  0.00     0.021 C 
BRANCH   2   3
ATOM      3  C   UNL     1       6.796   3.806  -1.522  1.00  0.00     0.116 C 
BRANCH   3   4
ATOM      4  N   UNL     1       6.031   2.710  -2.086  1.00  0.00    -0.355 N 
ATOM      5  C   UNL     1       4.801   2.702  -2.673  1.00  0.00     0.230 C 
ATOM      6  O   UNL     1       4.350   1.609  -3.026  1.00  0.00    -0.274 OA
ATOM      7  H   UNL     1       6.471   1.831  -2.037  1.00  0.00     0.163 HD
BRANCH   5   8
ATOM      8  C   UNL     1       4.083   3.994  -3.010  1.00  0.00     0.179 C 
BRANCH   8   9
ATOM      9  S   UNL     1       3.649   5.028  -1.595  1.00  0.00    -0.055 SA
BRANCH   9  10
ATOM     10  C   UNL     1       2.572   4.027  -0.683  1.00  0.00     0.286 A 
ATOM     11  C   UNL     1       1.317   2.504  -0.005  1.00  0.00     0.204 A 
ATOM     12  N   UNL     1       1.135   3.461   0.910  1.00  0.00    -0.056 NA
ATOM     13  N   UNL     1       2.198   2.812  -1.008  1.00  0.00    -0.181 NA
ATOM     14  O   UNL     1       1.989   4.473   0.473  1.00  0.00    -0.327 OA
BRANCH  11  15
ATOM     15  C   UNL     1       0.573   1.246  -0.013  1.00  0.00     0.036 A 
ATOM     16  C   UNL     1       2.661  -0.313  -0.098  1.00  0.00     0.046 C 
ATOM     17  C   UNL     1       1.190  -0.051  -0.067  1.00  0.00    -0.029 A 
ATOM     18  C   UNL     1       0.225  -1.044  -0.058  1.00  0.00     0.069 A 
ATOM     19  S   UNL     1      -1.369  -0.432   0.018  1.00  0.00    -0.151 S 
ATOM     20  C   UNL     1      -0.803   1.178   0.054  1.00  0.00     0.077 A 
ENDBRANCH  11  15
ENDBRANCH   9  10
ENDBRANCH   8   9
ENDBRANCH   5   8
ENDBRANCH   3   4
ENDBRANCH   2   3
ENDBRANCH   1   2
BRANCH   1  21
ATOM     21  C   UNL     1       9.059   2.397   0.085  1.00  0.00     0.002 C 
BRANCH  21  22
ATOM     22  C   UNL     1       9.908   3.624   0.421  1.00  0.00     0.021 C 
BRANCH  22  23
ATOM     23  C   UNL     1       9.983   3.951   1.908  1.00  0.00     0.116 C 
BRANCH  23  24
ATOM     24  N   UNL     1      10.643   2.900   2.665  1.00  0.00    -0.352 N 
ATOM     25  C   UNL     1      11.698   2.994   3.537  1.00  0.00     0.251 C 
ATOM     26  H   UNL     1      10.284   1.993   2.533  1.00  0.00     0.163 HD
ATOM     27  O   UNL     1      12.260   1.973   3.931  1.00  0.00    -0.269 OA
BRANCH  25  28
ATOM     28  C   UNL     1      12.167   4.322   3.989  1.00  0.00     0.039 A 
ATOM     29  C   UNL     1      13.540   4.570   4.057  1.00  0.00     0.014 A 
ATOM     30  C   UNL     1      11.255   5.317   4.356  1.00  0.00     0.014 A 
ATOM     31  C   UNL     1      13.997   5.829   4.453  1.00  0.00     0.010 A 
ATOM     32  C   UNL     1      11.710   6.594   4.669  1.00  0.00     0.010 A 
ATOM     33  C   UNL     1      13.086   6.860   4.739  1.00  0.00    -0.014 A 
BRANCH  33  34
ATOM     34  C   UNL     1      13.553   8.210   5.147  1.00  0.00     0.031 A 
ATOM     35  C   UNL     1      13.211   8.743   6.514  1.00  0.00     0.074 A 
ATOM     36  C   UNL     1      14.240   8.975   4.276  1.00  0.00     0.049 A 
ATOM     37  N   UNL     1      13.479   9.912   7.037  1.00  0.00    -0.248 NA
ATOM     38  C   UNL     1      12.441   7.854   7.400  1.00  0.00     0.031 C 
ATOM     39  C   UNL     1      14.593   8.591   2.908  1.00  0.00     0.029 A 
ATOM     40  N   UNL     1      14.757  10.240   4.408  1.00  0.00    -0.354 N 
ATOM     41  C   UNL     1      12.899   9.904   8.301  1.00  0.00     0.074 A 
ATOM     42  C   UNL     1      12.213   8.639   8.442  1.00  0.00     0.031 C 
ATOM     43  C   UNL     1      15.290   9.587   2.337  1.00  0.00     0.029 A 
ATOM     44  C   UNL     1      15.401  10.694   3.281  1.00  0.00     0.049 A 
ATOM     45  H   UNL     1      14.676  10.771   5.233  1.00  0.00     0.167 HD
ATOM     46  C   UNL     1      12.956  10.851   9.268  1.00  0.00     0.037 A 
ATOM     47  C   UNL     1      16.008  11.872   3.035  1.00  0.00     0.037 A 
ATOM     48  C   UNL     1      13.661  12.100   9.128  1.00  0.00     0.049 A 
ATOM     49  C   UNL     1      16.061  12.910   4.124  1.00  0.00     0.074 A 
ATOM     50  C   UNL     1      13.822  13.106  10.064  1.00  0.00     0.029 A 
ATOM     51  N   UNL     1      14.321  12.513   7.979  1.00  0.00    -0.354 N 
ATOM     52  N   UNL     1      15.557  12.863   5.335  1.00  0.00    -0.248 NA
ATOM     53  C   UNL     1      16.776  14.156   3.819  1.00  0.00     0.031 C 
ATOM     54  C   UNL     1      14.536  14.150   9.465  1.00  0.00     0.029 A 
ATOM     55  C   UNL     1      14.875  13.768   8.177  1.00  0.00     0.049 A 
ATOM     56  H   UNL     1      14.386  11.992   7.147  1.00  0.00     0.167 HD
ATOM     57  C   UNL     1      15.927  14.056   5.948  1.00  0.00     0.074 A 
ATOM     58  C   UNL     1      16.702  14.799   4.976  1.00  0.00     0.031 C 
ATOM     59  C   UNL     1      15.654  14.492   7.203  1.00  0.00     0.037 A 
BRANCH  46  60
ATOM     60  C   UNL     1      12.235  10.573  10.561  1.00  0.00     0.058 A 
ATOM     61  C   UNL     1      12.666   9.573  11.448  1.00  0.00     0.135 A 
ATOM     62  C   UNL     1      11.112  11.332  10.930  1.00  0.00     0.135 A 
ATOM     63  F   UNL     1      13.724   8.805  11.142  1.00  0.00    -0.206 F 
ATOM     64  C   UNL     1      11.988   9.309  12.634  1.00  0.00     0.059 A 
ATOM     65  C   UNL     1      10.439  11.108  12.127  1.00  0.00     0.059 A 
ATOM     66  F   UNL     1      10.656  12.302  10.122  1.00  0.00    -0.206 F 
ATOM     67  C   UNL     1      10.874  10.082  12.965  1.00  0.00     0.060 A 
BRANCH  67  68
ATOM     68  S   UNL     1      10.005   9.726  14.506  1.00  0.00     0.124 S 
ATOM     69  O   UNL     1       9.348   8.463  14.183  1.00  0.00    -0.237 OA
ATOM     70  O   UNL     1      11.099   9.643  15.468  1.00  0.00    -0.237 OA
ATOM     71  O   UNL     1       9.116  10.871  14.668  1.00  0.00    -0.744 OA
ENDBRANCH  67  68
ENDBRANCH  46  60
BRANCH  47  72
ATOM     72  C   UNL     1      16.640  12.119   1.711  1.00  0.00     0.058 A 
ATOM     73  C   UNL     1      18.035  12.194   1.578  1.00  0.00     0.135 A 
ATOM     74  C   UNL     1      15.866  12.270   0.550  1.00  0.00     0.135 A 
ATOM     75  F   UNL     1      18.819  12.062   2.659  1.00  0.00    -0.206 F 
ATOM     76  C   UNL     1      18.640  12.428   0.347  1.00  0.00     0.059 A 
ATOM     77  C   UNL     1      16.448  12.476  -0.697  1.00  0.00     0.059 A 
ATOM     78  F   UNL     1      14.528  12.189   0.618  1.00  0.00    -0.206 F 
ATOM     79  C   UNL     1      17.837  12.564  -0.786  1.00  0.00     0.060 A 
BRANCH  79  80
ATOM     80  S   UNL     1      18.634  12.815  -2.387  1.00  0.00     0.124 S 
ATOM     81  O   UNL     1      19.119  14.185  -2.263  1.00  0.00    -0.237 OA
ATOM     82  O   UNL     1      19.656  11.773  -2.386  1.00  0.00    -0.237 OA
ATOM     83  O   UNL     1      17.546  12.614  -3.339  1.00  0.00    -0.744 OA
ENDBRANCH  79  80
ENDBRANCH  47  72
BRANCH  59  84
ATOM     84  C   UNL     1      16.244  15.813   7.621  1.00  0.00     0.058 A 
ATOM     85  C   UNL     1      15.790  17.033   7.097  1.00  0.00     0.135 A 
ATOM     86  C   UNL     1      17.258  15.855   8.593  1.00  0.00     0.135 A 
ATOM     87  F   UNL     1      14.826  17.050   6.163  1.00  0.00    -0.206 F 
ATOM     88  C   UNL     1      16.345  18.246   7.494  1.00  0.00     0.059 A 
ATOM     89  C   UNL     1      17.804  17.058   9.029  1.00  0.00     0.059 A 
ATOM     90  F   UNL     1      17.721  14.719   9.139  1.00  0.00    -0.206 F 
ATOM     91  C   UNL     1      17.352  18.248   8.461  1.00  0.00     0.060 A 
BRANCH  91  92
ATOM     92  S   UNL     1      18.054  19.829   8.978  1.00  0.00     0.124 S 
ATOM     93  O   UNL     1      18.862  20.185   7.816  1.00  0.00    -0.237 OA
ATOM     94  O   UNL     1      16.862  20.643   9.195  1.00  0.00    -0.237 OA
ATOM     95  O   UNL     1      18.803  19.490  10.184  1.00  0.00    -0.744 OA
ENDBRANCH  91  92
ENDBRANCH  59  84
ENDBRANCH  33  34
ENDBRANCH  25  28
ENDBRANCH  23  24
ENDBRANCH  22  23
ENDBRANCH  21  22
ENDBRANCH   1  21
TORSDOF 19
