REMARK SMILES O=C(CCC(=O)Nc1cc(Cl)cc(Cl)c1)NCCCCCCNC(=O)c1ccc(-c2c3nc(c(-c4c(F)cc(S(=O)(=O)[O-])cc4F)c4ccc([nH]4)c(-c4c(F)cc(S(=O)(=O)[O-])cc4F)c4nc(c(-c5c(F)cc(S(=O)(=O)[O-])cc5F)c5ccc2[nH]5)C=C4)C=C3)cc1
REMARK SMILES IDX 19 1 18 2 17 3 16 4 1 5 2 6 3 8 4 9 5 10 6 11 7 12 8 14 9 15
REMARK SMILES IDX 15 16 10 17 13 18 11 19 12 20 14 21 20 22 21 23 22 24 23 25
REMARK SMILES IDX 24 26 25 28 26 29 27 30 91 31 28 32 90 33 29 34 30 35 31 36
REMARK SMILES IDX 84 37 32 38 89 39 83 40 85 41 33 42 88 43 82 44 81 45 34 47
REMARK SMILES IDX 68 48 47 49 67 50 48 51 51 52 66 53 86 54 49 55 50 56 65 58
REMARK SMILES IDX 87 59 52 60 35 61 36 62 45 63 37 64 38 65 44 66 46 67 39 68
REMARK SMILES IDX 40 69 41 70 42 71 43 72 69 73 70 74 79 75 71 76 72 77 78 78
REMARK SMILES IDX 80 79 73 80 74 81 75 82 76 83 77 84 53 85 54 86 63 87 55 88
REMARK SMILES IDX 56 89 62 90 64 91 57 92 58 93 59 94 60 95 61 96
REMARK H PARENT 16 7 7 13 23 27 85 46 51 57
REMARK Flexibility Score: inf
ROOT
ATOM      1  C   UNL     1       4.720  -3.472   1.819  1.00  0.00     0.002 C 
ENDROOT
BRANCH   1   2
ATOM      2  C   UNL     1       3.328  -3.581   1.187  1.00  0.00     0.021 C 
BRANCH   2   3
ATOM      3  C   UNL     1       2.647  -2.253   0.877  1.00  0.00     0.116 C 
BRANCH   3   4
ATOM      4  N   UNL     1       3.461  -1.369   0.066  1.00  0.00    -0.356 N 
ATOM      5  O   UNL     1       1.779  -0.646  -1.328  1.00  0.00    -0.275 OA
ATOM      6  C   UNL     1       2.933  -0.573  -0.923  1.00  0.00     0.220 C 
ATOM      7  H   UNL     1       4.431  -1.339   0.229  1.00  0.00     0.163 HD
BRANCH   6   8
ATOM      8  C   UNL     1       3.879   0.499  -1.413  1.00  0.00     0.110 C 
BRANCH   8   9
ATOM      9  C   UNL     1       3.871   1.723  -0.500  1.00  0.00     0.110 C 
BRANCH   9  10
ATOM     10  C   UNL     1       4.483   1.429   0.845  1.00  0.00     0.224 C 
ATOM     11  O   UNL     1       5.711   1.294   0.923  1.00  0.00    -0.275 OA
ATOM     12  N   UNL     1       3.780   1.257   1.996  1.00  0.00    -0.326 N 
ATOM     13  H   UNL     1       4.367   1.252   2.786  1.00  0.00     0.169 HD
BRANCH  12  14
ATOM     14  C   UNL     1       2.425   1.084   2.345  1.00  0.00     0.044 A 
ATOM     15  C   UNL     1       1.342   1.058   1.469  1.00  0.00     0.046 A 
ATOM     16  C   UNL     1       2.180   0.811   3.701  1.00  0.00     0.046 A 
ATOM     17  C   UNL     1       0.064   0.709   1.924  1.00  0.00     0.044 A 
ATOM     18  C   UNL     1       0.899   0.471   4.147  1.00  0.00     0.044 A 
ATOM     19  Cl  UNL     1      -1.240   0.616   0.801  1.00  0.00    -0.084 Cl
ATOM     20  C   UNL     1      -0.164   0.405   3.259  1.00  0.00     0.041 A 
ATOM     21  Cl  UNL     1       0.650   0.095   5.806  1.00  0.00    -0.084 Cl
ENDBRANCH  12  14
ENDBRANCH   9  10
ENDBRANCH   8   9
ENDBRANCH   6   8
ENDBRANCH   3   4
ENDBRANCH   2   3
ENDBRANCH   1   2
BRANCH   1  22
ATOM     22  C   UNL     1       4.800  -2.705   3.143  1.00  0.00     0.002 C 
BRANCH  22  23
ATOM     23  C   UNL     1       3.984  -3.283   4.303  1.00  0.00     0.021 C 
BRANCH  23  24
ATOM     24  C   UNL     1       4.175  -4.773   4.572  1.00  0.00     0.116 C 
BRANCH  24  25
ATOM     25  N   UNL     1       5.562  -5.146   4.792  1.00  0.00    -0.352 N 
ATOM     26  C   UNL     1       6.092  -6.064   5.664  1.00  0.00     0.251 C 
ATOM     27  H   UNL     1       6.219  -4.671   4.232  1.00  0.00     0.163 HD
ATOM     28  O   UNL     1       7.315  -6.169   5.763  1.00  0.00    -0.269 OA
BRANCH  26  29
ATOM     29  C   UNL     1       5.208  -6.902   6.507  1.00  0.00     0.039 A 
ATOM     30  C   UNL     1       5.557  -7.104   7.846  1.00  0.00     0.014 A 
ATOM     31  C   UNL     1       4.058  -7.503   5.990  1.00  0.00     0.014 A 
ATOM     32  C   UNL     1       4.729  -7.865   8.675  1.00  0.00     0.010 A 
ATOM     33  C   UNL     1       3.196  -8.201   6.835  1.00  0.00     0.010 A 
ATOM     34  C   UNL     1       3.526  -8.398   8.184  1.00  0.00    -0.014 A 
BRANCH  34  35
ATOM     35  C   UNL     1       2.622  -9.189   9.060  1.00  0.00     0.031 A 
ATOM     36  C   UNL     1       2.369 -10.645   8.762  1.00  0.00     0.074 A 
ATOM     37  C   UNL     1       1.996  -8.593  10.095  1.00  0.00     0.049 A 
ATOM     38  N   UNL     1       1.562 -11.483   9.360  1.00  0.00    -0.248 NA
ATOM     39  C   UNL     1       3.103 -11.227   7.627  1.00  0.00     0.031 C 
ATOM     40  C   UNL     1       2.121  -7.180  10.460  1.00  0.00     0.029 A 
ATOM     41  N   UNL     1       1.121  -9.097  11.024  1.00  0.00    -0.354 N 
ATOM     42  C   UNL     1       1.690 -12.687   8.676  1.00  0.00     0.074 A 
ATOM     43  C   UNL     1       2.602 -12.453   7.578  1.00  0.00     0.031 C 
ATOM     44  C   UNL     1       1.362  -6.935  11.541  1.00  0.00     0.029 A 
ATOM     45  C   UNL     1       0.672  -8.161  11.927  1.00  0.00     0.049 A 
ATOM     46  H   UNL     1       0.840 -10.040  11.043  1.00  0.00     0.167 HD
ATOM     47  C   UNL     1       1.127 -13.887   8.956  1.00  0.00     0.037 A 
ATOM     48  C   UNL     1      -0.203  -8.277  12.946  1.00  0.00     0.037 A 
ATOM     49  C   UNL     1       0.234 -14.122  10.061  1.00  0.00     0.049 A 
ATOM     50  C   UNL     1      -0.812  -9.624  13.238  1.00  0.00     0.074 A 
ATOM     51  C   UNL     1      -0.384 -15.302  10.434  1.00  0.00     0.029 A 
ATOM     52  N   UNL     1      -0.156 -13.159  10.980  1.00  0.00    -0.354 N 
ATOM     53  N   UNL     1      -0.654 -10.758  12.598  1.00  0.00    -0.248 NA
ATOM     54  C   UNL     1      -1.706  -9.711  14.401  1.00  0.00     0.031 C 
ATOM     55  C   UNL     1      -1.168 -15.049  11.565  1.00  0.00     0.029 A 
ATOM     56  C   UNL     1      -1.001 -13.721  11.923  1.00  0.00     0.049 A 
ATOM     57  H   UNL     1       0.126 -12.216  10.965  1.00  0.00     0.167 HD
ATOM     58  C   UNL     1      -1.395 -11.700  13.304  1.00  0.00     0.074 A 
ATOM     59  C   UNL     1      -1.994 -11.005  14.424  1.00  0.00     0.031 C 
ATOM     60  C   UNL     1      -1.565 -13.021  13.049  1.00  0.00     0.037 A 
BRANCH  47  61
ATOM     61  C   UNL     1       1.482 -15.048   8.067  1.00  0.00     0.058 A 
ATOM     62  C   UNL     1       2.764 -15.621   8.095  1.00  0.00     0.135 A 
ATOM     63  C   UNL     1       0.527 -15.625   7.215  1.00  0.00     0.135 A 
ATOM     64  F   UNL     1       3.721 -15.099   8.878  1.00  0.00    -0.206 F 
ATOM     65  C   UNL     1       3.092 -16.711   7.296  1.00  0.00     0.059 A 
ATOM     66  C   UNL     1       0.825 -16.733   6.427  1.00  0.00     0.059 A 
ATOM     67  F   UNL     1      -0.713 -15.116   7.146  1.00  0.00    -0.206 F 
ATOM     68  C   UNL     1       2.115 -17.262   6.467  1.00  0.00     0.060 A 
BRANCH  68  69
ATOM     69  S   UNL     1       2.553 -18.691   5.454  1.00  0.00     0.124 S 
ATOM     70  O   UNL     1       3.409 -18.079   4.443  1.00  0.00    -0.237 OA
ATOM     71  O   UNL     1       3.228 -19.558   6.414  1.00  0.00    -0.237 OA
ATOM     72  O   UNL     1       1.264 -19.176   4.974  1.00  0.00    -0.744 OA
ENDBRANCH  68  69
ENDBRANCH  47  61
BRANCH  48  73
ATOM     73  C   UNL     1      -0.549  -7.093  13.779  1.00  0.00     0.058 A 
ATOM     74  C   UNL     1      -0.148  -7.006  15.121  1.00  0.00     0.135 A 
ATOM     75  C   UNL     1      -1.313  -6.038  13.257  1.00  0.00     0.135 A 
ATOM     76  F   UNL     1       0.582  -7.991  15.668  1.00  0.00    -0.206 F 
ATOM     77  C   UNL     1      -0.526  -5.938  15.928  1.00  0.00     0.059 A 
ATOM     78  C   UNL     1      -1.678  -4.944  14.036  1.00  0.00     0.059 A 
ATOM     79  F   UNL     1      -1.703  -6.060  11.973  1.00  0.00    -0.206 F 
ATOM     80  C   UNL     1      -1.297  -4.913  15.377  1.00  0.00     0.060 A 
BRANCH  80  81
ATOM     81  S   UNL     1      -1.779  -3.526  16.428  1.00  0.00     0.124 S 
ATOM     82  O   UNL     1      -2.830  -4.128  17.241  1.00  0.00    -0.237 OA
ATOM     83  O   UNL     1      -0.533  -3.216  17.121  1.00  0.00    -0.237 OA
ATOM     84  O   UNL     1      -2.221  -2.518  15.469  1.00  0.00    -0.744 OA
ENDBRANCH  80  81
ENDBRANCH  48  73
BRANCH  60  85
ATOM     85  C   UNL     1      -2.375 -13.817  14.034  1.00  0.00     0.058 A 
ATOM     86  C   UNL     1      -3.768 -13.681  14.136  1.00  0.00     0.135 A 
ATOM     87  C   UNL     1      -1.746 -14.756  14.868  1.00  0.00     0.135 A 
ATOM     88  F   UNL     1      -4.418 -12.795  13.364  1.00  0.00    -0.206 F 
ATOM     89  C   UNL     1      -4.505 -14.422  15.054  1.00  0.00     0.059 A 
ATOM     90  C   UNL     1      -2.466 -15.529  15.773  1.00  0.00     0.059 A 
ATOM     91  F   UNL     1      -0.417 -14.935  14.802  1.00  0.00    -0.206 F 
ATOM     92  C   UNL     1      -3.844 -15.342  15.870  1.00  0.00     0.060 A 
BRANCH  92  93
ATOM     93  S   UNL     1      -4.812 -16.309  17.048  1.00  0.00     0.124 S 
ATOM     94  O   UNL     1      -5.089 -15.318  18.083  1.00  0.00    -0.237 OA
ATOM     95  O   UNL     1      -5.958 -16.725  16.246  1.00  0.00    -0.237 OA
ATOM     96  O   UNL     1      -3.902 -17.383  17.435  1.00  0.00    -0.744 OA
ENDBRANCH  92  93
ENDBRANCH  60  85
ENDBRANCH  34  35
ENDBRANCH  26  29
ENDBRANCH  24  25
ENDBRANCH  23  24
ENDBRANCH  22  23
ENDBRANCH   1  22
TORSDOF 19
