REMARK SMILES CCc1ccc(S(=O)(=O)c2nnn(-c3ccc(C(=O)NCCCCCCNC(=O)c4ccc(-c5c6nc(c(-c7c(F)cc(S(=O)(=O)[O-])cc7F)c7ccc([nH]7)c(-c7c(F)cc(S(=O)(=O)[O-])cc7F)c7nc(c(-c8c(F)cc(S(=O)(=O)[O-])cc8F)c8ccc5[nH]8)C=C7)C=C6)cc4)cc3)c2C)cc1
REMARK SMILES IDX 23 1 22 2 21 3 20 4 18 5 19 6 17 8 14 9 15 10 97 11 16 12
REMARK SMILES IDX 96 13 13 14 10 15 11 16 98 17 12 18 99 19 7 20 8 21 9 22
REMARK SMILES IDX 6 23 3 24 4 25 101 26 5 27 100 28 2 29 1 30 24 31 25 32
REMARK SMILES IDX 26 33 27 34 28 35 29 37 30 38 31 39 95 40 32 41 94 42 33 43
REMARK SMILES IDX 34 44 35 45 88 46 36 47 93 48 87 49 89 50 37 51 92 52 86 53
REMARK SMILES IDX 85 54 38 56 72 57 51 58 71 59 52 60 55 61 70 62 90 63 53 64
REMARK SMILES IDX 54 65 69 67 91 68 56 69 39 70 40 71 49 72 41 73 42 74 48 75
REMARK SMILES IDX 50 76 43 77 44 78 45 79 46 80 47 81 73 82 74 83 83 84 75 85
REMARK SMILES IDX 76 86 82 87 84 88 77 89 78 90 79 91 80 92 81 93 57 94 58 95
REMARK SMILES IDX 67 96 59 97 60 98 66 99 68 100 61 101 62 102 63 103 64 104
REMARK SMILES IDX 65 105
REMARK H PARENT 20 7 27 36 89 55 55 66
REMARK Flexibility Score: inf
ROOT
ATOM      1  C   UNL     1      13.957  -5.087  -3.967  1.00  0.00     0.002 C 
ENDROOT
BRANCH   1   2
ATOM      2  C   UNL     1      12.459  -5.240  -4.260  1.00  0.00     0.021 C 
BRANCH   2   3
ATOM      3  C   UNL     1      11.643  -3.981  -3.958  1.00  0.00     0.116 C 
BRANCH   3   4
ATOM      4  N   UNL     1      11.780  -3.010  -5.029  1.00  0.00    -0.352 N 
ATOM      5  C   UNL     1      10.944  -2.603  -6.039  1.00  0.00     0.251 C 
ATOM      6  O   UNL     1      11.341  -1.696  -6.771  1.00  0.00    -0.269 OA
ATOM      7  H   UNL     1      12.651  -2.551  -5.032  1.00  0.00     0.163 HD
BRANCH   5   8
ATOM      8  C   UNL     1       9.561  -3.130  -6.221  1.00  0.00     0.039 A 
ATOM      9  C   UNL     1       6.854  -3.819  -6.324  1.00  0.00     0.067 A 
ATOM     10  C   UNL     1       7.277  -2.638  -6.933  1.00  0.00     0.029 A 
ATOM     11  C   UNL     1       7.783  -4.717  -5.793  1.00  0.00     0.029 A 
ATOM     12  C   UNL     1       8.627  -2.284  -6.846  1.00  0.00     0.016 A 
ATOM     13  C   UNL     1       9.140  -4.392  -5.799  1.00  0.00     0.016 A 
BRANCH   9  14
ATOM     14  N   UNL     1       5.478  -4.081  -6.180  1.00  0.00    -0.216 N 
ATOM     15  C   UNL     1       3.508  -4.617  -5.436  1.00  0.00     0.205 A 
ATOM     16  N   UNL     1       3.396  -4.244  -6.748  1.00  0.00    -0.117 NA
ATOM     17  C   UNL     1       4.810  -4.408  -5.010  1.00  0.00     0.081 A 
ATOM     18  N   UNL     1       4.584  -3.819  -7.157  1.00  0.00    -0.061 NA
ATOM     19  C   UNL     1       5.410  -4.321  -3.655  1.00  0.00     0.070 C 
BRANCH  15  20
ATOM     20  S   UNL     1       2.131  -4.992  -4.464  1.00  0.00     0.227 S 
ATOM     21  O   UNL     1       2.613  -5.911  -3.469  1.00  0.00    -0.217 OA
ATOM     22  O   UNL     1       1.060  -5.333  -5.397  1.00  0.00    -0.217 OA
BRANCH  20  23
ATOM     23  C   UNL     1       1.652  -3.500  -3.634  1.00  0.00     0.073 A 
ATOM     24  C   UNL     1       0.870  -1.215  -2.220  1.00  0.00    -0.048 A 
ATOM     25  C   UNL     1       0.284  -2.458  -1.940  1.00  0.00     0.005 A 
ATOM     26  C   UNL     1       1.857  -1.132  -3.212  1.00  0.00     0.005 A 
ATOM     27  C   UNL     1       0.676  -3.600  -2.639  1.00  0.00     0.021 A 
ATOM     28  C   UNL     1       2.241  -2.267  -3.927  1.00  0.00     0.021 A 
BRANCH  24  29
ATOM     29  C   UNL     1       0.445   0.020  -1.467  1.00  0.00     0.032 C 
ATOM     30  C   UNL     1       1.008   0.057  -0.055  1.00  0.00     0.009 C 
ENDBRANCH  24  29
ENDBRANCH  20  23
ENDBRANCH  15  20
ENDBRANCH   9  14
ENDBRANCH   5   8
ENDBRANCH   3   4
ENDBRANCH   2   3
ENDBRANCH   1   2
BRANCH   1  31
ATOM     31  C   UNL     1      14.325  -4.727  -2.519  1.00  0.00     0.002 C 
BRANCH  31  32
ATOM     32  C   UNL     1      13.693  -5.586  -1.414  1.00  0.00     0.021 C 
BRANCH  32  33
ATOM     33  C   UNL     1      14.181  -7.029  -1.383  1.00  0.00     0.116 C 
BRANCH  33  34
ATOM     34  N   UNL     1      15.596  -7.126  -1.022  1.00  0.00    -0.352 N 
ATOM     35  C   UNL     1      16.442  -8.213  -1.119  1.00  0.00     0.251 C 
ATOM     36  H   UNL     1      16.000  -6.304  -0.659  1.00  0.00     0.163 HD
ATOM     37  O   UNL     1      17.466  -8.267  -0.448  1.00  0.00    -0.269 OA
BRANCH  35  38
ATOM     38  C   UNL     1      16.086  -9.309  -2.036  1.00  0.00     0.039 A 
ATOM     39  C   UNL     1      16.251 -10.646  -1.671  1.00  0.00     0.014 A 
ATOM     40  C   UNL     1      15.529  -8.973  -3.265  1.00  0.00     0.014 A 
ATOM     41  C   UNL     1      15.761 -11.639  -2.518  1.00  0.00     0.010 A 
ATOM     42  C   UNL     1      14.900  -9.938  -4.011  1.00  0.00     0.010 A 
ATOM     43  C   UNL     1      15.057 -11.280  -3.679  1.00  0.00    -0.014 A 
BRANCH  43  44
ATOM     44  C   UNL     1      14.420 -12.301  -4.511  1.00  0.00     0.031 A 
ATOM     45  C   UNL     1      13.573 -13.293  -3.788  1.00  0.00     0.074 A 
ATOM     46  C   UNL     1      14.410 -12.265  -5.861  1.00  0.00     0.049 A 
ATOM     47  N   UNL     1      13.792 -14.558  -3.635  1.00  0.00    -0.248 NA
ATOM     48  C   UNL     1      12.396 -12.804  -3.055  1.00  0.00     0.031 C 
ATOM     49  C   UNL     1      14.913 -11.219  -6.760  1.00  0.00     0.029 A 
ATOM     50  N   UNL     1      13.827 -13.140  -6.725  1.00  0.00    -0.354 N 
ATOM     51  C   UNL     1      12.679 -15.070  -2.971  1.00  0.00     0.074 A 
ATOM     52  C   UNL     1      11.942 -13.928  -2.494  1.00  0.00     0.031 C 
ATOM     53  C   UNL     1      14.396 -11.396  -7.995  1.00  0.00     0.029 A 
ATOM     54  C   UNL     1      13.693 -12.663  -8.021  1.00  0.00     0.049 A 
ATOM     55  H   UNL     1      13.526 -14.037  -6.453  1.00  0.00     0.167 HD
ATOM     56  C   UNL     1      12.341 -16.389  -3.052  1.00  0.00     0.037 A 
ATOM     57  C   UNL     1      13.032 -13.256  -9.044  1.00  0.00     0.037 A 
ATOM     58  C   UNL     1      13.432 -17.179  -3.567  1.00  0.00     0.049 A 
ATOM     59  C   UNL     1      12.946 -14.703  -8.719  1.00  0.00     0.074 A 
ATOM     60  C   UNL     1      14.743 -17.389  -3.180  1.00  0.00     0.029 A 
ATOM     61  N   UNL     1      13.364 -17.605  -4.872  1.00  0.00    -0.354 N 
ATOM     62  N   UNL     1      13.983 -15.495  -8.646  1.00  0.00    -0.248 NA
ATOM     63  C   UNL     1      11.756 -15.175  -8.027  1.00  0.00     0.031 C 
ATOM     64  C   UNL     1      15.483 -17.425  -4.399  1.00  0.00     0.029 A 
ATOM     65  C   UNL     1      14.572 -17.307  -5.451  1.00  0.00     0.049 A 
ATOM     66  H   UNL     1      12.597 -18.041  -5.308  1.00  0.00     0.167 HD
ATOM     67  C   UNL     1      13.722 -16.328  -7.568  1.00  0.00     0.074 A 
ATOM     68  C   UNL     1      12.298 -16.149  -7.291  1.00  0.00     0.031 C 
ATOM     69  C   UNL     1      14.730 -16.874  -6.824  1.00  0.00     0.037 A 
BRANCH  56  70
ATOM     70  C   UNL     1      10.928 -16.923  -2.989  1.00  0.00     0.058 A 
ATOM     71  C   UNL     1      10.714 -18.316  -2.901  1.00  0.00     0.135 A 
ATOM     72  C   UNL     1       9.785 -16.152  -3.294  1.00  0.00     0.135 A 
ATOM     73  F   UNL     1      11.729 -19.148  -2.621  1.00  0.00    -0.206 F 
ATOM     74  C   UNL     1       9.477 -18.902  -3.176  1.00  0.00     0.059 A 
ATOM     75  C   UNL     1       8.531 -16.711  -3.516  1.00  0.00     0.059 A 
ATOM     76  F   UNL     1       9.848 -14.830  -3.493  1.00  0.00    -0.206 F 
ATOM     77  C   UNL     1       8.396 -18.090  -3.502  1.00  0.00     0.060 A 
BRANCH  77  78
ATOM     78  S   UNL     1       6.832 -18.844  -3.981  1.00  0.00     0.124 S 
ATOM     79  O   UNL     1       7.171 -19.406  -5.284  1.00  0.00    -0.237 OA
ATOM     80  O   UNL     1       6.616 -19.806  -2.906  1.00  0.00    -0.237 OA
ATOM     81  O   UNL     1       5.908 -17.715  -4.000  1.00  0.00    -0.744 OA
ENDBRANCH  77  78
ENDBRANCH  56  70
BRANCH  57  82
ATOM     82  C   UNL     1      12.213 -12.597 -10.093  1.00  0.00     0.058 A 
ATOM     83  C   UNL     1      11.764 -13.309 -11.217  1.00  0.00     0.135 A 
ATOM     84  C   UNL     1      11.623 -11.332  -9.881  1.00  0.00     0.135 A 
ATOM     85  F   UNL     1      12.258 -14.527 -11.485  1.00  0.00    -0.206 F 
ATOM     86  C   UNL     1      10.751 -12.824 -12.051  1.00  0.00     0.059 A 
ATOM     87  C   UNL     1      10.623 -10.822 -10.706  1.00  0.00     0.059 A 
ATOM     88  F   UNL     1      11.935 -10.590  -8.808  1.00  0.00    -0.206 F 
ATOM     89  C   UNL     1      10.171 -11.586 -11.773  1.00  0.00     0.060 A 
BRANCH  89  90
ATOM     90  S   UNL     1       8.736 -11.041 -12.729  1.00  0.00     0.124 S 
ATOM     91  O   UNL     1       9.334 -10.746 -14.027  1.00  0.00    -0.237 OA
ATOM     92  O   UNL     1       7.869 -12.213 -12.676  1.00  0.00    -0.237 OA
ATOM     93  O   UNL     1       8.256  -9.880 -11.983  1.00  0.00    -0.744 OA
ENDBRANCH  89  90
ENDBRANCH  57  82
BRANCH  69  94
ATOM     94  C   UNL     1      16.143 -16.807  -7.350  1.00  0.00     0.058 A 
ATOM     95  C   UNL     1      16.854 -15.615  -7.579  1.00  0.00     0.135 A 
ATOM     96  C   UNL     1      16.863 -18.007  -7.463  1.00  0.00     0.135 A 
ATOM     97  F   UNL     1      16.279 -14.420  -7.391  1.00  0.00    -0.206 F 
ATOM     98  C   UNL     1      18.204 -15.618  -7.939  1.00  0.00     0.059 A 
ATOM     99  C   UNL     1      18.217 -18.033  -7.790  1.00  0.00     0.059 A 
ATOM    100  F   UNL     1      16.262 -19.179  -7.198  1.00  0.00    -0.206 F 
ATOM    101  C   UNL     1      18.880 -16.834  -8.038  1.00  0.00     0.060 A 
BRANCH 101 102
ATOM    102  S   UNL     1      20.645 -16.830  -8.419  1.00  0.00     0.124 S 
ATOM    103  O   UNL     1      20.655 -16.451  -9.828  1.00  0.00    -0.237 OA
ATOM    104  O   UNL     1      21.170 -15.833  -7.490  1.00  0.00    -0.237 OA
ATOM    105  O   UNL     1      21.057 -18.204  -8.140  1.00  0.00    -0.744 OA
ENDBRANCH 101 102
ENDBRANCH  69  94
ENDBRANCH  43  44
ENDBRANCH  35  38
ENDBRANCH  33  34
ENDBRANCH  32  33
ENDBRANCH  31  32
ENDBRANCH   1  31
TORSDOF 20
