REMARK SMILES O=C(NCCCCCCNC(=O)[C@@H]1CC2(CCN(C(=O)C3(c4ccccc4F)CC3)CC2)C[NH2+]1)c1ccc(-c2c3nc(c(-c4c(F)cc(S(=O)(=O)[O-])cc4F)c4ccc([nH]4)c(-c4c(F)cc(S(=O)(=O)[O-])cc4F)c4nc(c(-c5c(F)cc(S(=O)(=O)[O-])cc5F)c5ccc2[nH]5)C=C4)C=C3)cc1
REMARK SMILES IDX 6 1 5 2 4 3 3 4 1 5 2 6 35 8 36 9 100 10 37 11 99 12 38 13
REMARK SMILES IDX 39 14 40 15 93 16 41 17 98 18 92 19 94 20 42 21 97 22 91 23
REMARK SMILES IDX 90 24 43 26 77 27 56 28 76 29 57 30 60 31 75 32 95 33 58 34
REMARK SMILES IDX 59 35 74 37 96 38 61 39 44 40 45 41 54 42 46 43 47 44 53 45
REMARK SMILES IDX 55 46 48 47 49 48 50 49 51 50 52 51 78 52 79 53 88 54 80 55
REMARK SMILES IDX 81 56 87 57 89 58 82 59 83 60 84 61 85 62 86 63 62 64 63 65
REMARK SMILES IDX 72 66 64 67 65 68 71 69 73 70 66 71 67 72 68 73 69 74 70 75
REMARK SMILES IDX 7 76 8 77 9 78 10 79 11 80 12 82 13 83 14 84 34 85 15 86
REMARK SMILES IDX 33 87 16 90 32 91 17 92 31 93 18 94 19 95 20 96 21 97 29 98
REMARK SMILES IDX 30 99 22 100 23 101 27 102 24 103 26 104 28 105 25 106
REMARK H PARENT 3 7 94 25 60 36 10 81 34 88 34 89
REMARK Flexibility Score: inf
ROOT
ATOM      1  C   UNL     1       3.564   1.757  -3.628  1.00  0.00     0.002 C 
ENDROOT
BRANCH   1   2
ATOM      2  C   UNL     1       4.337   0.726  -2.801  1.00  0.00     0.021 C 
BRANCH   2   3
ATOM      3  C   UNL     1       4.186   0.845  -1.291  1.00  0.00     0.116 C 
BRANCH   3   4
ATOM      4  N   UNL     1       2.801   0.796  -0.854  1.00  0.00    -0.352 N 
ATOM      5  O   UNL     1       0.991   0.031   0.240  1.00  0.00    -0.269 OA
ATOM      6  C   UNL     1       2.208   0.019   0.115  1.00  0.00     0.251 C 
ATOM      7  H   UNL     1       2.193   1.413  -1.323  1.00  0.00     0.163 HD
BRANCH   6   8
ATOM      8  C   UNL     1       3.039  -0.838   0.992  1.00  0.00     0.039 A 
ATOM      9  C   UNL     1       4.241  -0.366   1.521  1.00  0.00     0.014 A 
ATOM     10  C   UNL     1       2.593  -2.125   1.313  1.00  0.00     0.014 A 
ATOM     11  C   UNL     1       5.059  -1.220   2.248  1.00  0.00     0.010 A 
ATOM     12  C   UNL     1       3.375  -2.954   2.126  1.00  0.00     0.010 A 
ATOM     13  C   UNL     1       4.625  -2.515   2.583  1.00  0.00    -0.014 A 
BRANCH  13  14
ATOM     14  C   UNL     1       5.474  -3.333   3.488  1.00  0.00     0.031 A 
ATOM     15  C   UNL     1       6.126  -4.604   3.020  1.00  0.00     0.074 A 
ATOM     16  C   UNL     1       5.711  -2.861   4.729  1.00  0.00     0.049 A 
ATOM     17  N   UNL     1       6.957  -5.382   3.666  1.00  0.00    -0.248 NA
ATOM     18  C   UNL     1       5.805  -5.071   1.661  1.00  0.00     0.031 C 
ATOM     19  C   UNL     1       5.115  -1.643   5.289  1.00  0.00     0.029 A 
ATOM     20  N   UNL     1       6.541  -3.307   5.724  1.00  0.00    -0.354 N 
ATOM     21  C   UNL     1       7.253  -6.430   2.802  1.00  0.00     0.074 A 
ATOM     22  C   UNL     1       6.492  -6.205   1.592  1.00  0.00     0.031 C 
ATOM     23  C   UNL     1       5.663  -1.393   6.486  1.00  0.00     0.029 A 
ATOM     24  C   UNL     1       6.594  -2.466   6.812  1.00  0.00     0.049 A 
ATOM     25  H   UNL     1       7.051  -4.147   5.665  1.00  0.00     0.167 HD
ATOM     26  C   UNL     1       8.092  -7.475   3.003  1.00  0.00     0.037 A 
ATOM     27  C   UNL     1       7.310  -2.548   7.949  1.00  0.00     0.037 A 
ATOM     28  C   UNL     1       8.864  -7.672   4.205  1.00  0.00     0.049 A 
ATOM     29  C   UNL     1       8.225  -3.722   8.143  1.00  0.00     0.074 A 
ATOM     30  C   UNL     1       9.756  -8.691   4.497  1.00  0.00     0.029 A 
ATOM     31  N   UNL     1       8.847  -6.832   5.310  1.00  0.00    -0.354 N 
ATOM     32  N   UNL     1       8.489  -4.703   7.313  1.00  0.00    -0.248 NA
ATOM     33  C   UNL     1       8.927  -3.810   9.429  1.00  0.00     0.031 C 
ATOM     34  C   UNL     1      10.249  -8.488   5.789  1.00  0.00     0.029 A 
ATOM     35  C   UNL     1       9.699  -7.318   6.289  1.00  0.00     0.049 A 
ATOM     36  H   UNL     1       8.309  -6.011   5.386  1.00  0.00     0.167 HD
ATOM     37  C   UNL     1       9.387  -5.527   7.978  1.00  0.00     0.074 A 
ATOM     38  C   UNL     1       9.647  -4.911   9.264  1.00  0.00     0.031 C 
ATOM     39  C   UNL     1       9.936  -6.696   7.567  1.00  0.00     0.037 A 
BRANCH  26  40
ATOM     40  C   UNL     1       8.238  -8.496   1.908  1.00  0.00     0.058 A 
ATOM     41  C   UNL     1       7.721  -9.793   2.069  1.00  0.00     0.135 A 
ATOM     42  C   UNL     1       8.985  -8.230   0.750  1.00  0.00     0.135 A 
ATOM     43  F   UNL     1       6.995 -10.101   3.155  1.00  0.00    -0.206 F 
ATOM     44  C   UNL     1       7.967 -10.797   1.137  1.00  0.00     0.059 A 
ATOM     45  C   UNL     1       9.225  -9.213  -0.207  1.00  0.00     0.059 A 
ATOM     46  F   UNL     1       9.487  -7.003   0.538  1.00  0.00    -0.206 F 
ATOM     47  C   UNL     1       8.729 -10.500   0.006  1.00  0.00     0.060 A 
BRANCH  47  48
ATOM     48  S   UNL     1       9.055 -11.819  -1.184  1.00  0.00     0.124 S 
ATOM     49  O   UNL     1       9.950 -12.690  -0.431  1.00  0.00    -0.237 OA
ATOM     50  O   UNL     1       7.715 -12.345  -1.432  1.00  0.00    -0.237 OA
ATOM     51  O   UNL     1       9.660 -11.118  -2.312  1.00  0.00    -0.744 OA
ENDBRANCH  47  48
ENDBRANCH  26  40
BRANCH  27  52
ATOM     52  C   UNL     1       7.184  -1.488   8.983  1.00  0.00     0.058 A 
ATOM     53  C   UNL     1       5.990  -1.312   9.700  1.00  0.00     0.135 A 
ATOM     54  C   UNL     1       8.246  -0.614   9.258  1.00  0.00     0.135 A 
ATOM     55  F   UNL     1       4.940  -2.114   9.468  1.00  0.00    -0.206 F 
ATOM     56  C   UNL     1       5.845  -0.293  10.634  1.00  0.00     0.059 A 
ATOM     57  C   UNL     1       8.135   0.395  10.210  1.00  0.00     0.059 A 
ATOM     58  F   UNL     1       9.411  -0.750   8.605  1.00  0.00    -0.206 F 
ATOM     59  C   UNL     1       6.923   0.556  10.882  1.00  0.00     0.060 A 
BRANCH  59  60
ATOM     60  S   UNL     1       6.721   1.863  12.111  1.00  0.00     0.124 S 
ATOM     61  O   UNL     1       5.872   2.808  11.393  1.00  0.00    -0.237 OA
ATOM     62  O   UNL     1       6.088   1.151  13.216  1.00  0.00    -0.237 OA
ATOM     63  O   UNL     1       8.089   2.307  12.357  1.00  0.00    -0.744 OA
ENDBRANCH  59  60
ENDBRANCH  27  52
BRANCH  39  64
ATOM     64  C   UNL     1      10.871  -7.382   8.521  1.00  0.00     0.058 A 
ATOM     65  C   UNL     1      12.252  -7.409   8.275  1.00  0.00     0.135 A 
ATOM     66  C   UNL     1      10.392  -8.041   9.664  1.00  0.00     0.135 A 
ATOM     67  F   UNL     1      12.760  -6.796   7.194  1.00  0.00    -0.206 F 
ATOM     68  C   UNL     1      13.127  -8.070   9.129  1.00  0.00     0.059 A 
ATOM     69  C   UNL     1      11.253  -8.687  10.545  1.00  0.00     0.059 A 
ATOM     70  F   UNL     1       9.080  -8.031   9.949  1.00  0.00    -0.206 F 
ATOM     71  C   UNL     1      12.618  -8.706  10.262  1.00  0.00     0.060 A 
BRANCH  71  72
ATOM     72  S   UNL     1      13.773  -9.520  11.386  1.00  0.00     0.124 S 
ATOM     73  O   UNL     1      14.129 -10.717  10.632  1.00  0.00    -0.237 OA
ATOM     74  O   UNL     1      14.828  -8.521  11.526  1.00  0.00    -0.237 OA
ATOM     75  O   UNL     1      12.973  -9.748  12.586  1.00  0.00    -0.744 OA
ENDBRANCH  71  72
ENDBRANCH  39  64
ENDBRANCH  13  14
ENDBRANCH   6   8
ENDBRANCH   3   4
ENDBRANCH   2   3
ENDBRANCH   1   2
BRANCH   1  76
ATOM     76  C   UNL     1       3.854   3.239  -3.341  1.00  0.00     0.002 C 
BRANCH  76  77
ATOM     77  C   UNL     1       5.324   3.667  -3.285  1.00  0.00     0.021 C 
BRANCH  77  78
ATOM     78  C   UNL     1       6.186   3.154  -4.428  1.00  0.00     0.116 C 
BRANCH  78  79
ATOM     79  N   UNL     1       6.425   4.083  -5.514  1.00  0.00    -0.351 N 
ATOM     80  C   UNL     1       7.486   4.146  -6.382  1.00  0.00     0.278 C 
ATOM     81  H   UNL     1       5.728   4.766  -5.647  1.00  0.00     0.163 HD
ATOM     82  O   UNL     1       7.224   4.517  -7.534  1.00  0.00    -0.268 OA
BRANCH  80  83
ATOM     83  C   UNL     1       8.965   3.850  -5.995  1.00  0.00     0.273 C 
ATOM     84  C   UNL     1       9.585   2.529  -6.468  1.00  0.00     0.088 C 
ATOM     85  N   UNL     1       9.248   3.938  -4.561  1.00  0.00    -0.336 N 
ATOM     86  C   UNL     1       9.542   1.597  -5.243  1.00  0.00     0.029 C 
ATOM     87  C   UNL     1       9.628   2.613  -4.076  1.00  0.00     0.268 C 
ATOM     88  H   UNL     1       8.416   4.260  -4.066  1.00  0.00     0.346 HD
ATOM     89  H   UNL     1      10.007   4.599  -4.397  1.00  0.00     0.346 HD
ATOM     90  C   UNL     1      10.736   0.606  -5.106  1.00  0.00     0.034 C 
ATOM     91  C   UNL     1       8.212   0.800  -5.286  1.00  0.00     0.034 C 
ATOM     92  C   UNL     1      10.649  -0.651  -5.985  1.00  0.00     0.120 C 
ATOM     93  C   UNL     1       8.266  -0.413  -6.210  1.00  0.00     0.120 C 
ATOM     94  N   UNL     1       9.352  -1.279  -5.804  1.00  0.00    -0.342 N 
ATOM     95  C   UNL     1       9.012  -2.322  -4.934  1.00  0.00     0.233 C 
ATOM     96  O   UNL     1       7.894  -2.332  -4.414  1.00  0.00    -0.274 OA
BRANCH  95  97
ATOM     97  C   UNL     1       9.904  -3.522  -4.670  1.00  0.00     0.077 C 
ATOM     98  C   UNL     1      11.419  -3.562  -4.485  1.00  0.00     0.023 C 
ATOM     99  C   UNL     1      10.556  -3.494  -3.276  1.00  0.00     0.023 C 
BRANCH  97 100
ATOM    100  C   UNL     1       9.261  -4.861  -5.106  1.00  0.00     0.003 A 
ATOM    101  C   UNL     1       9.601  -5.478  -6.324  1.00  0.00     0.008 A 
ATOM    102  C   UNL     1       8.296  -5.513  -4.315  1.00  0.00     0.127 A 
ATOM    103  C   UNL     1       9.013  -6.687  -6.719  1.00  0.00     0.001 A 
ATOM    104  C   UNL     1       7.703  -6.714  -4.701  1.00  0.00     0.039 A 
ATOM    105  F   UNL     1       7.928  -4.980  -3.140  1.00  0.00    -0.207 F 
ATOM    106  C   UNL     1       8.063  -7.304  -5.908  1.00  0.00     0.003 A 
ENDBRANCH  97 100
ENDBRANCH  95  97
ENDBRANCH  80  83
ENDBRANCH  78  79
ENDBRANCH  77  78
ENDBRANCH  76  77
ENDBRANCH   1  76
TORSDOF 18
