REMARK SMILES O=C(NCCCCCCNC(=O)[C@H]1CC[C@@H]2CCCC[C@@H]2N1C(=O)NC1CC1)c1ccc(-c2c3nc(c(-c4c(F)cc(S(=O)(=O)[O-])cc4F)c4ccc([nH]4)c(-c4c(F)cc(S(=O)(=O)[O-])cc4F)c4nc(c(-c5c(F)cc(S(=O)(=O)[O-])cc5F)c5ccc2[nH]5)C=C4)C=C3)cc1
REMARK SMILES IDX 6 1 5 2 4 3 3 4 1 5 2 6 29 8 30 9 94 10 31 11 93 12 32 13
REMARK SMILES IDX 33 14 34 15 87 16 35 17 92 18 86 19 88 20 36 21 91 22 85 23
REMARK SMILES IDX 84 24 37 26 71 27 50 28 70 29 51 30 54 31 69 32 89 33 52 34
REMARK SMILES IDX 53 35 68 37 90 38 55 39 38 40 39 41 48 42 40 43 41 44 47 45
REMARK SMILES IDX 49 46 42 47 43 48 44 49 45 50 46 51 72 52 73 53 82 54 74 55
REMARK SMILES IDX 75 56 81 57 83 58 76 59 77 60 78 61 79 62 80 63 56 64 57 65
REMARK SMILES IDX 66 66 58 67 59 68 65 69 67 70 60 71 61 72 62 73 63 74 64 75
REMARK SMILES IDX 7 76 8 77 9 78 10 79 11 80 12 82 13 83 14 84 22 85 15 86
REMARK SMILES IDX 21 87 16 88 20 89 17 90 19 91 18 92 23 93 24 94 25 95 26 97
REMARK SMILES IDX 27 98 28 99
REMARK H PARENT 3 7 88 25 54 36 10 81 25 96
REMARK Flexibility Score: inf
ROOT
ATOM      1  C   UNL     1       7.698  12.488  -1.286  1.00  0.00     0.002 C 
ENDROOT
BRANCH   1   2
ATOM      2  C   UNL     1       6.693  13.238  -0.416  1.00  0.00     0.021 C 
BRANCH   2   3
ATOM      3  C   UNL     1       7.280  14.397   0.374  1.00  0.00     0.116 C 
BRANCH   3   4
ATOM      4  N   UNL     1       7.637  15.516  -0.479  1.00  0.00    -0.352 N 
ATOM      5  O   UNL     1       7.432  17.597  -1.325  1.00  0.00    -0.269 OA
ATOM      6  C   UNL     1       7.185  16.815  -0.420  1.00  0.00     0.251 C 
ATOM      7  H   UNL     1       8.287  15.321  -1.193  1.00  0.00     0.163 HD
BRANCH   6   8
ATOM      8  C   UNL     1       6.377  17.243   0.745  1.00  0.00     0.039 A 
ATOM      9  C   UNL     1       6.777  16.911   2.043  1.00  0.00     0.014 A 
ATOM     10  C   UNL     1       5.208  17.979   0.535  1.00  0.00     0.014 A 
ATOM     11  C   UNL     1       5.948  17.206   3.118  1.00  0.00     0.010 A 
ATOM     12  C   UNL     1       4.419  18.352   1.628  1.00  0.00     0.010 A 
ATOM     13  C   UNL     1       4.774  17.955   2.926  1.00  0.00    -0.014 A 
BRANCH  13  14
ATOM     14  C   UNL     1       4.001  18.401   4.112  1.00  0.00     0.031 A 
ATOM     15  C   UNL     1       2.598  17.923   4.363  1.00  0.00     0.074 A 
ATOM     16  C   UNL     1       4.599  19.245   4.976  1.00  0.00     0.049 A 
ATOM     17  N   UNL     1       1.795  18.224   5.351  1.00  0.00    -0.248 NA
ATOM     18  C   UNL     1       2.015  16.996   3.381  1.00  0.00     0.031 C 
ATOM     19  C   UNL     1       5.952  19.792   4.817  1.00  0.00     0.029 A 
ATOM     20  N   UNL     1       4.164  19.786   6.158  1.00  0.00    -0.354 N 
ATOM     21  C   UNL     1       0.609  17.544   5.104  1.00  0.00     0.074 A 
ATOM     22  C   UNL     1       0.790  16.823   3.862  1.00  0.00     0.031 C 
ATOM     23  C   UNL     1       6.247  20.556   5.878  1.00  0.00     0.029 A 
ATOM     24  C   UNL     1       5.088  20.607   6.759  1.00  0.00     0.049 A 
ATOM     25  H   UNL     1       3.275  19.603   6.539  1.00  0.00     0.167 HD
ATOM     26  C   UNL     1      -0.522  17.525   5.850  1.00  0.00     0.037 A 
ATOM     27  C   UNL     1       5.006  21.342   7.883  1.00  0.00     0.037 A 
ATOM     28  C   UNL     1      -0.680  18.231   7.098  1.00  0.00     0.049 A 
ATOM     29  C   UNL     1       3.737  21.305   8.683  1.00  0.00     0.074 A 
ATOM     30  C   UNL     1      -1.770  18.232   7.952  1.00  0.00     0.029 A 
ATOM     31  N   UNL     1       0.272  19.063   7.668  1.00  0.00    -0.354 N 
ATOM     32  N   UNL     1       2.641  20.622   8.453  1.00  0.00    -0.248 NA
ATOM     33  C   UNL     1       3.689  22.139   9.890  1.00  0.00     0.031 C 
ATOM     34  C   UNL     1      -1.493  19.096   9.017  1.00  0.00     0.029 A 
ATOM     35  C   UNL     1      -0.214  19.601   8.849  1.00  0.00     0.049 A 
ATOM     36  H   UNL     1       1.162  19.245   7.289  1.00  0.00     0.167 HD
ATOM     37  C   UNL     1       1.776  20.936   9.492  1.00  0.00     0.074 A 
ATOM     38  C   UNL     1       2.484  21.852  10.364  1.00  0.00     0.031 C 
ATOM     39  C   UNL     1       0.506  20.511   9.703  1.00  0.00     0.037 A 
BRANCH  26  40
ATOM     40  C   UNL     1      -1.693  16.726   5.348  1.00  0.00     0.058 A 
ATOM     41  C   UNL     1      -1.716  15.325   5.422  1.00  0.00     0.135 A 
ATOM     42  C   UNL     1      -2.845  17.375   4.874  1.00  0.00     0.135 A 
ATOM     43  F   UNL     1      -0.637  14.653   5.854  1.00  0.00    -0.206 F 
ATOM     44  C   UNL     1      -2.838  14.595   5.041  1.00  0.00     0.059 A 
ATOM     45  C   UNL     1      -3.986  16.667   4.506  1.00  0.00     0.059 A 
ATOM     46  F   UNL     1      -2.876  18.714   4.782  1.00  0.00    -0.206 F 
ATOM     47  C   UNL     1      -3.971  15.275   4.589  1.00  0.00     0.060 A 
BRANCH  47  48
ATOM     48  S   UNL     1      -5.432  14.315   4.136  1.00  0.00     0.124 S 
ATOM     49  O   UNL     1      -5.007  13.717   2.874  1.00  0.00    -0.237 OA
ATOM     50  O   UNL     1      -5.560  13.393   5.260  1.00  0.00    -0.237 OA
ATOM     51  O   UNL     1      -6.483  15.322   4.032  1.00  0.00    -0.744 OA
ENDBRANCH  47  48
ENDBRANCH  26  40
BRANCH  27  52
ATOM     52  C   UNL     1       6.151  22.193   8.297  1.00  0.00     0.058 A 
ATOM     53  C   UNL     1       6.907  21.887   9.438  1.00  0.00     0.135 A 
ATOM     54  C   UNL     1       6.518  23.325   7.552  1.00  0.00     0.135 A 
ATOM     55  F   UNL     1       6.594  20.816  10.182  1.00  0.00    -0.206 F 
ATOM     56  C   UNL     1       7.972  22.687   9.840  1.00  0.00     0.059 A 
ATOM     57  C   UNL     1       7.595  24.123   7.917  1.00  0.00     0.059 A 
ATOM     58  F   UNL     1       5.838  23.647   6.440  1.00  0.00    -0.206 F 
ATOM     59  C   UNL     1       8.306  23.805   9.073  1.00  0.00     0.060 A 
BRANCH  59  60
ATOM     60  S   UNL     1       9.706  24.824   9.584  1.00  0.00     0.124 S 
ATOM     61  O   UNL     1       9.125  25.587  10.682  1.00  0.00    -0.237 OA
ATOM     62  O   UNL     1      10.700  23.822   9.957  1.00  0.00    -0.237 OA
ATOM     63  O   UNL     1      10.020  25.587   8.379  1.00  0.00    -0.744 OA
ENDBRANCH  59  60
ENDBRANCH  27  52
BRANCH  39  64
ATOM     64  C   UNL     1      -0.186  21.019  10.935  1.00  0.00     0.058 A 
ATOM     65  C   UNL     1      -0.654  22.339  11.021  1.00  0.00     0.135 A 
ATOM     66  C   UNL     1      -0.407  20.168  12.029  1.00  0.00     0.135 A 
ATOM     67  F   UNL     1      -0.458  23.193  10.005  1.00  0.00    -0.206 F 
ATOM     68  C   UNL     1      -1.297  22.806  12.162  1.00  0.00     0.059 A 
ATOM     69  C   UNL     1      -1.070  20.607  13.170  1.00  0.00     0.059 A 
ATOM     70  F   UNL     1       0.015  18.894  11.992  1.00  0.00    -0.206 F 
ATOM     71  C   UNL     1      -1.500  21.933  13.232  1.00  0.00     0.060 A 
BRANCH  71  72
ATOM     72  S   UNL     1      -2.357  22.543  14.699  1.00  0.00     0.124 S 
ATOM     73  O   UNL     1      -1.313  23.336  15.340  1.00  0.00    -0.237 OA
ATOM     74  O   UNL     1      -3.465  23.299  14.124  1.00  0.00    -0.237 OA
ATOM     75  O   UNL     1      -2.738  21.321  15.401  1.00  0.00    -0.744 OA
ENDBRANCH  71  72
ENDBRANCH  39  64
ENDBRANCH  13  14
ENDBRANCH   6   8
ENDBRANCH   3   4
ENDBRANCH   2   3
ENDBRANCH   1   2
BRANCH   1  76
ATOM     76  C   UNL     1       8.922  11.939  -0.549  1.00  0.00     0.002 C 
BRANCH  76  77
ATOM     77  C   UNL     1       8.638  11.123   0.719  1.00  0.00     0.021 C 
BRANCH  77  78
ATOM     78  C   UNL     1       7.654   9.965   0.555  1.00  0.00     0.116 C 
BRANCH  78  79
ATOM     79  N   UNL     1       7.972   9.110  -0.569  1.00  0.00    -0.354 N 
ATOM     80  C   UNL     1       8.506   7.856  -0.610  1.00  0.00     0.242 C 
ATOM     81  H   UNL     1       7.768   9.498  -1.450  1.00  0.00     0.163 HD
ATOM     82  O   UNL     1       8.586   7.325  -1.723  1.00  0.00    -0.273 OA
BRANCH  80  83
ATOM     83  C   UNL     1       8.781   7.071   0.686  1.00  0.00     0.176 C 
ATOM     84  C   UNL     1       9.323   5.651   0.499  1.00  0.00     0.036 C 
ATOM     85  N   UNL     1       9.380   7.641   1.910  1.00  0.00    -0.310 N 
ATOM     86  C   UNL     1       8.878   4.803   1.699  1.00  0.00     0.008 C 
ATOM     87  C   UNL     1       8.901   6.954   3.144  1.00  0.00     0.091 C 
ATOM     88  C   UNL     1       9.260   5.451   3.050  1.00  0.00     0.012 C 
ATOM     89  C   UNL     1       7.435   7.274   3.494  1.00  0.00     0.025 C 
ATOM     90  C   UNL     1       8.672   4.702   4.245  1.00  0.00     0.006 C 
ATOM     91  C   UNL     1       6.594   6.196   4.183  1.00  0.00     0.002 C 
ATOM     92  C   UNL     1       7.156   4.783   4.285  1.00  0.00     0.000 C 
BRANCH  85  93
ATOM     93  C   UNL     1      10.579   8.302   2.039  1.00  0.00     0.318 C 
ATOM     94  O   UNL     1      11.032   8.611   3.148  1.00  0.00    -0.249 OA
ATOM     95  N   UNL     1      11.366   8.676   1.008  1.00  0.00    -0.335 N 
ATOM     96  H   UNL     1      12.193   9.110   1.319  1.00  0.00     0.165 HD
BRANCH  95  97
ATOM     97  C   UNL     1      11.309   8.604  -0.404  1.00  0.00     0.084 C 
ATOM     98  C   UNL     1      12.582   8.748  -1.204  1.00  0.00     0.027 C 
ATOM     99  C   UNL     1      11.861   7.438  -1.171  1.00  0.00     0.027 C 
ENDBRANCH  95  97
ENDBRANCH  85  93
ENDBRANCH  80  83
ENDBRANCH  78  79
ENDBRANCH  77  78
ENDBRANCH  76  77
ENDBRANCH   1  76
TORSDOF 18
