REMARK SMILES CC(C)(C)c1ccc(NS(=O)(=O)c2cccc(C(=O)NCCCCCCNC(=O)c3ccc(-c4c5nc(c(-c6c(F)cc(S(=O)(=O)[O-])cc6F)c6ccc([nH]6)c(-c6c(F)cc(S(=O)(=O)[O-])cc6F)c6nc(c(-c7c(F)cc(S(=O)(=O)[O-])cc7F)c7ccc4[nH]7)C=C6)C=C5)cc3)c2)cc1
REMARK SMILES IDX 23 1 22 2 21 3 20 4 18 5 19 6 17 8 13 9 14 10 96 11 15 12
REMARK SMILES IDX 16 13 10 14 11 15 12 16 9 17 8 19 5 20 6 21 98 22 7 23 97 24
REMARK SMILES IDX 2 25 1 26 3 27 4 28 24 29 25 30 26 31 27 32 28 33 29 35
REMARK SMILES IDX 30 36 31 37 95 38 32 39 94 40 33 41 34 42 35 43 88 44 36 45
REMARK SMILES IDX 93 46 87 47 89 48 37 49 92 50 86 51 85 52 38 54 72 55 51 56
REMARK SMILES IDX 71 57 52 58 55 59 70 60 90 61 53 62 54 63 69 65 91 66 56 67
REMARK SMILES IDX 39 68 40 69 49 70 41 71 42 72 48 73 50 74 43 75 44 76 45 77
REMARK SMILES IDX 46 78 47 79 73 80 74 81 83 82 75 83 76 84 82 85 84 86 77 87
REMARK SMILES IDX 78 88 79 89 80 90 81 91 57 92 58 93 67 94 59 95 60 96 66 97
REMARK SMILES IDX 68 98 61 99 62 100 63 101 64 102 65 103
REMARK H PARENT 20 7 9 18 27 34 89 53 55 64
REMARK Flexibility Score: inf
ROOT
ATOM      1  C   UNL     1       4.134 -11.022  -7.495  1.00  0.00     0.002 C 
ENDROOT
BRANCH   1   2
ATOM      2  C   UNL     1       4.154  -9.593  -6.961  1.00  0.00     0.021 C 
BRANCH   2   3
ATOM      3  C   UNL     1       2.816  -8.999  -6.542  1.00  0.00     0.116 C 
BRANCH   3   4
ATOM      4  N   UNL     1       2.312  -9.534  -5.296  1.00  0.00    -0.352 N 
ATOM      5  C   UNL     1       1.608  -8.988  -4.252  1.00  0.00     0.251 C 
ATOM      6  O   UNL     1       1.331  -9.758  -3.328  1.00  0.00    -0.269 OA
ATOM      7  H   UNL     1       2.517 -10.489  -5.170  1.00  0.00     0.163 HD
BRANCH   5   8
ATOM      8  C   UNL     1       1.166  -7.555  -4.143  1.00  0.00     0.041 A 
ATOM      9  C   UNL     1       0.929  -5.236  -4.857  1.00  0.00     0.088 A 
ATOM     10  C   UNL     1       0.189  -4.931  -3.717  1.00  0.00     0.022 A 
ATOM     11  C   UNL     1       1.327  -6.557  -5.108  1.00  0.00     0.036 A 
ATOM     12  C   UNL     1       0.010  -5.907  -2.743  1.00  0.00     0.002 A 
ATOM     13  C   UNL     1       0.520  -7.194  -2.943  1.00  0.00     0.014 A 
BRANCH   9  14
ATOM     14  S   UNL     1       1.340  -3.950  -6.026  1.00  0.00     0.261 S 
ATOM     15  O   UNL     1       0.174  -3.121  -6.205  1.00  0.00    -0.201 OA
ATOM     16  O   UNL     1       1.980  -4.592  -7.163  1.00  0.00    -0.201 OA
BRANCH  14  17
ATOM     17  N   UNL     1       2.575  -3.009  -5.295  1.00  0.00    -0.280 N 
ATOM     18  H   UNL     1       3.449  -2.884  -5.729  1.00  0.00     0.180 HD
BRANCH  17  19
ATOM     19  C   UNL     1       2.280  -2.416  -4.028  1.00  0.00     0.049 A 
ATOM     20  C   UNL     1       1.268  -1.576  -1.526  1.00  0.00    -0.042 A 
ATOM     21  C   UNL     1       2.026  -2.752  -1.647  1.00  0.00     0.006 A 
ATOM     22  C   UNL     1       1.118  -0.783  -2.683  1.00  0.00     0.006 A 
ATOM     23  C   UNL     1       2.544  -3.155  -2.880  1.00  0.00     0.027 A 
ATOM     24  C   UNL     1       1.604  -1.206  -3.929  1.00  0.00     0.027 A 
BRANCH  20  25
ATOM     25  C   UNL     1       0.551  -1.197  -0.218  1.00  0.00    -0.013 C 
ATOM     26  C   UNL     1       0.933   0.229   0.224  1.00  0.00     0.016 C 
ATOM     27  C   UNL     1       0.873  -2.146   0.961  1.00  0.00     0.016 C 
ATOM     28  C   UNL     1      -0.975  -1.265  -0.453  1.00  0.00     0.016 C 
ENDBRANCH  20  25
ENDBRANCH  17  19
ENDBRANCH  14  17
ENDBRANCH   9  14
ENDBRANCH   5   8
ENDBRANCH   3   4
ENDBRANCH   2   3
ENDBRANCH   1   2
BRANCH   1  29
ATOM     29  C   UNL     1       3.163 -11.302  -8.645  1.00  0.00     0.002 C 
BRANCH  29  30
ATOM     30  C   UNL     1       3.193 -10.315  -9.815  1.00  0.00     0.021 C 
BRANCH  30  31
ATOM     31  C   UNL     1       4.561 -10.075 -10.443  1.00  0.00     0.116 C 
BRANCH  31  32
ATOM     32  N   UNL     1       5.151 -11.294 -10.969  1.00  0.00    -0.352 N 
ATOM     33  C   UNL     1       5.656 -11.537 -12.222  1.00  0.00     0.251 C 
ATOM     34  H   UNL     1       5.196 -12.049 -10.339  1.00  0.00     0.163 HD
ATOM     35  O   UNL     1       5.956 -12.680 -12.554  1.00  0.00    -0.269 OA
BRANCH  33  36
ATOM     36  C   UNL     1       5.816 -10.418 -13.174  1.00  0.00     0.039 A 
ATOM     37  C   UNL     1       5.361 -10.573 -14.486  1.00  0.00     0.014 A 
ATOM     38  C   UNL     1       6.410  -9.219 -12.771  1.00  0.00     0.014 A 
ATOM     39  C   UNL     1       5.450  -9.503 -15.379  1.00  0.00     0.010 A 
ATOM     40  C   UNL     1       6.434  -8.133 -13.640  1.00  0.00     0.010 A 
ATOM     41  C   UNL     1       5.959  -8.264 -14.954  1.00  0.00    -0.014 A 
BRANCH  41  42
ATOM     42  C   UNL     1       6.013  -7.092 -15.864  1.00  0.00     0.031 A 
ATOM     43  C   UNL     1       7.344  -6.499 -16.241  1.00  0.00     0.074 A 
ATOM     44  C   UNL     1       4.869  -6.517 -16.284  1.00  0.00     0.049 A 
ATOM     45  N   UNL     1       7.602  -5.413 -16.922  1.00  0.00    -0.248 NA
ATOM     46  C   UNL     1       8.543  -7.206 -15.762  1.00  0.00     0.031 C 
ATOM     47  C   UNL     1       3.519  -6.979 -15.954  1.00  0.00     0.029 A 
ATOM     48  N   UNL     1       4.657  -5.406 -17.062  1.00  0.00    -0.354 N 
ATOM     49  C   UNL     1       8.987  -5.296 -16.937  1.00  0.00     0.074 A 
ATOM     50  C   UNL     1       9.513  -6.394 -16.157  1.00  0.00     0.031 C 
ATOM     51  C   UNL     1       2.621  -6.167 -16.535  1.00  0.00     0.029 A 
ATOM     52  C   UNL     1       3.328  -5.103 -17.241  1.00  0.00     0.049 A 
ATOM     53  H   UNL     1       5.388  -4.877 -17.455  1.00  0.00     0.167 HD
ATOM     54  C   UNL     1       9.750  -4.368 -17.562  1.00  0.00     0.037 A 
ATOM     55  C   UNL     1       2.744  -4.074 -17.886  1.00  0.00     0.037 A 
ATOM     56  C   UNL     1       9.216  -3.292 -18.357  1.00  0.00     0.049 A 
ATOM     57  C   UNL     1       3.613  -3.050 -18.567  1.00  0.00     0.074 A 
ATOM     58  C   UNL     1       9.905  -2.329 -19.074  1.00  0.00     0.029 A 
ATOM     59  N   UNL     1       7.865  -3.038 -18.540  1.00  0.00    -0.354 N 
ATOM     60  N   UNL     1       4.922  -2.983 -18.616  1.00  0.00    -0.248 NA
ATOM     61  C   UNL     1       2.928  -1.967 -19.287  1.00  0.00     0.031 C 
ATOM     62  C   UNL     1       8.970  -1.465 -19.653  1.00  0.00     0.029 A 
ATOM     63  C   UNL     1       7.698  -1.923 -19.345  1.00  0.00     0.049 A 
ATOM     64  H   UNL     1       7.132  -3.571 -18.155  1.00  0.00     0.167 HD
ATOM     65  C   UNL     1       5.217  -1.873 -19.401  1.00  0.00     0.074 A 
ATOM     66  C   UNL     1       3.951  -1.301 -19.807  1.00  0.00     0.031 C 
ATOM     67  C   UNL     1       6.428  -1.378 -19.757  1.00  0.00     0.037 A 
BRANCH  54  68
ATOM     68  C   UNL     1      11.244  -4.474 -17.412  1.00  0.00     0.058 A 
ATOM     69  C   UNL     1      11.975  -5.512 -18.012  1.00  0.00     0.135 A 
ATOM     70  C   UNL     1      11.960  -3.505 -16.690  1.00  0.00     0.135 A 
ATOM     71  F   UNL     1      11.341  -6.475 -18.701  1.00  0.00    -0.206 F 
ATOM     72  C   UNL     1      13.356  -5.604 -17.876  1.00  0.00     0.059 A 
ATOM     73  C   UNL     1      13.345  -3.559 -16.567  1.00  0.00     0.059 A 
ATOM     74  F   UNL     1      11.313  -2.489 -16.096  1.00  0.00    -0.206 F 
ATOM     75  C   UNL     1      14.033  -4.622 -17.151  1.00  0.00     0.060 A 
BRANCH  75  76
ATOM     76  S   UNL     1      15.826  -4.753 -16.988  1.00  0.00     0.124 S 
ATOM     77  O   UNL     1      15.952  -5.868 -16.054  1.00  0.00    -0.237 OA
ATOM     78  O   UNL     1      16.244  -5.026 -18.360  1.00  0.00    -0.237 OA
ATOM     79  O   UNL     1      16.217  -3.448 -16.464  1.00  0.00    -0.744 OA
ENDBRANCH  75  76
ENDBRANCH  54  68
BRANCH  55  80
ATOM     80  C   UNL     1       1.260  -3.972 -17.934  1.00  0.00     0.058 A 
ATOM     81  C   UNL     1       0.561  -4.189 -19.131  1.00  0.00     0.135 A 
ATOM     82  C   UNL     1       0.511  -3.672 -16.786  1.00  0.00     0.135 A 
ATOM     83  F   UNL     1       1.233  -4.473 -20.257  1.00  0.00    -0.206 F 
ATOM     84  C   UNL     1      -0.825  -4.096 -19.193  1.00  0.00     0.059 A 
ATOM     85  C   UNL     1      -0.879  -3.600 -16.816  1.00  0.00     0.059 A 
ATOM     86  F   UNL     1       1.130  -3.473 -15.611  1.00  0.00    -0.206 F 
ATOM     87  C   UNL     1      -1.537  -3.803 -18.028  1.00  0.00     0.060 A 
BRANCH  87  88
ATOM     88  S   UNL     1      -3.340  -3.729 -18.112  1.00  0.00     0.124 S 
ATOM     89  O   UNL     1      -3.549  -2.477 -18.829  1.00  0.00    -0.237 OA
ATOM     90  O   UNL     1      -3.662  -4.948 -18.847  1.00  0.00    -0.237 OA
ATOM     91  O   UNL     1      -3.741  -3.728 -16.709  1.00  0.00    -0.744 OA
ENDBRANCH  87  88
ENDBRANCH  55  80
BRANCH  67  92
ATOM     92  C   UNL     1       6.453  -0.189 -20.677  1.00  0.00     0.058 A 
ATOM     93  C   UNL     1       6.116   1.099 -20.234  1.00  0.00     0.135 A 
ATOM     94  C   UNL     1       6.896  -0.333 -22.002  1.00  0.00     0.135 A 
ATOM     95  F   UNL     1       5.680   1.290 -18.979  1.00  0.00    -0.206 F 
ATOM     96  C   UNL     1       6.206   2.202 -21.077  1.00  0.00     0.059 A 
ATOM     97  C   UNL     1       7.020   0.759 -22.854  1.00  0.00     0.059 A 
ATOM     98  F   UNL     1       7.239  -1.543 -22.472  1.00  0.00    -0.206 F 
ATOM     99  C   UNL     1       6.665   2.023 -22.384  1.00  0.00     0.060 A 
BRANCH  99 100
ATOM    100  S   UNL     1       6.831   3.471 -23.450  1.00  0.00     0.124 S 
ATOM    101  O   UNL     1       5.436   3.774 -23.753  1.00  0.00    -0.237 OA
ATOM    102  O   UNL     1       7.511   4.423 -22.578  1.00  0.00    -0.237 OA
ATOM    103  O   UNL     1       7.625   2.979 -24.572  1.00  0.00    -0.744 OA
ENDBRANCH  99 100
ENDBRANCH  67  92
ENDBRANCH  41  42
ENDBRANCH  33  36
ENDBRANCH  31  32
ENDBRANCH  30  31
ENDBRANCH  29  30
ENDBRANCH   1  29
TORSDOF 20
