REMARK SMILES CCCc1cc(-n2ccc(C(=O)NCCCCCCNC(=O)c3ccc(-c4c5nc(c(-c6c(F)cc(S(=O)(=O)[O-])cc6F)c6ccc([nH]6)c(-c6c(F)cc(S(=O)(=O)[O-])cc6F)c6nc(c(-c7c(F)cc(S(=O)(=O)[O-])cc7F)c7ccc4[nH]7)C=C6)C=C5)cc3)n2)nc(-c2ccc(C(F)(F)F)cc2)n1
REMARK SMILES IDX 16 1 15 2 14 3 13 4 11 5 12 6 10 8 7 9 8 10 89 11 9 12 6 13
REMARK SMILES IDX 4 14 5 15 102 16 91 17 90 18 3 19 2 20 1 21 92 22 93 23
REMARK SMILES IDX 101 24 94 25 100 26 95 27 96 28 97 29 98 30 99 31 17 32
REMARK SMILES IDX 18 33 19 34 20 35 21 36 22 38 23 39 24 40 88 41 25 42 87 43
REMARK SMILES IDX 26 44 27 45 28 46 81 47 29 48 86 49 80 50 82 51 30 52 85 53
REMARK SMILES IDX 79 54 78 55 31 57 65 58 44 59 64 60 45 61 48 62 63 63 83 64
REMARK SMILES IDX 46 65 47 66 62 68 84 69 49 70 32 71 33 72 42 73 34 74 35 75
REMARK SMILES IDX 41 76 43 77 36 78 37 79 38 80 39 81 40 82 66 83 67 84 76 85
REMARK SMILES IDX 68 86 69 87 75 88 77 89 70 90 71 91 72 92 73 93 74 94 50 95
REMARK SMILES IDX 51 96 60 97 52 98 53 99 59 100 61 101 54 102 55 103 56 104
REMARK SMILES IDX 57 105 58 106
REMARK H PARENT 13 7 20 37 82 56 48 67
REMARK Flexibility Score: inf
ROOT
ATOM      1  C   UNL     1      -5.125  -8.972   3.102  1.00  0.00     0.002 C 
ENDROOT
BRANCH   1   2
ATOM      2  C   UNL     1      -4.106  -8.010   2.485  1.00  0.00     0.021 C 
BRANCH   2   3
ATOM      3  C   UNL     1      -2.892  -7.678   3.353  1.00  0.00     0.116 C 
BRANCH   3   4
ATOM      4  N   UNL     1      -2.074  -8.846   3.639  1.00  0.00    -0.351 N 
ATOM      5  C   UNL     1      -0.718  -9.038   3.481  1.00  0.00     0.271 C 
ATOM      6  O   UNL     1      -0.264 -10.161   3.712  1.00  0.00    -0.267 OA
ATOM      7  H   UNL     1      -2.564  -9.618   4.002  1.00  0.00     0.163 HD
BRANCH   5   8
ATOM      8  C   UNL     1       0.142  -7.952   2.984  1.00  0.00     0.150 A 
ATOM      9  N   UNL     1       0.749  -5.997   2.355  1.00  0.00    -0.222 N 
ATOM     10  C   UNL     1       1.698  -6.854   1.841  1.00  0.00     0.118 A 
ATOM     11  N   UNL     1      -0.084  -6.645   3.207  1.00  0.00    -0.161 NA
ATOM     12  C   UNL     1       1.344  -8.118   2.248  1.00  0.00     0.056 A 
BRANCH   9  13
ATOM     13  C   UNL     1       0.548  -4.619   2.043  1.00  0.00     0.157 A 
ATOM     14  C   UNL     1       0.638  -2.833   0.515  1.00  0.00     0.047 A 
ATOM     15  C   UNL     1       0.957  -4.145   0.806  1.00  0.00     0.073 A 
ATOM     16  N   UNL     1       0.004  -2.053   1.405  1.00  0.00    -0.233 NA
ATOM     17  C   UNL     1      -0.302  -2.573   2.603  1.00  0.00     0.161 A 
ATOM     18  N   UNL     1      -0.075  -3.842   2.962  1.00  0.00    -0.209 NA
BRANCH  14  19
ATOM     19  C   UNL     1       1.030  -2.225  -0.811  1.00  0.00     0.056 C 
BRANCH  19  20
ATOM     20  C   UNL     1       0.543  -0.790  -1.067  1.00  0.00     0.003 C 
ATOM     21  C   UNL     1       1.204   0.264  -0.185  1.00  0.00     0.004 C 
ENDBRANCH  19  20
ENDBRANCH  14  19
BRANCH  17  22
ATOM     22  C   UNL     1      -0.718  -1.607   3.622  1.00  0.00     0.019 A 
ATOM     23  C   UNL     1      -1.689  -0.631   3.342  1.00  0.00     0.012 A 
ATOM     24  C   UNL     1      -0.068  -1.554   4.866  1.00  0.00     0.012 A 
ATOM     25  C   UNL     1      -1.986   0.377   4.264  1.00  0.00     0.014 A 
ATOM     26  C   UNL     1      -0.349  -0.536   5.784  1.00  0.00     0.014 A 
ATOM     27  C   UNL     1      -1.305   0.445   5.488  1.00  0.00     0.056 A 
BRANCH  27  28
ATOM     28  C   UNL     1      -1.592   1.570   6.449  1.00  0.00     0.416 C 
ATOM     29  F   UNL     1      -1.383   2.799   5.899  1.00  0.00    -0.166 F 
ATOM     30  F   UNL     1      -2.880   1.571   6.890  1.00  0.00    -0.166 F 
ATOM     31  F   UNL     1      -0.818   1.536   7.573  1.00  0.00    -0.166 F 
ENDBRANCH  27  28
ENDBRANCH  17  22
ENDBRANCH   9  13
ENDBRANCH   5   8
ENDBRANCH   3   4
ENDBRANCH   2   3
ENDBRANCH   1   2
BRANCH   1  32
ATOM     32  C   UNL     1      -5.651  -8.613   4.500  1.00  0.00     0.002 C 
BRANCH  32  33
ATOM     33  C   UNL     1      -6.221  -7.200   4.692  1.00  0.00     0.021 C 
BRANCH  33  34
ATOM     34  C   UNL     1      -7.426  -6.886   3.822  1.00  0.00     0.116 C 
BRANCH  34  35
ATOM     35  N   UNL     1      -8.613  -7.674   4.164  1.00  0.00    -0.352 N 
ATOM     36  C   UNL     1      -9.865  -7.636   3.563  1.00  0.00     0.251 C 
ATOM     37  H   UNL     1      -8.511  -8.308   4.910  1.00  0.00     0.163 HD
ATOM     38  O   UNL     1     -10.855  -8.047   4.140  1.00  0.00    -0.269 OA
BRANCH  36  39
ATOM     39  C   UNL     1      -9.957  -7.085   2.196  1.00  0.00     0.039 A 
ATOM     40  C   UNL     1     -11.003  -6.257   1.784  1.00  0.00     0.014 A 
ATOM     41  C   UNL     1      -8.910  -7.382   1.334  1.00  0.00     0.014 A 
ATOM     42  C   UNL     1     -10.932  -5.671   0.519  1.00  0.00     0.010 A 
ATOM     43  C   UNL     1      -8.729  -6.629   0.210  1.00  0.00     0.010 A 
ATOM     44  C   UNL     1      -9.775  -5.850  -0.258  1.00  0.00    -0.014 A 
BRANCH  44  45
ATOM     45  C   UNL     1      -9.605  -5.205  -1.555  1.00  0.00     0.031 A 
ATOM     46  C   UNL     1      -9.809  -3.729  -1.566  1.00  0.00     0.074 A 
ATOM     47  C   UNL     1      -9.090  -5.860  -2.622  1.00  0.00     0.049 A 
ATOM     48  N   UNL     1     -10.730  -3.059  -2.174  1.00  0.00    -0.248 NA
ATOM     49  C   UNL     1      -8.956  -2.905  -0.693  1.00  0.00     0.031 C 
ATOM     50  C   UNL     1      -8.544  -7.224  -2.705  1.00  0.00     0.029 A 
ATOM     51  N   UNL     1      -8.863  -5.386  -3.873  1.00  0.00    -0.354 N 
ATOM     52  C   UNL     1     -10.468  -1.714  -1.924  1.00  0.00     0.074 A 
ATOM     53  C   UNL     1      -9.469  -1.688  -0.887  1.00  0.00     0.031 C 
ATOM     54  C   UNL     1      -7.845  -7.372  -3.852  1.00  0.00     0.029 A 
ATOM     55  C   UNL     1      -8.064  -6.197  -4.670  1.00  0.00     0.049 A 
ATOM     56  H   UNL     1      -9.237  -4.532  -4.192  1.00  0.00     0.167 HD
ATOM     57  C   UNL     1     -10.961  -0.725  -2.723  1.00  0.00     0.037 A 
ATOM     58  C   UNL     1      -7.612  -5.917  -5.917  1.00  0.00     0.037 A 
ATOM     59  C   UNL     1     -12.029  -1.217  -3.557  1.00  0.00     0.049 A 
ATOM     60  C   UNL     1      -8.507  -4.862  -6.462  1.00  0.00     0.074 A 
ATOM     61  C   UNL     1     -13.279  -1.748  -3.301  1.00  0.00     0.029 A 
ATOM     62  N   UNL     1     -11.723  -1.595  -4.843  1.00  0.00    -0.354 N 
ATOM     63  N   UNL     1      -9.777  -5.047  -6.710  1.00  0.00    -0.248 NA
ATOM     64  C   UNL     1      -8.106  -3.478  -6.265  1.00  0.00     0.031 C 
ATOM     65  C   UNL     1     -13.420  -2.820  -4.232  1.00  0.00     0.029 A 
ATOM     66  C   UNL     1     -12.289  -2.831  -5.053  1.00  0.00     0.049 A 
ATOM     67  H   UNL     1     -11.197  -1.077  -5.494  1.00  0.00     0.167 HD
ATOM     68  C   UNL     1     -10.399  -3.878  -6.293  1.00  0.00     0.074 A 
ATOM     69  C   UNL     1      -9.310  -2.923  -6.095  1.00  0.00     0.031 C 
ATOM     70  C   UNL     1     -11.702  -3.868  -5.878  1.00  0.00     0.037 A 
BRANCH  57  71
ATOM     71  C   UNL     1     -10.293   0.608  -2.954  1.00  0.00     0.058 A 
ATOM     72  C   UNL     1     -10.989   1.644  -3.611  1.00  0.00     0.135 A 
ATOM     73  C   UNL     1      -8.908   0.827  -2.776  1.00  0.00     0.135 A 
ATOM     74  F   UNL     1     -12.306   1.538  -3.851  1.00  0.00    -0.206 F 
ATOM     75  C   UNL     1     -10.350   2.788  -4.095  1.00  0.00     0.059 A 
ATOM     76  C   UNL     1      -8.261   1.982  -3.202  1.00  0.00     0.059 A 
ATOM     77  F   UNL     1      -8.101  -0.110  -2.264  1.00  0.00    -0.206 F 
ATOM     78  C   UNL     1      -8.981   2.941  -3.895  1.00  0.00     0.060 A 
BRANCH  78  79
ATOM     79  S   UNL     1      -8.134   4.367  -4.600  1.00  0.00     0.124 S 
ATOM     80  O   UNL     1      -8.223   4.083  -6.028  1.00  0.00    -0.237 OA
ATOM     81  O   UNL     1      -8.951   5.475  -4.116  1.00  0.00    -0.237 OA
ATOM     82  O   UNL     1      -6.796   4.284  -4.022  1.00  0.00    -0.744 OA
ENDBRANCH  78  79
ENDBRANCH  57  71
BRANCH  58  83
ATOM     83  C   UNL     1      -6.268  -6.214  -6.479  1.00  0.00     0.058 A 
ATOM     84  C   UNL     1      -6.012  -6.106  -7.857  1.00  0.00     0.135 A 
ATOM     85  C   UNL     1      -5.138  -6.328  -5.644  1.00  0.00     0.135 A 
ATOM     86  F   UNL     1      -7.029  -5.974  -8.722  1.00  0.00    -0.206 F 
ATOM     87  C   UNL     1      -4.710  -6.061  -8.373  1.00  0.00     0.059 A 
ATOM     88  C   UNL     1      -3.833  -6.291  -6.135  1.00  0.00     0.059 A 
ATOM     89  F   UNL     1      -5.267  -6.385  -4.309  1.00  0.00    -0.206 F 
ATOM     90  C   UNL     1      -3.625  -6.131  -7.499  1.00  0.00     0.060 A 
BRANCH  90  91
ATOM     91  S   UNL     1      -1.948  -5.887  -8.135  1.00  0.00     0.124 S 
ATOM     92  O   UNL     1      -1.735  -7.109  -8.902  1.00  0.00    -0.237 OA
ATOM     93  O   UNL     1      -2.087  -4.661  -8.913  1.00  0.00    -0.237 OA
ATOM     94  O   UNL     1      -1.141  -5.763  -6.923  1.00  0.00    -0.744 OA
ENDBRANCH  90  91
ENDBRANCH  58  83
BRANCH  70  95
ATOM     95  C   UNL     1     -12.537  -5.112  -6.101  1.00  0.00     0.058 A 
ATOM     96  C   UNL     1     -12.289  -6.360  -5.499  1.00  0.00     0.135 A 
ATOM     97  C   UNL     1     -13.731  -4.989  -6.827  1.00  0.00     0.135 A 
ATOM     98  F   UNL     1     -11.228  -6.544  -4.705  1.00  0.00    -0.206 F 
ATOM     99  C   UNL     1     -13.164  -7.442  -5.643  1.00  0.00     0.059 A 
ATOM    100  C   UNL     1     -14.633  -6.044  -6.959  1.00  0.00     0.059 A 
ATOM    101  F   UNL     1     -14.063  -3.810  -7.377  1.00  0.00    -0.206 F 
ATOM    102  C   UNL     1     -14.337  -7.273  -6.375  1.00  0.00     0.060 A 
BRANCH 102 103
ATOM    103  S   UNL     1     -15.502  -8.648  -6.505  1.00  0.00     0.124 S 
ATOM    104  O   UNL     1     -14.793  -9.569  -7.388  1.00  0.00    -0.237 OA
ATOM    105  O   UNL     1     -15.641  -9.082  -5.117  1.00  0.00    -0.237 OA
ATOM    106  O   UNL     1     -16.696  -8.031  -7.078  1.00  0.00    -0.744 OA
ENDBRANCH 102 103
ENDBRANCH  70  95
ENDBRANCH  44  45
ENDBRANCH  36  39
ENDBRANCH  34  35
ENDBRANCH  33  34
ENDBRANCH  32  33
ENDBRANCH   1  32
TORSDOF 21
