REMARK SMILES CCn1ccc2ccc(C[NH+]3CCC4(CC3)C[C@H](C(=O)NCCCCCCNC(=O)c3ccc(-c5c6nc(c(-c7c(F)cc(S(=O)(=O)[O-])cc7F)c7ccc([nH]7)c(-c7c(F)cc(S(=O)(=O)[O-])cc7F)c7nc(c(-c8c(F)cc(S(=O)(=O)[O-])cc8F)c8ccc5[nH]8)C=C7)C=C6)cc3)N(C(C)=O)C4)cc21
REMARK SMILES IDX 24 1 23 2 22 3 21 4 19 5 20 6 18 8 11 9 12 10 16 11 13 13
REMARK SMILES IDX 15 14 14 15 17 16 101 17 97 18 10 19 9 20 3 21 4 22 103 23
REMARK SMILES IDX 5 24 6 25 102 26 7 27 8 28 2 29 1 30 98 31 99 32 100 33
REMARK SMILES IDX 25 34 26 35 27 36 28 37 29 38 30 40 31 41 32 42 96 43 33 44
REMARK SMILES IDX 95 45 34 46 35 47 36 48 89 49 37 50 94 51 88 52 90 53 38 54
REMARK SMILES IDX 93 55 87 56 86 57 39 59 73 60 52 61 72 62 53 63 56 64 71 65
REMARK SMILES IDX 91 66 54 67 55 68 70 70 92 71 57 72 40 73 41 74 50 75 42 76
REMARK SMILES IDX 43 77 49 78 51 79 44 80 45 81 46 82 47 83 48 84 74 85 75 86
REMARK SMILES IDX 84 87 76 88 77 89 83 90 85 91 78 92 79 93 80 94 81 95 82 96
REMARK SMILES IDX 58 97 59 98 68 99 60 100 61 101 67 102 69 103 62 104 63 105
REMARK SMILES IDX 64 106 65 107 66 108
REMARK H PARENT 21 7 11 12 28 39 90 58 56 69
REMARK Flexibility Score: inf
ROOT
ATOM      1  C   UNL     1       4.045   7.448   2.194  1.00  0.00     0.002 C 
ENDROOT
BRANCH   1   2
ATOM      2  C   UNL     1       3.130   6.215   2.087  1.00  0.00     0.021 C 
BRANCH   2   3
ATOM      3  C   UNL     1       3.304   5.467   0.767  1.00  0.00     0.116 C 
BRANCH   3   4
ATOM      4  N   UNL     1       4.665   4.986   0.651  1.00  0.00    -0.354 N 
ATOM      5  C   UNL     1       5.243   3.863   0.197  1.00  0.00     0.242 C 
ATOM      6  O   UNL     1       6.296   4.089  -0.416  1.00  0.00    -0.273 OA
ATOM      7  H   UNL     1       5.323   5.638   0.985  1.00  0.00     0.163 HD
BRANCH   5   8
ATOM      8  C   UNL     1       4.797   2.408   0.373  1.00  0.00     0.175 C 
ATOM      9  N   UNL     1       4.117  -1.205  -3.613  1.00  0.00    -0.331 N 
ATOM     10  C   UNL     1       5.340  -0.374  -3.572  1.00  0.00     0.263 C 
ATOM     11  C   UNL     1       3.710  -1.552  -2.261  1.00  0.00     0.263 C 
ATOM     12  H   UNL     1       4.374  -2.057  -4.110  1.00  0.00     0.348 HD
ATOM     13  C   UNL     1       5.145   0.963  -2.873  1.00  0.00     0.070 C 
ATOM     14  C   UNL     1       3.566  -0.305  -1.450  1.00  0.00     0.070 C 
ATOM     15  C   UNL     1       4.624   0.752  -1.449  1.00  0.00     0.001 C 
ATOM     16  C   UNL     1       4.080   2.094  -0.917  1.00  0.00     0.044 C 
ATOM     17  C   UNL     1       5.631   0.276  -0.454  1.00  0.00     0.127 C 
ATOM     18  N   UNL     1       5.947   1.457   0.313  1.00  0.00    -0.330 N 
BRANCH   9  19
ATOM     19  C   UNL     1       2.992  -0.686  -4.468  1.00  0.00     0.299 C 
BRANCH  19  20
ATOM     20  C   UNL     1       2.218   0.610  -4.109  1.00  0.00     0.008 A 
ATOM     21  N   UNL     1       0.746   2.246  -0.988  1.00  0.00    -0.348 N 
ATOM     22  C   UNL     1       0.708   3.627  -0.896  1.00  0.00     0.087 A 
ATOM     23  C   UNL     1       1.135   1.899  -2.297  1.00  0.00     0.048 A 
ATOM     24  C   UNL     1       1.157   4.157  -2.082  1.00  0.00     0.028 A 
ATOM     25  C   UNL     1       1.538   3.087  -2.927  1.00  0.00    -0.000 A 
ATOM     26  C   UNL     1       1.306   0.668  -3.009  1.00  0.00     0.036 A 
ATOM     27  C   UNL     1       2.144   3.026  -4.206  1.00  0.00     0.011 A 
ATOM     28  C   UNL     1       2.519   1.797  -4.768  1.00  0.00     0.010 A 
BRANCH  21  29
ATOM     29  C   UNL     1       0.412   1.438   0.192  1.00  0.00     0.119 C 
ATOM     30  C   UNL     1       0.879   0.009   0.239  1.00  0.00     0.027 C 
ENDBRANCH  21  29
ENDBRANCH  19  20
ENDBRANCH   9  19
BRANCH  18  31
ATOM     31  C   UNL     1       7.242   1.630   0.744  1.00  0.00     0.220 C 
ATOM     32  C   UNL     1       7.639   2.877   1.505  1.00  0.00     0.114 C 
ATOM     33  O   UNL     1       8.109   0.786   0.490  1.00  0.00    -0.275 OA
ENDBRANCH  18  31
ENDBRANCH   5   8
ENDBRANCH   3   4
ENDBRANCH   2   3
ENDBRANCH   1   2
BRANCH   1  34
ATOM     34  C   UNL     1       3.741   8.495   1.115  1.00  0.00     0.002 C 
BRANCH  34  35
ATOM     35  C   UNL     1       2.304   9.003   1.214  1.00  0.00     0.021 C 
BRANCH  35  36
ATOM     36  C   UNL     1       2.030   9.644   2.571  1.00  0.00     0.116 C 
BRANCH  36  37
ATOM     37  N   UNL     1       2.789  10.867   2.786  1.00  0.00    -0.352 N 
ATOM     38  C   UNL     1       2.404  12.194   2.943  1.00  0.00     0.251 C 
ATOM     39  H   UNL     1       3.763  10.728   2.827  1.00  0.00     0.163 HD
ATOM     40  O   UNL     1       3.300  13.024   3.112  1.00  0.00    -0.269 OA
BRANCH  38  41
ATOM     41  C   UNL     1       0.984  12.727   2.787  1.00  0.00     0.039 A 
ATOM     42  C   UNL     1       0.033  11.917   2.321  1.00  0.00     0.014 A 
ATOM     43  C   UNL     1       0.814  14.008   2.155  1.00  0.00     0.014 A 
ATOM     44  C   UNL     1      -0.516  12.397   0.873  1.00  0.00     0.010 A 
ATOM     45  C   UNL     1      -0.203  14.504   1.223  1.00  0.00     0.010 A 
ATOM     46  C   UNL     1      -0.070  13.832   0.050  1.00  0.00    -0.014 A 
BRANCH  46  47
ATOM     47  C   UNL     1      -0.123  15.084  -1.530  1.00  0.00     0.031 A 
ATOM     48  C   UNL     1      -2.042  14.806  -0.823  1.00  0.00     0.074 A 
ATOM     49  C   UNL     1       0.827  15.949  -2.710  1.00  0.00     0.049 A 
ATOM     50  N   UNL     1      -2.797  13.677  -0.924  1.00  0.00    -0.248 NA
ATOM     51  C   UNL     1      -3.136  15.152   0.661  1.00  0.00     0.031 C 
ATOM     52  C   UNL     1       2.449  16.743  -3.598  1.00  0.00     0.029 A 
ATOM     53  N   UNL     1       0.679  16.664  -4.275  1.00  0.00    -0.354 N 
ATOM     54  C   UNL     1      -4.171  14.172  -0.843  1.00  0.00     0.074 A 
ATOM     55  C   UNL     1      -4.433  14.894   0.316  1.00  0.00     0.031 C 
ATOM     56  C   UNL     1       2.700  17.762  -4.734  1.00  0.00     0.029 A 
ATOM     57  C   UNL     1       1.329  18.005  -4.960  1.00  0.00     0.049 A 
ATOM     58  H   UNL     1       0.083  16.165  -4.879  1.00  0.00     0.167 HD
ATOM     59  C   UNL     1      -4.675  14.718  -1.955  1.00  0.00     0.037 A 
ATOM     60  C   UNL     1       0.769  19.072  -5.696  1.00  0.00     0.037 A 
ATOM     61  C   UNL     1      -3.854  14.255  -3.001  1.00  0.00     0.049 A 
ATOM     62  C   UNL     1      -0.527  18.428  -5.611  1.00  0.00     0.074 A 
ATOM     63  C   UNL     1      -3.445  12.977  -3.303  1.00  0.00     0.029 A 
ATOM     64  N   UNL     1      -2.887  15.108  -3.397  1.00  0.00    -0.354 N 
ATOM     65  N   UNL     1      -0.777  17.278  -6.205  1.00  0.00    -0.248 NA
ATOM     66  C   UNL     1      -1.166  18.739  -4.344  1.00  0.00     0.031 C 
ATOM     67  C   UNL     1      -2.263  13.097  -4.030  1.00  0.00     0.029 A 
ATOM     68  C   UNL     1      -1.981  14.441  -4.149  1.00  0.00     0.049 A 
ATOM     69  H   UNL     1      -2.846  16.066  -3.173  1.00  0.00     0.167 HD
ATOM     70  C   UNL     1      -1.376  16.506  -5.210  1.00  0.00     0.074 A 
ATOM     71  C   UNL     1      -1.698  17.538  -4.122  1.00  0.00     0.031 C 
ATOM     72  C   UNL     1      -1.109  15.139  -5.015  1.00  0.00     0.037 A 
BRANCH  59  73
ATOM     73  C   UNL     1      -5.653  15.814  -2.103  1.00  0.00     0.058 A 
ATOM     74  C   UNL     1      -6.429  15.576  -3.226  1.00  0.00     0.135 A 
ATOM     75  C   UNL     1      -5.828  17.036  -1.410  1.00  0.00     0.135 A 
ATOM     76  F   UNL     1      -6.325  14.399  -3.863  1.00  0.00    -0.206 F 
ATOM     77  C   UNL     1      -7.294  16.512  -3.721  1.00  0.00     0.059 A 
ATOM     78  C   UNL     1      -6.729  17.994  -1.880  1.00  0.00     0.059 A 
ATOM     79  F   UNL     1      -5.139  17.341  -0.295  1.00  0.00    -0.206 F 
ATOM     80  C   UNL     1      -7.439  17.723  -3.053  1.00  0.00     0.060 A 
BRANCH  80  81
ATOM     81  S   UNL     1      -8.589  18.912  -3.770  1.00  0.00     0.124 S 
ATOM     82  O   UNL     1      -8.006  19.139  -5.087  1.00  0.00    -0.237 OA
ATOM     83  O   UNL     1      -9.840  18.159  -3.750  1.00  0.00    -0.237 OA
ATOM     84  O   UNL     1      -8.526  20.038  -2.845  1.00  0.00    -0.744 OA
ENDBRANCH  80  81
ENDBRANCH  59  73
BRANCH  60  85
ATOM     85  C   UNL     1       1.024  20.639  -5.593  1.00  0.00     0.058 A 
ATOM     86  C   UNL     1       0.790  21.587  -6.626  1.00  0.00     0.135 A 
ATOM     87  C   UNL     1       1.269  21.251  -4.334  1.00  0.00     0.135 A 
ATOM     88  F   UNL     1       0.666  21.173  -7.895  1.00  0.00    -0.206 F 
ATOM     89  C   UNL     1       0.667  22.991  -6.403  1.00  0.00     0.059 A 
ATOM     90  C   UNL     1       1.139  22.643  -4.077  1.00  0.00     0.059 A 
ATOM     91  F   UNL     1       1.601  20.479  -3.289  1.00  0.00    -0.206 F 
ATOM     92  C   UNL     1       0.802  23.509  -5.114  1.00  0.00     0.060 A 
BRANCH  92  93
ATOM     93  S   UNL     1       0.518  25.293  -4.822  1.00  0.00     0.124 S 
ATOM     94  O   UNL     1       1.532  25.910  -5.672  1.00  0.00    -0.237 OA
ATOM     95  O   UNL     1      -0.862  25.471  -5.261  1.00  0.00    -0.237 OA
ATOM     96  O   UNL     1       0.738  25.448  -3.386  1.00  0.00    -0.744 OA
ENDBRANCH  92  93
ENDBRANCH  60  85
BRANCH  72  97
ATOM     97  C   UNL     1      -0.096  14.236  -5.819  1.00  0.00     0.058 A 
ATOM     98  C   UNL     1       1.297  13.964  -5.594  1.00  0.00     0.135 A 
ATOM     99  C   UNL     1      -0.643  13.479  -6.842  1.00  0.00     0.135 A 
ATOM    100  F   UNL     1       1.978  14.422  -4.546  1.00  0.00    -0.206 F 
ATOM    101  C   UNL     1       2.109  13.211  -6.434  1.00  0.00     0.059 A 
ATOM    102  C   UNL     1       0.126  12.618  -7.637  1.00  0.00     0.059 A 
ATOM    103  F   UNL     1      -1.967  13.520  -7.042  1.00  0.00    -0.206 F 
ATOM    104  C   UNL     1       1.506  12.518  -7.456  1.00  0.00     0.060 A 
BRANCH 104 105
ATOM    105  S   UNL     1       2.544  11.461  -8.480  1.00  0.00     0.124 S 
ATOM    106  O   UNL     1       3.467  12.421  -9.078  1.00  0.00    -0.237 OA
ATOM    107  O   UNL     1       3.134  10.555  -7.497  1.00  0.00    -0.237 OA
ATOM    108  O   UNL     1       1.591  10.847  -9.399  1.00  0.00    -0.744 OA
ENDBRANCH 104 105
ENDBRANCH  72  97
ENDBRANCH  46  47
ENDBRANCH  38  41
ENDBRANCH  36  37
ENDBRANCH  35  36
ENDBRANCH  34  35
ENDBRANCH   1  34
TORSDOF 20
