REMARK SMILES CC1(C)CSC[C@H](N(CCC(=O)NCCCCCCNC(=O)c2ccc(-c3c4nc(c(-c5c(F)cc(S(=O)(=O)[O-])cc5F)c5ccc([nH]5)c(-c5c(F)cc(S(=O)(=O)[O-])cc5F)c5nc(c(-c6c(F)cc(S(=O)(=O)[O-])cc6F)c6ccc3[nH]6)C=C5)C=C4)cc2)c2ccccc2)C1
REMARK SMILES IDX 16 1 15 2 14 3 13 4 11 5 12 6 10 8 9 9 8 10 7 11 1 12 2 13
REMARK SMILES IDX 3 14 4 15 95 16 5 17 6 18 89 19 90 20 94 21 91 22 93 23
REMARK SMILES IDX 92 24 17 25 18 26 19 27 20 28 21 29 22 31 23 32 24 33 88 34
REMARK SMILES IDX 25 35 87 36 26 37 27 38 28 39 81 40 29 41 86 42 80 43 82 44
REMARK SMILES IDX 30 45 85 46 79 47 78 48 31 50 65 51 44 52 64 53 45 54 48 55
REMARK SMILES IDX 63 56 83 57 46 58 47 59 62 61 84 62 49 63 32 64 33 65 42 66
REMARK SMILES IDX 34 67 35 68 41 69 43 70 36 71 37 72 38 73 39 74 40 75 66 76
REMARK SMILES IDX 67 77 76 78 68 79 69 80 75 81 77 82 70 83 71 84 72 85 73 86
REMARK SMILES IDX 74 87 50 88 51 89 60 90 52 91 53 92 59 93 61 94 54 95 55 96
REMARK SMILES IDX 56 97 57 98 58 99
REMARK H PARENT 13 7 20 30 82 49 48 60
REMARK Flexibility Score: inf
ROOT
ATOM      1  C   UNL     1       5.417   1.489  -2.929  1.00  0.00     0.002 C 
ENDROOT
BRANCH   1   2
ATOM      2  C   UNL     1       4.639   1.627  -1.618  1.00  0.00     0.021 C 
BRANCH   2   3
ATOM      3  C   UNL     1       5.439   1.919  -0.355  1.00  0.00     0.116 C 
BRANCH   3   4
ATOM      4  N   UNL     1       6.060   3.233  -0.348  1.00  0.00    -0.356 N 
ATOM      5  C   UNL     1       5.620   4.421   0.155  1.00  0.00     0.221 C 
ATOM      6  O   UNL     1       6.383   5.391   0.103  1.00  0.00    -0.275 OA
ATOM      7  H   UNL     1       6.946   3.271  -0.777  1.00  0.00     0.163 HD
BRANCH   5   8
ATOM      8  C   UNL     1       4.234   4.572   0.742  1.00  0.00     0.121 C 
BRANCH   8   9
ATOM      9  C   UNL     1       3.258   5.336  -0.163  1.00  0.00     0.127 C 
BRANCH   9  10
ATOM     10  N   UNL     1       2.580   4.513  -1.212  1.00  0.00    -0.367 N 
BRANCH  10  11
ATOM     11  C   UNL     1       1.631   3.430  -0.686  1.00  0.00     0.092 C 
ATOM     12  C   UNL     1       1.097   0.304  -0.155  1.00  0.00     0.012 C 
ATOM     13  C   UNL     1       0.282   1.198  -1.112  1.00  0.00    -0.024 C 
ATOM     14  C   UNL     1      -0.154   0.306  -2.300  1.00  0.00     0.012 C 
ATOM     15  C   UNL     1      -0.989   1.736  -0.428  1.00  0.00     0.076 C 
ATOM     16  C   UNL     1       1.112   2.381  -1.694  1.00  0.00     0.033 C 
ATOM     17  S   UNL     1      -0.649   2.888   0.935  1.00  0.00    -0.159 SA
ATOM     18  C   UNL     1       0.446   4.066   0.075  1.00  0.00     0.094 C 
ENDBRANCH  10  11
BRANCH  10  19
ATOM     19  C   UNL     1       3.070   4.643  -2.519  1.00  0.00     0.037 A 
ATOM     20  C   UNL     1       4.387   5.078  -2.792  1.00  0.00     0.026 A 
ATOM     21  C   UNL     1       2.327   4.345  -3.666  1.00  0.00     0.026 A 
ATOM     22  C   UNL     1       4.968   5.064  -4.068  1.00  0.00     0.002 A 
ATOM     23  C   UNL     1       2.890   4.319  -4.956  1.00  0.00     0.002 A 
ATOM     24  C   UNL     1       4.223   4.652  -5.155  1.00  0.00     0.000 A 
ENDBRANCH  10  19
ENDBRANCH   9  10
ENDBRANCH   8   9
ENDBRANCH   5   8
ENDBRANCH   3   4
ENDBRANCH   2   3
ENDBRANCH   1   2
BRANCH   1  25
ATOM     25  C   UNL     1       5.746   0.048  -3.333  1.00  0.00     0.002 C 
BRANCH  25  26
ATOM     26  C   UNL     1       4.546  -0.899  -3.482  1.00  0.00     0.021 C 
BRANCH  26  27
ATOM     27  C   UNL     1       3.476  -0.452  -4.479  1.00  0.00     0.116 C 
BRANCH  27  28
ATOM     28  N   UNL     1       3.920  -0.595  -5.859  1.00  0.00    -0.352 N 
ATOM     29  C   UNL     1       3.670  -1.615  -6.752  1.00  0.00     0.251 C 
ATOM     30  H   UNL     1       4.478   0.140  -6.202  1.00  0.00     0.163 HD
ATOM     31  O   UNL     1       4.310  -1.701  -7.791  1.00  0.00    -0.269 OA
BRANCH  29  32
ATOM     32  C   UNL     1       2.635  -2.623  -6.431  1.00  0.00     0.039 A 
ATOM     33  C   UNL     1       2.965  -3.979  -6.472  1.00  0.00     0.014 A 
ATOM     34  C   UNL     1       1.346  -2.223  -6.069  1.00  0.00     0.014 A 
ATOM     35  C   UNL     1       2.029  -4.930  -6.051  1.00  0.00     0.010 A 
ATOM     36  C   UNL     1       0.437  -3.165  -5.591  1.00  0.00     0.010 A 
ATOM     37  C   UNL     1       0.778  -4.527  -5.554  1.00  0.00    -0.014 A 
BRANCH  37  38
ATOM     38  C   UNL     1      -0.154  -5.501  -4.923  1.00  0.00     0.031 A 
ATOM     39  C   UNL     1      -1.513  -5.759  -5.515  1.00  0.00     0.074 A 
ATOM     40  C   UNL     1       0.198  -6.088  -3.760  1.00  0.00     0.049 A 
ATOM     41  N   UNL     1      -2.483  -6.507  -5.055  1.00  0.00    -0.248 NA
ATOM     42  C   UNL     1      -1.834  -5.072  -6.776  1.00  0.00     0.031 C 
ATOM     43  C   UNL     1       1.471  -5.886  -3.062  1.00  0.00     0.029 A 
ATOM     44  N   UNL     1      -0.484  -6.963  -2.949  1.00  0.00    -0.354 N 
ATOM     45  C   UNL     1      -3.532  -6.371  -5.957  1.00  0.00     0.074 A 
ATOM     46  C   UNL     1      -3.093  -5.438  -6.973  1.00  0.00     0.031 C 
ATOM     47  C   UNL     1       1.487  -6.631  -1.946  1.00  0.00     0.029 A 
ATOM     48  C   UNL     1       0.210  -7.325  -1.817  1.00  0.00     0.049 A 
ATOM     49  H   UNL     1      -1.385  -7.300  -3.158  1.00  0.00     0.167 HD
ATOM     50  C   UNL     1      -4.742  -6.980  -5.945  1.00  0.00     0.037 A 
ATOM     51  C   UNL     1      -0.145  -8.111  -0.781  1.00  0.00     0.037 A 
ATOM     52  C   UNL     1      -5.160  -7.926  -4.942  1.00  0.00     0.049 A 
ATOM     53  C   UNL     1      -1.510  -8.747  -0.779  1.00  0.00     0.074 A 
ATOM     54  C   UNL     1      -6.333  -8.661  -4.893  1.00  0.00     0.029 A 
ATOM     55  N   UNL     1      -4.434  -8.260  -3.809  1.00  0.00    -0.354 N 
ATOM     56  N   UNL     1      -2.451  -8.679  -1.690  1.00  0.00    -0.248 NA
ATOM     57  C   UNL     1      -1.865  -9.559   0.393  1.00  0.00     0.031 C 
ATOM     58  C   UNL     1      -6.345  -9.387  -3.698  1.00  0.00     0.029 A 
ATOM     59  C   UNL     1      -5.154  -9.152  -3.031  1.00  0.00     0.049 A 
ATOM     60  H   UNL     1      -3.538  -7.914  -3.590  1.00  0.00     0.167 HD
ATOM     61  C   UNL     1      -3.501  -9.455  -1.209  1.00  0.00     0.074 A 
ATOM     62  C   UNL     1      -3.071 -10.001   0.061  1.00  0.00     0.031 C 
ATOM     63  C   UNL     1      -4.714  -9.689  -1.767  1.00  0.00     0.037 A 
BRANCH  50  64
ATOM     64  C   UNL     1      -5.715  -6.647  -7.043  1.00  0.00     0.058 A 
ATOM     65  C   UNL     1      -5.523  -7.089  -8.362  1.00  0.00     0.135 A 
ATOM     66  C   UNL     1      -6.899  -5.948  -6.755  1.00  0.00     0.135 A 
ATOM     67  F   UNL     1      -4.404  -7.751  -8.697  1.00  0.00    -0.206 F 
ATOM     68  C   UNL     1      -6.461  -6.836  -9.358  1.00  0.00     0.059 A 
ATOM     69  C   UNL     1      -7.864  -5.708  -7.729  1.00  0.00     0.059 A 
ATOM     70  F   UNL     1      -7.134  -5.502  -5.511  1.00  0.00    -0.206 F 
ATOM     71  C   UNL     1      -7.632  -6.151  -9.030  1.00  0.00     0.060 A 
BRANCH  71  72
ATOM     72  S   UNL     1      -8.853  -5.862 -10.329  1.00  0.00     0.124 S 
ATOM     73  O   UNL     1      -8.170  -4.871 -11.155  1.00  0.00    -0.237 OA
ATOM     74  O   UNL     1      -8.996  -7.189 -10.919  1.00  0.00    -0.237 OA
ATOM     75  O   UNL     1     -10.019  -5.374  -9.599  1.00  0.00    -0.744 OA
ENDBRANCH  71  72
ENDBRANCH  50  64
BRANCH  51  76
ATOM     76  C   UNL     1       0.798  -8.343   0.348  1.00  0.00     0.058 A 
ATOM     77  C   UNL     1       1.347  -9.613   0.578  1.00  0.00     0.135 A 
ATOM     78  C   UNL     1       1.157  -7.309   1.228  1.00  0.00     0.135 A 
ATOM     79  F   UNL     1       1.029 -10.637  -0.229  1.00  0.00    -0.206 F 
ATOM     80  C   UNL     1       2.196  -9.858   1.653  1.00  0.00     0.059 A 
ATOM     81  C   UNL     1       2.028  -7.522   2.291  1.00  0.00     0.059 A 
ATOM     82  F   UNL     1       0.673  -6.070   1.045  1.00  0.00    -0.206 F 
ATOM     83  C   UNL     1       2.531  -8.804   2.504  1.00  0.00     0.060 A 
BRANCH  83  84
ATOM     84  S   UNL     1       3.657  -9.127   3.879  1.00  0.00     0.124 S 
ATOM     85  O   UNL     1       2.809  -9.904   4.776  1.00  0.00    -0.237 OA
ATOM     86  O   UNL     1       4.737  -9.858   3.225  1.00  0.00    -0.237 OA
ATOM     87  O   UNL     1       4.008  -7.788   4.345  1.00  0.00    -0.744 OA
ENDBRANCH  83  84
ENDBRANCH  51  76
BRANCH  63  88
ATOM     88  C   UNL     1      -5.666 -10.579  -1.016  1.00  0.00     0.058 A 
ATOM     89  C   UNL     1      -6.305 -10.145   0.156  1.00  0.00     0.135 A 
ATOM     90  C   UNL     1      -5.994 -11.853  -1.508  1.00  0.00     0.135 A 
ATOM     91  F   UNL     1      -6.019  -8.941   0.676  1.00  0.00    -0.206 F 
ATOM     92  C   UNL     1      -7.227 -10.947   0.821  1.00  0.00     0.059 A 
ATOM     93  C   UNL     1      -6.936 -12.660  -0.876  1.00  0.00     0.059 A 
ATOM     94  F   UNL     1      -5.417 -12.315  -2.629  1.00  0.00    -0.206 F 
ATOM     95  C   UNL     1      -7.542 -12.201   0.292  1.00  0.00     0.060 A 
BRANCH  95  96
ATOM     96  S   UNL     1      -8.782 -13.205   1.136  1.00  0.00     0.124 S 
ATOM     97  O   UNL     1      -8.065 -13.607   2.342  1.00  0.00    -0.237 OA
ATOM     98  O   UNL     1      -9.871 -12.253   1.333  1.00  0.00    -0.237 OA
ATOM     99  O   UNL     1      -9.058 -14.277   0.184  1.00  0.00    -0.744 OA
ENDBRANCH  95  96
ENDBRANCH  63  88
ENDBRANCH  37  38
ENDBRANCH  29  32
ENDBRANCH  27  28
ENDBRANCH  26  27
ENDBRANCH  25  26
ENDBRANCH   1  25
TORSDOF 20
