REMARK SMILES O=C(NCCCCCCNC(=O)c1cn([C@H]2CCc3ccccc3C2)c(=O)[nH]c1=O)c1ccc(-c2c3nc(c(-c4c(F)cc(S(=O)(=O)[O-])cc4F)c4ccc([nH]4)c(-c4c(F)cc(S(=O)(=O)[O-])cc4F)c4nc(c(-c5c(F)cc(S(=O)(=O)[O-])cc5F)c5ccc2[nH]5)C=C4)C=C3)cc1
REMARK SMILES IDX 5 1 4 2 3 3 1 4 2 5 31 7 32 8 96 9 33 10 95 11 34 12 35 13
REMARK SMILES IDX 36 14 89 15 37 16 94 17 88 18 90 19 38 20 93 21 87 22 86 23
REMARK SMILES IDX 39 25 73 26 52 27 72 28 53 29 56 30 71 31 91 32 54 33 55 34
REMARK SMILES IDX 70 36 92 37 57 38 40 39 41 40 50 41 42 42 43 43 49 44 51 45
REMARK SMILES IDX 44 46 45 47 46 48 47 49 48 50 74 51 75 52 84 53 76 54 77 55
REMARK SMILES IDX 83 56 85 57 78 58 79 59 80 60 81 61 82 62 58 63 59 64 68 65
REMARK SMILES IDX 60 66 61 67 67 68 69 69 62 70 63 71 64 72 65 73 66 74 6 75
REMARK SMILES IDX 7 76 8 77 9 78 10 79 11 80 12 82 13 83 14 84 29 85 15 86
REMARK SMILES IDX 28 87 30 88 26 89 27 91 16 92 17 93 25 94 18 95 24 96 19 97
REMARK SMILES IDX 23 98 20 99 22 100 21 101
REMARK H PARENT 3 6 90 24 56 35 10 81 28 90
REMARK Flexibility Score: inf
ROOT
ATOM      1  C   UNL     1       5.532   2.886  -8.768  1.00  0.00     0.021 C 
ENDROOT
BRANCH   1   2
ATOM      2  C   UNL     1       5.622   2.854 -10.288  1.00  0.00     0.116 C 
BRANCH   2   3
ATOM      3  N   UNL     1       4.370   3.202 -10.927  1.00  0.00    -0.352 N 
ATOM      4  O   UNL     1       2.995   4.331 -12.298  1.00  0.00    -0.269 OA
ATOM      5  C   UNL     1       4.147   4.047 -11.983  1.00  0.00     0.251 C 
ATOM      6  H   UNL     1       3.568   2.772 -10.551  1.00  0.00     0.163 HD
BRANCH   5   7
ATOM      7  C   UNL     1       5.288   4.631 -12.725  1.00  0.00     0.039 A 
ATOM      8  C   UNL     1       5.219   5.976 -13.095  1.00  0.00     0.014 A 
ATOM      9  C   UNL     1       6.396   3.860 -13.092  1.00  0.00     0.014 A 
ATOM     10  C   UNL     1       6.264   6.550 -13.821  1.00  0.00     0.010 A 
ATOM     11  C   UNL     1       7.470   4.452 -13.753  1.00  0.00     0.010 A 
ATOM     12  C   UNL     1       7.400   5.795 -14.152  1.00  0.00    -0.014 A 
BRANCH  12  13
ATOM     13  C   UNL     1       8.477   6.374 -14.995  1.00  0.00     0.031 A 
ATOM     14  C   UNL     1       8.710   5.826 -16.379  1.00  0.00     0.074 A 
ATOM     15  C   UNL     1       9.244   7.375 -14.521  1.00  0.00     0.049 A 
ATOM     16  N   UNL     1       9.618   6.163 -17.257  1.00  0.00    -0.248 NA
ATOM     17  C   UNL     1       7.820   4.740 -16.827  1.00  0.00     0.031 C 
ATOM     18  C   UNL     1       9.136   7.966 -13.186  1.00  0.00     0.029 A 
ATOM     19  N   UNL     1      10.265   8.076 -15.112  1.00  0.00    -0.354 N 
ATOM     20  C   UNL     1       9.420   5.323 -18.347  1.00  0.00     0.074 A 
ATOM     21  C   UNL     1       8.341   4.425 -18.003  1.00  0.00     0.031 C 
ATOM     22  C   UNL     1      10.033   8.961 -13.071  1.00  0.00     0.029 A 
ATOM     23  C   UNL     1      10.797   9.060 -14.312  1.00  0.00     0.049 A 
ATOM     24  H   UNL     1      10.587   7.892 -16.024  1.00  0.00     0.167 HD
ATOM     25  C   UNL     1      10.058   5.322 -19.540  1.00  0.00     0.037 A 
ATOM     26  C   UNL     1      11.786   9.943 -14.554  1.00  0.00     0.037 A 
ATOM     27  C   UNL     1      11.086   6.258 -19.903  1.00  0.00     0.049 A 
ATOM     28  C   UNL     1      12.466   9.934 -15.897  1.00  0.00     0.074 A 
ATOM     29  C   UNL     1      11.751   6.378 -21.110  1.00  0.00     0.029 A 
ATOM     30  N   UNL     1      11.585   7.246 -19.069  1.00  0.00    -0.354 N 
ATOM     31  N   UNL     1      12.238   9.157 -16.928  1.00  0.00    -0.248 NA
ATOM     32  C   UNL     1      13.536  10.920 -16.112  1.00  0.00     0.031 C 
ATOM     33  C   UNL     1      12.671   7.423 -20.998  1.00  0.00     0.029 A 
ATOM     34  C   UNL     1      12.556   7.975 -19.732  1.00  0.00     0.049 A 
ATOM     35  H   UNL     1      11.292   7.406 -18.142  1.00  0.00     0.167 HD
ATOM     36  C   UNL     1      13.120   9.572 -17.919  1.00  0.00     0.074 A 
ATOM     37  C   UNL     1      13.879  10.676 -17.370  1.00  0.00     0.031 C 
ATOM     38  C   UNL     1      13.287   9.082 -19.171  1.00  0.00     0.037 A 
BRANCH  25  39
ATOM     39  C   UNL     1       9.642   4.301 -20.560  1.00  0.00     0.058 A 
ATOM     40  C   UNL     1       8.430   4.418 -21.258  1.00  0.00     0.135 A 
ATOM     41  C   UNL     1      10.494   3.236 -20.896  1.00  0.00     0.135 A 
ATOM     42  F   UNL     1       7.572   5.406 -20.961  1.00  0.00    -0.206 F 
ATOM     43  C   UNL     1       8.072   3.509 -22.247  1.00  0.00     0.059 A 
ATOM     44  C   UNL     1      10.166   2.329 -21.899  1.00  0.00     0.059 A 
ATOM     45  F   UNL     1      11.662   3.078 -20.254  1.00  0.00    -0.206 F 
ATOM     46  C   UNL     1       8.949   2.471 -22.565  1.00  0.00     0.060 A 
BRANCH  46  47
ATOM     47  S   UNL     1       8.484   1.326 -23.880  1.00  0.00     0.124 S 
ATOM     48  O   UNL     1       7.426   0.555 -23.235  1.00  0.00    -0.237 OA
ATOM     49  O   UNL     1       8.053   2.229 -24.942  1.00  0.00    -0.237 OA
ATOM     50  O   UNL     1       9.719   0.594 -24.147  1.00  0.00    -0.744 OA
ENDBRANCH  46  47
ENDBRANCH  25  39
BRANCH  26  51
ATOM     51  C   UNL     1      12.174  10.930 -13.513  1.00  0.00     0.058 A 
ATOM     52  C   UNL     1      11.855  12.289 -13.655  1.00  0.00     0.135 A 
ATOM     53  C   UNL     1      12.864  10.537 -12.355  1.00  0.00     0.135 A 
ATOM     54  F   UNL     1      11.202  12.713 -14.747  1.00  0.00    -0.206 F 
ATOM     55  C   UNL     1      12.219  13.227 -12.694  1.00  0.00     0.059 A 
ATOM     56  C   UNL     1      13.220  11.454 -11.371  1.00  0.00     0.059 A 
ATOM     57  F   UNL     1      13.178   9.247 -12.165  1.00  0.00    -0.206 F 
ATOM     58  C   UNL     1      12.902  12.799 -11.554  1.00  0.00     0.060 A 
BRANCH  58  59
ATOM     59  S   UNL     1      13.332  14.018 -10.293  1.00  0.00     0.124 S 
ATOM     60  O   UNL     1      14.438  14.723 -10.932  1.00  0.00    -0.237 OA
ATOM     61  O   UNL     1      12.089  14.770 -10.155  1.00  0.00    -0.237 OA
ATOM     62  O   UNL     1      13.689  13.195  -9.141  1.00  0.00    -0.744 OA
ENDBRANCH  58  59
ENDBRANCH  26  51
BRANCH  38  63
ATOM     63  C   UNL     1      14.314   9.734 -20.049  1.00  0.00     0.058 A 
ATOM     64  C   UNL     1      15.681   9.466 -19.891  1.00  0.00     0.135 A 
ATOM     65  C   UNL     1      13.918  10.539 -21.130  1.00  0.00     0.135 A 
ATOM     66  F   UNL     1      16.107   8.707 -18.869  1.00  0.00    -0.206 F 
ATOM     67  C   UNL     1      16.624   9.971 -20.779  1.00  0.00     0.059 A 
ATOM     68  C   UNL     1      14.843  11.037 -22.042  1.00  0.00     0.059 A 
ATOM     69  F   UNL     1      12.619  10.814 -21.327  1.00  0.00    -0.206 F 
ATOM     70  C   UNL     1      16.194  10.747 -21.858  1.00  0.00     0.060 A 
BRANCH  70  71
ATOM     71  S   UNL     1      17.422  11.324 -23.048  1.00  0.00     0.124 S 
ATOM     72  O   UNL     1      18.097  12.372 -22.290  1.00  0.00    -0.237 OA
ATOM     73  O   UNL     1      18.206  10.118 -23.298  1.00  0.00    -0.237 OA
ATOM     74  O   UNL     1      16.615  11.784 -24.174  1.00  0.00    -0.744 OA
ENDBRANCH  70  71
ENDBRANCH  38  63
ENDBRANCH  12  13
ENDBRANCH   5   7
ENDBRANCH   2   3
ENDBRANCH   1   2
BRANCH   1  75
ATOM     75  C   UNL     1       4.500   1.940  -8.150  1.00  0.00     0.002 C 
BRANCH  75  76
ATOM     76  C   UNL     1       4.573   0.477  -8.602  1.00  0.00     0.002 C 
BRANCH  76  77
ATOM     77  C   UNL     1       5.966  -0.157  -8.582  1.00  0.00     0.021 C 
BRANCH  77  78
ATOM     78  C   UNL     1       6.665  -0.072  -7.236  1.00  0.00     0.116 C 
BRANCH  78  79
ATOM     79  N   UNL     1       6.047  -0.985  -6.292  1.00  0.00    -0.352 N 
ATOM     80  C   UNL     1       6.526  -2.181  -5.830  1.00  0.00     0.258 C 
ATOM     81  H   UNL     1       5.171  -0.708  -5.939  1.00  0.00     0.163 HD
ATOM     82  O   UNL     1       5.790  -2.908  -5.168  1.00  0.00    -0.269 OA
BRANCH  80  83
ATOM     83  C   UNL     1       7.968  -2.474  -5.973  1.00  0.00     0.121 A 
ATOM     84  C   UNL     1       8.746  -1.555  -5.399  1.00  0.00     0.110 A 
ATOM     85  C   UNL     1       8.579  -3.781  -6.251  1.00  0.00     0.266 A 
ATOM     86  N   UNL     1      10.037  -1.804  -4.969  1.00  0.00    -0.296 N 
ATOM     87  N   UNL     1       9.943  -3.847  -6.071  1.00  0.00    -0.273 N 
ATOM     88  O   UNL     1       7.929  -4.752  -6.630  1.00  0.00    -0.268 OA
ATOM     89  C   UNL     1      10.717  -2.951  -5.352  1.00  0.00     0.328 A 
ATOM     90  H   UNL     1      10.412  -4.602  -6.494  1.00  0.00     0.175 HD
ATOM     91  O   UNL     1      11.855  -3.224  -5.013  1.00  0.00    -0.248 OA
BRANCH  86  92
ATOM     92  C   UNL     1      10.400  -1.048  -3.772  1.00  0.00     0.096 C 
ATOM     93  C   UNL     1      10.589  -1.854  -2.487  1.00  0.00     0.031 C 
ATOM     94  C   UNL     1      11.394   0.117  -3.770  1.00  0.00     0.061 C 
ATOM     95  C   UNL     1      10.016  -0.995  -1.347  1.00  0.00     0.038 C 
ATOM     96  C   UNL     1      10.801   1.058  -2.709  1.00  0.00    -0.043 A 
ATOM     97  C   UNL     1      10.052   0.508  -1.626  1.00  0.00    -0.045 A 
ATOM     98  C   UNL     1      10.742   2.432  -2.970  1.00  0.00     0.004 A 
ATOM     99  C   UNL     1       9.145   1.329  -0.944  1.00  0.00     0.004 A 
ATOM    100  C   UNL     1       9.841   3.231  -2.266  1.00  0.00     0.000 A 
ATOM    101  C   UNL     1       9.018   2.674  -1.286  1.00  0.00     0.000 A 
ENDBRANCH  86  92
ENDBRANCH  80  83
ENDBRANCH  78  79
ENDBRANCH  77  78
ENDBRANCH  76  77
ENDBRANCH  75  76
ENDBRANCH   1  75
TORSDOF 17
