REMARK SMILES C/C(=N\NC(N)=O)c1nnn(-c2ccc(C(=O)NCCCCCCNC(=O)c3ccc(-c4c5nc(c(-c6c(F)cc(S(=O)(=O)[O-])cc6F)c6ccc([nH]6)c(-c6c(F)cc(S(=O)(=O)[O-])cc6F)c6nc(c(-c7c(F)cc(S(=O)(=O)[O-])cc7F)c7ccc4[nH]7)C=C6)C=C5)cc3)cc2)c1C
REMARK SMILES IDX 21 1 20 2 19 3 18 4 16 5 17 6 15 8 12 9 13 10 95 11 14 12
REMARK SMILES IDX 94 13 11 14 8 15 9 16 96 17 10 18 97 19 2 20 1 21 3 22 4 23
REMARK SMILES IDX 5 24 6 26 7 27 22 30 23 31 24 32 25 33 26 34 27 36 28 37
REMARK SMILES IDX 29 38 93 39 30 40 92 41 31 42 32 43 33 44 86 45 34 46 91 47
REMARK SMILES IDX 85 48 87 49 35 50 90 51 84 52 83 53 36 55 70 56 49 57 69 58
REMARK SMILES IDX 50 59 53 60 68 61 88 62 51 63 52 64 67 66 89 67 54 68 37 69
REMARK SMILES IDX 38 70 47 71 39 72 40 73 46 74 48 75 41 76 42 77 43 78 44 79
REMARK SMILES IDX 45 80 71 81 72 82 81 83 73 84 74 85 80 86 82 87 75 88 76 89
REMARK SMILES IDX 77 90 78 91 79 92 55 93 56 94 65 95 57 96 58 97 64 98 66 99
REMARK SMILES IDX 59 100 60 101 61 102 62 103 63 104
REMARK H PARENT 18 7 4 25 6 28 6 29 25 35 87 54 53 65
REMARK Flexibility Score: inf
ROOT
ATOM      1  C   UNL     1      10.222  -5.080   5.559  1.00  0.00     0.002 C 
ENDROOT
BRANCH   1   2
ATOM      2  C   UNL     1       8.802  -4.595   5.238  1.00  0.00     0.021 C 
BRANCH   2   3
ATOM      3  C   UNL     1       8.520  -4.478   3.739  1.00  0.00     0.116 C 
BRANCH   3   4
ATOM      4  N   UNL     1       8.209  -5.779   3.174  1.00  0.00    -0.352 N 
ATOM      5  C   UNL     1       7.034  -6.371   2.780  1.00  0.00     0.251 C 
ATOM      6  O   UNL     1       7.106  -7.494   2.279  1.00  0.00    -0.269 OA
ATOM      7  H   UNL     1       9.000  -6.353   3.048  1.00  0.00     0.163 HD
BRANCH   5   8
ATOM      8  C   UNL     1       5.712  -5.684   2.839  1.00  0.00     0.039 A 
ATOM      9  C   UNL     1       3.325  -4.258   2.574  1.00  0.00     0.067 A 
ATOM     10  C   UNL     1       3.524  -5.398   1.795  1.00  0.00     0.029 A 
ATOM     11  C   UNL     1       4.236  -3.907   3.571  1.00  0.00     0.029 A 
ATOM     12  C   UNL     1       4.735  -6.088   1.910  1.00  0.00     0.016 A 
ATOM     13  C   UNL     1       5.399  -4.661   3.737  1.00  0.00     0.016 A 
BRANCH   9  14
ATOM     14  N   UNL     1       2.251  -3.397   2.283  1.00  0.00    -0.217 N 
ATOM     15  C   UNL     1       1.032  -1.736   1.588  1.00  0.00     0.132 A 
ATOM     16  N   UNL     1       0.226  -2.828   1.767  1.00  0.00    -0.128 NA
ATOM     17  C   UNL     1       2.342  -2.080   1.862  1.00  0.00     0.071 A 
ATOM     18  N   UNL     1       0.994  -3.856   2.103  1.00  0.00    -0.061 NA
ATOM     19  C   UNL     1       3.609  -1.362   1.587  1.00  0.00     0.069 C 
BRANCH  15  20
ATOM     20  C   UNL     1       0.563  -0.532   0.926  1.00  0.00     0.087 C 
ATOM     21  C   UNL     1       0.716  -0.522  -0.571  1.00  0.00     0.071 C 
ATOM     22  N   UNL     1       0.045   0.376   1.698  1.00  0.00    -0.174 NA
BRANCH  22  23
ATOM     23  N   UNL     1      -0.423   1.573   1.233  1.00  0.00    -0.229 N 
ATOM     24  C   UNL     1       0.152   2.389   0.285  1.00  0.00     0.332 C 
ATOM     25  H   UNL     1      -1.271   1.889   1.620  1.00  0.00     0.195 HD
ATOM     26  N   UNL     1      -0.596   3.502   0.035  1.00  0.00    -0.350 N 
ATOM     27  O   UNL     1       1.196   2.209  -0.328  1.00  0.00    -0.247 OA
ATOM     28  H   UNL     1      -1.436   3.651   0.526  1.00  0.00     0.161 HD
ATOM     29  H   UNL     1      -0.295   4.157  -0.636  1.00  0.00     0.161 HD
ENDBRANCH  22  23
ENDBRANCH  15  20
ENDBRANCH   9  14
ENDBRANCH   5   8
ENDBRANCH   3   4
ENDBRANCH   2   3
ENDBRANCH   1   2
BRANCH   1  30
ATOM     30  C   UNL     1      11.363  -4.198   5.026  1.00  0.00     0.002 C 
BRANCH  30  31
ATOM     31  C   UNL     1      11.270  -2.698   5.344  1.00  0.00     0.021 C 
BRANCH  31  32
ATOM     32  C   UNL     1      11.367  -2.373   6.829  1.00  0.00     0.116 C 
BRANCH  32  33
ATOM     33  N   UNL     1      12.679  -2.705   7.376  1.00  0.00    -0.352 N 
ATOM     34  C   UNL     1      13.115  -2.670   8.686  1.00  0.00     0.251 C 
ATOM     35  H   UNL     1      13.349  -2.996   6.716  1.00  0.00     0.163 HD
ATOM     36  O   UNL     1      14.309  -2.594   8.928  1.00  0.00    -0.269 OA
BRANCH  34  37
ATOM     37  C   UNL     1      12.128  -2.718   9.783  1.00  0.00     0.039 A 
ATOM     38  C   UNL     1      12.345  -2.003  10.963  1.00  0.00     0.014 A 
ATOM     39  C   UNL     1      10.979  -3.491   9.631  1.00  0.00     0.014 A 
ATOM     40  C   UNL     1      11.359  -2.011  11.946  1.00  0.00     0.010 A 
ATOM     41  C   UNL     1       9.945  -3.378  10.529  1.00  0.00     0.010 A 
ATOM     42  C   UNL     1      10.143  -2.679  11.711  1.00  0.00    -0.014 A 
BRANCH  42  43
ATOM     43  C   UNL     1       9.023  -2.513  12.635  1.00  0.00     0.031 A 
ATOM     44  C   UNL     1       8.717  -1.090  12.933  1.00  0.00     0.074 A 
ATOM     45  C   UNL     1       8.202  -3.509  13.037  1.00  0.00     0.049 A 
ATOM     46  N   UNL     1       8.994  -0.444  14.016  1.00  0.00    -0.248 NA
ATOM     47  C   UNL     1       8.234  -0.232  11.838  1.00  0.00     0.031 C 
ATOM     48  C   UNL     1       8.194  -4.905  12.586  1.00  0.00     0.029 A 
ATOM     49  N   UNL     1       7.123  -3.462  13.870  1.00  0.00    -0.354 N 
ATOM     50  C   UNL     1       8.440   0.819  13.843  1.00  0.00     0.074 A 
ATOM     51  C   UNL     1       8.230   0.967  12.427  1.00  0.00     0.031 C 
ATOM     52  C   UNL     1       7.040  -5.498  12.963  1.00  0.00     0.029 A 
ATOM     53  C   UNL     1       6.304  -4.589  13.822  1.00  0.00     0.049 A 
ATOM     54  H   UNL     1       6.937  -2.694  14.457  1.00  0.00     0.167 HD
ATOM     55  C   UNL     1       7.897   1.481  14.902  1.00  0.00     0.037 A 
ATOM     56  C   UNL     1       5.103  -4.764  14.432  1.00  0.00     0.037 A 
ATOM     57  C   UNL     1       8.336   0.898  16.152  1.00  0.00     0.049 A 
ATOM     58  C   UNL     1       5.048  -3.799  15.557  1.00  0.00     0.074 A 
ATOM     59  C   UNL     1       9.561   0.615  16.727  1.00  0.00     0.029 A 
ATOM     60  N   UNL     1       7.417   0.150  16.847  1.00  0.00    -0.354 N 
ATOM     61  N   UNL     1       5.808  -3.872  16.614  1.00  0.00    -0.248 NA
ATOM     62  C   UNL     1       4.441  -2.500  15.317  1.00  0.00     0.031 C 
ATOM     63  C   UNL     1       9.375  -0.623  17.413  1.00  0.00     0.029 A 
ATOM     64  C   UNL     1       8.034  -0.989  17.291  1.00  0.00     0.049 A 
ATOM     65  H   UNL     1       6.475   0.391  17.000  1.00  0.00     0.167 HD
ATOM     66  C   UNL     1       6.146  -2.558  16.892  1.00  0.00     0.074 A 
ATOM     67  C   UNL     1       5.179  -1.757  16.146  1.00  0.00     0.031 C 
ATOM     68  C   UNL     1       7.351  -2.253  17.460  1.00  0.00     0.037 A 
BRANCH  55  69
ATOM     69  C   UNL     1       6.638   2.324  14.818  1.00  0.00     0.058 A 
ATOM     70  C   UNL     1       6.216   3.029  15.966  1.00  0.00     0.135 A 
ATOM     71  C   UNL     1       5.676   2.225  13.785  1.00  0.00     0.135 A 
ATOM     72  F   UNL     1       7.044   3.187  17.012  1.00  0.00    -0.206 F 
ATOM     73  C   UNL     1       4.914   3.506  16.117  1.00  0.00     0.059 A 
ATOM     74  C   UNL     1       4.392   2.743  13.893  1.00  0.00     0.059 A 
ATOM     75  F   UNL     1       5.889   1.542  12.657  1.00  0.00    -0.206 F 
ATOM     76  C   UNL     1       4.004   3.341  15.078  1.00  0.00     0.060 A 
BRANCH  76  77
ATOM     77  S   UNL     1       2.298   3.867  15.299  1.00  0.00     0.124 S 
ATOM     78  O   UNL     1       1.820   2.890  16.268  1.00  0.00    -0.237 OA
ATOM     79  O   UNL     1       2.466   5.231  15.789  1.00  0.00    -0.237 OA
ATOM     80  O   UNL     1       1.739   3.755  13.955  1.00  0.00    -0.744 OA
ENDBRANCH  76  77
ENDBRANCH  55  69
BRANCH  56  81
ATOM     81  C   UNL     1       3.901  -5.510  13.967  1.00  0.00     0.058 A 
ATOM     82  C   UNL     1       2.804  -5.727  14.824  1.00  0.00     0.135 A 
ATOM     83  C   UNL     1       3.673  -5.759  12.599  1.00  0.00     0.135 A 
ATOM     84  F   UNL     1       2.924  -5.509  16.142  1.00  0.00    -0.206 F 
ATOM     85  C   UNL     1       1.541  -6.093  14.347  1.00  0.00     0.059 A 
ATOM     86  C   UNL     1       2.425  -6.137  12.102  1.00  0.00     0.059 A 
ATOM     87  F   UNL     1       4.633  -5.546  11.687  1.00  0.00    -0.206 F 
ATOM     88  C   UNL     1       1.354  -6.270  12.977  1.00  0.00     0.060 A 
BRANCH  88  89
ATOM     89  S   UNL     1      -0.315  -6.541  12.334  1.00  0.00     0.124 S 
ATOM     90  O   UNL     1      -0.600  -7.896  12.791  1.00  0.00    -0.237 OA
ATOM     91  O   UNL     1      -1.073  -5.476  12.981  1.00  0.00    -0.237 OA
ATOM     92  O   UNL     1      -0.147  -6.391  10.890  1.00  0.00    -0.744 OA
ENDBRANCH  88  89
ENDBRANCH  56  81
BRANCH  68  93
ATOM     93  C   UNL     1       8.105  -3.359  18.156  1.00  0.00     0.058 A 
ATOM     94  C   UNL     1       8.573  -4.538  17.548  1.00  0.00     0.135 A 
ATOM     95  C   UNL     1       8.445  -3.159  19.504  1.00  0.00     0.135 A 
ATOM     96  F   UNL     1       8.393  -4.762  16.238  1.00  0.00    -0.206 F 
ATOM     97  C   UNL     1       9.284  -5.503  18.268  1.00  0.00     0.059 A 
ATOM     98  C   UNL     1       9.184  -4.088  20.229  1.00  0.00     0.059 A 
ATOM     99  F   UNL     1       8.083  -2.026  20.129  1.00  0.00    -0.206 F 
ATOM    100  C   UNL     1       9.579  -5.271  19.611  1.00  0.00     0.060 A 
BRANCH 100 101
ATOM    101  S   UNL     1      10.520  -6.502  20.537  1.00  0.00     0.124 S 
ATOM    102  O   UNL     1       9.556  -7.589  20.670  1.00  0.00    -0.237 OA
ATOM    103  O   UNL     1      11.654  -6.764  19.655  1.00  0.00    -0.237 OA
ATOM    104  O   UNL     1      10.857  -5.811  21.780  1.00  0.00    -0.744 OA
ENDBRANCH 100 101
ENDBRANCH  68  93
ENDBRANCH  42  43
ENDBRANCH  34  37
ENDBRANCH  32  33
ENDBRANCH  31  32
ENDBRANCH  30  31
ENDBRANCH   1  30
TORSDOF 19
