REMARK SMILES O=C(NCCCCCCNC(=O)c1ccccc1NC(=O)c1cc2cc(Cl)cc(Cl)c2oc1=O)c1ccc(-c2c3nc(c(-c4c(F)cc(S(=O)(=O)[O-])cc4F)c4ccc([nH]4)c(-c4c(F)cc(S(=O)(=O)[O-])cc4F)c4nc(c(-c5c(F)cc(S(=O)(=O)[O-])cc5F)c5ccc2[nH]5)C=C4)C=C3)cc1
REMARK SMILES IDX 6 1 5 2 4 3 3 4 1 5 2 6 35 8 36 9 100 10 37 11 99 12 38 13
REMARK SMILES IDX 39 14 40 15 93 16 41 17 98 18 92 19 94 20 42 21 97 22 91 23
REMARK SMILES IDX 90 24 43 26 77 27 56 28 76 29 57 30 60 31 75 32 95 33 58 34
REMARK SMILES IDX 59 35 74 37 96 38 61 39 44 40 45 41 54 42 46 43 47 44 53 45
REMARK SMILES IDX 55 46 48 47 49 48 50 49 51 50 52 51 78 52 79 53 88 54 80 55
REMARK SMILES IDX 81 56 87 57 89 58 82 59 83 60 84 61 85 62 86 63 62 64 63 65
REMARK SMILES IDX 72 66 64 67 65 68 71 69 73 70 66 71 67 72 68 73 69 74 70 75
REMARK SMILES IDX 7 76 8 77 9 78 10 79 11 80 12 82 13 83 14 84 18 85 15 86
REMARK SMILES IDX 17 87 16 88 19 89 20 90 21 92 22 93 23 94 33 95 24 96 32 97
REMARK SMILES IDX 34 98 25 99 31 100 26 101 29 102 27 103 28 104 30 105
REMARK H PARENT 3 7 94 25 60 36 10 81 19 91
REMARK Flexibility Score: inf
ROOT
ATOM      1  C   UNL     1       4.235   4.032   0.669  1.00  0.00     0.002 C 
ENDROOT
BRANCH   1   2
ATOM      2  C   UNL     1       4.762   2.942  -0.268  1.00  0.00     0.021 C 
BRANCH   2   3
ATOM      3  C   UNL     1       4.497   1.498   0.146  1.00  0.00     0.116 C 
BRANCH   3   4
ATOM      4  N   UNL     1       3.087   1.176   0.239  1.00  0.00    -0.352 N 
ATOM      5  O   UNL     1       1.210  -0.030  -0.007  1.00  0.00    -0.269 OA
ATOM      6  C   UNL     1       2.437   0.005  -0.068  1.00  0.00     0.251 C 
ATOM      7  H   UNL     1       2.511   1.902   0.571  1.00  0.00     0.163 HD
BRANCH   6   8
ATOM      8  C   UNL     1       3.186  -1.203  -0.499  1.00  0.00     0.039 A 
ATOM      9  C   UNL     1       4.368  -1.612   0.127  1.00  0.00     0.014 A 
ATOM     10  C   UNL     1       2.646  -1.986  -1.528  1.00  0.00     0.014 A 
ATOM     11  C   UNL     1       5.046  -2.747  -0.325  1.00  0.00     0.010 A 
ATOM     12  C   UNL     1       3.304  -3.144  -1.955  1.00  0.00     0.010 A 
ATOM     13  C   UNL     1       4.519  -3.524  -1.369  1.00  0.00    -0.014 A 
BRANCH  13  14
ATOM     14  C   UNL     1       5.215  -4.763  -1.794  1.00  0.00     0.031 A 
ATOM     15  C   UNL     1       5.967  -4.822  -3.093  1.00  0.00     0.074 A 
ATOM     16  C   UNL     1       5.169  -5.847  -0.996  1.00  0.00     0.049 A 
ATOM     17  N   UNL     1       6.657  -5.813  -3.598  1.00  0.00    -0.248 NA
ATOM     18  C   UNL     1       5.939  -3.618  -3.936  1.00  0.00     0.031 C 
ATOM     19  C   UNL     1       4.446  -5.929   0.275  1.00  0.00     0.029 A 
ATOM     20  N   UNL     1       5.745  -7.084  -1.133  1.00  0.00    -0.354 N 
ATOM     21  C   UNL     1       7.132  -5.363  -4.822  1.00  0.00     0.074 A 
ATOM     22  C   UNL     1       6.647  -4.008  -4.989  1.00  0.00     0.031 C 
ATOM     23  C   UNL     1       4.642  -7.144   0.812  1.00  0.00     0.029 A 
ATOM     24  C   UNL     1       5.487  -7.930  -0.083  1.00  0.00     0.049 A 
ATOM     25  H   UNL     1       6.292  -7.341  -1.911  1.00  0.00     0.167 HD
ATOM     26  C   UNL     1       7.907  -6.015  -5.722  1.00  0.00     0.037 A 
ATOM     27  C   UNL     1       5.886  -9.196   0.139  1.00  0.00     0.037 A 
ATOM     28  C   UNL     1       8.415  -7.351  -5.552  1.00  0.00     0.049 A 
ATOM     29  C   UNL     1       6.759  -9.889  -0.863  1.00  0.00     0.074 A 
ATOM     30  C   UNL     1       9.264  -8.063  -6.383  1.00  0.00     0.029 A 
ATOM     31  N   UNL     1       8.120  -8.180  -4.481  1.00  0.00    -0.354 N 
ATOM     32  N   UNL     1       7.238  -9.428  -1.992  1.00  0.00    -0.248 NA
ATOM     33  C   UNL     1       7.142 -11.276  -0.563  1.00  0.00     0.031 C 
ATOM     34  C   UNL     1       9.469  -9.331  -5.822  1.00  0.00     0.029 A 
ATOM     35  C   UNL     1       8.756  -9.401  -4.637  1.00  0.00     0.049 A 
ATOM     36  H   UNL     1       7.543  -7.937  -3.721  1.00  0.00     0.167 HD
ATOM     37  C   UNL     1       7.973 -10.469  -2.543  1.00  0.00     0.074 A 
ATOM     38  C   UNL     1       7.891 -11.580  -1.615  1.00  0.00     0.031 C 
ATOM     39  C   UNL     1       8.652 -10.502  -3.715  1.00  0.00     0.037 A 
BRANCH  26  40
ATOM     40  C   UNL     1       8.258  -5.285  -6.983  1.00  0.00     0.058 A 
ATOM     41  C   UNL     1       9.330  -4.381  -7.024  1.00  0.00     0.135 A 
ATOM     42  C   UNL     1       7.547  -5.523  -8.168  1.00  0.00     0.135 A 
ATOM     43  F   UNL     1      10.031  -4.113  -5.911  1.00  0.00    -0.206 F 
ATOM     44  C   UNL     1       9.681  -3.728  -8.201  1.00  0.00     0.059 A 
ATOM     45  C   UNL     1       7.886  -4.887  -9.358  1.00  0.00     0.059 A 
ATOM     46  F   UNL     1       6.510  -6.375  -8.175  1.00  0.00    -0.206 F 
ATOM     47  C   UNL     1       8.950  -3.984  -9.362  1.00  0.00     0.060 A 
BRANCH  47  48
ATOM     48  S   UNL     1       9.418  -3.151 -10.895  1.00  0.00     0.124 S 
ATOM     49  O   UNL     1       8.717  -1.877 -10.758  1.00  0.00    -0.237 OA
ATOM     50  O   UNL     1      10.872  -3.085 -10.795  1.00  0.00    -0.237 OA
ATOM     51  O   UNL     1       8.906  -4.044 -11.930  1.00  0.00    -0.744 OA
ENDBRANCH  47  48
ENDBRANCH  26  40
BRANCH  27  52
ATOM     52  C   UNL     1       5.464  -9.882   1.381  1.00  0.00     0.058 A 
ATOM     53  C   UNL     1       6.319  -9.946   2.489  1.00  0.00     0.135 A 
ATOM     54  C   UNL     1       4.183 -10.440   1.498  1.00  0.00     0.135 A 
ATOM     55  F   UNL     1       7.553  -9.425   2.415  1.00  0.00    -0.206 F 
ATOM     56  C   UNL     1       5.917 -10.537   3.681  1.00  0.00     0.059 A 
ATOM     57  C   UNL     1       3.755 -11.027   2.683  1.00  0.00     0.059 A 
ATOM     58  F   UNL     1       3.331 -10.389   0.463  1.00  0.00    -0.206 F 
ATOM     59  C   UNL     1       4.631 -11.073   3.769  1.00  0.00     0.060 A 
BRANCH  59  60
ATOM     60  S   UNL     1       4.060 -11.763   5.338  1.00  0.00     0.124 S 
ATOM     61  O   UNL     1       4.403 -13.171   5.179  1.00  0.00    -0.237 OA
ATOM     62  O   UNL     1       4.846 -11.023   6.321  1.00  0.00    -0.237 OA
ATOM     63  O   UNL     1       2.635 -11.448   5.327  1.00  0.00    -0.744 OA
ENDBRANCH  59  60
ENDBRANCH  27  52
BRANCH  39  64
ATOM     64  C   UNL     1       9.342 -11.785  -4.061  1.00  0.00     0.058 A 
ATOM     65  C   UNL     1       8.640 -12.838  -4.668  1.00  0.00     0.135 A 
ATOM     66  C   UNL     1      10.708 -11.964  -3.799  1.00  0.00     0.135 A 
ATOM     67  F   UNL     1       7.330 -12.713  -4.930  1.00  0.00    -0.206 F 
ATOM     68  C   UNL     1       9.268 -14.037  -4.989  1.00  0.00     0.059 A 
ATOM     69  C   UNL     1      11.358 -13.151  -4.119  1.00  0.00     0.059 A 
ATOM     70  F   UNL     1      11.419 -10.983  -3.221  1.00  0.00    -0.206 F 
ATOM     71  C   UNL     1      10.626 -14.187  -4.702  1.00  0.00     0.060 A 
BRANCH  71  72
ATOM     72  S   UNL     1      11.454 -15.736  -5.126  1.00  0.00     0.124 S 
ATOM     73  O   UNL     1      11.233 -16.524  -3.918  1.00  0.00    -0.237 OA
ATOM     74  O   UNL     1      10.729 -16.180  -6.312  1.00  0.00    -0.237 OA
ATOM     75  O   UNL     1      12.832 -15.318  -5.364  1.00  0.00    -0.744 OA
ENDBRANCH  71  72
ENDBRANCH  39  64
ENDBRANCH  13  14
ENDBRANCH   6   8
ENDBRANCH   3   4
ENDBRANCH   2   3
ENDBRANCH   1   2
BRANCH   1  76
ATOM     76  C   UNL     1       4.593   3.917   2.153  1.00  0.00     0.002 C 
BRANCH  76  77
ATOM     77  C   UNL     1       6.075   3.772   2.519  1.00  0.00     0.021 C 
BRANCH  77  78
ATOM     78  C   UNL     1       7.056   4.717   1.828  1.00  0.00     0.116 C 
BRANCH  78  79
ATOM     79  N   UNL     1       6.718   6.122   1.982  1.00  0.00    -0.352 N 
ATOM     80  C   UNL     1       7.549   7.212   2.058  1.00  0.00     0.253 C 
ATOM     81  H   UNL     1       5.755   6.320   2.040  1.00  0.00     0.163 HD
ATOM     82  O   UNL     1       7.081   8.328   2.259  1.00  0.00    -0.269 OA
BRANCH  80  83
ATOM     83  C   UNL     1       9.015   7.051   1.921  1.00  0.00     0.063 A 
ATOM     84  C   UNL     1       9.773   7.492   3.018  1.00  0.00     0.016 A 
ATOM     85  C   UNL     1       9.639   6.555   0.753  1.00  0.00     0.054 A 
ATOM     86  C   UNL     1      11.159   7.398   2.990  1.00  0.00     0.001 A 
ATOM     87  C   UNL     1      11.033   6.450   0.759  1.00  0.00     0.027 A 
ATOM     88  C   UNL     1      11.785   6.868   1.867  1.00  0.00     0.002 A 
BRANCH  85  89
ATOM     89  N   UNL     1       8.826   6.195  -0.344  1.00  0.00    -0.321 N 
ATOM     90  C   UNL     1       9.046   5.702  -1.595  1.00  0.00     0.263 C 
ATOM     91  H   UNL     1       7.869   6.333  -0.161  1.00  0.00     0.170 HD
ATOM     92  O   UNL     1       8.066   5.384  -2.269  1.00  0.00    -0.269 OA
BRANCH  90  93
ATOM     93  C   UNL     1      10.424   5.590  -2.140  1.00  0.00     0.126 A 
ATOM     94  C   UNL     1      10.783   4.402  -2.674  1.00  0.00     0.033 A 
ATOM     95  C   UNL     1      10.794   6.722  -3.029  1.00  0.00     0.349 A 
ATOM     96  C   UNL     1      10.182   4.173  -4.005  1.00  0.00     0.021 A 
ATOM     97  O   UNL     1      10.446   6.556  -4.372  1.00  0.00    -0.421 OA
ATOM     98  O   UNL     1      11.337   7.731  -2.597  1.00  0.00    -0.245 OA
ATOM     99  C   UNL     1       9.782   2.914  -4.441  1.00  0.00     0.032 A 
ATOM    100  C   UNL     1       9.994   5.293  -4.827  1.00  0.00     0.157 A 
ATOM    101  C   UNL     1       9.167   2.795  -5.690  1.00  0.00     0.043 A 
ATOM    102  C   UNL     1       9.384   5.171  -6.074  1.00  0.00     0.085 A 
ATOM    103  Cl  UNL     1       8.631   1.249  -6.219  1.00  0.00    -0.084 Cl
ATOM    104  C   UNL     1       8.963   3.913  -6.505  1.00  0.00     0.045 A 
ATOM    105  Cl  UNL     1       9.119   6.543  -7.081  1.00  0.00    -0.080 Cl
ENDBRANCH  90  93
ENDBRANCH  85  89
ENDBRANCH  80  83
ENDBRANCH  78  79
ENDBRANCH  77  78
ENDBRANCH  76  77
ENDBRANCH   1  76
TORSDOF 18
