REMARK SMILES CCN(Cc1cccc(C)n1)C(=O)[C@@H]([NH3+])CC(=O)NCCCCCCNC(=O)c1ccc(-c2c3nc(c(-c4c(F)cc(S(=O)(=O)[O-])cc4F)c4ccc([nH]4)c(-c4c(F)cc(S(=O)(=O)[O-])cc4F)c4nc(c(-c5c(F)cc(S(=O)(=O)[O-])cc5F)c5ccc2[nH]5)C=C4)C=C3)cc1
REMARK SMILES IDX 21 1 20 2 19 3 17 4 18 5 16 7 14 8 12 9 13 10 3 11 2 12 1 13
REMARK SMILES IDX 4 14 5 15 6 16 11 17 7 18 9 19 8 20 10 21 15 22 22 26 23 27
REMARK SMILES IDX 24 28 25 29 26 30 27 31 28 33 29 34 30 35 94 36 31 37 93 38
REMARK SMILES IDX 32 39 33 40 34 41 87 42 35 43 92 44 86 45 88 46 36 47 91 48
REMARK SMILES IDX 85 49 84 50 37 52 71 53 50 54 70 55 51 56 54 57 69 58 89 59
REMARK SMILES IDX 52 60 53 61 68 63 90 64 55 65 38 66 39 67 48 68 40 69 41 70
REMARK SMILES IDX 47 71 49 72 42 73 43 74 44 75 45 76 46 77 72 78 73 79 82 80
REMARK SMILES IDX 74 81 75 82 81 83 83 84 76 85 77 86 78 87 79 88 80 89 56 90
REMARK SMILES IDX 57 91 66 92 58 93 59 94 65 95 67 96 60 97 61 98 62 99 63 100
REMARK SMILES IDX 64 101
REMARK H PARENT 19 6 15 23 15 24 15 25 26 32 88 51 54 62
REMARK Flexibility Score: inf
ROOT
ATOM      1  C   UNL     1       2.956  -2.416   2.326  1.00  0.00     0.021 C 
ENDROOT
BRANCH   1   2
ATOM      2  C   UNL     1       2.306  -2.115   3.678  1.00  0.00     0.116 C 
BRANCH   2   3
ATOM      3  N   UNL     1       3.271  -1.629   4.644  1.00  0.00    -0.356 N 
ATOM      4  C   UNL     1       3.338  -0.426   5.278  1.00  0.00     0.226 C 
ATOM      5  O   UNL     1       4.270  -0.227   6.060  1.00  0.00    -0.275 OA
ATOM      6  H   UNL     1       3.986  -2.265   4.877  1.00  0.00     0.163 HD
BRANCH   4   7
ATOM      7  C   UNL     1       2.289   0.642   5.032  1.00  0.00     0.175 C 
BRANCH   7   8
ATOM      8  C   UNL     1       2.632   1.485   3.804  1.00  0.00     0.280 C 
BRANCH   8   9
ATOM      9  C   UNL     1       2.048   0.935   2.475  1.00  0.00     0.281 C 
ATOM     10  O   UNL     1       2.864   0.548   1.628  1.00  0.00    -0.268 OA
BRANCH   9  11
ATOM     11  N   UNL     1       0.678   0.860   2.230  1.00  0.00    -0.332 N 
BRANCH  11  12
ATOM     12  C   UNL     1       0.218   0.286   0.954  1.00  0.00     0.116 C 
ATOM     13  C   UNL     1       0.749   0.933  -0.316  1.00  0.00     0.027 C 
ENDBRANCH  11  12
BRANCH  11  14
ATOM     14  C   UNL     1      -0.383   1.289   3.167  1.00  0.00     0.175 C 
BRANCH  14  15
ATOM     15  C   UNL     1      -1.165   0.201   3.904  1.00  0.00     0.060 A 
ATOM     16  C   UNL     1      -1.177  -1.140   3.528  1.00  0.00     0.026 A 
ATOM     17  N   UNL     1      -1.902   0.631   4.963  1.00  0.00    -0.256 NA
ATOM     18  C   UNL     1      -1.930  -2.058   4.257  1.00  0.00     0.004 A 
ATOM     19  C   UNL     1      -2.660  -0.265   5.646  1.00  0.00     0.038 A 
ATOM     20  C   UNL     1      -2.688  -1.616   5.330  1.00  0.00     0.023 A 
ATOM     21  C   UNL     1      -3.508   0.275   6.757  1.00  0.00     0.067 C 
ENDBRANCH  14  15
ENDBRANCH  11  14
ENDBRANCH   9  11
ENDBRANCH   8   9
BRANCH   8  22
ATOM     22  N   UNL     1       2.254   2.911   3.957  1.00  0.00    -0.347 N 
ATOM     23  H   UNL     1       1.239   2.989   4.017  1.00  0.00     0.345 HD
ATOM     24  H   UNL     1       2.588   3.440   3.151  1.00  0.00     0.345 HD
ATOM     25  H   UNL     1       2.675   3.286   4.807  1.00  0.00     0.345 HD
ENDBRANCH   8  22
ENDBRANCH   7   8
ENDBRANCH   4   7
ENDBRANCH   2   3
ENDBRANCH   1   2
BRANCH   1  26
ATOM     26  C   UNL     1       3.072  -3.907   2.015  1.00  0.00     0.002 C 
BRANCH  26  27
ATOM     27  C   UNL     1       1.734  -4.633   1.826  1.00  0.00     0.002 C 
BRANCH  27  28
ATOM     28  C   UNL     1       0.819  -4.087   0.723  1.00  0.00     0.021 C 
BRANCH  28  29
ATOM     29  C   UNL     1       1.448  -3.992  -0.667  1.00  0.00     0.116 C 
BRANCH  29  30
ATOM     30  N   UNL     1       1.910  -5.285  -1.143  1.00  0.00    -0.352 N 
ATOM     31  C   UNL     1       1.488  -6.041  -2.209  1.00  0.00     0.251 C 
ATOM     32  H   UNL     1       2.643  -5.683  -0.618  1.00  0.00     0.163 HD
ATOM     33  O   UNL     1       1.850  -7.209  -2.305  1.00  0.00    -0.269 OA
BRANCH  31  34
ATOM     34  C   UNL     1       0.591  -5.460  -3.233  1.00  0.00     0.039 A 
ATOM     35  C   UNL     1      -0.486  -6.222  -3.697  1.00  0.00     0.014 A 
ATOM     36  C   UNL     1       0.826  -4.188  -3.762  1.00  0.00     0.014 A 
ATOM     37  C   UNL     1      -1.367  -5.681  -4.638  1.00  0.00     0.010 A 
ATOM     38  C   UNL     1      -0.086  -3.627  -4.655  1.00  0.00     0.010 A 
ATOM     39  C   UNL     1      -1.195  -4.365  -5.097  1.00  0.00    -0.014 A 
BRANCH  39  40
ATOM     40  C   UNL     1      -2.181  -3.732  -6.012  1.00  0.00     0.031 A 
ATOM     41  C   UNL     1      -1.780  -3.323  -7.402  1.00  0.00     0.074 A 
ATOM     42  C   UNL     1      -3.420  -3.455  -5.558  1.00  0.00     0.049 A 
ATOM     43  N   UNL     1      -2.474  -2.679  -8.305  1.00  0.00    -0.248 NA
ATOM     44  C   UNL     1      -0.413  -3.665  -7.827  1.00  0.00     0.031 C 
ATOM     45  C   UNL     1      -3.916  -3.765  -4.214  1.00  0.00     0.029 A 
ATOM     46  N   UNL     1      -4.483  -2.836  -6.167  1.00  0.00    -0.354 N 
ATOM     47  C   UNL     1      -1.628  -2.525  -9.397  1.00  0.00     0.074 A 
ATOM     48  C   UNL     1      -0.355  -3.107  -9.028  1.00  0.00     0.031 C 
ATOM     49  C   UNL     1      -5.187  -3.346  -4.106  1.00  0.00     0.029 A 
ATOM     50  C   UNL     1      -5.584  -2.702  -5.354  1.00  0.00     0.049 A 
ATOM     51  H   UNL     1      -4.459  -2.518  -7.098  1.00  0.00     0.167 HD
ATOM     52  C   UNL     1      -1.894  -1.966 -10.602  1.00  0.00     0.037 A 
ATOM     53  C   UNL     1      -6.774  -2.111  -5.580  1.00  0.00     0.037 A 
ATOM     54  C   UNL     1      -3.170  -1.407 -10.970  1.00  0.00     0.049 A 
ATOM     55  C   UNL     1      -7.040  -1.482  -6.920  1.00  0.00     0.074 A 
ATOM     56  C   UNL     1      -3.558  -0.878 -12.189  1.00  0.00     0.029 A 
ATOM     57  N   UNL     1      -4.262  -1.298 -10.123  1.00  0.00    -0.354 N 
ATOM     58  N   UNL     1      -6.249  -1.405  -7.964  1.00  0.00    -0.248 NA
ATOM     59  C   UNL     1      -8.356  -0.858  -7.113  1.00  0.00     0.031 C 
ATOM     60  C   UNL     1      -4.869  -0.407 -12.065  1.00  0.00     0.029 A 
ATOM     61  C   UNL     1      -5.315  -0.684 -10.783  1.00  0.00     0.049 A 
ATOM     62  H   UNL     1      -4.287  -1.610  -9.189  1.00  0.00     0.167 HD
ATOM     63  C   UNL     1      -6.978  -0.741  -8.944  1.00  0.00     0.074 A 
ATOM     64  C   UNL     1      -8.278  -0.451  -8.373  1.00  0.00     0.031 C 
ATOM     65  C   UNL     1      -6.604  -0.400 -10.201  1.00  0.00     0.037 A 
BRANCH  52  66
ATOM     66  C   UNL     1      -0.784  -1.932 -11.617  1.00  0.00     0.058 A 
ATOM     67  C   UNL     1      -0.335  -3.098 -12.257  1.00  0.00     0.135 A 
ATOM     68  C   UNL     1      -0.191  -0.714 -11.988  1.00  0.00     0.135 A 
ATOM     69  F   UNL     1      -0.858  -4.291 -11.933  1.00  0.00    -0.206 F 
ATOM     70  C   UNL     1       0.682  -3.063 -13.206  1.00  0.00     0.059 A 
ATOM     71  C   UNL     1       0.810  -0.651 -12.954  1.00  0.00     0.059 A 
ATOM     72  F   UNL     1      -0.583   0.432 -11.409  1.00  0.00    -0.206 F 
ATOM     73  C   UNL     1       1.250  -1.834 -13.546  1.00  0.00     0.060 A 
BRANCH  73  74
ATOM     74  S   UNL     1       2.565  -1.805 -14.782  1.00  0.00     0.124 S 
ATOM     75  O   UNL     1       3.683  -2.365 -14.029  1.00  0.00    -0.237 OA
ATOM     76  O   UNL     1       2.023  -2.656 -15.837  1.00  0.00    -0.237 OA
ATOM     77  O   UNL     1       2.684  -0.390 -15.121  1.00  0.00    -0.744 OA
ENDBRANCH  73  74
ENDBRANCH  52  66
BRANCH  53  78
ATOM     78  C   UNL     1      -7.807  -2.095  -4.510  1.00  0.00     0.058 A 
ATOM     79  C   UNL     1      -8.966  -2.876  -4.616  1.00  0.00     0.135 A 
ATOM     80  C   UNL     1      -7.646  -1.315  -3.354  1.00  0.00     0.135 A 
ATOM     81  F   UNL     1      -9.168  -3.632  -5.705  1.00  0.00    -0.206 F 
ATOM     82  C   UNL     1      -9.937  -2.878  -3.619  1.00  0.00     0.059 A 
ATOM     83  C   UNL     1      -8.591  -1.318  -2.333  1.00  0.00     0.059 A 
ATOM     84  F   UNL     1      -6.546  -0.562  -3.197  1.00  0.00    -0.206 F 
ATOM     85  C   UNL     1      -9.738  -2.098  -2.479  1.00  0.00     0.060 A 
BRANCH  85  86
ATOM     86  S   UNL     1     -10.975  -2.152  -1.164  1.00  0.00     0.124 S 
ATOM     87  O   UNL     1     -12.059  -1.370  -1.748  1.00  0.00    -0.237 OA
ATOM     88  O   UNL     1     -11.220  -3.585  -1.032  1.00  0.00    -0.237 OA
ATOM     89  O   UNL     1     -10.288  -1.536  -0.033  1.00  0.00    -0.744 OA
ENDBRANCH  85  86
ENDBRANCH  53  78
BRANCH  65  90
ATOM     90  C   UNL     1      -7.615   0.311 -11.057  1.00  0.00     0.058 A 
ATOM     91  C   UNL     1      -7.941   1.659 -10.840  1.00  0.00     0.135 A 
ATOM     92  C   UNL     1      -8.217  -0.344 -12.143  1.00  0.00     0.135 A 
ATOM     93  F   UNL     1      -7.400   2.327  -9.809  1.00  0.00    -0.206 F 
ATOM     94  C   UNL     1      -8.840   2.329 -11.662  1.00  0.00     0.059 A 
ATOM     95  C   UNL     1      -9.100   0.315 -12.993  1.00  0.00     0.059 A 
ATOM     96  F   UNL     1      -7.934  -1.631 -12.399  1.00  0.00    -0.206 F 
ATOM     97  C   UNL     1      -9.412   1.650 -12.739  1.00  0.00     0.060 A 
BRANCH  97  98
ATOM     98  S   UNL     1     -10.540   2.547 -13.827  1.00  0.00     0.124 S 
ATOM     99  O   UNL     1     -11.735   2.645 -12.995  1.00  0.00    -0.237 OA
ATOM    100  O   UNL     1      -9.824   3.797 -14.058  1.00  0.00    -0.237 OA
ATOM    101  O   UNL     1     -10.656   1.673 -14.991  1.00  0.00    -0.744 OA
ENDBRANCH  97  98
ENDBRANCH  65  90
ENDBRANCH  39  40
ENDBRANCH  31  34
ENDBRANCH  29  30
ENDBRANCH  28  29
ENDBRANCH  27  28
ENDBRANCH  26  27
ENDBRANCH   1  26
TORSDOF 23
