REMARK SMILES C[C@@]1(C(=O)NCCCCCCNC(=O)c2ccc(-c3c4nc(c(-c5c(F)cc(S(=O)(=O)[O-])cc5F)c5ccc([nH]5)c(-c5c(F)cc(S(=O)(=O)[O-])cc5F)c5nc(c(-c6c(F)cc(S(=O)(=O)[O-])cc6F)c6ccc3[nH]6)C=C5)C=C4)cc2)COC[C@H]1NC(=O)C[C@@H]1C[NH2+]CCO1
REMARK SMILES IDX 8 1 7 2 6 3 5 4 3 5 4 6 2 8 1 9 81 10 84 11 82 12 83 13
REMARK SMILES IDX 85 14 86 15 87 17 88 18 89 19 90 20 94 21 91 22 93 23 92 24
REMARK SMILES IDX 9 27 10 28 11 29 12 30 13 31 14 33 15 34 16 35 80 36 17 37
REMARK SMILES IDX 79 38 18 39 19 40 20 41 73 42 21 43 78 44 72 45 74 46 22 47
REMARK SMILES IDX 77 48 71 49 70 50 23 52 57 53 36 54 56 55 37 56 40 57 55 58
REMARK SMILES IDX 75 59 38 60 39 61 54 63 76 64 41 65 24 66 25 67 34 68 26 69
REMARK SMILES IDX 27 70 33 71 35 72 28 73 29 74 30 75 31 76 32 77 58 78 59 79
REMARK SMILES IDX 68 80 60 81 61 82 67 83 69 84 62 85 63 86 64 87 65 88 66 89
REMARK SMILES IDX 42 90 43 91 52 92 44 93 45 94 51 95 53 96 46 97 47 98 48 99
REMARK SMILES IDX 49 100 50 101
REMARK H PARENT 5 7 85 16 91 25 91 26 12 32 74 51 40 62
REMARK Flexibility Score: inf
ROOT
ATOM      1  C   UNL     1       0.511   3.481  -5.500  1.00  0.00     0.002 C 
ENDROOT
BRANCH   1   2
ATOM      2  C   UNL     1       0.555   3.761  -3.995  1.00  0.00     0.021 C 
BRANCH   2   3
ATOM      3  C   UNL     1      -0.483   3.010  -3.163  1.00  0.00     0.116 C 
BRANCH   3   4
ATOM      4  N   UNL     1      -0.175   1.602  -3.022  1.00  0.00    -0.355 N 
ATOM      5  C   UNL     1      -0.039   0.793  -1.939  1.00  0.00     0.230 C 
ATOM      6  O   UNL     1      -0.019  -0.417  -2.193  1.00  0.00    -0.274 OA
ATOM      7  H   UNL     1      -0.038   1.139  -3.880  1.00  0.00     0.163 HD
BRANCH   5   8
ATOM      8  C   UNL     1       0.066   1.292  -0.479  1.00  0.00     0.092 C 
ATOM      9  C   UNL     1       0.354   0.058   0.412  1.00  0.00     0.026 C 
ATOM     10  C   UNL     1      -1.276   1.885  -0.053  1.00  0.00     0.179 C 
ATOM     11  C   UNL     1       1.089   2.434  -0.280  1.00  0.00     0.125 C 
ATOM     12  O   UNL     1      -1.131   3.303   0.035  1.00  0.00    -0.378 OA
ATOM     13  C   UNL     1       0.249   3.608   0.237  1.00  0.00     0.186 C 
BRANCH  11  14
ATOM     14  N   UNL     1       2.170   2.142   0.672  1.00  0.00    -0.350 N 
ATOM     15  C   UNL     1       3.526   2.174   0.569  1.00  0.00     0.223 C 
ATOM     16  H   UNL     1       1.849   1.868   1.561  1.00  0.00     0.163 HD
ATOM     17  O   UNL     1       4.167   1.953   1.599  1.00  0.00    -0.275 OA
BRANCH  15  18
ATOM     18  C   UNL     1       4.223   2.511  -0.734  1.00  0.00     0.138 C 
BRANCH  18  19
ATOM     19  C   UNL     1       4.532   1.305  -1.630  1.00  0.00     0.182 C 
ATOM     20  C   UNL     1       3.264   0.738  -2.293  1.00  0.00     0.293 C 
ATOM     21  O   UNL     1       5.226   0.298  -0.877  1.00  0.00    -0.366 OA
ATOM     22  N   UNL     1       3.503  -0.468  -3.098  1.00  0.00    -0.342 N 
ATOM     23  C   UNL     1       5.466  -0.884  -1.653  1.00  0.00     0.222 C 
ATOM     24  C   UNL     1       4.162  -1.454  -2.225  1.00  0.00     0.289 C 
ATOM     25  H   UNL     1       4.106  -0.245  -3.890  1.00  0.00     0.346 HD
ATOM     26  H   UNL     1       2.626  -0.838  -3.463  1.00  0.00     0.346 HD
ENDBRANCH  18  19
ENDBRANCH  15  18
ENDBRANCH  11  14
ENDBRANCH   5   8
ENDBRANCH   3   4
ENDBRANCH   2   3
ENDBRANCH   1   2
BRANCH   1  27
ATOM     27  C   UNL     1      -0.848   3.692  -6.177  1.00  0.00     0.002 C 
BRANCH  27  28
ATOM     28  C   UNL     1      -1.534   5.034  -5.898  1.00  0.00     0.021 C 
BRANCH  28  29
ATOM     29  C   UNL     1      -0.739   6.274  -6.296  1.00  0.00     0.116 C 
BRANCH  29  30
ATOM     30  N   UNL     1      -0.482   6.327  -7.724  1.00  0.00    -0.352 N 
ATOM     31  C   UNL     1      -0.735   7.328  -8.629  1.00  0.00     0.251 C 
ATOM     32  H   UNL     1      -0.060   5.522  -8.101  1.00  0.00     0.163 HD
ATOM     33  O   UNL     1      -0.610   7.096  -9.828  1.00  0.00    -0.269 OA
BRANCH  31  34
ATOM     34  C   UNL     1      -1.173   8.670  -8.178  1.00  0.00     0.039 A 
ATOM     35  C   UNL     1      -2.168   9.326  -8.909  1.00  0.00     0.014 A 
ATOM     36  C   UNL     1      -0.586   9.304  -7.078  1.00  0.00     0.014 A 
ATOM     37  C   UNL     1      -2.606  10.591  -8.510  1.00  0.00     0.010 A 
ATOM     38  C   UNL     1      -1.070  10.539  -6.643  1.00  0.00     0.010 A 
ATOM     39  C   UNL     1      -2.082  11.198  -7.356  1.00  0.00    -0.014 A 
BRANCH  39  40
ATOM     40  C   UNL     1      -2.603  12.510  -6.889  1.00  0.00     0.031 A 
ATOM     41  C   UNL     1      -1.722  13.731  -6.883  1.00  0.00     0.074 A 
ATOM     42  C   UNL     1      -3.870  12.592  -6.438  1.00  0.00     0.049 A 
ATOM     43  N   UNL     1      -2.013  14.955  -6.522  1.00  0.00    -0.248 NA
ATOM     44  C   UNL     1      -0.328  13.551  -7.317  1.00  0.00     0.031 C 
ATOM     45  C   UNL     1      -4.804  11.468  -6.337  1.00  0.00     0.029 A 
ATOM     46  N   UNL     1      -4.594  13.665  -5.980  1.00  0.00    -0.354 N 
ATOM     47  C   UNL     1      -0.842  15.688  -6.678  1.00  0.00     0.074 A 
ATOM     48  C   UNL     1       0.177  14.760  -7.117  1.00  0.00     0.031 C 
ATOM     49  C   UNL     1      -5.983  11.915  -5.877  1.00  0.00     0.029 A 
ATOM     50  C   UNL     1      -5.884  13.349  -5.623  1.00  0.00     0.049 A 
ATOM     51  H   UNL     1      -4.224  14.575  -5.914  1.00  0.00     0.167 HD
ATOM     52  C   UNL     1      -0.642  17.016  -6.495  1.00  0.00     0.037 A 
ATOM     53  C   UNL     1      -6.877  14.125  -5.149  1.00  0.00     0.037 A 
ATOM     54  C   UNL     1      -1.667  17.939  -6.079  1.00  0.00     0.049 A 
ATOM     55  C   UNL     1      -6.635  15.599  -4.972  1.00  0.00     0.074 A 
ATOM     56  C   UNL     1      -1.579  19.313  -5.928  1.00  0.00     0.029 A 
ATOM     57  N   UNL     1      -2.965  17.584  -5.742  1.00  0.00    -0.354 N 
ATOM     58  N   UNL     1      -5.542  16.287  -5.200  1.00  0.00    -0.248 NA
ATOM     59  C   UNL     1      -7.764  16.403  -4.485  1.00  0.00     0.031 C 
ATOM     60  C   UNL     1      -2.812  19.782  -5.460  1.00  0.00     0.029 A 
ATOM     61  C   UNL     1      -3.682  18.708  -5.363  1.00  0.00     0.049 A 
ATOM     62  H   UNL     1      -3.324  16.668  -5.768  1.00  0.00     0.167 HD
ATOM     63  C   UNL     1      -5.856  17.608  -4.901  1.00  0.00     0.074 A 
ATOM     64  C   UNL     1      -7.248  17.624  -4.497  1.00  0.00     0.031 C 
ATOM     65  C   UNL     1      -5.065  18.708  -4.956  1.00  0.00     0.037 A 
BRANCH  52  66
ATOM     66  C   UNL     1       0.740  17.556  -6.752  1.00  0.00     0.058 A 
ATOM     67  C   UNL     1       1.265  17.646  -8.051  1.00  0.00     0.135 A 
ATOM     68  C   UNL     1       1.534  18.026  -5.693  1.00  0.00     0.135 A 
ATOM     69  F   UNL     1       0.556  17.200  -9.100  1.00  0.00    -0.206 F 
ATOM     70  C   UNL     1       2.538  18.156  -8.289  1.00  0.00     0.059 A 
ATOM     71  C   UNL     1       2.799  18.565  -5.910  1.00  0.00     0.059 A 
ATOM     72  F   UNL     1       1.082  17.965  -4.431  1.00  0.00    -0.206 F 
ATOM     73  C   UNL     1       3.298  18.611  -7.211  1.00  0.00     0.060 A 
BRANCH  73  74
ATOM     74  S   UNL     1       4.947  19.273  -7.537  1.00  0.00     0.124 S 
ATOM     75  O   UNL     1       5.695  18.054  -7.831  1.00  0.00    -0.237 OA
ATOM     76  O   UNL     1       4.710  20.159  -8.671  1.00  0.00    -0.237 OA
ATOM     77  O   UNL     1       5.299  19.939  -6.287  1.00  0.00    -0.744 OA
ENDBRANCH  73  74
ENDBRANCH  52  66
BRANCH  53  78
ATOM     78  C   UNL     1      -8.201  13.525  -4.837  1.00  0.00     0.058 A 
ATOM     79  C   UNL     1      -9.320  13.785  -5.641  1.00  0.00     0.135 A 
ATOM     80  C   UNL     1      -8.369  12.664  -3.741  1.00  0.00     0.135 A 
ATOM     81  F   UNL     1      -9.210  14.606  -6.697  1.00  0.00    -0.206 F 
ATOM     82  C   UNL     1     -10.563  13.226  -5.364  1.00  0.00     0.059 A 
ATOM     83  C   UNL     1      -9.596  12.073  -3.458  1.00  0.00     0.059 A 
ATOM     84  F   UNL     1      -7.325  12.369  -2.951  1.00  0.00    -0.206 F 
ATOM     85  C   UNL     1     -10.690  12.368  -4.271  1.00  0.00     0.060 A 
BRANCH  85  86
ATOM     86  S   UNL     1     -12.295  11.603  -3.950  1.00  0.00     0.124 S 
ATOM     87  O   UNL     1     -13.047  12.721  -3.396  1.00  0.00    -0.237 OA
ATOM     88  O   UNL     1     -12.695  11.160  -5.282  1.00  0.00    -0.237 OA
ATOM     89  O   UNL     1     -11.972  10.530  -3.014  1.00  0.00    -0.744 OA
ENDBRANCH  85  86
ENDBRANCH  53  78
BRANCH  65  90
ATOM     90  C   UNL     1      -5.691  20.024  -4.583  1.00  0.00     0.058 A 
ATOM     91  C   UNL     1      -6.010  20.336  -3.253  1.00  0.00     0.135 A 
ATOM     92  C   UNL     1      -5.951  20.994  -5.565  1.00  0.00     0.135 A 
ATOM     93  F   UNL     1      -5.787  19.442  -2.277  1.00  0.00    -0.206 F 
ATOM     94  C   UNL     1      -6.595  21.551  -2.912  1.00  0.00     0.059 A 
ATOM     95  C   UNL     1      -6.511  22.226  -5.243  1.00  0.00     0.059 A 
ATOM     96  F   UNL     1      -5.655  20.750  -6.852  1.00  0.00    -0.206 F 
ATOM     97  C   UNL     1      -6.844  22.489  -3.915  1.00  0.00     0.060 A 
BRANCH  97  98
ATOM     98  S   UNL     1      -7.591  24.068  -3.460  1.00  0.00     0.124 S 
ATOM     99  O   UNL     1      -8.981  23.681  -3.237  1.00  0.00    -0.237 OA
ATOM    100  O   UNL     1      -6.838  24.440  -2.266  1.00  0.00    -0.237 OA
ATOM    101  O   UNL     1      -7.353  24.907  -4.630  1.00  0.00    -0.744 OA
ENDBRANCH  97  98
ENDBRANCH  65  90
ENDBRANCH  39  40
ENDBRANCH  31  34
ENDBRANCH  29  30
ENDBRANCH  28  29
ENDBRANCH  27  28
ENDBRANCH   1  27
TORSDOF 19
