REMARK SMILES Cc1cccc(OC2(C(=O)NCCCCCCNC(=O)c3ccc(-c4c5nc(c(-c6c(F)cc(S(=O)(=O)[O-])cc6F)c6ccc([nH]6)c(-c6c(F)cc(S(=O)(=O)[O-])cc6F)c6nc(c(-c7c(F)cc(S(=O)(=O)[O-])cc7F)c7ccc4[nH]7)C=C6)C=C5)cc3)CCN(C(=O)c3cnc[nH]c3=O)CC2)c1
REMARK SMILES IDX 15 1 14 2 13 3 12 4 11 5 9 6 10 7 8 9 87 10 100 11 88 12
REMARK SMILES IDX 99 13 89 14 90 15 91 16 7 17 6 18 1 19 2 20 3 21 101 22 4 23
REMARK SMILES IDX 5 24 92 25 93 26 97 27 94 28 96 29 98 30 95 31 16 33 17 34
REMARK SMILES IDX 18 35 19 36 20 38 21 39 22 40 86 41 23 42 85 43 24 44 25 45
REMARK SMILES IDX 26 46 79 47 27 48 84 49 78 50 80 51 28 52 83 53 77 54 76 55
REMARK SMILES IDX 29 57 63 58 42 59 62 60 43 61 46 62 61 63 81 64 44 65 45 66
REMARK SMILES IDX 60 68 82 69 47 70 30 71 31 72 40 73 32 74 33 75 39 76 41 77
REMARK SMILES IDX 34 78 35 79 36 80 37 81 38 82 64 83 65 84 74 85 66 86 67 87
REMARK SMILES IDX 73 88 75 89 68 90 69 91 70 92 71 93 72 94 48 95 49 96 58 97
REMARK SMILES IDX 50 98 51 99 57 100 59 101 52 102 53 103 54 104 55 105 56 106
REMARK H PARENT 11 8 96 32 18 37 80 56 46 67
REMARK Flexibility Score: inf
ROOT
ATOM      1  C   UNL     1       0.642   8.135  -4.174  1.00  0.00     0.002 C 
ENDROOT
BRANCH   1   2
ATOM      2  C   UNL     1       1.239   6.797  -3.715  1.00  0.00     0.002 C 
BRANCH   2   3
ATOM      3  C   UNL     1       1.077   6.403  -2.244  1.00  0.00     0.021 C 
BRANCH   3   4
ATOM      4  C   UNL     1      -0.343   6.420  -1.659  1.00  0.00     0.116 C 
BRANCH   4   5
ATOM      5  N   UNL     1      -1.131   5.236  -1.970  1.00  0.00    -0.353 N 
ATOM      6  C   UNL     1      -1.401   4.075  -1.302  1.00  0.00     0.264 C 
ATOM      7  O   UNL     1      -2.300   3.391  -1.812  1.00  0.00    -0.270 OA
ATOM      8  H   UNL     1      -1.563   5.282  -2.854  1.00  0.00     0.163 HD
BRANCH   6   9
ATOM      9  C   UNL     1      -0.709   3.626   0.033  1.00  0.00     0.190 C 
ATOM     10  C   UNL     1       0.795   3.931   0.048  1.00  0.00     0.080 C 
ATOM     11  C   UNL     1      -1.399   4.354   1.221  1.00  0.00     0.080 C 
ATOM     12  C   UNL     1       1.460   3.739   1.399  1.00  0.00     0.124 C 
ATOM     13  C   UNL     1      -0.679   4.040   2.542  1.00  0.00     0.124 C 
ATOM     14  N   UNL     1       0.710   4.452   2.412  1.00  0.00    -0.338 N 
ATOM     15  C   UNL     1       1.167   5.676   2.862  1.00  0.00     0.261 C 
ATOM     16  O   UNL     1       1.850   6.434   2.178  1.00  0.00    -0.269 OA
BRANCH   9  17
ATOM     17  O   UNL     1      -1.127   2.258   0.253  1.00  0.00    -0.477 OA
BRANCH  17  18
ATOM     18  C   UNL     1      -0.524   1.069   0.035  1.00  0.00     0.121 A 
ATOM     19  C   UNL     1       2.786  -0.798  -0.096  1.00  0.00     0.044 C 
ATOM     20  C   UNL     1       1.308  -0.531  -0.090  1.00  0.00    -0.047 A 
ATOM     21  C   UNL     1       0.402  -1.592  -0.045  1.00  0.00     0.003 A 
ATOM     22  C   UNL     1       0.830   0.792  -0.088  1.00  0.00     0.049 A 
ATOM     23  C   UNL     1      -0.962  -1.333   0.017  1.00  0.00     0.004 A 
ATOM     24  C   UNL     1      -1.414  -0.012   0.069  1.00  0.00     0.046 A 
ENDBRANCH  17  18
ENDBRANCH   9  17
BRANCH  15  25
ATOM     25  C   UNL     1       0.801   6.022   4.248  1.00  0.00     0.123 A 
ATOM     26  C   UNL     1       0.237   7.206   4.522  1.00  0.00     0.132 A 
ATOM     27  C   UNL     1       1.087   5.128   5.387  1.00  0.00     0.263 A 
ATOM     28  N   UNL     1      -0.130   7.636   5.776  1.00  0.00    -0.246 NA
ATOM     29  N   UNL     1       0.763   5.637   6.613  1.00  0.00    -0.312 N 
ATOM     30  O   UNL     1       1.567   4.007   5.274  1.00  0.00    -0.269 OA
ATOM     31  C   UNL     1       0.164   6.852   6.758  1.00  0.00     0.199 A 
ATOM     32  H   UNL     1       0.969   5.109   7.418  1.00  0.00     0.171 HD
ENDBRANCH  15  25
ENDBRANCH   6   9
ENDBRANCH   4   5
ENDBRANCH   3   4
ENDBRANCH   2   3
ENDBRANCH   1   2
BRANCH   1  33
ATOM     33  C   UNL     1       0.826   9.338  -3.247  1.00  0.00     0.021 C 
BRANCH  33  34
ATOM     34  C   UNL     1       2.260   9.801  -3.066  1.00  0.00     0.116 C 
BRANCH  34  35
ATOM     35  N   UNL     1       2.690  10.837  -3.994  1.00  0.00    -0.352 N 
ATOM     36  C   UNL     1       3.560  11.830  -3.538  1.00  0.00     0.251 C 
ATOM     37  H   UNL     1       2.373  10.838  -4.926  1.00  0.00     0.163 HD
ATOM     38  O   UNL     1       3.235  12.956  -3.232  1.00  0.00    -0.269 OA
BRANCH  36  39
ATOM     39  C   UNL     1       4.932  11.323  -3.305  1.00  0.00     0.039 A 
ATOM     40  C   UNL     1       5.931  11.480  -4.266  1.00  0.00     0.014 A 
ATOM     41  C   UNL     1       5.102  10.474  -2.213  1.00  0.00     0.014 A 
ATOM     42  C   UNL     1       7.067  10.669  -4.201  1.00  0.00     0.010 A 
ATOM     43  C   UNL     1       6.172   9.611  -2.207  1.00  0.00     0.010 A 
ATOM     44  C   UNL     1       7.145   9.689  -3.213  1.00  0.00    -0.014 A 
BRANCH  44  45
ATOM     45  C   UNL     1       8.171   8.658  -3.113  1.00  0.00     0.031 A 
ATOM     46  C   UNL     1       9.150   8.710  -2.002  1.00  0.00     0.074 A 
ATOM     47  C   UNL     1       8.019   7.528  -3.836  1.00  0.00     0.049 A 
ATOM     48  N   UNL     1      10.138   7.896  -1.848  1.00  0.00    -0.248 NA
ATOM     49  C   UNL     1       9.095   9.736  -0.967  1.00  0.00     0.031 C 
ATOM     50  C   UNL     1       8.540   6.202  -3.521  1.00  0.00     0.029 A 
ATOM     51  N   UNL     1       7.513   7.405  -5.130  1.00  0.00    -0.354 N 
ATOM     52  C   UNL     1      10.658   8.089  -0.586  1.00  0.00     0.074 A 
ATOM     53  C   UNL     1      10.012   9.287  -0.105  1.00  0.00     0.031 C 
ATOM     54  C   UNL     1       8.557   5.462  -4.640  1.00  0.00     0.029 A 
ATOM     55  C   UNL     1       8.224   6.351  -5.739  1.00  0.00     0.049 A 
ATOM     56  H   UNL     1       6.800   7.947  -5.539  1.00  0.00     0.167 HD
ATOM     57  C   UNL     1      11.476   7.131  -0.055  1.00  0.00     0.037 A 
ATOM     58  C   UNL     1       9.047   6.583  -6.806  1.00  0.00     0.037 A 
ATOM     59  C   UNL     1      11.783   6.106  -1.056  1.00  0.00     0.049 A 
ATOM     60  C   UNL     1      10.495   6.226  -6.559  1.00  0.00     0.074 A 
ATOM     61  C   UNL     1      11.271   4.842  -1.302  1.00  0.00     0.029 A 
ATOM     62  N   UNL     1      12.533   6.450  -2.175  1.00  0.00    -0.354 N 
ATOM     63  N   UNL     1      11.029   6.099  -5.376  1.00  0.00    -0.248 NA
ATOM     64  C   UNL     1      11.452   5.965  -7.630  1.00  0.00     0.031 C 
ATOM     65  C   UNL     1      11.675   4.449  -2.603  1.00  0.00     0.029 A 
ATOM     66  C   UNL     1      12.447   5.466  -3.140  1.00  0.00     0.049 A 
ATOM     67  H   UNL     1      13.054   7.281  -2.267  1.00  0.00     0.167 HD
ATOM     68  C   UNL     1      12.355   5.764  -5.497  1.00  0.00     0.074 A 
ATOM     69  C   UNL     1      12.562   5.668  -6.930  1.00  0.00     0.031 C 
ATOM     70  C   UNL     1      13.162   5.596  -4.404  1.00  0.00     0.037 A 
BRANCH  57  71
ATOM     71  C   UNL     1      11.777   6.967   1.428  1.00  0.00     0.058 A 
ATOM     72  C   UNL     1      12.100   5.697   1.963  1.00  0.00     0.135 A 
ATOM     73  C   UNL     1      11.705   7.993   2.392  1.00  0.00     0.135 A 
ATOM     74  F   UNL     1      12.306   4.634   1.175  1.00  0.00    -0.206 F 
ATOM     75  C   UNL     1      12.221   5.449   3.334  1.00  0.00     0.059 A 
ATOM     76  C   UNL     1      11.770   7.762   3.771  1.00  0.00     0.059 A 
ATOM     77  F   UNL     1      11.634   9.281   2.041  1.00  0.00    -0.206 F 
ATOM     78  C   UNL     1      12.016   6.481   4.237  1.00  0.00     0.060 A 
BRANCH  78  79
ATOM     79  S   UNL     1      12.098   6.132   6.003  1.00  0.00     0.124 S 
ATOM     80  O   UNL     1      11.091   5.087   6.158  1.00  0.00    -0.237 OA
ATOM     81  O   UNL     1      13.484   5.708   6.167  1.00  0.00    -0.237 OA
ATOM     82  O   UNL     1      11.759   7.412   6.620  1.00  0.00    -0.744 OA
ENDBRANCH  78  79
ENDBRANCH  57  71
BRANCH  58  83
ATOM     83  C   UNL     1       8.552   7.685  -7.681  1.00  0.00     0.058 A 
ATOM     84  C   UNL     1       7.348   7.456  -8.377  1.00  0.00     0.135 A 
ATOM     85  C   UNL     1       8.915   9.017  -7.434  1.00  0.00     0.135 A 
ATOM     86  F   UNL     1       6.969   6.199  -8.663  1.00  0.00    -0.206 F 
ATOM     87  C   UNL     1       6.443   8.482  -8.624  1.00  0.00     0.059 A 
ATOM     88  C   UNL     1       8.028  10.065  -7.691  1.00  0.00     0.059 A 
ATOM     89  F   UNL     1      10.058   9.299  -6.790  1.00  0.00    -0.206 F 
ATOM     90  C   UNL     1       6.761   9.770  -8.198  1.00  0.00     0.060 A 
BRANCH  90  91
ATOM     91  S   UNL     1       5.422  10.986  -8.126  1.00  0.00     0.124 S 
ATOM     92  O   UNL     1       4.925  10.977  -9.497  1.00  0.00    -0.237 OA
ATOM     93  O   UNL     1       4.532  10.395  -7.126  1.00  0.00    -0.237 OA
ATOM     94  O   UNL     1       6.099  12.209  -7.709  1.00  0.00    -0.744 OA
ENDBRANCH  90  91
ENDBRANCH  58  83
BRANCH  70  95
ATOM     95  C   UNL     1      14.673   5.446  -4.393  1.00  0.00     0.058 A 
ATOM     96  C   UNL     1      15.529   5.898  -5.412  1.00  0.00     0.135 A 
ATOM     97  C   UNL     1      15.334   4.943  -3.240  1.00  0.00     0.135 A 
ATOM     98  F   UNL     1      15.055   6.508  -6.507  1.00  0.00    -0.206 F 
ATOM     99  C   UNL     1      16.921   5.798  -5.329  1.00  0.00     0.059 A 
ATOM    100  C   UNL     1      16.721   4.891  -3.111  1.00  0.00     0.059 A 
ATOM    101  F   UNL     1      14.652   4.496  -2.175  1.00  0.00    -0.206 F 
ATOM    102  C   UNL     1      17.510   5.296  -4.174  1.00  0.00     0.060 A 
BRANCH 102 103
ATOM    103  S   UNL     1      19.305   5.240  -4.029  1.00  0.00     0.124 S 
ATOM    104  O   UNL     1      19.600   3.917  -4.568  1.00  0.00    -0.237 OA
ATOM    105  O   UNL     1      19.731   6.367  -4.855  1.00  0.00    -0.237 OA
ATOM    106  O   UNL     1      19.529   5.406  -2.596  1.00  0.00    -0.744 OA
ENDBRANCH 102 103
ENDBRANCH  70  95
ENDBRANCH  44  45
ENDBRANCH  36  39
ENDBRANCH  34  35
ENDBRANCH  33  34
ENDBRANCH   1  33
TORSDOF 19
