REMARK SMILES O=C(C[C@@H]1C(=O)O[C@H]2[C@@H]3OC(=O)c4cc(O)c(O)c(O)c4-c4ccccc4C(=O)OC[C@H]2O[C@@H](OC(=O)c2cc(O)c(O)c(O)c2)[C@@H]3OC(=O)c2cc(O)c(O)c3c2[C@H]1[C@H](O)C(=O)O3)NCCCCCCNC(=O)c1ccc(-c2c3nc(c(-c4c(F)cc(S(=O)(=O)[O-])cc4F)c4ccc([nH]4)c(-c4c(F)cc(S(=O)(=O)[O-])cc4F)c4nc(c(-c5c(F)cc(S(=O)(=O)[O-])cc5F)c5ccc2[nH]5)C=C4)C=C3)cc1
REMARK SMILES IDX 3 1 2 2 1 3 65 4 66 6 67 7 68 8 69 9 70 10 71 11 72 12 73 13
REMARK SMILES IDX 74 15 75 16 76 17 140 18 77 19 139 20 78 21 79 22 80 23
REMARK SMILES IDX 133 24 81 25 138 26 132 27 134 28 82 29 137 30 131 31 130 32
REMARK SMILES IDX 83 34 117 35 96 36 116 37 97 38 100 39 115 40 135 41 98 42
REMARK SMILES IDX 99 43 114 45 136 46 101 47 84 48 85 49 94 50 86 51 87 52
REMARK SMILES IDX 93 53 95 54 88 55 89 56 90 57 91 58 92 59 118 60 119 61
REMARK SMILES IDX 128 62 120 63 121 64 127 65 129 66 122 67 123 68 124 69
REMARK SMILES IDX 125 70 126 71 102 72 103 73 112 74 104 75 105 76 111 77
REMARK SMILES IDX 113 78 106 79 107 80 108 81 109 82 110 83 4 84 59 86 58 87
REMARK SMILES IDX 60 88 51 89 57 90 62 91 52 92 55 93 64 94 63 95 53 96 61 97
REMARK SMILES IDX 49 99 50 100 48 101 47 102 9 103 34 104 8 105 33 106 32 107
REMARK SMILES IDX 10 109 11 110 12 111 13 112 14 113 21 114 15 115 19 116
REMARK SMILES IDX 17 117 22 118 23 119 27 120 24 121 26 122 25 123 28 124
REMARK SMILES IDX 29 125 30 126 31 127 16 129 20 131 18 133 35 135 36 136
REMARK SMILES IDX 37 137 38 138 39 139 46 140 40 141 44 142 42 143 41 144
REMARK SMILES IDX 45 146 43 148 7 150 5 151 6 152 56 154 54 156
REMARK H PARENT 65 5 72 14 134 33 100 44 61 98 16 130 20 132 18 134 41 145
REMARK H PARENT 45 147 43 149 56 155 54 157
REMARK Flexibility Score: 170.00
ROOT
ATOM      1  C   UNL     1       2.671   1.959   0.491  1.00  0.00     0.116 C 
ENDROOT
BRANCH   1   2
ATOM      2  C   UNL     1       1.798   1.067   1.368  1.00  0.00     0.220 C 
ATOM      3  O   UNL     1       0.782   1.484   1.913  1.00  0.00    -0.275 OA
ATOM      4  N   UNL     1       2.359  -0.154   1.687  1.00  0.00    -0.356 N 
ATOM      5  H   UNL     1       3.081  -0.537   1.138  1.00  0.00     0.163 HD
BRANCH   4   6
ATOM      6  C   UNL     1       1.855  -0.858   2.854  1.00  0.00     0.116 C 
BRANCH   6   7
ATOM      7  C   UNL     1       2.442  -2.250   3.063  1.00  0.00     0.021 C 
BRANCH   7   8
ATOM      8  C   UNL     1       3.969  -2.339   3.156  1.00  0.00     0.002 C 
BRANCH   8   9
ATOM      9  C   UNL     1       4.662  -1.409   4.157  1.00  0.00     0.002 C 
BRANCH   9  10
ATOM     10  C   UNL     1       4.164  -1.467   5.601  1.00  0.00     0.021 C 
BRANCH  10  11
ATOM     11  C   UNL     1       4.184  -2.843   6.255  1.00  0.00     0.116 C 
BRANCH  11  12
ATOM     12  N   UNL     1       5.524  -3.338   6.529  1.00  0.00    -0.352 N 
ATOM     13  C   UNL     1       5.975  -3.994   7.655  1.00  0.00     0.251 C 
ATOM     14  H   UNL     1       6.193  -3.187   5.822  1.00  0.00     0.163 HD
ATOM     15  O   UNL     1       7.165  -4.261   7.787  1.00  0.00    -0.269 OA
BRANCH  13  16
ATOM     16  C   UNL     1       5.010  -4.332   8.728  1.00  0.00     0.039 A 
ATOM     17  C   UNL     1       3.804  -4.967   8.420  1.00  0.00     0.014 A 
ATOM     18  C   UNL     1       5.290  -3.954  10.044  1.00  0.00     0.014 A 
ATOM     19  C   UNL     1       2.817  -5.079   9.394  1.00  0.00     0.010 A 
ATOM     20  C   UNL     1       4.321  -4.130  11.038  1.00  0.00     0.010 A 
ATOM     21  C   UNL     1       3.058  -4.650  10.711  1.00  0.00    -0.014 A 
BRANCH  21  22
ATOM     22  C   UNL     1       1.970  -4.744  11.718  1.00  0.00     0.031 A 
ATOM     23  C   UNL     1       1.336  -3.502  12.288  1.00  0.00     0.074 A 
ATOM     24  C   UNL     1       1.500  -5.957  12.067  1.00  0.00     0.049 A 
ATOM     25  N   UNL     1       0.363  -3.399  13.157  1.00  0.00    -0.248 NA
ATOM     26  C   UNL     1       1.862  -2.207  11.825  1.00  0.00     0.031 C 
ATOM     27  C   UNL     1       2.019  -7.234  11.573  1.00  0.00     0.029 A 
ATOM     28  N   UNL     1       0.461  -6.315  12.887  1.00  0.00    -0.354 N 
ATOM     29  C   UNL     1       0.174  -2.038  13.364  1.00  0.00     0.074 A 
ATOM     30  C   UNL     1       1.143  -1.349  12.538  1.00  0.00     0.031 C 
ATOM     31  C   UNL     1       1.257  -8.231  12.048  1.00  0.00     0.029 A 
ATOM     32  C   UNL     1       0.229  -7.669  12.919  1.00  0.00     0.049 A 
ATOM     33  H   UNL     1      -0.068  -5.665  13.403  1.00  0.00     0.167 HD
ATOM     34  C   UNL     1      -0.727  -1.418  14.164  1.00  0.00     0.037 A 
ATOM     35  C   UNL     1      -0.705  -8.382  13.576  1.00  0.00     0.037 A 
ATOM     36  C   UNL     1      -1.712  -2.100  14.962  1.00  0.00     0.049 A 
ATOM     37  C   UNL     1      -1.689  -7.673  14.458  1.00  0.00     0.074 A 
ATOM     38  C   UNL     1      -2.667  -1.555  15.803  1.00  0.00     0.029 A 
ATOM     39  N   UNL     1      -1.879  -3.475  15.007  1.00  0.00    -0.354 N 
ATOM     40  N   UNL     1      -1.823  -6.387  14.670  1.00  0.00    -0.248 NA
ATOM     41  C   UNL     1      -2.635  -8.513  15.206  1.00  0.00     0.031 C 
ATOM     42  C   UNL     1      -3.402  -2.603  16.370  1.00  0.00     0.029 A 
ATOM     43  C   UNL     1      -2.918  -3.798  15.865  1.00  0.00     0.049 A 
ATOM     44  H   UNL     1      -1.340  -4.127  14.504  1.00  0.00     0.167 HD
ATOM     45  C   UNL     1      -2.861  -6.262  15.584  1.00  0.00     0.074 A 
ATOM     46  C   UNL     1      -3.337  -7.601  15.866  1.00  0.00     0.031 C 
ATOM     47  C   UNL     1      -3.368  -5.137  16.145  1.00  0.00     0.037 A 
BRANCH  34  48
ATOM     48  C   UNL     1      -0.684   0.082  14.226  1.00  0.00     0.058 A 
ATOM     49  C   UNL     1      -1.237   0.873  13.209  1.00  0.00     0.135 A 
ATOM     50  C   UNL     1      -0.121   0.733  15.335  1.00  0.00     0.135 A 
ATOM     51  F   UNL     1      -1.773   0.297  12.121  1.00  0.00    -0.206 F 
ATOM     52  C   UNL     1      -1.220   2.263  13.280  1.00  0.00     0.059 A 
ATOM     53  C   UNL     1      -0.106   2.122  15.434  1.00  0.00     0.059 A 
ATOM     54  F   UNL     1       0.423   0.020  16.333  1.00  0.00    -0.206 F 
ATOM     55  C   UNL     1      -0.648   2.878  14.395  1.00  0.00     0.060 A 
BRANCH  55  56
ATOM     56  S   UNL     1      -0.631   4.682  14.478  1.00  0.00     0.124 S 
ATOM     57  O   UNL     1       0.462   5.004  13.566  1.00  0.00    -0.237 OA
ATOM     58  O   UNL     1      -1.969   5.033  14.011  1.00  0.00    -0.237 OA
ATOM     59  O   UNL     1      -0.373   4.954  15.889  1.00  0.00    -0.744 OA
ENDBRANCH  55  56
ENDBRANCH  34  48
BRANCH  35  60
ATOM     60  C   UNL     1      -0.747  -9.855  13.409  1.00  0.00     0.058 A 
ATOM     61  C   UNL     1      -1.723 -10.456  12.604  1.00  0.00     0.135 A 
ATOM     62  C   UNL     1       0.221 -10.680  14.002  1.00  0.00     0.135 A 
ATOM     63  F   UNL     1      -2.670  -9.704  12.023  1.00  0.00    -0.206 F 
ATOM     64  C   UNL     1      -1.737 -11.829  12.384  1.00  0.00     0.059 A 
ATOM     65  C   UNL     1       0.237 -12.053  13.784  1.00  0.00     0.059 A 
ATOM     66  F   UNL     1       1.183 -10.144  14.769  1.00  0.00    -0.206 F 
ATOM     67  C   UNL     1      -0.748 -12.619  12.974  1.00  0.00     0.060 A 
BRANCH  67  68
ATOM     68  S   UNL     1      -0.713 -14.388  12.614  1.00  0.00     0.124 S 
ATOM     69  O   UNL     1      -1.728 -14.893  13.531  1.00  0.00    -0.237 OA
ATOM     70  O   UNL     1      -1.058 -14.426  11.196  1.00  0.00    -0.237 OA
ATOM     71  O   UNL     1       0.664 -14.762  12.924  1.00  0.00    -0.744 OA
ENDBRANCH  67  68
ENDBRANCH  35  60
BRANCH  47  72
ATOM     72  C   UNL     1      -4.482  -5.310  17.132  1.00  0.00     0.058 A 
ATOM     73  C   UNL     1      -4.221  -5.685  18.459  1.00  0.00     0.135 A 
ATOM     74  C   UNL     1      -5.812  -5.055  16.766  1.00  0.00     0.135 A 
ATOM     75  F   UNL     1      -2.964  -5.945  18.852  1.00  0.00    -0.206 F 
ATOM     76  C   UNL     1      -5.245  -5.812  19.390  1.00  0.00     0.059 A 
ATOM     77  C   UNL     1      -6.851  -5.164  17.685  1.00  0.00     0.059 A 
ATOM     78  F   UNL     1      -6.109  -4.690  15.509  1.00  0.00    -0.206 F 
ATOM     79  C   UNL     1      -6.558  -5.551  18.993  1.00  0.00     0.060 A 
BRANCH  79  80
ATOM     80  S   UNL     1      -7.879  -5.684  20.217  1.00  0.00     0.124 S 
ATOM     81  O   UNL     1      -8.084  -7.128  20.271  1.00  0.00    -0.237 OA
ATOM     82  O   UNL     1      -7.274  -5.085  21.403  1.00  0.00    -0.237 OA
ATOM     83  O   UNL     1      -8.968  -4.915  19.622  1.00  0.00    -0.744 OA
ENDBRANCH  79  80
ENDBRANCH  47  72
ENDBRANCH  21  22
ENDBRANCH  13  16
ENDBRANCH  11  12
ENDBRANCH  10  11
ENDBRANCH   9  10
ENDBRANCH   8   9
ENDBRANCH   7   8
ENDBRANCH   6   7
ENDBRANCH   4   6
ENDBRANCH   1   2
BRANCH   1  84
ATOM     84  C   UNL     1       2.482   2.215  -1.283  1.00  0.00     0.119 CG0
ATOM     85  G   UNL     1       0.872   1.912  -1.331  1.00  0.00     0.000 G0
BRANCH  84  86
ATOM     86  C   UNL     1       3.968   1.860  -2.809  1.00  0.00     0.079 C 
ATOM     87  C   UNL     1       5.583   2.817  -2.823  1.00  0.00     0.021 A 
ATOM     88  C   UNL     1       4.845   0.546  -3.414  1.00  0.00     0.232 C 
ATOM     89  C   UNL     1       5.500   4.677  -2.447  1.00  0.00     0.071 A 
ATOM     90  C   UNL     1       6.552   1.751  -1.637  1.00  0.00     0.180 A 
ATOM     91  C   UNL     1       5.721  -0.310  -2.489  1.00  0.00     0.341 C 
ATOM     92  C   UNL     1       6.167   5.315  -0.864  1.00  0.00     0.066 A 
ATOM     93  C   UNL     1       7.259   2.467  -0.136  1.00  0.00     0.201 A 
ATOM     94  O   UNL     1       6.603   0.358  -1.682  1.00  0.00    -0.420 OA
ATOM     95  O   UNL     1       5.703  -1.539  -2.530  1.00  0.00    -0.249 OA
ATOM     96  C   UNL     1       7.035   4.204   0.256  1.00  0.00     0.162 A 
BRANCH  88  97
ATOM     97  O   UNL     1       4.061  -0.189  -4.351  1.00  0.00    -0.381 OA
ATOM     98  H   UNL     1       3.328  -0.624  -3.888  1.00  0.00     0.211 HD
ENDBRANCH  88  97
BRANCH  89  99
ATOM     99  C   UNL     1       4.455   5.690  -2.800  1.00  0.00     0.339 C 
ATOM    100  O   UNL     1       4.713   6.844  -3.080  1.00  0.00    -0.246 OA
BRANCH  99 101
ATOM    101  O   UNL     1       3.222   5.226  -2.472  1.00  0.00    -0.448 OA
BRANCH 101 102
ATOM    102  C   UNL     1       3.317   3.845  -2.655  1.00  0.00     0.290 C 
ATOM    103  C   UNL     1       1.903   3.039  -3.404  1.00  0.00     0.267 C 
ATOM    104  C   UNL     1       4.347   2.959  -1.155  1.00  0.00     0.357 C 
ATOM    105  C   UNL     1       1.749   1.331  -3.090  1.00  0.00     0.254 C 
ATOM    106  O   UNL     1       4.120   1.063  -1.066  1.00  0.00    -0.329 OA
ATOM    107  C   UNL     1       2.724   0.249  -1.972  1.00  0.00     0.205 CG1
ATOM    108  G   UNL     1       2.424  -1.236  -2.585  1.00  0.00     0.000 G1
BRANCH 103 109
ATOM    109  O   UNL     1       1.664   3.164  -4.873  1.00  0.00    -0.450 OA
BRANCH 109 110
ATOM    110  C   UNL     1       2.421   2.465  -5.769  1.00  0.00     0.339 C 
ATOM    111  O   UNL     1       3.630   2.643  -5.862  1.00  0.00    -0.246 OA
BRANCH 110 112
ATOM    112  C   UNL     1       1.689   1.502  -6.689  1.00  0.00     0.075 A 
ATOM    113  C   UNL     1       2.399   1.206  -7.882  1.00  0.00     0.066 A 
ATOM    114  C   UNL     1       0.415   0.893  -6.487  1.00  0.00     0.043 A 
ATOM    115  C   UNL     1       1.810   0.476  -8.908  1.00  0.00     0.162 A 
ATOM    116  C   UNL     1      -0.190   0.270  -7.612  1.00  0.00     0.170 A 
ATOM    117  C   UNL     1       0.499   0.065  -8.798  1.00  0.00     0.200 A 
BRANCH 114 118
ATOM    118  C   UNL     1      -0.417   0.970  -5.272  1.00  0.00     0.001 A 
ATOM    119  C   UNL     1      -1.183   2.167  -5.173  1.00  0.00     0.010 A 
ATOM    120  C   UNL     1      -0.672  -0.103  -4.348  1.00  0.00     0.068 A 
ATOM    121  C   UNL     1      -2.196   2.318  -4.237  1.00  0.00     0.001 A 
ATOM    122  C   UNL     1      -1.784   0.056  -3.482  1.00  0.00     0.016 A 
ATOM    123  C   UNL     1      -2.521   1.249  -3.417  1.00  0.00     0.001 A 
BRANCH 120 124
ATOM    124  C   UNL     1       0.220  -1.313  -3.923  1.00  0.00     0.338 C 
ATOM    125  O   UNL     1      -0.279  -2.321  -3.440  1.00  0.00    -0.246 OA
BRANCH 124 126
ATOM    126  O   UNL     1       1.569  -1.071  -3.856  1.00  0.00    -0.459 OA
BRANCH 126 127
ATOM    127  C   UNL     1       2.424  -1.236  -2.585  1.00  0.00     0.269 CG1
ATOM    128  G   UNL     1       2.724   0.249  -1.972  1.00  0.00     0.000 G1
ENDBRANCH 126 127
ENDBRANCH 124 126
ENDBRANCH 120 124
ENDBRANCH 114 118
BRANCH 115 129
ATOM    129  O   UNL     1       2.510   0.209 -10.047  1.00  0.00    -0.504 OA
ATOM    130  H   UNL     1       3.401   0.487 -10.125  1.00  0.00     0.293 HD
ENDBRANCH 115 129
BRANCH 116 131
ATOM    131  O   UNL     1      -1.517  -0.108  -7.649  1.00  0.00    -0.504 OA
ATOM    132  H   UNL     1      -1.866  -0.516  -8.417  1.00  0.00     0.293 HD
ENDBRANCH 116 131
BRANCH 117 133
ATOM    133  O   UNL     1      -0.119  -0.511  -9.874  1.00  0.00    -0.502 OA
ATOM    134  H   UNL     1       0.356  -0.646 -10.671  1.00  0.00     0.293 HD
ENDBRANCH 117 133
ENDBRANCH 110 112
ENDBRANCH 109 110
ENDBRANCH 103 109
BRANCH 104 135
ATOM    135  O   UNL     1       6.041   3.479  -1.166  1.00  0.00    -0.428 OA
BRANCH 135 136
ATOM    136  C   UNL     1       7.565   3.744  -2.135  1.00  0.00     0.340 C 
ATOM    137  O   UNL     1       7.978   2.973  -3.021  1.00  0.00    -0.246 OA
BRANCH 136 138
ATOM    138  C   UNL     1       8.358   5.060  -2.181  1.00  0.00     0.067 A 
ATOM    139  C   UNL     1       8.144   5.881  -3.311  1.00  0.00     0.066 A 
ATOM    140  C   UNL     1       9.294   5.452  -1.211  1.00  0.00     0.066 A 
ATOM    141  C   UNL     1       8.735   7.133  -3.384  1.00  0.00     0.162 A 
ATOM    142  C   UNL     1       9.874   6.720  -1.304  1.00  0.00     0.162 A 
ATOM    143  C   UNL     1       9.581   7.560  -2.375  1.00  0.00     0.200 A 
BRANCH 141 144
ATOM    144  O   UNL     1       8.454   7.943  -4.444  1.00  0.00    -0.504 OA
ATOM    145  H   UNL     1       7.880   7.645  -5.122  1.00  0.00     0.293 HD
ENDBRANCH 141 144
BRANCH 142 146
ATOM    146  O   UNL     1      10.728   7.198  -0.349  1.00  0.00    -0.504 OA
ATOM    147  H   UNL     1      11.101   8.053  -0.440  1.00  0.00     0.293 HD
ENDBRANCH 142 146
BRANCH 143 148
ATOM    148  O   UNL     1      10.122   8.815  -2.453  1.00  0.00    -0.502 OA
ATOM    149  H   UNL     1       9.916   9.369  -3.180  1.00  0.00     0.293 HD
ENDBRANCH 143 148
ENDBRANCH 136 138
ENDBRANCH 135 136
ENDBRANCH 104 135
BRANCH 105 150
ATOM    150  O   UNL     1       0.534   1.266  -2.442  1.00  0.00    -0.455 OA
BRANCH 150 151
ATOM    151  C   UNL     1       0.872   1.912  -1.331  1.00  0.00     0.310 CG0
ATOM    152  O   UNL     1       0.045   2.315  -0.537  1.00  0.00    -0.252 OA
ATOM    153  G   UNL     1       2.482   2.215  -1.283  1.00  0.00     0.000 G0
ENDBRANCH 150 151
ENDBRANCH 105 150
ENDBRANCH 101 102
ENDBRANCH  99 101
ENDBRANCH  89  99
BRANCH  93 154
ATOM    154  O   UNL     1       7.913   1.668   0.755  1.00  0.00    -0.502 OA
ATOM    155  H   UNL     1       8.280   2.037   1.534  1.00  0.00     0.293 HD
ENDBRANCH  93 154
BRANCH  96 156
ATOM    156  O   UNL     1       7.503   4.689   1.442  1.00  0.00    -0.504 OA
ATOM    157  H   UNL     1       7.391   5.594   1.655  1.00  0.00     0.293 HD
ENDBRANCH  96 156
ENDBRANCH  84  86
ENDBRANCH   1  84
TORSDOF 29
