REMARK SMILES O=C(NCCCCCCNC(=O)c1cc([N+](=O)[O-])c(NCCC2=CCCCC2)c([N+](=O)[O-])c1)c1ccc(-c2c3nc(c(-c4c(F)cc(S(=O)(=O)[O-])cc4F)c4ccc([nH]4)c(-c4c(F)cc(S(=O)(=O)[O-])cc4F)c4nc(c(-c5c(F)cc(S(=O)(=O)[O-])cc5F)c5ccc2[nH]5)C=C4)C=C3)cc1
REMARK SMILES IDX 7 1 6 2 5 3 4 4 3 5 1 6 2 7 34 9 35 10 99 11 36 12 98 13
REMARK SMILES IDX 37 14 38 15 39 16 92 17 40 18 97 19 91 20 93 21 41 22 96 23
REMARK SMILES IDX 90 24 89 25 42 27 76 28 55 29 75 30 56 31 59 32 74 33 94 34
REMARK SMILES IDX 57 35 58 36 73 38 95 39 60 40 43 41 44 42 53 43 45 44 46 45
REMARK SMILES IDX 52 46 54 47 47 48 48 49 49 50 50 51 51 52 77 53 78 54 87 55
REMARK SMILES IDX 79 56 80 57 86 58 88 59 81 60 82 61 83 62 84 63 85 64 61 65
REMARK SMILES IDX 62 66 71 67 63 68 64 69 70 70 72 71 65 72 66 73 67 74 68 75
REMARK SMILES IDX 69 76 8 77 9 78 10 79 11 80 12 82 13 83 14 84 33 85 15 86
REMARK SMILES IDX 29 87 19 88 16 89 17 90 18 91 30 92 31 93 32 94 20 95 21 97
REMARK SMILES IDX 22 98 23 99 24 100 28 101 25 102 27 103 26 104
REMARK H PARENT 3 8 93 26 59 37 10 81 20 96
REMARK Flexibility Score: inf
ROOT
ATOM      1  C   UNL     1       4.810  -2.668   3.297  1.00  0.00     0.002 C 
ENDROOT
BRANCH   1   2
ATOM      2  C   UNL     1       4.285  -1.247   3.523  1.00  0.00     0.002 C 
BRANCH   2   3
ATOM      3  C   UNL     1       4.769  -0.195   2.522  1.00  0.00     0.021 C 
BRANCH   3   4
ATOM      4  C   UNL     1       4.523  -0.529   1.053  1.00  0.00     0.116 C 
BRANCH   4   5
ATOM      5  N   UNL     1       3.111  -0.685   0.751  1.00  0.00    -0.352 N 
ATOM      6  O   UNL     1       1.129  -0.187  -0.190  1.00  0.00    -0.269 OA
ATOM      7  C   UNL     1       2.349  -0.049  -0.197  1.00  0.00     0.251 C 
ATOM      8  H   UNL     1       2.632  -1.341   1.306  1.00  0.00     0.163 HD
BRANCH   7   9
ATOM      9  C   UNL     1       2.993   0.814  -1.211  1.00  0.00     0.039 A 
ATOM     10  C   UNL     1       4.124   0.384  -1.913  1.00  0.00     0.014 A 
ATOM     11  C   UNL     1       2.427   2.061  -1.487  1.00  0.00     0.014 A 
ATOM     12  C   UNL     1       4.747   1.240  -2.819  1.00  0.00     0.010 A 
ATOM     13  C   UNL     1       3.020   2.896  -2.437  1.00  0.00     0.010 A 
ATOM     14  C   UNL     1       4.195   2.499  -3.096  1.00  0.00    -0.014 A 
BRANCH  14  15
ATOM     15  C   UNL     1       4.808   3.382  -4.118  1.00  0.00     0.031 A 
ATOM     16  C   UNL     1       5.436   4.688  -3.726  1.00  0.00     0.074 A 
ATOM     17  C   UNL     1       4.751   3.019  -5.413  1.00  0.00     0.049 A 
ATOM     18  N   UNL     1       5.932   5.627  -4.490  1.00  0.00    -0.248 NA
ATOM     19  C   UNL     1       5.506   4.983  -2.287  1.00  0.00     0.031 C 
ATOM     20  C   UNL     1       4.154   1.779  -5.912  1.00  0.00     0.029 A 
ATOM     21  N   UNL     1       5.179   3.664  -6.545  1.00  0.00    -0.354 N 
ATOM     22  C   UNL     1       6.349   6.636  -3.631  1.00  0.00     0.074 A 
ATOM     23  C   UNL     1       6.034   6.199  -2.287  1.00  0.00     0.031 C 
ATOM     24  C   UNL     1       4.249   1.754  -7.250  1.00  0.00     0.029 A 
ATOM     25  C   UNL     1       4.865   2.997  -7.705  1.00  0.00     0.049 A 
ATOM     26  H   UNL     1       5.664   4.520  -6.529  1.00  0.00     0.167 HD
ATOM     27  C   UNL     1       6.940   7.816  -3.939  1.00  0.00     0.037 A 
ATOM     28  C   UNL     1       5.021   3.357  -8.993  1.00  0.00     0.037 A 
ATOM     29  C   UNL     1       7.254   8.236  -5.280  1.00  0.00     0.049 A 
ATOM     30  C   UNL     1       5.664   4.673  -9.315  1.00  0.00     0.074 A 
ATOM     31  C   UNL     1       7.895   9.391  -5.692  1.00  0.00     0.029 A 
ATOM     32  N   UNL     1       6.939   7.522  -6.428  1.00  0.00    -0.354 N 
ATOM     33  N   UNL     1       6.096   5.597  -8.490  1.00  0.00    -0.248 NA
ATOM     34  C   UNL     1       5.844   5.000 -10.735  1.00  0.00     0.031 C 
ATOM     35  C   UNL     1       7.932   9.394  -7.092  1.00  0.00     0.029 A 
ATOM     36  C   UNL     1       7.352   8.222  -7.550  1.00  0.00     0.049 A 
ATOM     37  H   UNL     1       6.489   6.647  -6.442  1.00  0.00     0.167 HD
ATOM     38  C   UNL     1       6.615   6.608  -9.289  1.00  0.00     0.074 A 
ATOM     39  C   UNL     1       6.446   6.181 -10.664  1.00  0.00     0.031 C 
ATOM     40  C   UNL     1       7.183   7.780  -8.914  1.00  0.00     0.037 A 
BRANCH  27  41
ATOM     41  C   UNL     1       7.252   8.748  -2.801  1.00  0.00     0.058 A 
ATOM     42  C   UNL     1       8.288   8.485  -1.891  1.00  0.00     0.135 A 
ATOM     43  C   UNL     1       6.501   9.920  -2.616  1.00  0.00     0.135 A 
ATOM     44  F   UNL     1       9.030   7.373  -2.014  1.00  0.00    -0.206 F 
ATOM     45  C   UNL     1       8.538   9.326  -0.810  1.00  0.00     0.059 A 
ATOM     46  C   UNL     1       6.748  10.788  -1.557  1.00  0.00     0.059 A 
ATOM     47  F   UNL     1       5.502  10.223  -3.461  1.00  0.00    -0.206 F 
ATOM     48  C   UNL     1       7.753  10.469  -0.645  1.00  0.00     0.060 A 
BRANCH  48  49
ATOM     49  S   UNL     1       8.053  11.526   0.788  1.00  0.00     0.124 S 
ATOM     50  O   UNL     1       7.419  10.754   1.853  1.00  0.00    -0.237 OA
ATOM     51  O   UNL     1       9.510  11.591   0.835  1.00  0.00    -0.237 OA
ATOM     52  O   UNL     1       7.384  12.774   0.434  1.00  0.00    -0.744 OA
ENDBRANCH  48  49
ENDBRANCH  27  41
BRANCH  28  53
ATOM     53  C   UNL     1       4.541   2.438 -10.056  1.00  0.00     0.058 A 
ATOM     54  C   UNL     1       5.439   1.657 -10.794  1.00  0.00     0.135 A 
ATOM     55  C   UNL     1       3.167   2.248 -10.277  1.00  0.00     0.135 A 
ATOM     56  F   UNL     1       6.761   1.807 -10.619  1.00  0.00    -0.206 F 
ATOM     57  C   UNL     1       4.994   0.705 -11.705  1.00  0.00     0.059 A 
ATOM     58  C   UNL     1       2.697   1.289 -11.167  1.00  0.00     0.059 A 
ATOM     59  F   UNL     1       2.270   2.961  -9.578  1.00  0.00    -0.206 F 
ATOM     60  C   UNL     1       3.619   0.519 -11.875  1.00  0.00     0.060 A 
BRANCH  60  61
ATOM     61  S   UNL     1       3.052  -0.798 -12.972  1.00  0.00     0.124 S 
ATOM     62  O   UNL     1       3.293  -0.212 -14.285  1.00  0.00    -0.237 OA
ATOM     63  O   UNL     1       3.924  -1.907 -12.598  1.00  0.00    -0.237 OA
ATOM     64  O   UNL     1       1.650  -0.963 -12.600  1.00  0.00    -0.744 OA
ENDBRANCH  60  61
ENDBRANCH  28  53
BRANCH  40  65
ATOM     65  C   UNL     1       7.697   8.683  -9.998  1.00  0.00     0.058 A 
ATOM     66  C   UNL     1       6.832   9.485 -10.756  1.00  0.00     0.135 A 
ATOM     67  C   UNL     1       9.078   8.816 -10.212  1.00  0.00     0.135 A 
ATOM     68  F   UNL     1       5.503   9.387 -10.595  1.00  0.00    -0.206 F 
ATOM     69  C   UNL     1       7.321  10.395 -11.689  1.00  0.00     0.059 A 
ATOM     70  C   UNL     1       9.589   9.731 -11.126  1.00  0.00     0.059 A 
ATOM     71  F   UNL     1       9.946   8.072  -9.507  1.00  0.00    -0.206 F 
ATOM     72  C   UNL     1       8.701  10.517 -11.861  1.00  0.00     0.060 A 
BRANCH  72  73
ATOM     73  S   UNL     1       9.327  11.756 -13.016  1.00  0.00     0.124 S 
ATOM     74  O   UNL     1       9.068  11.117 -14.301  1.00  0.00    -0.237 OA
ATOM     75  O   UNL     1       8.500  12.919 -12.707  1.00  0.00    -0.237 OA
ATOM     76  O   UNL     1      10.734  11.881 -12.648  1.00  0.00    -0.744 OA
ENDBRANCH  72  73
ENDBRANCH  40  65
ENDBRANCH  14  15
ENDBRANCH   7   9
ENDBRANCH   4   5
ENDBRANCH   3   4
ENDBRANCH   2   3
ENDBRANCH   1   2
BRANCH   1  77
ATOM     77  C   UNL     1       6.333  -2.811   3.222  1.00  0.00     0.021 C 
BRANCH  77  78
ATOM     78  C   UNL     1       7.105  -2.256   4.419  1.00  0.00     0.116 C 
BRANCH  78  79
ATOM     79  N   UNL     1       6.746  -2.923   5.661  1.00  0.00    -0.352 N 
ATOM     80  C   UNL     1       7.539  -3.530   6.596  1.00  0.00     0.251 C 
ATOM     81  H   UNL     1       5.782  -2.940   5.860  1.00  0.00     0.163 HD
ATOM     82  O   UNL     1       7.042  -4.187   7.505  1.00  0.00    -0.269 OA
BRANCH  80  83
ATOM     83  C   UNL     1       9.010  -3.415   6.526  1.00  0.00     0.053 A 
ATOM     84  C   UNL     1       9.782  -4.550   6.749  1.00  0.00     0.102 A 
ATOM     85  C   UNL     1       9.639  -2.190   6.345  1.00  0.00     0.102 A 
ATOM     86  C   UNL     1      11.189  -4.458   6.721  1.00  0.00     0.300 A 
ATOM     87  C   UNL     1      11.048  -2.127   6.293  1.00  0.00     0.300 A 
ATOM     88  C   UNL     1      11.892  -3.261   6.462  1.00  0.00     0.192 A 
BRANCH  86  89
ATOM     89  N   UNL     1      11.873  -5.669   7.126  1.00  0.00     0.065 N 
ATOM     90  O   UNL     1      11.744  -6.657   6.388  1.00  0.00    -0.258 OA
ATOM     91  O   UNL     1      12.494  -5.644   8.197  1.00  0.00    -0.258 OA
ENDBRANCH  86  89
BRANCH  87  92
ATOM     92  N   UNL     1      11.613  -0.798   6.038  1.00  0.00     0.065 N 
ATOM     93  O   UNL     1      12.671  -0.499   6.611  1.00  0.00    -0.258 OA
ATOM     94  O   UNL     1      10.980  -0.052   5.278  1.00  0.00    -0.258 OA
ENDBRANCH  87  92
BRANCH  88  95
ATOM     95  N   UNL     1      13.262  -3.135   6.309  1.00  0.00    -0.374 N 
ATOM     96  H   UNL     1      13.619  -2.244   6.527  1.00  0.00     0.161 HD
BRANCH  95  97
ATOM     97  C   UNL     1      14.269  -4.103   5.876  1.00  0.00     0.118 C 
BRANCH  97  98
ATOM     98  C   UNL     1      14.686  -3.903   4.409  1.00  0.00     0.052 C 
BRANCH  98  99
ATOM     99  C   UNL     1      15.636  -2.749   4.141  1.00  0.00    -0.072 C 
ATOM    100  C   UNL     1      16.897  -2.956   3.712  1.00  0.00    -0.028 C 
ATOM    101  C   UNL     1      15.089  -1.350   4.298  1.00  0.00     0.031 C 
ATOM    102  C   UNL     1      17.866  -1.853   3.385  1.00  0.00     0.027 C 
ATOM    103  C   UNL     1      15.912  -0.283   3.572  1.00  0.00     0.005 C 
ATOM    104  C   UNL     1      17.399  -0.472   3.843  1.00  0.00     0.004 C 
ENDBRANCH  98  99
ENDBRANCH  97  98
ENDBRANCH  95  97
ENDBRANCH  88  95
ENDBRANCH  80  83
ENDBRANCH  78  79
ENDBRANCH  77  78
ENDBRANCH   1  77
TORSDOF 22
