REMARK SMILES C[C@]12C(=O)N(c3ccc(C(=O)NCCCCCCNC(=O)c4ccc(-c5c6nc(c(-c7c(F)cc(S(=O)(=O)[O-])cc7F)c7ccc([nH]7)c(-c7c(F)cc(S(=O)(=O)[O-])cc7F)c7nc(c(-c8c(F)cc(S(=O)(=O)[O-])cc8F)c8ccc5[nH]8)C=C7)C=C6)cc4)cc3)C(=O)[C@H]1[C@H]1c3ccccc3[C@@H]2c2ccccc21
REMARK SMILES IDX 16 1 15 2 14 3 13 4 12 5 10 6 11 7 9 9 6 10 7 11 89 12 8 13
REMARK SMILES IDX 88 14 5 15 1 16 2 17 3 18 92 19 100 20 4 21 90 22 93 23
REMARK SMILES IDX 99 24 101 25 91 26 94 27 106 28 98 29 102 30 95 31 105 32
REMARK SMILES IDX 97 33 103 34 96 35 104 36 17 37 18 38 19 39 20 40 21 42
REMARK SMILES IDX 22 43 23 44 87 45 24 46 86 47 25 48 26 49 27 50 80 51 28 52
REMARK SMILES IDX 85 53 79 54 81 55 29 56 84 57 78 58 77 59 30 61 64 62 43 63
REMARK SMILES IDX 63 64 44 65 47 66 62 67 82 68 45 69 46 70 61 72 83 73 48 74
REMARK SMILES IDX 31 75 32 76 41 77 33 78 34 79 40 80 42 81 35 82 36 83 37 84
REMARK SMILES IDX 38 85 39 86 65 87 66 88 75 89 67 90 68 91 74 92 76 93 69 94
REMARK SMILES IDX 70 95 71 96 72 97 73 98 49 99 50 100 59 101 51 102 52 103
REMARK SMILES IDX 58 104 60 105 53 106 54 107 55 108 56 109 57 110
REMARK H PARENT 12 8 19 41 81 60 47 71
REMARK Flexibility Score: inf
ROOT
ATOM      1  C   UNL     1      -0.404  -6.159 -11.420  1.00  0.00     0.002 C 
ENDROOT
BRANCH   1   2
ATOM      2  C   UNL     1       0.902  -5.425 -11.104  1.00  0.00     0.002 C 
BRANCH   2   3
ATOM      3  C   UNL     1       0.865  -4.371  -9.996  1.00  0.00     0.021 C 
BRANCH   3   4
ATOM      4  C   UNL     1       0.238  -4.790  -8.673  1.00  0.00     0.116 C 
BRANCH   4   5
ATOM      5  N   UNL     1       0.964  -5.852  -8.009  1.00  0.00    -0.352 N 
ATOM      6  C   UNL     1       1.468  -5.906  -6.736  1.00  0.00     0.251 C 
ATOM      7  O   UNL     1       2.132  -6.882  -6.389  1.00  0.00    -0.269 OA
ATOM      8  H   UNL     1       1.118  -6.657  -8.554  1.00  0.00     0.163 HD
BRANCH   6   9
ATOM      9  C   UNL     1       1.262  -4.793  -5.779  1.00  0.00     0.039 A 
ATOM     10  C   UNL     1       0.961  -2.769  -3.824  1.00  0.00     0.052 A 
ATOM     11  C   UNL     1       2.190  -3.422  -4.014  1.00  0.00     0.027 A 
ATOM     12  C   UNL     1      -0.110  -3.135  -4.654  1.00  0.00     0.027 A 
ATOM     13  C   UNL     1       2.341  -4.421  -4.980  1.00  0.00     0.016 A 
ATOM     14  C   UNL     1       0.028  -4.165  -5.593  1.00  0.00     0.016 A 
BRANCH  10  15
ATOM     15  N   UNL     1       0.731  -1.948  -2.694  1.00  0.00    -0.250 N 
ATOM     16  C   UNL     1       1.129  -0.160   0.122  1.00  0.00     0.024 C 
ATOM     17  C   UNL     1       0.691  -1.526  -0.443  1.00  0.00     0.071 C 
ATOM     18  C   UNL     1       1.563  -1.824  -1.631  1.00  0.00     0.241 C 
ATOM     19  C   UNL     1      -0.831  -1.423  -0.942  1.00  0.00     0.107 C 
ATOM     20  C   UNL     1       0.949  -2.720   0.546  1.00  0.00     0.066 C 
ATOM     21  O   UNL     1       2.776  -1.918  -1.570  1.00  0.00    -0.273 OA
ATOM     22  C   UNL     1      -0.402  -1.234  -2.424  1.00  0.00     0.238 C 
ATOM     23  C   UNL     1      -1.596  -2.443   0.030  1.00  0.00     0.063 C 
ATOM     24  C   UNL     1       0.333  -3.963  -0.109  1.00  0.00    -0.036 A 
ATOM     25  C   UNL     1       0.130  -2.405   1.782  1.00  0.00    -0.036 A 
ATOM     26  O   UNL     1      -1.018  -0.523  -3.213  1.00  0.00    -0.274 OA
ATOM     27  C   UNL     1      -1.055  -3.832  -0.353  1.00  0.00    -0.036 A 
ATOM     28  C   UNL     1      -1.238  -2.203   1.494  1.00  0.00    -0.036 A 
ATOM     29  C   UNL     1       1.023  -5.074  -0.574  1.00  0.00     0.005 A 
ATOM     30  C   UNL     1       0.613  -2.337   3.080  1.00  0.00     0.005 A 
ATOM     31  C   UNL     1      -1.758  -4.807  -1.049  1.00  0.00     0.004 A 
ATOM     32  C   UNL     1      -2.130  -1.927   2.520  1.00  0.00     0.004 A 
ATOM     33  C   UNL     1       0.318  -6.051  -1.283  1.00  0.00     0.000 A 
ATOM     34  C   UNL     1      -0.286  -2.060   4.108  1.00  0.00     0.000 A 
ATOM     35  C   UNL     1      -1.061  -5.921  -1.514  1.00  0.00     0.000 A 
ATOM     36  C   UNL     1      -1.646  -1.855   3.830  1.00  0.00     0.000 A 
ENDBRANCH  10  15
ENDBRANCH   6   9
ENDBRANCH   4   5
ENDBRANCH   3   4
ENDBRANCH   2   3
ENDBRANCH   1   2
BRANCH   1  37
ATOM     37  C   UNL     1      -1.660  -5.305 -11.587  1.00  0.00     0.021 C 
BRANCH  37  38
ATOM     38  C   UNL     1      -1.559  -4.131 -12.551  1.00  0.00     0.116 C 
BRANCH  38  39
ATOM     39  N   UNL     1      -1.397  -4.532 -13.937  1.00  0.00    -0.352 N 
ATOM     40  C   UNL     1      -2.109  -4.128 -15.044  1.00  0.00     0.251 C 
ATOM     41  H   UNL     1      -0.678  -5.182 -14.109  1.00  0.00     0.163 HD
ATOM     42  O   UNL     1      -1.892  -4.646 -16.135  1.00  0.00    -0.269 OA
BRANCH  40  43
ATOM     43  C   UNL     1      -3.170  -3.101 -14.908  1.00  0.00     0.039 A 
ATOM     44  C   UNL     1      -2.951  -1.927 -14.183  1.00  0.00     0.014 A 
ATOM     45  C   UNL     1      -4.417  -3.336 -15.494  1.00  0.00     0.014 A 
ATOM     46  C   UNL     1      -4.019  -1.077 -13.905  1.00  0.00     0.010 A 
ATOM     47  C   UNL     1      -5.469  -2.438 -15.280  1.00  0.00     0.010 A 
ATOM     48  C   UNL     1      -5.292  -1.326 -14.443  1.00  0.00    -0.014 A 
BRANCH  48  49
ATOM     49  C   UNL     1      -6.422  -0.418 -14.110  1.00  0.00     0.031 A 
ATOM     50  C   UNL     1      -7.595  -0.908 -13.301  1.00  0.00     0.074 A 
ATOM     51  C   UNL     1      -6.366   0.873 -14.494  1.00  0.00     0.049 A 
ATOM     52  N   UNL     1      -8.655  -0.250 -12.904  1.00  0.00    -0.248 NA
ATOM     53  C   UNL     1      -7.579  -2.320 -12.884  1.00  0.00     0.031 C 
ATOM     54  C   UNL     1      -5.280   1.472 -15.272  1.00  0.00     0.029 A 
ATOM     55  N   UNL     1      -7.223   1.918 -14.261  1.00  0.00    -0.354 N 
ATOM     56  C   UNL     1      -9.437  -1.165 -12.208  1.00  0.00     0.074 A 
ATOM     57  C   UNL     1      -8.742  -2.434 -12.258  1.00  0.00     0.031 C 
ATOM     58  C   UNL     1      -5.508   2.787 -15.405  1.00  0.00     0.029 A 
ATOM     59  C   UNL     1      -6.782   3.116 -14.771  1.00  0.00     0.049 A 
ATOM     60  H   UNL     1      -8.073   1.820 -13.774  1.00  0.00     0.167 HD
ATOM     61  C   UNL     1     -10.618  -0.965 -11.574  1.00  0.00     0.037 A 
ATOM     62  C   UNL     1      -7.339   4.341 -14.742  1.00  0.00     0.037 A 
ATOM     63  C   UNL     1     -11.299   0.303 -11.507  1.00  0.00     0.049 A 
ATOM     64  C   UNL     1      -8.662   4.532 -14.060  1.00  0.00     0.074 A 
ATOM     65  C   UNL     1     -12.495   0.606 -10.879  1.00  0.00     0.029 A 
ATOM     66  N   UNL     1     -10.843   1.480 -12.083  1.00  0.00    -0.354 N 
ATOM     67  N   UNL     1      -9.390   3.651 -13.417  1.00  0.00    -0.248 NA
ATOM     68  C   UNL     1      -9.247   5.879 -14.108  1.00  0.00     0.031 C 
ATOM     69  C   UNL     1     -12.777   1.958 -11.101  1.00  0.00     0.029 A 
ATOM     70  C   UNL     1     -11.739   2.507 -11.836  1.00  0.00     0.049 A 
ATOM     71  H   UNL     1     -10.005   1.572 -12.591  1.00  0.00     0.167 HD
ATOM     72  C   UNL     1     -10.516   4.337 -12.979  1.00  0.00     0.074 A 
ATOM     73  C   UNL     1     -10.365   5.710 -13.415  1.00  0.00     0.031 C 
ATOM     74  C   UNL     1     -11.580   3.868 -12.283  1.00  0.00     0.037 A 
BRANCH  61  75
ATOM     75  C   UNL     1     -11.259  -2.148 -10.902  1.00  0.00     0.058 A 
ATOM     76  C   UNL     1     -10.764  -2.664  -9.695  1.00  0.00     0.135 A 
ATOM     77  C   UNL     1     -12.408  -2.743 -11.448  1.00  0.00     0.135 A 
ATOM     78  F   UNL     1      -9.659  -2.142  -9.139  1.00  0.00    -0.206 F 
ATOM     79  C   UNL     1     -11.373  -3.744  -9.062  1.00  0.00     0.059 A 
ATOM     80  C   UNL     1     -13.046  -3.811 -10.821  1.00  0.00     0.059 A 
ATOM     81  F   UNL     1     -12.923  -2.287 -12.600  1.00  0.00    -0.206 F 
ATOM     82  C   UNL     1     -12.512  -4.312  -9.634  1.00  0.00     0.060 A 
BRANCH  82  83
ATOM     83  S   UNL     1     -13.289  -5.712  -8.800  1.00  0.00     0.124 S 
ATOM     84  O   UNL     1     -12.337  -6.782  -9.082  1.00  0.00    -0.237 OA
ATOM     85  O   UNL     1     -13.340  -5.260  -7.413  1.00  0.00    -0.237 OA
ATOM     86  O   UNL     1     -14.583  -5.830  -9.465  1.00  0.00    -0.744 OA
ENDBRANCH  82  83
ENDBRANCH  61  75
BRANCH  62  87
ATOM     87  C   UNL     1      -6.628   5.481 -15.376  1.00  0.00     0.058 A 
ATOM     88  C   UNL     1      -6.009   6.466 -14.594  1.00  0.00     0.135 A 
ATOM     89  C   UNL     1      -6.505   5.576 -16.771  1.00  0.00     0.135 A 
ATOM     90  F   UNL     1      -6.107   6.420 -13.256  1.00  0.00    -0.206 F 
ATOM     91  C   UNL     1      -5.286   7.503 -15.171  1.00  0.00     0.059 A 
ATOM     92  C   UNL     1      -5.769   6.591 -17.371  1.00  0.00     0.059 A 
ATOM     93  F   UNL     1      -7.070   4.648 -17.559  1.00  0.00    -0.206 F 
ATOM     94  C   UNL     1      -5.164   7.552 -16.562  1.00  0.00     0.060 A 
BRANCH  94  95
ATOM     95  S   UNL     1      -4.149   8.852 -17.297  1.00  0.00     0.124 S 
ATOM     96  O   UNL     1      -5.013  10.017 -17.151  1.00  0.00    -0.237 OA
ATOM     97  O   UNL     1      -2.959   8.828 -16.452  1.00  0.00    -0.237 OA
ATOM     98  O   UNL     1      -3.945   8.383 -18.665  1.00  0.00    -0.744 OA
ENDBRANCH  94  95
ENDBRANCH  62  87
BRANCH  74  99
ATOM     99  C   UNL     1     -12.667   4.847 -11.943  1.00  0.00     0.058 A 
ATOM    100  C   UNL     1     -13.591   5.275 -12.907  1.00  0.00     0.135 A 
ATOM    101  C   UNL     1     -12.820   5.316 -10.628  1.00  0.00     0.135 A 
ATOM    102  F   UNL     1     -13.482   4.861 -14.179  1.00  0.00    -0.206 F 
ATOM    103  C   UNL     1     -14.626   6.146 -12.583  1.00  0.00     0.059 A 
ATOM    104  C   UNL     1     -13.859   6.172 -10.278  1.00  0.00     0.059 A 
ATOM    105  F   UNL     1     -11.965   4.929  -9.668  1.00  0.00    -0.206 F 
ATOM    106  C   UNL     1     -14.753   6.588 -11.264  1.00  0.00     0.060 A 
BRANCH 106 107
ATOM    107  S   UNL     1     -16.124   7.686 -10.848  1.00  0.00     0.124 S 
ATOM    108  O   UNL     1     -15.675   8.949 -11.426  1.00  0.00    -0.237 OA
ATOM    109  O   UNL     1     -17.252   7.047 -11.519  1.00  0.00    -0.237 OA
ATOM    110  O   UNL     1     -16.164   7.642  -9.389  1.00  0.00    -0.744 OA
ENDBRANCH 106 107
ENDBRANCH  74  99
ENDBRANCH  48  49
ENDBRANCH  40  43
ENDBRANCH  38  39
ENDBRANCH  37  38
ENDBRANCH   1  37
TORSDOF 17
