REMARK SMILES O=C(C[C@@H]1C(=O)NCCN1C(=O)OCC1c2ccccc2-c2ccccc21)NCCCCCCNC(=O)c1ccc(-c2c3nc(c(-c4c(F)cc(S(=O)(=O)[O-])cc4F)c4ccc([nH]4)c(-c4c(F)cc(S(=O)(=O)[O-])cc4F)c4nc(c(-c5c(F)cc(S(=O)(=O)[O-])cc5F)c5ccc2[nH]5)C=C4)C=C3)cc1
REMARK SMILES IDX 30 1 29 2 28 3 1 4 2 5 3 7 4 8 5 9 10 10 6 11 7 12 9 13 8 14
REMARK SMILES IDX 11 16 12 17 13 18 14 19 15 20 16 21 27 22 17 23 21 24 22 25
REMARK SMILES IDX 26 26 18 27 20 28 23 29 25 30 19 31 24 32 31 33 32 34 33 35
REMARK SMILES IDX 34 36 35 37 36 38 37 40 38 41 39 42 103 43 40 44 102 45
REMARK SMILES IDX 41 46 42 47 43 48 96 49 44 50 101 51 95 52 97 53 45 54
REMARK SMILES IDX 100 55 94 56 93 57 46 59 80 60 59 61 79 62 60 63 63 64 78 65
REMARK SMILES IDX 98 66 61 67 62 68 77 70 99 71 64 72 47 73 48 74 57 75 49 76
REMARK SMILES IDX 50 77 56 78 58 79 51 80 52 81 53 82 54 83 55 84 81 85 82 86
REMARK SMILES IDX 91 87 83 88 84 89 90 90 92 91 85 92 86 93 87 94 88 95 89 96
REMARK SMILES IDX 65 97 66 98 75 99 67 100 68 101 74 102 76 103 69 104 70 105
REMARK SMILES IDX 71 106 72 107 73 108
REMARK H PARENT 28 6 7 15 35 39 97 58 63 69
REMARK Flexibility Score: inf
ROOT
ATOM      1  C   UNL     1       3.130  -1.401   3.390  1.00  0.00     0.021 C 
ENDROOT
BRANCH   1   2
ATOM      2  C   UNL     1       2.425  -0.432   2.446  1.00  0.00     0.116 C 
BRANCH   2   3
ATOM      3  N   UNL     1       3.008  -0.406   1.121  1.00  0.00    -0.356 N 
ATOM      4  O   UNL     1       1.018  -0.441  -0.008  1.00  0.00    -0.275 OA
ATOM      5  C   UNL     1       2.240  -0.310  -0.016  1.00  0.00     0.222 C 
ATOM      6  H   UNL     1       3.987  -0.458   1.031  1.00  0.00     0.163 HD
BRANCH   5   7
ATOM      7  C   UNL     1       2.997  -0.163  -1.317  1.00  0.00     0.135 C 
BRANCH   7   8
ATOM      8  C   UNL     1       3.940   1.046  -1.434  1.00  0.00     0.187 C 
ATOM      9  C   UNL     1       5.205   0.762  -0.570  1.00  0.00     0.243 C 
ATOM     10  N   UNL     1       3.406   2.428  -1.327  1.00  0.00    -0.294 N 
ATOM     11  O   UNL     1       5.748  -0.342  -0.533  1.00  0.00    -0.273 OA
ATOM     12  N   UNL     1       5.727   1.770   0.190  1.00  0.00    -0.353 N 
ATOM     13  C   UNL     1       4.360   3.457  -0.924  1.00  0.00     0.145 C 
ATOM     14  C   UNL     1       5.071   3.045   0.353  1.00  0.00     0.137 C 
ATOM     15  H   UNL     1       6.587   1.620   0.645  1.00  0.00     0.163 HD
BRANCH  10  16
ATOM     16  C   UNL     1       2.262   2.893  -1.955  1.00  0.00     0.410 C 
ATOM     17  O   UNL     1       2.149   4.032  -2.389  1.00  0.00    -0.224 OA
BRANCH  16  18
ATOM     18  O   UNL     1       1.263   1.985  -1.967  1.00  0.00    -0.448 OA
BRANCH  18  19
ATOM     19  C   UNL     1      -0.046   2.468  -2.333  1.00  0.00     0.248 C 
BRANCH  19  20
ATOM     20  C   UNL     1      -0.779   3.327  -1.270  1.00  0.00     0.088 C 
ATOM     21  C   UNL     1      -0.151   3.377   0.116  1.00  0.00    -0.029 A 
ATOM     22  C   UNL     1      -0.846   4.815  -1.620  1.00  0.00    -0.029 A 
ATOM     23  C   UNL     1      -0.011   2.356   1.036  1.00  0.00     0.005 A 
ATOM     24  C   UNL     1       0.244   4.696   0.431  1.00  0.00    -0.014 A 
ATOM     25  C   UNL     1      -0.214   5.581  -0.616  1.00  0.00    -0.014 A 
ATOM     26  C   UNL     1      -1.503   5.422  -2.679  1.00  0.00     0.005 A 
ATOM     27  C   UNL     1       0.587   2.652   2.262  1.00  0.00     0.000 A 
ATOM     28  C   UNL     1       0.883   4.978   1.628  1.00  0.00     0.009 A 
ATOM     29  C   UNL     1      -0.211   6.965  -0.680  1.00  0.00     0.009 A 
ATOM     30  C   UNL     1      -1.514   6.818  -2.734  1.00  0.00     0.000 A 
ATOM     31  C   UNL     1       1.062   3.941   2.544  1.00  0.00     0.001 A 
ATOM     32  C   UNL     1      -0.870   7.582  -1.747  1.00  0.00     0.001 A 
ENDBRANCH  19  20
ENDBRANCH  18  19
ENDBRANCH  16  18
ENDBRANCH  10  16
ENDBRANCH   7   8
ENDBRANCH   5   7
ENDBRANCH   2   3
ENDBRANCH   1   2
BRANCH   1  33
ATOM     33  C   UNL     1       4.588  -1.051   3.707  1.00  0.00     0.002 C 
BRANCH  33  34
ATOM     34  C   UNL     1       4.839   0.354   4.265  1.00  0.00     0.002 C 
BRANCH  34  35
ATOM     35  C   UNL     1       4.051   0.728   5.523  1.00  0.00     0.021 C 
BRANCH  35  36
ATOM     36  C   UNL     1       4.183  -0.235   6.700  1.00  0.00     0.116 C 
BRANCH  36  37
ATOM     37  N   UNL     1       5.556  -0.405   7.144  1.00  0.00    -0.352 N 
ATOM     38  C   UNL     1       6.069  -0.425   8.419  1.00  0.00     0.251 C 
ATOM     39  H   UNL     1       6.217  -0.524   6.425  1.00  0.00     0.163 HD
ATOM     40  O   UNL     1       7.286  -0.463   8.580  1.00  0.00    -0.269 OA
BRANCH  38  41
ATOM     41  C   UNL     1       5.168  -0.370   9.594  1.00  0.00     0.039 A 
ATOM     42  C   UNL     1       5.511   0.466  10.661  1.00  0.00     0.014 A 
ATOM     43  C   UNL     1       4.004  -1.140   9.658  1.00  0.00     0.014 A 
ATOM     44  C   UNL     1       4.656   0.577  11.761  1.00  0.00     0.010 A 
ATOM     45  C   UNL     1       3.121  -0.979  10.726  1.00  0.00     0.010 A 
ATOM     46  C   UNL     1       3.437  -0.118  11.788  1.00  0.00    -0.014 A 
BRANCH  46  47
ATOM     47  C   UNL     1       2.479   0.048  12.912  1.00  0.00     0.031 A 
ATOM     48  C   UNL     1       2.157  -1.112  13.814  1.00  0.00     0.074 A 
ATOM     49  C   UNL     1       1.851   1.228  13.082  1.00  0.00     0.049 A 
ATOM     50  N   UNL     1       1.306  -1.177  14.806  1.00  0.00    -0.248 NA
ATOM     51  C   UNL     1       2.869  -2.373  13.552  1.00  0.00     0.031 C 
ATOM     52  C   UNL     1       2.045   2.418  12.249  1.00  0.00     0.029 A 
ATOM     53  N   UNL     1       0.915   1.621  14.006  1.00  0.00    -0.354 N 
ATOM     54  C   UNL     1       1.364  -2.485  15.273  1.00  0.00     0.074 A 
ATOM     55  C   UNL     1       2.302  -3.191  14.427  1.00  0.00     0.031 C 
ATOM     56  C   UNL     1       1.274   3.412  12.716  1.00  0.00     0.029 A 
ATOM     57  C   UNL     1       0.503   2.924  13.856  1.00  0.00     0.049 A 
ATOM     58  H   UNL     1       0.571   1.026  14.710  1.00  0.00     0.167 HD
ATOM     59  C   UNL     1       0.712  -3.041  16.322  1.00  0.00     0.037 A 
ATOM     60  C   UNL     1      -0.396   3.644  14.555  1.00  0.00     0.037 A 
ATOM     61  C   UNL     1      -0.200  -2.327  17.177  1.00  0.00     0.049 A 
ATOM     62  C   UNL     1      -1.111   3.004  15.713  1.00  0.00     0.074 A 
ATOM     63  C   UNL     1      -0.860  -2.784  18.305  1.00  0.00     0.029 A 
ATOM     64  N   UNL     1      -0.585  -1.006  16.998  1.00  0.00    -0.354 N 
ATOM     65  N   UNL     1      -0.995   1.784  16.180  1.00  0.00    -0.248 NA
ATOM     66  C   UNL     1      -2.077   3.839  16.441  1.00  0.00     0.031 C 
ATOM     67  C   UNL     1      -1.674  -1.751  18.785  1.00  0.00     0.029 A 
ATOM     68  C   UNL     1      -1.489  -0.637  17.981  1.00  0.00     0.049 A 
ATOM     69  H   UNL     1      -0.263  -0.417  16.278  1.00  0.00     0.167 HD
ATOM     70  C   UNL     1      -1.850   1.713  17.274  1.00  0.00     0.074 A 
ATOM     71  C   UNL     1      -2.472   3.015  17.402  1.00  0.00     0.031 C 
ATOM     72  C   UNL     1      -2.095   0.666  18.100  1.00  0.00     0.037 A 
BRANCH  59  73
ATOM     73  C   UNL     1       0.963  -4.499  16.599  1.00  0.00     0.058 A 
ATOM     74  C   UNL     1       2.192  -4.953  17.103  1.00  0.00     0.135 A 
ATOM     75  C   UNL     1      -0.041  -5.453  16.367  1.00  0.00     0.135 A 
ATOM     76  F   UNL     1       3.191  -4.085  17.331  1.00  0.00    -0.206 F 
ATOM     77  C   UNL     1       2.433  -6.304  17.328  1.00  0.00     0.059 A 
ATOM     78  C   UNL     1       0.168  -6.808  16.611  1.00  0.00     0.059 A 
ATOM     79  F   UNL     1      -1.237  -5.074  15.889  1.00  0.00    -0.206 F 
ATOM     80  C   UNL     1       1.416  -7.225  17.072  1.00  0.00     0.060 A 
BRANCH  80  81
ATOM     81  S   UNL     1       1.748  -8.979  17.346  1.00  0.00     0.124 S 
ATOM     82  O   UNL     1       2.577  -9.300  16.188  1.00  0.00    -0.237 OA
ATOM     83  O   UNL     1       2.435  -8.971  18.633  1.00  0.00    -0.237 OA
ATOM     84  O   UNL     1       0.418  -9.579  17.352  1.00  0.00    -0.744 OA
ENDBRANCH  80  81
ENDBRANCH  59  73
BRANCH  60  85
ATOM     85  C   UNL     1      -0.644   5.066  14.200  1.00  0.00     0.058 A 
ATOM     86  C   UNL     1      -0.183   6.101  15.028  1.00  0.00     0.135 A 
ATOM     87  C   UNL     1      -1.325   5.422  13.026  1.00  0.00     0.135 A 
ATOM     88  F   UNL     1       0.467   5.809  16.165  1.00  0.00    -0.206 F 
ATOM     89  C   UNL     1      -0.398   7.438  14.713  1.00  0.00     0.059 A 
ATOM     90  C   UNL     1      -1.533   6.753  12.677  1.00  0.00     0.059 A 
ATOM     91  F   UNL     1      -1.772   4.469  12.193  1.00  0.00    -0.206 F 
ATOM     92  C   UNL     1      -1.072   7.754  13.532  1.00  0.00     0.060 A 
BRANCH  92  93
ATOM     93  S   UNL     1      -1.296   9.494  13.102  1.00  0.00     0.124 S 
ATOM     94  O   UNL     1      -2.347   9.893  14.030  1.00  0.00    -0.237 OA
ATOM     95  O   UNL     1       0.030  10.047  13.362  1.00  0.00    -0.237 OA
ATOM     96  O   UNL     1      -1.679   9.444  11.694  1.00  0.00    -0.744 OA
ENDBRANCH  92  93
ENDBRANCH  60  85
BRANCH  72  97
ATOM     97  C   UNL     1      -3.051   0.892  19.237  1.00  0.00     0.058 A 
ATOM     98  C   UNL     1      -4.436   0.988  19.029  1.00  0.00     0.135 A 
ATOM     99  C   UNL     1      -2.579   0.969  20.558  1.00  0.00     0.135 A 
ATOM    100  F   UNL     1      -4.938   0.929  17.785  1.00  0.00    -0.206 F 
ATOM    101  C   UNL     1      -5.318   1.173  20.089  1.00  0.00     0.059 A 
ATOM    102  C   UNL     1      -3.445   1.129  21.634  1.00  0.00     0.059 A 
ATOM    103  F   UNL     1      -1.264   0.874  20.812  1.00  0.00    -0.206 F 
ATOM    104  C   UNL     1      -4.813   1.242  21.389  1.00  0.00     0.060 A 
BRANCH 104 105
ATOM    105  S   UNL     1      -5.970   1.447  22.760  1.00  0.00     0.124 S 
ATOM    106  O   UNL     1      -6.312   2.861  22.645  1.00  0.00    -0.237 OA
ATOM    107  O   UNL     1      -7.033   0.508  22.417  1.00  0.00    -0.237 OA
ATOM    108  O   UNL     1      -5.176   1.085  23.930  1.00  0.00    -0.744 OA
ENDBRANCH 104 105
ENDBRANCH  72  97
ENDBRANCH  46  47
ENDBRANCH  38  41
ENDBRANCH  36  37
ENDBRANCH  35  36
ENDBRANCH  34  35
ENDBRANCH  33  34
ENDBRANCH   1  33
TORSDOF 21
