REMARK SMILES COC(=O)[C@H]1CN(C(=O)[C@@H]2CC=CC[C@@H]2C(=O)NCCCCCCNC(=O)c2ccc(-c3c4nc(c(-c5c(F)cc(S(=O)(=O)[O-])cc5F)c5ccc([nH]5)c(-c5c(F)cc(S(=O)(=O)[O-])cc5F)c5nc(c(-c6c(F)cc(S(=O)(=O)[O-])cc6F)c6ccc3[nH]6)C=C5)C=C4)cc2)C[C@H]1C
REMARK SMILES IDX 21 1 20 2 19 3 18 4 16 5 17 6 15 8 10 9 11 10 12 11 14 12
REMARK SMILES IDX 13 13 8 14 9 15 7 16 5 17 6 18 95 19 94 20 96 21 3 22 4 23
REMARK SMILES IDX 2 24 1 25 22 26 23 27 24 28 25 29 26 30 27 32 28 33 29 34
REMARK SMILES IDX 93 35 30 36 92 37 31 38 32 39 33 40 86 41 34 42 91 43 85 44
REMARK SMILES IDX 87 45 35 46 90 47 84 48 83 49 36 51 70 52 49 53 69 54 50 55
REMARK SMILES IDX 53 56 68 57 88 58 51 59 52 60 67 62 89 63 54 64 37 65 38 66
REMARK SMILES IDX 47 67 39 68 40 69 46 70 48 71 41 72 42 73 43 74 44 75 45 76
REMARK SMILES IDX 71 77 72 78 81 79 73 80 74 81 80 82 82 83 75 84 76 85 77 86
REMARK SMILES IDX 78 87 79 88 55 89 56 90 65 91 57 92 58 93 64 94 66 95 59 96
REMARK SMILES IDX 60 97 61 98 62 99 63 100
REMARK H PARENT 18 7 25 31 87 50 53 61
REMARK Flexibility Score: inf
ROOT
ATOM      1  C   UNL     1      -2.717  -4.732  11.611  1.00  0.00     0.002 C 
ENDROOT
BRANCH   1   2
ATOM      2  C   UNL     1      -2.619  -5.004  10.105  1.00  0.00     0.021 C 
BRANCH   2   3
ATOM      3  C   UNL     1      -2.934  -3.812   9.203  1.00  0.00     0.116 C 
BRANCH   3   4
ATOM      4  N   UNL     1      -2.180  -2.618   9.559  1.00  0.00    -0.356 N 
ATOM      5  C   UNL     1      -1.095  -2.013   9.003  1.00  0.00     0.224 C 
ATOM      6  O   UNL     1      -0.674  -0.996   9.563  1.00  0.00    -0.275 OA
ATOM      7  H   UNL     1      -2.523  -2.159  10.359  1.00  0.00     0.163 HD
BRANCH   5   8
ATOM      8  C   UNL     1      -0.444  -2.557   7.743  1.00  0.00     0.095 C 
ATOM      9  C   UNL     1       0.793  -3.469   7.920  1.00  0.00     0.095 C 
ATOM     10  C   UNL     1       2.187  -2.816   7.917  1.00  0.00     0.041 C 
ATOM     11  C   UNL     1       2.251  -1.419   7.398  1.00  0.00    -0.030 C 
ATOM     12  C   UNL     1      -0.170  -1.366   6.794  1.00  0.00     0.041 C 
ATOM     13  C   UNL     1       1.200  -0.769   6.890  1.00  0.00    -0.030 C 
BRANCH   9  14
ATOM     14  C   UNL     1       0.727  -4.582   8.972  1.00  0.00     0.226 C 
ATOM     15  O   UNL     1       0.500  -5.734   8.582  1.00  0.00    -0.275 OA
BRANCH  14  16
ATOM     16  N   UNL     1       0.971  -4.340  10.309  1.00  0.00    -0.341 N 
ATOM     17  C   UNL     1       1.515  -4.866  12.585  1.00  0.00     0.123 C 
ATOM     18  C   UNL     1       1.001  -5.441  11.261  1.00  0.00     0.135 C 
ATOM     19  C   UNL     1       1.564  -3.332  12.384  1.00  0.00     0.021 C 
ATOM     20  C   UNL     1       0.944  -3.083  11.014  1.00  0.00     0.123 C 
ATOM     21  C   UNL     1       0.858  -2.454  13.417  1.00  0.00     0.010 C 
BRANCH  17  22
ATOM     22  C   UNL     1       0.701  -5.353  13.770  1.00  0.00     0.310 C 
ATOM     23  O   UNL     1      -0.301  -6.046  13.713  1.00  0.00    -0.252 OA
BRANCH  22  24
ATOM     24  O   UNL     1       1.256  -4.900  14.932  1.00  0.00    -0.469 OA
ATOM     25  C   UNL     1       0.451  -5.130  16.090  1.00  0.00     0.282 C 
ENDBRANCH  22  24
ENDBRANCH  17  22
ENDBRANCH  14  16
ENDBRANCH   9  14
ENDBRANCH   5   8
ENDBRANCH   3   4
ENDBRANCH   2   3
ENDBRANCH   1   2
BRANCH   1  26
ATOM     26  C   UNL     1      -4.134  -4.723  12.180  1.00  0.00     0.002 C 
BRANCH  26  27
ATOM     27  C   UNL     1      -4.906  -6.031  11.991  1.00  0.00     0.021 C 
BRANCH  27  28
ATOM     28  C   UNL     1      -4.188  -7.283  12.490  1.00  0.00     0.116 C 
BRANCH  28  29
ATOM     29  N   UNL     1      -4.108  -7.330  13.943  1.00  0.00    -0.352 N 
ATOM     30  C   UNL     1      -4.675  -8.245  14.799  1.00  0.00     0.251 C 
ATOM     31  H   UNL     1      -3.581  -6.614  14.367  1.00  0.00     0.163 HD
ATOM     32  O   UNL     1      -4.708  -8.040  16.008  1.00  0.00    -0.269 OA
BRANCH  30  33
ATOM     33  C   UNL     1      -5.260  -9.480  14.233  1.00  0.00     0.039 A 
ATOM     34  C   UNL     1      -6.562  -9.846  14.575  1.00  0.00     0.014 A 
ATOM     35  C   UNL     1      -4.525 -10.247  13.324  1.00  0.00     0.014 A 
ATOM     36  C   UNL     1      -7.153 -10.947  13.950  1.00  0.00     0.010 A 
ATOM     37  C   UNL     1      -5.143 -11.293  12.645  1.00  0.00     0.010 A 
ATOM     38  C   UNL     1      -6.463 -11.657  12.952  1.00  0.00    -0.014 A 
BRANCH  38  39
ATOM     39  C   UNL     1      -7.104 -12.781  12.217  1.00  0.00     0.031 A 
ATOM     40  C   UNL     1      -6.530 -14.170  12.312  1.00  0.00     0.074 A 
ATOM     41  C   UNL     1      -8.161 -12.541  11.415  1.00  0.00     0.049 A 
ATOM     42  N   UNL     1      -6.909 -15.264  11.703  1.00  0.00    -0.248 NA
ATOM     43  C   UNL     1      -5.360 -14.348  13.187  1.00  0.00     0.031 C 
ATOM     44  C   UNL     1      -8.778 -11.230  11.198  1.00  0.00     0.029 A 
ATOM     45  N   UNL     1      -8.900 -13.387  10.626  1.00  0.00    -0.354 N 
ATOM     46  C   UNL     1      -6.021 -16.253  12.110  1.00  0.00     0.074 A 
ATOM     47  C   UNL     1      -5.049 -15.617  12.972  1.00  0.00     0.031 C 
ATOM     48  C   UNL     1      -9.814 -11.365  10.354  1.00  0.00     0.029 A 
ATOM     49  C   UNL     1      -9.912 -12.760   9.935  1.00  0.00     0.049 A 
ATOM     50  H   UNL     1      -8.723 -14.353  10.560  1.00  0.00     0.167 HD
ATOM     51  C   UNL     1      -6.029 -17.574  11.813  1.00  0.00     0.037 A 
ATOM     52  C   UNL     1     -10.809 -13.249   9.057  1.00  0.00     0.037 A 
ATOM     53  C   UNL     1      -7.011 -18.203  10.969  1.00  0.00     0.049 A 
ATOM     54  C   UNL     1     -10.791 -14.720   8.733  1.00  0.00     0.074 A 
ATOM     55  C   UNL     1      -7.141 -19.544  10.653  1.00  0.00     0.029 A 
ATOM     56  N   UNL     1      -8.028 -17.536  10.300  1.00  0.00    -0.354 N 
ATOM     57  N   UNL     1      -9.987 -15.653   9.184  1.00  0.00    -0.248 NA
ATOM     58  C   UNL     1     -11.804 -15.206   7.786  1.00  0.00     0.031 C 
ATOM     59  C   UNL     1      -8.199 -19.681   9.750  1.00  0.00     0.029 A 
ATOM     60  C   UNL     1      -8.771 -18.434   9.552  1.00  0.00     0.049 A 
ATOM     61  H   UNL     1      -8.196 -16.567  10.350  1.00  0.00     0.167 HD
ATOM     62  C   UNL     1     -10.417 -16.841   8.601  1.00  0.00     0.074 A 
ATOM     63  C   UNL     1     -11.559 -16.509   7.774  1.00  0.00     0.031 C 
ATOM     64  C   UNL     1      -9.913 -18.092   8.739  1.00  0.00     0.037 A 
BRANCH  51  65
ATOM     65  C   UNL     1      -4.943 -18.432  12.407  1.00  0.00     0.058 A 
ATOM     66  C   UNL     1      -4.886 -18.705  13.784  1.00  0.00     0.135 A 
ATOM     67  C   UNL     1      -3.971 -19.024  11.585  1.00  0.00     0.135 A 
ATOM     68  F   UNL     1      -5.781 -18.155  14.621  1.00  0.00    -0.206 F 
ATOM     69  C   UNL     1      -3.889 -19.508  14.327  1.00  0.00     0.059 A 
ATOM     70  C   UNL     1      -2.983 -19.858  12.102  1.00  0.00     0.059 A 
ATOM     71  F   UNL     1      -3.976 -18.799  10.261  1.00  0.00    -0.206 F 
ATOM     72  C   UNL     1      -2.942 -20.082  13.477  1.00  0.00     0.060 A 
BRANCH  72  73
ATOM     73  S   UNL     1      -1.663 -21.132  14.198  1.00  0.00     0.124 S 
ATOM     74  O   UNL     1      -0.838 -20.150  14.894  1.00  0.00    -0.237 OA
ATOM     75  O   UNL     1      -2.439 -22.026  15.052  1.00  0.00    -0.237 OA
ATOM     76  O   UNL     1      -1.043 -21.761  13.036  1.00  0.00    -0.744 OA
ENDBRANCH  72  73
ENDBRANCH  51  65
BRANCH  52  77
ATOM     77  C   UNL     1     -11.813 -12.343   8.433  1.00  0.00     0.058 A 
ATOM     78  C   UNL     1     -13.176 -12.443   8.752  1.00  0.00     0.135 A 
ATOM     79  C   UNL     1     -11.430 -11.353   7.514  1.00  0.00     0.135 A 
ATOM     80  F   UNL     1     -13.595 -13.377   9.619  1.00  0.00    -0.206 F 
ATOM     81  C   UNL     1     -14.125 -11.609   8.169  1.00  0.00     0.059 A 
ATOM     82  C   UNL     1     -12.357 -10.488   6.940  1.00  0.00     0.059 A 
ATOM     83  F   UNL     1     -10.137 -11.204   7.185  1.00  0.00    -0.206 F 
ATOM     84  C   UNL     1     -13.704 -10.631   7.266  1.00  0.00     0.060 A 
BRANCH  84  85
ATOM     85  S   UNL     1     -14.939  -9.524   6.551  1.00  0.00     0.124 S 
ATOM     86  O   UNL     1     -15.647 -10.418   5.643  1.00  0.00    -0.237 OA
ATOM     87  O   UNL     1     -15.682  -9.093   7.732  1.00  0.00    -0.237 OA
ATOM     88  O   UNL     1     -14.132  -8.486   5.916  1.00  0.00    -0.744 OA
ENDBRANCH  84  85
ENDBRANCH  52  77
BRANCH  64  89
ATOM     89  C   UNL     1     -10.613 -19.210   8.014  1.00  0.00     0.058 A 
ATOM     90  C   UNL     1     -10.544 -19.348   6.619  1.00  0.00     0.135 A 
ATOM     91  C   UNL     1     -11.316 -20.191   8.735  1.00  0.00     0.135 A 
ATOM     92  F   UNL     1      -9.892 -18.437   5.881  1.00  0.00    -0.206 F 
ATOM     93  C   UNL     1     -11.166 -20.406   5.962  1.00  0.00     0.059 A 
ATOM     94  C   UNL     1     -11.917 -21.273   8.102  1.00  0.00     0.059 A 
ATOM     95  F   UNL     1     -11.405 -20.113  10.072  1.00  0.00    -0.206 F 
ATOM     96  C   UNL     1     -11.847 -21.366   6.713  1.00  0.00     0.060 A 
BRANCH  96  97
ATOM     97  S   UNL     1     -12.616 -22.753   5.850  1.00  0.00     0.124 S 
ATOM     98  O   UNL     1     -13.751 -22.103   5.202  1.00  0.00    -0.237 OA
ATOM     99  O   UNL     1     -11.548 -23.198   4.961  1.00  0.00    -0.237 OA
ATOM    100  O   UNL     1     -12.955 -23.679   6.927  1.00  0.00    -0.744 OA
ENDBRANCH  96  97
ENDBRANCH  64  89
ENDBRANCH  38  39
ENDBRANCH  30  33
ENDBRANCH  28  29
ENDBRANCH  27  28
ENDBRANCH  26  27
ENDBRANCH   1  26
TORSDOF 20
