REMARK SMILES O=C(NCCCCCCNC(=O)c1cc(-c2ccccc2)nc(Nc2nc3ccccc3s2)n1)c1ccc(-c2c3nc(c(-c4c(F)cc(S(=O)(=O)[O-])cc4F)c4ccc([nH]4)c(-c4c(F)cc(S(=O)(=O)[O-])cc4F)c4nc(c(-c5c(F)cc(S(=O)(=O)[O-])cc5F)c5ccc2[nH]5)C=C4)C=C3)cc1
REMARK SMILES IDX 6 1 5 2 4 3 3 4 1 5 2 6 35 8 36 9 100 10 37 11 99 12 38 13
REMARK SMILES IDX 39 14 40 15 93 16 41 17 98 18 92 19 94 20 42 21 97 22 91 23
REMARK SMILES IDX 90 24 43 26 77 27 56 28 76 29 57 30 60 31 75 32 95 33 58 34
REMARK SMILES IDX 59 35 74 37 96 38 61 39 44 40 45 41 54 42 46 43 47 44 53 45
REMARK SMILES IDX 55 46 48 47 49 48 50 49 51 50 52 51 78 52 79 53 88 54 80 55
REMARK SMILES IDX 81 56 87 57 89 58 82 59 83 60 84 61 85 62 86 63 62 64 63 65
REMARK SMILES IDX 72 66 64 67 65 68 71 69 73 70 66 71 67 72 68 73 69 74 70 75
REMARK SMILES IDX 7 76 8 77 9 78 10 79 11 80 12 82 13 83 14 84 34 85 15 86
REMARK SMILES IDX 23 87 22 88 16 89 17 90 21 91 18 92 20 93 19 94 24 95 25 97
REMARK SMILES IDX 26 98 33 99 27 100 32 101 28 102 31 103 29 104 30 105
REMARK H PARENT 3 7 94 25 60 36 10 81 24 96
REMARK Flexibility Score: inf
ROOT
ATOM      1  C   UNL     1       4.134   1.752  -3.509  1.00  0.00     0.002 C 
ENDROOT
BRANCH   1   2
ATOM      2  C   UNL     1       4.591   0.544  -2.694  1.00  0.00     0.021 C 
BRANCH   2   3
ATOM      3  C   UNL     1       4.372   0.652  -1.192  1.00  0.00     0.116 C 
BRANCH   3   4
ATOM      4  N   UNL     1       2.968   0.681  -0.821  1.00  0.00    -0.352 N 
ATOM      5  O   UNL     1       1.100  -0.001   0.246  1.00  0.00    -0.269 OA
ATOM      6  C   UNL     1       2.317  -0.054   0.147  1.00  0.00     0.251 C 
ATOM      7  H   UNL     1       2.406   1.310  -1.328  1.00  0.00     0.163 HD
BRANCH   6   8
ATOM      8  C   UNL     1       3.106  -0.933   1.043  1.00  0.00     0.039 A 
ATOM      9  C   UNL     1       4.292  -0.477   1.619  1.00  0.00     0.014 A 
ATOM     10  C   UNL     1       2.660  -2.235   1.296  1.00  0.00     0.014 A 
ATOM     11  C   UNL     1       5.106  -1.363   2.313  1.00  0.00     0.010 A 
ATOM     12  C   UNL     1       3.437  -3.098   2.078  1.00  0.00     0.010 A 
ATOM     13  C   UNL     1       4.682  -2.678   2.569  1.00  0.00    -0.014 A 
BRANCH  13  14
ATOM     14  C   UNL     1       5.538  -3.548   3.417  1.00  0.00     0.031 A 
ATOM     15  C   UNL     1       6.186  -4.793   2.876  1.00  0.00     0.074 A 
ATOM     16  C   UNL     1       5.782  -3.153   4.684  1.00  0.00     0.049 A 
ATOM     17  N   UNL     1       7.023  -5.606   3.470  1.00  0.00    -0.248 NA
ATOM     18  C   UNL     1       5.850  -5.185   1.499  1.00  0.00     0.031 C 
ATOM     19  C   UNL     1       5.181  -1.979   5.327  1.00  0.00     0.029 A 
ATOM     20  N   UNL     1       6.615  -3.663   5.644  1.00  0.00    -0.354 N 
ATOM     21  C   UNL     1       7.309  -6.606   2.549  1.00  0.00     0.074 A 
ATOM     22  C   UNL     1       6.532  -6.315   1.362  1.00  0.00     0.031 C 
ATOM     23  C   UNL     1       5.711  -1.825   6.547  1.00  0.00     0.029 A 
ATOM     24  C   UNL     1       6.643  -2.917   6.798  1.00  0.00     0.049 A 
ATOM     25  H   UNL     1       7.144  -4.484   5.519  1.00  0.00     0.167 HD
ATOM     26  C   UNL     1       8.150  -7.662   2.679  1.00  0.00     0.037 A 
ATOM     27  C   UNL     1       7.334  -3.093   7.939  1.00  0.00     0.037 A 
ATOM     28  C   UNL     1       8.925  -7.939   3.864  1.00  0.00     0.049 A 
ATOM     29  C   UNL     1       8.271  -4.259   8.047  1.00  0.00     0.074 A 
ATOM     30  C   UNL     1       9.808  -8.982   4.092  1.00  0.00     0.029 A 
ATOM     31  N   UNL     1       8.916  -7.169   5.018  1.00  0.00    -0.354 N 
ATOM     32  N   UNL     1       8.536  -5.185   7.157  1.00  0.00    -0.248 NA
ATOM     33  C   UNL     1       9.002  -4.407   9.312  1.00  0.00     0.031 C 
ATOM     34  C   UNL     1      10.310  -8.858   5.393  1.00  0.00     0.029 A 
ATOM     35  C   UNL     1       9.771  -7.717   5.962  1.00  0.00     0.049 A 
ATOM     36  H   UNL     1       8.381  -6.353   5.147  1.00  0.00     0.167 HD
ATOM     37  C   UNL     1       9.462  -6.030   7.756  1.00  0.00     0.074 A 
ATOM     38  C   UNL     1       9.739  -5.482   9.069  1.00  0.00     0.031 C 
ATOM     39  C   UNL     1      10.022  -7.165   7.269  1.00  0.00     0.037 A 
BRANCH  26  40
ATOM     40  C   UNL     1       8.283  -8.603   1.512  1.00  0.00     0.058 A 
ATOM     41  C   UNL     1       8.994  -8.242   0.357  1.00  0.00     0.135 A 
ATOM     42  C   UNL     1       7.754  -9.902   1.574  1.00  0.00     0.135 A 
ATOM     43  F   UNL     1       9.509  -7.007   0.238  1.00  0.00    -0.206 F 
ATOM     44  C   UNL     1       9.164  -9.130  -0.701  1.00  0.00     0.059 A 
ATOM     45  C   UNL     1       7.930 -10.815   0.536  1.00  0.00     0.059 A 
ATOM     46  F   UNL     1       7.066 -10.300   2.655  1.00  0.00    -0.206 F 
ATOM     47  C   UNL     1       8.629 -10.415  -0.601  1.00  0.00     0.060 A 
BRANCH  47  48
ATOM     48  S   UNL     1       8.879 -11.562  -1.974  1.00  0.00     0.124 S 
ATOM     49  O   UNL     1       7.961 -11.023  -2.973  1.00  0.00    -0.237 OA
ATOM     50  O   UNL     1      10.299 -11.396  -2.267  1.00  0.00    -0.237 OA
ATOM     51  O   UNL     1       8.504 -12.855  -1.411  1.00  0.00    -0.744 OA
ENDBRANCH  47  48
ENDBRANCH  26  40
BRANCH  27  52
ATOM     52  C   UNL     1       7.147  -2.145   9.067  1.00  0.00     0.058 A 
ATOM     53  C   UNL     1       8.160  -1.253   9.446  1.00  0.00     0.135 A 
ATOM     54  C   UNL     1       5.934  -2.098   9.773  1.00  0.00     0.135 A 
ATOM     55  F   UNL     1       9.337  -1.261   8.802  1.00  0.00    -0.206 F 
ATOM     56  C   UNL     1       7.985  -0.359  10.497  1.00  0.00     0.059 A 
ATOM     57  C   UNL     1       5.725  -1.195  10.807  1.00  0.00     0.059 A 
ATOM     58  F   UNL     1       4.926  -2.917   9.432  1.00  0.00    -0.206 F 
ATOM     59  C   UNL     1       6.762  -0.338  11.172  1.00  0.00     0.060 A 
BRANCH  59  60
ATOM     60  S   UNL     1       6.520   0.855  12.505  1.00  0.00     0.124 S 
ATOM     61  O   UNL     1       7.225   0.209  13.605  1.00  0.00    -0.237 OA
ATOM     62  O   UNL     1       7.145   2.058  11.963  1.00  0.00    -0.237 OA
ATOM     63  O   UNL     1       5.067   0.919  12.633  1.00  0.00    -0.744 OA
ENDBRANCH  59  60
ENDBRANCH  27  52
BRANCH  39  64
ATOM     64  C   UNL     1      10.989  -7.878   8.171  1.00  0.00     0.058 A 
ATOM     65  C   UNL     1      10.547  -8.596   9.293  1.00  0.00     0.135 A 
ATOM     66  C   UNL     1      12.367  -7.841   7.913  1.00  0.00     0.135 A 
ATOM     67  F   UNL     1       9.238  -8.655   9.586  1.00  0.00    -0.206 F 
ATOM     68  C   UNL     1      11.443  -9.221  10.153  1.00  0.00     0.059 A 
ATOM     69  C   UNL     1      13.280  -8.480   8.746  1.00  0.00     0.059 A 
ATOM     70  F   UNL     1      12.839  -7.176   6.847  1.00  0.00    -0.206 F 
ATOM     71  C   UNL     1      12.809  -9.151   9.875  1.00  0.00     0.060 A 
BRANCH  71  72
ATOM     72  S   UNL     1      13.967  -9.959  10.999  1.00  0.00     0.124 S 
ATOM     73  O   UNL     1      14.011  -9.009  12.106  1.00  0.00    -0.237 OA
ATOM     74  O   UNL     1      13.302 -11.228  11.279  1.00  0.00    -0.237 OA
ATOM     75  O   UNL     1      15.190 -10.062  10.209  1.00  0.00    -0.744 OA
ENDBRANCH  71  72
ENDBRANCH  39  64
ENDBRANCH  13  14
ENDBRANCH   6   8
ENDBRANCH   3   4
ENDBRANCH   2   3
ENDBRANCH   1   2
BRANCH   1  76
ATOM     76  C   UNL     1       4.702   3.106  -3.077  1.00  0.00     0.002 C 
BRANCH  76  77
ATOM     77  C   UNL     1       6.227   3.191  -2.950  1.00  0.00     0.021 C 
BRANCH  77  78
ATOM     78  C   UNL     1       7.021   2.704  -4.158  1.00  0.00     0.116 C 
BRANCH  78  79
ATOM     79  N   UNL     1       6.662   3.396  -5.383  1.00  0.00    -0.351 N 
ATOM     80  C   UNL     1       7.490   3.968  -6.320  1.00  0.00     0.270 C 
ATOM     81  H   UNL     1       5.697   3.465  -5.567  1.00  0.00     0.163 HD
ATOM     82  O   UNL     1       7.013   4.539  -7.297  1.00  0.00    -0.268 OA
BRANCH  80  83
ATOM     83  C   UNL     1       8.958   3.862  -6.148  1.00  0.00     0.134 A 
ATOM     84  C   UNL     1       9.562   2.636  -6.141  1.00  0.00     0.063 A 
ATOM     85  N   UNL     1       9.609   5.016  -5.970  1.00  0.00    -0.207 NA
ATOM     86  C   UNL     1      10.913   2.652  -5.880  1.00  0.00     0.077 A 
ATOM     87  C   UNL     1      10.923   4.961  -5.745  1.00  0.00     0.230 A 
ATOM     88  N   UNL     1      11.605   3.803  -5.693  1.00  0.00    -0.213 NA
BRANCH  86  89
ATOM     89  C   UNL     1      11.639   1.386  -5.709  1.00  0.00     0.000 A 
ATOM     90  C   UNL     1      12.386   1.137  -4.546  1.00  0.00     0.010 A 
ATOM     91  C   UNL     1      11.516   0.346  -6.649  1.00  0.00     0.010 A 
ATOM     92  C   UNL     1      12.951  -0.120  -4.311  1.00  0.00     0.001 A 
ATOM     93  C   UNL     1      12.084  -0.908  -6.418  1.00  0.00     0.001 A 
ATOM     94  C   UNL     1      12.793  -1.143  -5.243  1.00  0.00     0.000 A 
ENDBRANCH  86  89
BRANCH  87  95
ATOM     95  N   UNL     1      11.649   6.144  -5.638  1.00  0.00    -0.300 N 
ATOM     96  H   UNL     1      12.629   6.090  -5.567  1.00  0.00     0.172 HD
BRANCH  95  97
ATOM     97  C   UNL     1      11.069   7.362  -5.627  1.00  0.00     0.190 A 
ATOM     98  N   UNL     1       9.911   7.641  -5.073  1.00  0.00    -0.220 NA
ATOM     99  S   UNL     1      11.825   8.715  -6.388  1.00  0.00    -0.097 S 
ATOM    100  C   UNL     1       9.477   8.895  -5.436  1.00  0.00     0.084 A 
ATOM    101  C   UNL     1      10.381   9.639  -6.191  1.00  0.00     0.056 A 
ATOM    102  C   UNL     1       8.218   9.446  -5.129  1.00  0.00     0.030 A 
ATOM    103  C   UNL     1      10.059  10.921  -6.668  1.00  0.00     0.021 A 
ATOM    104  C   UNL     1       7.881  10.713  -5.609  1.00  0.00     0.002 A 
ATOM    105  C   UNL     1       8.790  11.438  -6.373  1.00  0.00     0.002 A 
ENDBRANCH  95  97
ENDBRANCH  87  95
ENDBRANCH  80  83
ENDBRANCH  78  79
ENDBRANCH  77  78
ENDBRANCH  76  77
ENDBRANCH   1  76
TORSDOF 19
