REMARK SMILES C[NH2+][C@](C)(C(=O)NCCCCCCNC(=O)c1ccc(-c2c3nc(c(-c4c(F)cc(S(=O)(=O)[O-])cc4F)c4ccc([nH]4)c(-c4c(F)cc(S(=O)(=O)[O-])cc4F)c4nc(c(-c5c(F)cc(S(=O)(=O)[O-])cc5F)c5ccc2[nH]5)C=C4)C=C3)cc1)c1cccc(Cl)c1
REMARK SMILES IDX 11 1 10 2 9 3 8 4 7 5 5 6 6 7 3 9 4 10 2 11 1 12 83 15 84 16
REMARK SMILES IDX 89 17 85 18 87 19 86 20 88 21 12 22 13 23 14 24 15 25 16 27
REMARK SMILES IDX 17 28 18 29 82 30 19 31 81 32 20 33 21 34 22 35 75 36 23 37
REMARK SMILES IDX 80 38 74 39 76 40 24 41 79 42 73 43 72 44 25 46 59 47 38 48
REMARK SMILES IDX 58 49 39 50 42 51 57 52 77 53 40 54 41 55 56 57 78 58 43 59
REMARK SMILES IDX 26 60 27 61 36 62 28 63 29 64 35 65 37 66 30 67 31 68 32 69
REMARK SMILES IDX 33 70 34 71 60 72 61 73 70 74 62 75 63 76 69 77 71 78 64 79
REMARK SMILES IDX 65 80 66 81 67 82 68 83 44 84 45 85 54 86 46 87 47 88 53 89
REMARK SMILES IDX 55 90 48 91 49 92 50 93 51 94 52 95
REMARK H PARENT 7 8 2 13 2 14 14 26 76 45 42 56
REMARK Flexibility Score: inf
ROOT
ATOM      1  C   UNL     1      -0.229  -6.113   3.562  1.00  0.00     0.002 C 
ENDROOT
BRANCH   1   2
ATOM      2  C   UNL     1       0.484  -4.829   3.997  1.00  0.00     0.002 C 
BRANCH   2   3
ATOM      3  C   UNL     1       0.892  -3.905   2.846  1.00  0.00     0.021 C 
BRANCH   3   4
ATOM      4  C   UNL     1      -0.281  -3.455   1.975  1.00  0.00     0.116 C 
BRANCH   4   5
ATOM      5  N   UNL     1      -1.096  -2.495   2.691  1.00  0.00    -0.350 N 
ATOM      6  C   UNL     1      -1.284  -1.157   2.480  1.00  0.00     0.285 C 
ATOM      7  O   UNL     1      -1.894  -0.562   3.377  1.00  0.00    -0.267 OA
ATOM      8  H   UNL     1      -1.596  -2.866   3.453  1.00  0.00     0.163 HD
BRANCH   6   9
ATOM      9  C   UNL     1      -0.725  -0.425   1.176  1.00  0.00     0.198 C 
ATOM     10  C   UNL     1       0.812  -0.360   1.367  1.00  0.00     0.096 C 
BRANCH   9  11
ATOM     11  N   UNL     1      -1.173  -1.230   0.005  1.00  0.00    -0.332 N 
ATOM     12  C   UNL     1      -0.270  -1.322  -1.126  1.00  0.00     0.332 C 
ATOM     13  H   UNL     1      -1.348  -2.179   0.334  1.00  0.00     0.347 HD
ATOM     14  H   UNL     1      -1.990  -0.737  -0.354  1.00  0.00     0.347 HD
ENDBRANCH   9  11
BRANCH   9  15
ATOM     15  C   UNL     1      -1.337   1.003   1.068  1.00  0.00     0.023 A 
ATOM     16  C   UNL     1      -0.558   2.152   0.833  1.00  0.00     0.011 A 
ATOM     17  C   UNL     1      -2.727   1.192   1.244  1.00  0.00     0.031 A 
ATOM     18  C   UNL     1      -1.124   3.431   0.850  1.00  0.00     0.002 A 
ATOM     19  C   UNL     1      -3.285   2.472   1.271  1.00  0.00     0.041 A 
ATOM     20  C   UNL     1      -2.486   3.593   1.085  1.00  0.00     0.020 A 
ATOM     21  Cl  UNL     1      -4.970   2.666   1.564  1.00  0.00    -0.084 Cl
ENDBRANCH   9  15
ENDBRANCH   6   9
ENDBRANCH   4   5
ENDBRANCH   3   4
ENDBRANCH   2   3
ENDBRANCH   1   2
BRANCH   1  22
ATOM     22  C   UNL     1       0.516  -6.936   2.508  1.00  0.00     0.021 C 
BRANCH  22  23
ATOM     23  C   UNL     1       1.925  -7.352   2.916  1.00  0.00     0.116 C 
BRANCH  23  24
ATOM     24  N   UNL     1       1.920  -8.188   4.106  1.00  0.00    -0.352 N 
ATOM     25  C   UNL     1       2.410  -9.460   4.275  1.00  0.00     0.251 C 
ATOM     26  H   UNL     1       1.506  -7.785   4.903  1.00  0.00     0.163 HD
ATOM     27  O   UNL     1       2.125 -10.102   5.278  1.00  0.00    -0.269 OA
BRANCH  25  28
ATOM     28  C   UNL     1       3.267 -10.050   3.227  1.00  0.00     0.039 A 
ATOM     29  C   UNL     1       3.006 -11.351   2.790  1.00  0.00     0.014 A 
ATOM     30  C   UNL     1       4.315  -9.313   2.667  1.00  0.00     0.014 A 
ATOM     31  C   UNL     1       3.754 -11.886   1.740  1.00  0.00     0.010 A 
ATOM     32  C   UNL     1       5.010  -9.821   1.574  1.00  0.00     0.010 A 
ATOM     33  C   UNL     1       4.732 -11.111   1.095  1.00  0.00    -0.014 A 
BRANCH  33  34
ATOM     34  C   UNL     1       5.456 -11.617  -0.099  1.00  0.00     0.031 A 
ATOM     35  C   UNL     1       6.946 -11.812  -0.056  1.00  0.00     0.074 A 
ATOM     36  C   UNL     1       4.777 -11.826  -1.245  1.00  0.00     0.049 A 
ATOM     37  N   UNL     1       7.760 -12.159  -1.018  1.00  0.00    -0.248 NA
ATOM     38  C   UNL     1       7.612 -11.561   1.233  1.00  0.00     0.031 C 
ATOM     39  C   UNL     1       3.335 -11.630  -1.421  1.00  0.00     0.029 A 
ATOM     40  N   UNL     1       5.207 -12.234  -2.482  1.00  0.00    -0.354 N 
ATOM     41  C   UNL     1       9.032 -12.159  -0.458  1.00  0.00     0.074 A 
ATOM     42  C   UNL     1       8.888 -11.727   0.915  1.00  0.00     0.031 C 
ATOM     43  C   UNL     1       3.000 -11.935  -2.684  1.00  0.00     0.029 A 
ATOM     44  C   UNL     1       4.205 -12.300  -3.422  1.00  0.00     0.049 A 
ATOM     45  H   UNL     1       6.146 -12.458  -2.679  1.00  0.00     0.167 HD
ATOM     46  C   UNL     1      10.209 -12.507  -1.032  1.00  0.00     0.037 A 
ATOM     47  C   UNL     1       4.252 -12.603  -4.734  1.00  0.00     0.037 A 
ATOM     48  C   UNL     1      10.339 -12.949  -2.397  1.00  0.00     0.049 A 
ATOM     49  C   UNL     1       5.576 -12.958  -5.356  1.00  0.00     0.074 A 
ATOM     50  C   UNL     1      11.478 -13.378  -3.055  1.00  0.00     0.029 A 
ATOM     51  N   UNL     1       9.300 -13.010  -3.315  1.00  0.00    -0.354 N 
ATOM     52  N   UNL     1       6.760 -13.019  -4.794  1.00  0.00    -0.248 NA
ATOM     53  C   UNL     1       5.573 -13.286  -6.788  1.00  0.00     0.031 C 
ATOM     54  C   UNL     1      11.139 -13.642  -4.386  1.00  0.00     0.029 A 
ATOM     55  C   UNL     1       9.778 -13.438  -4.543  1.00  0.00     0.049 A 
ATOM     56  H   UNL     1       8.362 -12.782  -3.122  1.00  0.00     0.167 HD
ATOM     57  C   UNL     1       7.637 -13.416  -5.797  1.00  0.00     0.074 A 
ATOM     58  C   UNL     1       6.845 -13.595  -6.996  1.00  0.00     0.031 C 
ATOM     59  C   UNL     1       8.977 -13.616  -5.729  1.00  0.00     0.037 A 
BRANCH  46  60
ATOM     60  C   UNL     1      11.453 -12.422  -0.188  1.00  0.00     0.058 A 
ATOM     61  C   UNL     1      11.682 -13.302   0.881  1.00  0.00     0.135 A 
ATOM     62  C   UNL     1      12.450 -11.477  -0.481  1.00  0.00     0.135 A 
ATOM     63  F   UNL     1      10.758 -14.217   1.216  1.00  0.00    -0.206 F 
ATOM     64  C   UNL     1      12.841 -13.231   1.648  1.00  0.00     0.059 A 
ATOM     65  C   UNL     1      13.631 -11.408   0.252  1.00  0.00     0.059 A 
ATOM     66  F   UNL     1      12.284 -10.610  -1.492  1.00  0.00    -0.206 F 
ATOM     67  C   UNL     1      13.811 -12.280   1.324  1.00  0.00     0.060 A 
BRANCH  67  68
ATOM     68  S   UNL     1      15.311 -12.207   2.325  1.00  0.00     0.124 S 
ATOM     69  O   UNL     1      14.800 -11.657   3.577  1.00  0.00    -0.237 OA
ATOM     70  O   UNL     1      15.723 -13.607   2.370  1.00  0.00    -0.237 OA
ATOM     71  O   UNL     1      16.187 -11.323   1.563  1.00  0.00    -0.744 OA
ENDBRANCH  67  68
ENDBRANCH  46  60
BRANCH  47  72
ATOM     72  C   UNL     1       3.005 -12.588  -5.546  1.00  0.00     0.058 A 
ATOM     73  C   UNL     1       2.455 -13.776  -6.048  1.00  0.00     0.135 A 
ATOM     74  C   UNL     1       2.330 -11.388  -5.824  1.00  0.00     0.135 A 
ATOM     75  F   UNL     1       3.065 -14.948  -5.816  1.00  0.00    -0.206 F 
ATOM     76  C   UNL     1       1.291 -13.777  -6.811  1.00  0.00     0.059 A 
ATOM     77  C   UNL     1       1.150 -11.366  -6.560  1.00  0.00     0.059 A 
ATOM     78  F   UNL     1       2.805 -10.224  -5.354  1.00  0.00    -0.206 F 
ATOM     79  C   UNL     1       0.643 -12.565  -7.058  1.00  0.00     0.060 A 
BRANCH  79  80
ATOM     80  S   UNL     1      -0.891 -12.582  -8.010  1.00  0.00     0.124 S 
ATOM     81  O   UNL     1      -0.402 -12.885  -9.350  1.00  0.00    -0.237 OA
ATOM     82  O   UNL     1      -1.647 -13.642  -7.350  1.00  0.00    -0.237 OA
ATOM     83  O   UNL     1      -1.419 -11.234  -7.820  1.00  0.00    -0.744 OA
ENDBRANCH  79  80
ENDBRANCH  47  72
BRANCH  59  84
ATOM     84  C   UNL     1       9.676 -14.077  -6.979  1.00  0.00     0.058 A 
ATOM     85  C   UNL     1       9.881 -13.219  -8.070  1.00  0.00     0.135 A 
ATOM     86  C   UNL     1      10.210 -15.375  -7.056  1.00  0.00     0.135 A 
ATOM     87  F   UNL     1       9.384 -11.972  -8.053  1.00  0.00    -0.206 F 
ATOM     88  C   UNL     1      10.577 -13.636  -9.201  1.00  0.00     0.059 A 
ATOM     89  C   UNL     1      10.935 -15.802  -8.163  1.00  0.00     0.059 A 
ATOM     90  F   UNL     1      10.050 -16.233  -6.037  1.00  0.00    -0.206 F 
ATOM     91  C   UNL     1      11.107 -14.927  -9.235  1.00  0.00     0.060 A 
BRANCH  91  92
ATOM     92  S   UNL     1      12.054 -15.434 -10.686  1.00  0.00     0.124 S 
ATOM     93  O   UNL     1      11.005 -15.567 -11.691  1.00  0.00    -0.237 OA
ATOM     94  O   UNL     1      12.968 -14.310 -10.868  1.00  0.00    -0.237 OA
ATOM     95  O   UNL     1      12.682 -16.682 -10.264  1.00  0.00    -0.744 OA
ENDBRANCH  91  92
ENDBRANCH  59  84
ENDBRANCH  33  34
ENDBRANCH  25  28
ENDBRANCH  23  24
ENDBRANCH  22  23
ENDBRANCH   1  22
TORSDOF 18
